MODEL 1
REMARK VINA RESULT:      -9.7      0.000      0.000
REMARK SMILES CNc1ccc2ccc(CN(C)c3cccc(-n4cc(Br)c5c(N)ncnc54)c3)cc2n1
REMARK SMILES IDX 10 1 9 4 3 5 4 6 32 7 5 8 31 10 6 11 30 13 7 14 8 16 2 19
REMARK SMILES IDX 1 21 11 25 12 26 13 30 14 31 29 32 15 33 17 35 16 37 18 40
REMARK SMILES IDX 19 41 28 42 20 43 22 45 27 46 21 47 23 48 26 49 25 50 24 52
REMARK H PARENT 10 2 10 3 4 9 5 12 30 15 7 17 8 18 2 20 1 22 1 23 1 24 12 27
REMARK H PARENT 12 28 12 29 14 34 29 36 15 38 16 39 19 44 26 51 24 53 24 54
REMARK Flexibility Score: inf
ROOT
ATOM      1  C   UNL     1     -46.520  36.033  26.793  1.00  0.00     0.043 C 
ATOM      2  H   UNL     1     -46.451  36.702  25.924  1.00  0.00     0.054 H 
ATOM      3  H   UNL     1     -45.497  35.812  27.122  1.00  0.00     0.054 H 
ENDROOT
BRANCH   1   4
ATOM      4  C   UNL     1     -47.203  34.770  26.313  1.00  0.00    -0.027 A 
ATOM      5  C   UNL     1     -46.901  30.648  23.922  1.00  0.00     0.126 A 
ATOM      6  C   UNL     1     -48.221  30.327  24.219  1.00  0.00    -0.019 A 
ATOM      7  N   UNL     1     -46.335  31.788  24.364  1.00  0.00    -0.231 NA
ATOM      8  C   UNL     1     -48.985  31.211  24.974  1.00  0.00    -0.049 A 
ATOM      9  H   UNL     1     -48.650  29.391  23.878  1.00  0.00     0.066 H 
ATOM     10  C   UNL     1     -47.068  32.649  25.096  1.00  0.00     0.073 A 
ATOM     11  C   UNL     1     -48.412  32.401  25.428  1.00  0.00     0.000 A 
ATOM     12  H   UNL     1     -50.015  30.961  25.207  1.00  0.00     0.063 H 
ATOM     13  C   UNL     1     -46.491  33.828  25.547  1.00  0.00    -0.031 A 
ATOM     14  C   UNL     1     -49.139  33.327  26.197  1.00  0.00    -0.052 A 
ATOM     15  H   UNL     1     -45.451  34.028  25.290  1.00  0.00     0.065 H 
ATOM     16  C   UNL     1     -48.536  34.504  26.638  1.00  0.00    -0.057 A 
ATOM     17  H   UNL     1     -50.177  33.133  26.456  1.00  0.00     0.063 H 
ATOM     18  H   UNL     1     -49.113  35.208  27.233  1.00  0.00     0.063 H 
BRANCH   5  19
ATOM     19  N   UNL     1     -46.151  29.718  23.177  1.00  0.00    -0.373 N 
ATOM     20  H   UNL     1     -46.708  28.880  23.043  1.00  0.00     0.161 HD
BRANCH  19  21
ATOM     21  C   UNL     1     -45.647  30.238  21.917  1.00  0.00     0.005 C 
ATOM     22  H   UNL     1     -45.104  29.442  21.397  1.00  0.00     0.045 H 
ATOM     23  H   UNL     1     -44.943  31.063  22.073  1.00  0.00     0.045 H 
ATOM     24  H   UNL     1     -46.461  30.564  21.259  1.00  0.00     0.045 H 
ENDBRANCH  19  21
ENDBRANCH   5  19
ENDBRANCH   1   4
BRANCH   1  25
ATOM     25  N   UNL     1     -47.281  36.664  27.885  1.00  0.00    -0.370 N 
BRANCH  25  26
ATOM     26  C   UNL     1     -46.825  36.325  29.239  1.00  0.00     0.007 C 
ATOM     27  H   UNL     1     -45.997  36.972  29.551  1.00  0.00     0.046 H 
ATOM     28  H   UNL     1     -46.476  35.287  29.284  1.00  0.00     0.046 H 
ATOM     29  H   UNL     1     -47.633  36.410  29.975  1.00  0.00     0.046 H 
ENDBRANCH  25  26
BRANCH  25  30
ATOM     30  C   UNL     1     -47.514  38.050  27.763  1.00  0.00     0.039 A 
ATOM     31  C   UNL     1     -48.719  38.666  28.108  1.00  0.00    -0.039 A 
ATOM     32  C   UNL     1     -46.478  38.862  27.260  1.00  0.00    -0.015 A 
ATOM     33  C   UNL     1     -48.885  40.042  27.957  1.00  0.00    -0.058 A 
ATOM     34  H   UNL     1     -49.559  38.088  28.484  1.00  0.00     0.064 H 
ATOM     35  C   UNL     1     -46.623  40.254  27.102  1.00  0.00     0.049 A 
ATOM     36  H   UNL     1     -45.541  38.359  27.041  1.00  0.00     0.067 H 
ATOM     37  C   UNL     1     -47.845  40.832  27.457  1.00  0.00    -0.038 A 
ATOM     38  H   UNL     1     -49.831  40.506  28.223  1.00  0.00     0.062 H 
ATOM     39  H   UNL     1     -48.046  41.891  27.346  1.00  0.00     0.064 H 
BRANCH  35  40
ATOM     40  N   UNL     1     -45.537  41.044  26.587  1.00  0.00    -0.300 N 
ATOM     41  C   UNL     1     -45.579  41.774  25.407  1.00  0.00     0.026 A 
ATOM     42  C   UNL     1     -44.265  41.240  27.143  1.00  0.00     0.151 A 
ATOM     43  C   UNL     1     -44.380  42.414  25.237  1.00  0.00     0.049 A 
ATOM     44  H   UNL     1     -46.462  41.808  24.786  1.00  0.00     0.084 H 
ATOM     45  C   UNL     1     -43.534  42.093  26.315  1.00  0.00     0.076 A 
ATOM     46  N   UNL     1     -43.791  40.690  28.280  1.00  0.00    -0.218 NA
ATOM     47  Br  UNL     1     -43.949  43.531  23.791  1.00  0.00    -0.048 Br
ATOM     48  C   UNL     1     -42.225  42.407  26.715  1.00  0.00     0.137 A 
ATOM     49  C   UNL     1     -42.533  41.054  28.555  1.00  0.00     0.120 A 
ATOM     50  N   UNL     1     -41.736  41.866  27.845  1.00  0.00    -0.219 NA
ATOM     51  H   UNL     1     -42.102  40.640  29.462  1.00  0.00     0.106 H 
BRANCH  48  52
ATOM     52  N   UNL     1     -41.371  43.239  26.010  1.00  0.00    -0.383 N 
ATOM     53  H   UNL     1     -41.106  44.094  26.481  1.00  0.00     0.158 HD
ATOM     54  H   UNL     1     -41.647  43.315  25.038  1.00  0.00     0.158 HD
ENDBRANCH  48  52
ENDBRANCH  35  40
ENDBRANCH  25  30
ENDBRANCH   1  25
TORSDOF 8
ENDMDL
MODEL 2
REMARK VINA RESULT:      -9.4      3.043     10.104
REMARK SMILES CNc1ccc2ccc(CN(C)c3cccc(-n4cc(Br)c5c(N)ncnc54)c3)cc2n1
REMARK SMILES IDX 10 1 9 4 3 5 4 6 32 7 5 8 31 10 6 11 30 13 7 14 8 16 2 19
REMARK SMILES IDX 1 21 11 25 12 26 13 30 14 31 29 32 15 33 17 35 16 37 18 40
REMARK SMILES IDX 19 41 28 42 20 43 22 45 27 46 21 47 23 48 26 49 25 50 24 52
REMARK H PARENT 10 2 10 3 4 9 5 12 30 15 7 17 8 18 2 20 1 22 1 23 1 24 12 27
REMARK H PARENT 12 28 12 29 14 34 29 36 15 38 16 39 19 44 26 51 24 53 24 54
REMARK Flexibility Score: inf
ROOT
ATOM      1  C   UNL     1     -46.907  37.553  26.713  1.00  0.00     0.043 C 
ATOM      2  H   UNL     1     -46.424  37.051  25.864  1.00  0.00     0.054 H 
ATOM      3  H   UNL     1     -47.657  38.242  26.306  1.00  0.00     0.054 H 
ENDROOT
BRANCH   1   4
ATOM      4  C   UNL     1     -45.821  38.324  27.433  1.00  0.00    -0.027 A 
ATOM      5  C   UNL     1     -42.613  41.860  27.349  1.00  0.00     0.126 A 
ATOM      6  C   UNL     1     -42.224  41.598  28.659  1.00  0.00    -0.019 A 
ATOM      7  N   UNL     1     -43.580  41.142  26.744  1.00  0.00    -0.231 NA
ATOM      8  C   UNL     1     -42.832  40.559  29.357  1.00  0.00    -0.049 A 
ATOM      9  H   UNL     1     -41.464  42.205  29.138  1.00  0.00     0.066 H 
ATOM     10  C   UNL     1     -44.173  40.136  27.413  1.00  0.00     0.073 A 
ATOM     11  C   UNL     1     -43.827  39.802  28.736  1.00  0.00     0.000 A 
ATOM     12  H   UNL     1     -42.529  40.355  30.379  1.00  0.00     0.063 H 
ATOM     13  C   UNL     1     -45.165  39.390  26.791  1.00  0.00    -0.031 A 
ATOM     14  C   UNL     1     -44.475  38.744  29.397  1.00  0.00    -0.052 A 
ATOM     15  H   UNL     1     -45.435  39.640  25.765  1.00  0.00     0.065 H 
ATOM     16  C   UNL     1     -45.467  38.011  28.749  1.00  0.00    -0.057 A 
ATOM     17  H   UNL     1     -44.209  38.490  30.420  1.00  0.00     0.063 H 
ATOM     18  H   UNL     1     -45.959  37.197  29.277  1.00  0.00     0.063 H 
BRANCH   5  19
ATOM     19  N   UNL     1     -41.994  42.934  26.683  1.00  0.00    -0.373 N 
ATOM     20  H   UNL     1     -41.130  42.604  26.262  1.00  0.00     0.161 HD
BRANCH  19  21
ATOM     21  C   UNL     1     -42.847  43.599  25.712  1.00  0.00     0.005 C 
ATOM     22  H   UNL     1     -43.788  43.046  25.628  1.00  0.00     0.045 H 
ATOM     23  H   UNL     1     -42.389  43.617  24.717  1.00  0.00     0.045 H 
ATOM     24  H   UNL     1     -43.094  44.621  26.025  1.00  0.00     0.045 H 
ENDBRANCH  19  21
ENDBRANCH   5  19
ENDBRANCH   1   4
BRANCH   1  25
ATOM     25  N   UNL     1     -47.546  36.575  27.610  1.00  0.00    -0.370 N 
BRANCH  25  26
ATOM     26  C   UNL     1     -49.007  36.685  27.710  1.00  0.00     0.007 C 
ATOM     27  H   UNL     1     -49.342  36.553  28.745  1.00  0.00     0.046 H 
ATOM     28  H   UNL     1     -49.498  35.921  27.097  1.00  0.00     0.046 H 
ATOM     29  H   UNL     1     -49.370  37.653  27.345  1.00  0.00     0.046 H 
ENDBRANCH  25  26
BRANCH  25  30
ATOM     30  C   UNL     1     -47.150  35.230  27.451  1.00  0.00     0.039 A 
ATOM     31  C   UNL     1     -46.167  34.616  28.230  1.00  0.00    -0.039 A 
ATOM     32  C   UNL     1     -47.774  34.463  26.448  1.00  0.00    -0.015 A 
ATOM     33  C   UNL     1     -45.819  33.283  28.016  1.00  0.00    -0.058 A 
ATOM     34  H   UNL     1     -45.639  35.164  29.006  1.00  0.00     0.064 H 
ATOM     35  C   UNL     1     -47.439  33.115  26.216  1.00  0.00     0.049 A 
ATOM     36  H   UNL     1     -48.562  34.957  25.888  1.00  0.00     0.067 H 
ATOM     37  C   UNL     1     -46.449  32.536  27.016  1.00  0.00    -0.038 A 
ATOM     38  H   UNL     1     -45.046  32.820  28.625  1.00  0.00     0.062 H 
ATOM     39  H   UNL     1     -46.119  31.512  26.889  1.00  0.00     0.064 H 
BRANCH  35  40
ATOM     40  N   UNL     1     -48.104  32.368  25.182  1.00  0.00    -0.300 N 
ATOM     41  C   UNL     1     -49.480  32.227  25.067  1.00  0.00     0.026 A 
ATOM     42  C   UNL     1     -47.530  31.660  24.117  1.00  0.00     0.151 A 
ATOM     43  C   UNL     1     -49.758  31.467  23.962  1.00  0.00     0.049 A 
ATOM     44  H   UNL     1     -50.164  32.694  25.760  1.00  0.00     0.084 H 
ATOM     45  C   UNL     1     -48.548  31.096  23.346  1.00  0.00     0.076 A 
ATOM     46  N   UNL     1     -46.213  31.513  23.865  1.00  0.00    -0.218 NA
ATOM     47  Br  UNL     1     -51.481  31.002  23.378  1.00  0.00    -0.048 Br
ATOM     48  C   UNL     1     -48.161  30.345  22.224  1.00  0.00     0.137 A 
ATOM     49  C   UNL     1     -45.965  30.773  22.778  1.00  0.00     0.120 A 
ATOM     50  N   UNL     1     -46.852  30.187  21.960  1.00  0.00    -0.219 NA
ATOM     51  H   UNL     1     -44.919  30.624  22.528  1.00  0.00     0.106 H 
BRANCH  48  52
ATOM     52  N   UNL     1     -49.045  29.723  21.357  1.00  0.00    -0.383 N 
ATOM     53  H   UNL     1     -49.634  29.012  21.770  1.00  0.00     0.158 HD
ATOM     54  H   UNL     1     -48.601  29.498  20.475  1.00  0.00     0.158 HD
ENDBRANCH  48  52
ENDBRANCH  35  40
ENDBRANCH  25  30
ENDBRANCH   1  25
TORSDOF 8
ENDMDL
MODEL 3
REMARK VINA RESULT:      -9.1      1.955      3.300
REMARK SMILES CNc1ccc2ccc(CN(C)c3cccc(-n4cc(Br)c5c(N)ncnc54)c3)cc2n1
REMARK SMILES IDX 10 1 9 4 3 5 4 6 32 7 5 8 31 10 6 11 30 13 7 14 8 16 2 19
REMARK SMILES IDX 1 21 11 25 12 26 13 30 14 31 29 32 15 33 17 35 16 37 18 40
REMARK SMILES IDX 19 41 28 42 20 43 22 45 27 46 21 47 23 48 26 49 25 50 24 52
REMARK H PARENT 10 2 10 3 4 9 5 12 30 15 7 17 8 18 2 20 1 22 1 23 1 24 12 27
REMARK H PARENT 12 28 12 29 14 34 29 36 15 38 16 39 19 44 26 51 24 53 24 54
REMARK Flexibility Score: inf
ROOT
ATOM      1  C   UNL     1     -46.594  38.330  27.268  1.00  0.00     0.043 C 
ATOM      2  H   UNL     1     -47.444  39.018  27.368  1.00  0.00     0.054 H 
ATOM      3  H   UNL     1     -45.996  38.667  26.412  1.00  0.00     0.054 H 
ENDROOT
BRANCH   1   4
ATOM      4  C   UNL     1     -47.177  36.960  26.994  1.00  0.00    -0.027 A 
ATOM      5  C   UNL     1     -46.621  32.614  25.095  1.00  0.00     0.126 A 
ATOM      6  C   UNL     1     -47.882  32.215  25.525  1.00  0.00    -0.019 A 
ATOM      7  N   UNL     1     -46.144  33.847  25.355  1.00  0.00    -0.231 NA
ATOM      8  C   UNL     1     -48.680  33.115  26.225  1.00  0.00    -0.049 A 
ATOM      9  H   UNL     1     -48.236  31.209  25.331  1.00  0.00     0.066 H 
ATOM     10  C   UNL     1     -46.910  34.723  26.031  1.00  0.00     0.073 A 
ATOM     11  C   UNL     1     -48.200  34.399  26.490  1.00  0.00     0.000 A 
ATOM     12  H   UNL     1     -49.664  32.804  26.562  1.00  0.00     0.063 H 
ATOM     13  C   UNL     1     -46.425  35.997  26.295  1.00  0.00    -0.031 A 
ATOM     14  C   UNL     1     -48.965  35.345  27.194  1.00  0.00    -0.052 A 
ATOM     15  H   UNL     1     -45.429  36.256  25.939  1.00  0.00     0.065 H 
ATOM     16  C   UNL     1     -48.454  36.617  27.446  1.00  0.00    -0.057 A 
ATOM     17  H   UNL     1     -49.960  35.092  27.552  1.00  0.00     0.063 H 
ATOM     18  H   UNL     1     -49.060  37.335  27.995  1.00  0.00     0.063 H 
BRANCH   5  19
ATOM     19  N   UNL     1     -45.831  31.670  24.412  1.00  0.00    -0.373 N 
ATOM     20  H   UNL     1     -45.328  31.109  25.094  1.00  0.00     0.161 HD
BRANCH  19  21
ATOM     21  C   UNL     1     -46.574  30.842  23.476  1.00  0.00     0.005 C 
ATOM     22  H   UNL     1     -45.878  30.428  22.739  1.00  0.00     0.045 H 
ATOM     23  H   UNL     1     -47.321  31.425  22.927  1.00  0.00     0.045 H 
ATOM     24  H   UNL     1     -47.059  29.998  23.980  1.00  0.00     0.045 H 
ENDBRANCH  19  21
ENDBRANCH   5  19
ENDBRANCH   1   4
BRANCH   1  25
ATOM     25  N   UNL     1     -45.774  38.322  28.490  1.00  0.00    -0.370 N 
BRANCH  25  26
ATOM     26  C   UNL     1     -45.300  36.998  28.914  1.00  0.00     0.007 C 
ATOM     27  H   UNL     1     -46.077  36.237  28.776  1.00  0.00     0.046 H 
ATOM     28  H   UNL     1     -45.020  37.005  29.974  1.00  0.00     0.046 H 
ATOM     29  H   UNL     1     -44.405  36.689  28.361  1.00  0.00     0.046 H 
ENDBRANCH  25  26
BRANCH  25  30
ATOM     30  C   UNL     1     -44.735  39.274  28.552  1.00  0.00     0.039 A 
ATOM     31  C   UNL     1     -43.779  39.311  29.569  1.00  0.00    -0.039 A 
ATOM     32  C   UNL     1     -44.657  40.247  27.535  1.00  0.00    -0.015 A 
ATOM     33  C   UNL     1     -42.780  40.285  29.572  1.00  0.00    -0.058 A 
ATOM     34  H   UNL     1     -43.800  38.599  30.388  1.00  0.00     0.064 H 
ATOM     35  C   UNL     1     -43.656  41.237  27.518  1.00  0.00     0.049 A 
ATOM     36  H   UNL     1     -45.390  40.164  26.738  1.00  0.00     0.067 H 
ATOM     37  C   UNL     1     -42.718  41.242  28.554  1.00  0.00    -0.038 A 
ATOM     38  H   UNL     1     -42.047  40.307  30.374  1.00  0.00     0.062 H 
ATOM     39  H   UNL     1     -41.930  41.982  28.626  1.00  0.00     0.064 H 
BRANCH  35  40
ATOM     40  N   UNL     1     -43.613  42.209  26.458  1.00  0.00    -0.300 N 
ATOM     41  C   UNL     1     -42.655  42.245  25.455  1.00  0.00     0.026 A 
ATOM     42  C   UNL     1     -44.493  43.274  26.222  1.00  0.00     0.151 A 
ATOM     43  C   UNL     1     -42.931  43.290  24.614  1.00  0.00     0.049 A 
ATOM     44  H   UNL     1     -41.861  41.516  25.395  1.00  0.00     0.084 H 
ATOM     45  C   UNL     1     -44.083  43.956  25.075  1.00  0.00     0.076 A 
ATOM     46  N   UNL     1     -45.558  43.621  26.975  1.00  0.00    -0.218 NA
ATOM     47  Br  UNL     1     -41.925  43.750  23.097  1.00  0.00    -0.048 Br
ATOM     48  C   UNL     1     -44.851  45.062  24.678  1.00  0.00     0.137 A 
ATOM     49  C   UNL     1     -46.207  44.693  26.505  1.00  0.00     0.120 A 
ATOM     50  N   UNL     1     -45.915  45.422  25.418  1.00  0.00    -0.219 NA
ATOM     51  H   UNL     1     -47.074  45.015  27.074  1.00  0.00     0.106 H 
BRANCH  48  52
ATOM     52  N   UNL     1     -44.582  45.842  23.565  1.00  0.00    -0.383 N 
ATOM     53  H   UNL     1     -45.181  45.682  22.765  1.00  0.00     0.158 HD
ATOM     54  H   UNL     1     -43.586  45.905  23.389  1.00  0.00     0.158 HD
ENDBRANCH  48  52
ENDBRANCH  35  40
ENDBRANCH  25  30
ENDBRANCH   1  25
TORSDOF 8
ENDMDL
MODEL 4
REMARK VINA RESULT:      -8.8      2.073      3.260
REMARK SMILES CNc1ccc2ccc(CN(C)c3cccc(-n4cc(Br)c5c(N)ncnc54)c3)cc2n1
REMARK SMILES IDX 10 1 9 4 3 5 4 6 32 7 5 8 31 10 6 11 30 13 7 14 8 16 2 19
REMARK SMILES IDX 1 21 11 25 12 26 13 30 14 31 29 32 15 33 17 35 16 37 18 40
REMARK SMILES IDX 19 41 28 42 20 43 22 45 27 46 21 47 23 48 26 49 25 50 24 52
REMARK H PARENT 10 2 10 3 4 9 5 12 30 15 7 17 8 18 2 20 1 22 1 23 1 24 12 27
REMARK H PARENT 12 28 12 29 14 34 29 36 15 38 16 39 19 44 26 51 24 53 24 54
REMARK Flexibility Score: inf
ROOT
ATOM      1  C   UNL     1     -48.641  33.561  26.178  1.00  0.00     0.043 C 
ATOM      2  H   UNL     1     -49.285  33.191  26.988  1.00  0.00     0.054 H 
ATOM      3  H   UNL     1     -49.266  34.168  25.511  1.00  0.00     0.054 H 
ENDROOT
BRANCH   1   4
ATOM      4  C   UNL     1     -48.122  32.341  25.447  1.00  0.00    -0.027 A 
ATOM      5  C   UNL     1     -48.434  27.642  24.657  1.00  0.00     0.126 A 
ATOM      6  C   UNL     1     -47.410  27.686  23.717  1.00  0.00    -0.019 A 
ATOM      7  N   UNL     1     -48.859  28.753  25.291  1.00  0.00    -0.231 NA
ATOM      8  C   UNL     1     -46.795  28.902  23.435  1.00  0.00    -0.049 A 
ATOM      9  H   UNL     1     -47.101  26.786  23.197  1.00  0.00     0.066 H 
ATOM     10  C   UNL     1     -48.269  29.932  25.023  1.00  0.00     0.073 A 
ATOM     11  C   UNL     1     -47.220  30.058  24.094  1.00  0.00     0.000 A 
ATOM     12  H   UNL     1     -45.996  28.938  22.701  1.00  0.00     0.063 H 
ATOM     13  C   UNL     1     -48.699  31.078  25.679  1.00  0.00    -0.031 A 
ATOM     14  C   UNL     1     -46.634  31.311  23.845  1.00  0.00    -0.052 A 
ATOM     15  H   UNL     1     -49.509  30.988  26.403  1.00  0.00     0.065 H 
ATOM     16  C   UNL     1     -47.085  32.445  24.516  1.00  0.00    -0.057 A 
ATOM     17  H   UNL     1     -45.826  31.407  23.123  1.00  0.00     0.063 H 
ATOM     18  H   UNL     1     -46.621  33.407  24.309  1.00  0.00     0.063 H 
BRANCH   5  19
ATOM     19  N   UNL     1     -49.050  26.399  24.898  1.00  0.00    -0.373 N 
ATOM     20  H   UNL     1     -48.330  25.687  24.980  1.00  0.00     0.161 HD
BRANCH  19  21
ATOM     21  C   UNL     1     -49.946  26.395  26.043  1.00  0.00     0.005 C 
ATOM     22  H   UNL     1     -49.907  25.410  26.520  1.00  0.00     0.045 H 
ATOM     23  H   UNL     1     -50.985  26.570  25.743  1.00  0.00     0.045 H 
ATOM     24  H   UNL     1     -49.647  27.136  26.794  1.00  0.00     0.045 H 
ENDBRANCH  19  21
ENDBRANCH   5  19
ENDBRANCH   1   4
BRANCH   1  25
ATOM     25  N   UNL     1     -47.532  34.368  26.713  1.00  0.00    -0.370 N 
BRANCH  25  26
ATOM     26  C   UNL     1     -46.310  34.366  25.899  1.00  0.00     0.007 C 
ATOM     27  H   UNL     1     -45.426  34.168  26.515  1.00  0.00     0.046 H 
ATOM     28  H   UNL     1     -46.168  35.335  25.406  1.00  0.00     0.046 H 
ATOM     29  H   UNL     1     -46.354  33.618  25.099  1.00  0.00     0.046 H 
ENDBRANCH  25  26
BRANCH  25  30
ATOM     30  C   UNL     1     -47.858  35.676  27.132  1.00  0.00     0.039 A 
ATOM     31  C   UNL     1     -49.137  36.061  27.543  1.00  0.00    -0.039 A 
ATOM     32  C   UNL     1     -46.842  36.652  27.131  1.00  0.00    -0.015 A 
ATOM     33  C   UNL     1     -49.391  37.374  27.938  1.00  0.00    -0.058 A 
ATOM     34  H   UNL     1     -49.963  35.356  27.546  1.00  0.00     0.064 H 
ATOM     35  C   UNL     1     -47.078  37.982  27.529  1.00  0.00     0.049 A 
ATOM     36  H   UNL     1     -45.851  36.310  26.846  1.00  0.00     0.067 H 
ATOM     37  C   UNL     1     -48.371  38.328  27.932  1.00  0.00    -0.038 A 
ATOM     38  H   UNL     1     -50.393  37.661  28.249  1.00  0.00     0.062 H 
ATOM     39  H   UNL     1     -48.640  39.334  28.232  1.00  0.00     0.064 H 
BRANCH  35  40
ATOM     40  N   UNL     1     -46.009  38.945  27.514  1.00  0.00    -0.300 N 
ATOM     41  C   UNL     1     -45.813  39.895  26.522  1.00  0.00     0.026 A 
ATOM     42  C   UNL     1     -44.989  39.124  28.459  1.00  0.00     0.151 A 
ATOM     43  C   UNL     1     -44.715  40.649  26.839  1.00  0.00     0.049 A 
ATOM     44  H   UNL     1     -46.477  39.984  25.675  1.00  0.00     0.084 H 
ATOM     45  C   UNL     1     -44.176  40.184  28.054  1.00  0.00     0.076 A 
ATOM     46  N   UNL     1     -44.788  38.393  29.575  1.00  0.00    -0.218 NA
ATOM     47  Br  UNL     1     -44.046  42.069  25.808  1.00  0.00    -0.048 Br
ATOM     48  C   UNL     1     -43.092  40.514  28.884  1.00  0.00     0.137 A 
ATOM     49  C   UNL     1     -43.724  38.793  30.281  1.00  0.00     0.120 A 
ATOM     50  N   UNL     1     -42.877  39.795  29.999  1.00  0.00    -0.219 NA
ATOM     51  H   UNL     1     -43.517  38.239  31.192  1.00  0.00     0.106 H 
BRANCH  48  52
ATOM     52  N   UNL     1     -42.195  41.538  28.627  1.00  0.00    -0.383 N 
ATOM     53  H   UNL     1     -42.569  42.475  28.698  1.00  0.00     0.158 HD
ATOM     54  H   UNL     1     -41.619  41.332  27.819  1.00  0.00     0.158 HD
ENDBRANCH  48  52
ENDBRANCH  35  40
ENDBRANCH  25  30
ENDBRANCH   1  25
TORSDOF 8
ENDMDL
MODEL 5
REMARK VINA RESULT:      -8.6      1.807      2.805
REMARK SMILES CNc1ccc2ccc(CN(C)c3cccc(-n4cc(Br)c5c(N)ncnc54)c3)cc2n1
REMARK SMILES IDX 10 1 9 4 3 5 4 6 32 7 5 8 31 10 6 11 30 13 7 14 8 16 2 19
REMARK SMILES IDX 1 21 11 25 12 26 13 30 14 31 29 32 15 33 17 35 16 37 18 40
REMARK SMILES IDX 19 41 28 42 20 43 22 45 27 46 21 47 23 48 26 49 25 50 24 52
REMARK H PARENT 10 2 10 3 4 9 5 12 30 15 7 17 8 18 2 20 1 22 1 23 1 24 12 27
REMARK H PARENT 12 28 12 29 14 34 29 36 15 38 16 39 19 44 26 51 24 53 24 54
REMARK Flexibility Score: inf
ROOT
ATOM      1  C   UNL     1     -46.193  35.049  27.010  1.00  0.00     0.043 C 
ATOM      2  H   UNL     1     -45.196  35.082  26.549  1.00  0.00     0.054 H 
ATOM      3  H   UNL     1     -46.065  34.712  28.047  1.00  0.00     0.054 H 
ENDROOT
BRANCH   1   4
ATOM      4  C   UNL     1     -46.998  34.036  26.225  1.00  0.00    -0.027 A 
ATOM      5  C   UNL     1     -47.104  30.689  22.821  1.00  0.00     0.126 A 
ATOM      6  C   UNL     1     -48.454  30.439  23.046  1.00  0.00    -0.019 A 
ATOM      7  N   UNL     1     -46.427  31.606  23.539  1.00  0.00    -0.231 NA
ATOM      8  C   UNL     1     -49.128  31.164  24.023  1.00  0.00    -0.049 A 
ATOM      9  H   UNL     1     -48.974  29.677  22.477  1.00  0.00     0.066 H 
ATOM     10  C   UNL     1     -47.073  32.312  24.486  1.00  0.00     0.073 A 
ATOM     11  C   UNL     1     -48.439  32.125  24.766  1.00  0.00     0.000 A 
ATOM     12  H   UNL     1     -50.181  30.969  24.200  1.00  0.00     0.063 H 
ATOM     13  C   UNL     1     -46.381  33.263  25.224  1.00  0.00    -0.031 A 
ATOM     14  C   UNL     1     -49.073  32.884  25.765  1.00  0.00    -0.052 A 
ATOM     15  H   UNL     1     -45.323  33.416  25.010  1.00  0.00     0.065 H 
ATOM     16  C   UNL     1     -48.355  33.832  26.491  1.00  0.00    -0.057 A 
ATOM     17  H   UNL     1     -50.128  32.736  25.982  1.00  0.00     0.063 H 
ATOM     18  H   UNL     1     -48.862  34.408  27.262  1.00  0.00     0.063 H 
BRANCH   5  19
ATOM     19  N   UNL     1     -46.448  29.918  21.843  1.00  0.00    -0.373 N 
ATOM     20  H   UNL     1     -46.460  30.426  20.963  1.00  0.00     0.161 HD
BRANCH  19  21
ATOM     21  C   UNL     1     -45.102  29.513  22.212  1.00  0.00     0.005 C 
ATOM     22  H   UNL     1     -44.781  28.703  21.549  1.00  0.00     0.045 H 
ATOM     23  H   UNL     1     -45.063  29.129  23.238  1.00  0.00     0.045 H 
ATOM     24  H   UNL     1     -44.386  30.335  22.097  1.00  0.00     0.045 H 
ENDBRANCH  19  21
ENDBRANCH   5  19
ENDBRANCH   1   4
BRANCH   1  25
ATOM     25  N   UNL     1     -46.833  36.374  26.979  1.00  0.00    -0.370 N 
BRANCH  25  26
ATOM     26  C   UNL     1     -48.199  36.419  27.517  1.00  0.00     0.007 C 
ATOM     27  H   UNL     1     -48.434  35.505  28.074  1.00  0.00     0.046 H 
ATOM     28  H   UNL     1     -48.933  36.519  26.709  1.00  0.00     0.046 H 
ATOM     29  H   UNL     1     -48.349  37.280  28.178  1.00  0.00     0.046 H 
ENDBRANCH  25  26
BRANCH  25  30
ATOM     30  C   UNL     1     -46.063  37.451  27.467  1.00  0.00     0.039 A 
ATOM     31  C   UNL     1     -45.306  37.392  28.640  1.00  0.00    -0.039 A 
ATOM     32  C   UNL     1     -46.058  38.656  26.737  1.00  0.00    -0.015 A 
ATOM     33  C   UNL     1     -44.571  38.497  29.069  1.00  0.00    -0.058 A 
ATOM     34  H   UNL     1     -45.286  36.496  29.253  1.00  0.00     0.064 H 
ATOM     35  C   UNL     1     -45.321  39.782  27.151  1.00  0.00     0.049 A 
ATOM     36  H   UNL     1     -46.622  38.655  25.809  1.00  0.00     0.067 H 
ATOM     37  C   UNL     1     -44.578  39.684  28.331  1.00  0.00    -0.038 A 
ATOM     38  H   UNL     1     -43.993  38.440  29.988  1.00  0.00     0.062 H 
ATOM     39  H   UNL     1     -44.002  40.511  28.730  1.00  0.00     0.064 H 
BRANCH  35  40
ATOM     40  N   UNL     1     -45.344  40.992  26.373  1.00  0.00    -0.300 N 
ATOM     41  C   UNL     1     -44.324  41.411  25.532  1.00  0.00     0.026 A 
ATOM     42  C   UNL     1     -46.357  41.958  26.299  1.00  0.00     0.151 A 
ATOM     43  C   UNL     1     -44.690  42.592  24.943  1.00  0.00     0.049 A 
ATOM     44  H   UNL     1     -43.422  40.833  25.391  1.00  0.00     0.084 H 
ATOM     45  C   UNL     1     -45.966  42.960  25.410  1.00  0.00     0.076 A 
ATOM     46  N   UNL     1     -47.522  41.956  26.980  1.00  0.00    -0.218 NA
ATOM     47  Br  UNL     1     -43.645  43.556  23.715  1.00  0.00    -0.048 Br
ATOM     48  C   UNL     1     -46.863  44.020  25.204  1.00  0.00     0.137 A 
ATOM     49  C   UNL     1     -48.291  43.018  26.711  1.00  0.00     0.120 A 
ATOM     50  N   UNL     1     -48.027  44.035  25.877  1.00  0.00    -0.219 NA
ATOM     51  H   UNL     1     -49.242  43.065  27.232  1.00  0.00     0.106 H 
BRANCH  48  52
ATOM     52  N   UNL     1     -46.628  45.089  24.354  1.00  0.00    -0.383 N 
ATOM     53  H   UNL     1     -47.238  45.886  24.476  1.00  0.00     0.158 HD
ATOM     54  H   UNL     1     -46.461  44.777  23.405  1.00  0.00     0.158 HD
ENDBRANCH  48  52
ENDBRANCH  35  40
ENDBRANCH  25  30
ENDBRANCH   1  25
TORSDOF 8
ENDMDL
MODEL 6
REMARK VINA RESULT:      -8.5      3.344     10.070
REMARK SMILES CNc1ccc2ccc(CN(C)c3cccc(-n4cc(Br)c5c(N)ncnc54)c3)cc2n1
REMARK SMILES IDX 10 1 9 4 3 5 4 6 32 7 5 8 31 10 6 11 30 13 7 14 8 16 2 19
REMARK SMILES IDX 1 21 11 25 12 26 13 30 14 31 29 32 15 33 17 35 16 37 18 40
REMARK SMILES IDX 19 41 28 42 20 43 22 45 27 46 21 47 23 48 26 49 25 50 24 52
REMARK H PARENT 10 2 10 3 4 9 5 12 30 15 7 17 8 18 2 20 1 22 1 23 1 24 12 27
REMARK H PARENT 12 28 12 29 14 34 29 36 15 38 16 39 19 44 26 51 24 53 24 54
REMARK Flexibility Score: inf
ROOT
ATOM      1  C   UNL     1     -46.566  36.974  28.954  1.00  0.00     0.043 C 
ATOM      2  H   UNL     1     -47.486  37.570  28.894  1.00  0.00     0.054 H 
ATOM      3  H   UNL     1     -46.648  36.329  29.839  1.00  0.00     0.054 H 
ENDROOT
BRANCH   1   4
ATOM      4  C   UNL     1     -45.425  37.955  29.123  1.00  0.00    -0.027 A 
ATOM      5  C   UNL     1     -43.017  41.714  27.428  1.00  0.00     0.126 A 
ATOM      6  C   UNL     1     -42.161  41.716  28.525  1.00  0.00    -0.019 A 
ATOM      7  N   UNL     1     -44.014  40.815  27.315  1.00  0.00    -0.231 NA
ATOM      8  C   UNL     1     -42.325  40.759  29.521  1.00  0.00    -0.049 A 
ATOM      9  H   UNL     1     -41.381  42.465  28.612  1.00  0.00     0.066 H 
ATOM     10  C   UNL     1     -44.180  39.886  28.274  1.00  0.00     0.073 A 
ATOM     11  C   UNL     1     -43.349  39.816  29.408  1.00  0.00     0.000 A 
ATOM     12  H   UNL     1     -41.658  40.761  30.377  1.00  0.00     0.063 H 
ATOM     13  C   UNL     1     -45.202  38.954  28.157  1.00  0.00    -0.031 A 
ATOM     14  C   UNL     1     -43.559  38.830  30.386  1.00  0.00    -0.052 A 
ATOM     15  H   UNL     1     -45.847  38.999  27.280  1.00  0.00     0.065 H 
ATOM     16  C   UNL     1     -44.593  37.906  30.245  1.00  0.00    -0.057 A 
ATOM     17  H   UNL     1     -42.918  38.779  31.264  1.00  0.00     0.063 H 
ATOM     18  H   UNL     1     -44.742  37.151  31.014  1.00  0.00     0.063 H 
BRANCH   5  19
ATOM     19  N   UNL     1     -42.837  42.712  26.453  1.00  0.00    -0.373 N 
ATOM     20  H   UNL     1     -43.034  42.316  25.538  1.00  0.00     0.161 HD
BRANCH  19  21
ATOM     21  C   UNL     1     -43.607  43.922  26.695  1.00  0.00     0.005 C 
ATOM     22  H   UNL     1     -44.298  44.075  25.859  1.00  0.00     0.045 H 
ATOM     23  H   UNL     1     -42.962  44.806  26.751  1.00  0.00     0.045 H 
ATOM     24  H   UNL     1     -44.208  43.843  27.608  1.00  0.00     0.045 H 
ENDBRANCH  19  21
ENDBRANCH   5  19
ENDBRANCH   1   4
BRANCH   1  25
ATOM     25  N   UNL     1     -46.386  36.156  27.744  1.00  0.00    -0.370 N 
BRANCH  25  26
ATOM     26  C   UNL     1     -45.209  35.277  27.754  1.00  0.00     0.007 C 
ATOM     27  H   UNL     1     -45.446  34.296  27.327  1.00  0.00     0.046 H 
ATOM     28  H   UNL     1     -44.849  35.121  28.777  1.00  0.00     0.046 H 
ATOM     29  H   UNL     1     -44.371  35.709  27.195  1.00  0.00     0.046 H 
ENDBRANCH  25  26
BRANCH  25  30
ATOM     30  C   UNL     1     -47.527  35.468  27.280  1.00  0.00     0.039 A 
ATOM     31  C   UNL     1     -48.826  35.973  27.372  1.00  0.00    -0.039 A 
ATOM     32  C   UNL     1     -47.351  34.197  26.698  1.00  0.00    -0.015 A 
ATOM     33  C   UNL     1     -49.911  35.236  26.899  1.00  0.00    -0.058 A 
ATOM     34  H   UNL     1     -49.023  36.939  27.828  1.00  0.00     0.064 H 
ATOM     35  C   UNL     1     -48.433  33.438  26.212  1.00  0.00     0.049 A 
ATOM     36  H   UNL     1     -46.326  33.852  26.604  1.00  0.00     0.067 H 
ATOM     37  C   UNL     1     -49.718  33.977  26.323  1.00  0.00    -0.038 A 
ATOM     38  H   UNL     1     -50.917  35.639  26.983  1.00  0.00     0.062 H 
ATOM     39  H   UNL     1     -50.605  33.449  25.993  1.00  0.00     0.064 H 
BRANCH  35  40
ATOM     40  N   UNL     1     -48.207  32.145  25.622  1.00  0.00    -0.300 N 
ATOM     41  C   UNL     1     -48.829  30.972  26.024  1.00  0.00     0.026 A 
ATOM     42  C   UNL     1     -47.353  31.812  24.561  1.00  0.00     0.151 A 
ATOM     43  C   UNL     1     -48.389  29.942  25.236  1.00  0.00     0.049 A 
ATOM     44  H   UNL     1     -49.556  30.953  26.823  1.00  0.00     0.084 H 
ATOM     45  C   UNL     1     -47.457  30.443  24.307  1.00  0.00     0.076 A 
ATOM     46  N   UNL     1     -46.537  32.651  23.891  1.00  0.00    -0.218 NA
ATOM     47  Br  UNL     1     -48.944  28.155  25.385  1.00  0.00    -0.048 Br
ATOM     48  C   UNL     1     -46.669  29.923  23.268  1.00  0.00     0.137 A 
ATOM     49  C   UNL     1     -45.831  32.043  22.931  1.00  0.00     0.120 A 
ATOM     50  N   UNL     1     -45.849  30.746  22.591  1.00  0.00    -0.219 NA
ATOM     51  H   UNL     1     -45.158  32.674  22.358  1.00  0.00     0.106 H 
BRANCH  48  52
ATOM     52  N   UNL     1     -46.658  28.591  22.888  1.00  0.00    -0.383 N 
ATOM     53  H   UNL     1     -45.953  28.336  22.210  1.00  0.00     0.158 HD
ATOM     54  H   UNL     1     -47.597  28.244  22.728  1.00  0.00     0.158 HD
ENDBRANCH  48  52
ENDBRANCH  35  40
ENDBRANCH  25  30
ENDBRANCH   1  25
TORSDOF 8
ENDMDL
MODEL 7
REMARK VINA RESULT:      -8.5      1.872      2.856
REMARK SMILES CNc1ccc2ccc(CN(C)c3cccc(-n4cc(Br)c5c(N)ncnc54)c3)cc2n1
REMARK SMILES IDX 10 1 9 4 3 5 4 6 32 7 5 8 31 10 6 11 30 13 7 14 8 16 2 19
REMARK SMILES IDX 1 21 11 25 12 26 13 30 14 31 29 32 15 33 17 35 16 37 18 40
REMARK SMILES IDX 19 41 28 42 20 43 22 45 27 46 21 47 23 48 26 49 25 50 24 52
REMARK H PARENT 10 2 10 3 4 9 5 12 30 15 7 17 8 18 2 20 1 22 1 23 1 24 12 27
REMARK H PARENT 12 28 12 29 14 34 29 36 15 38 16 39 19 44 26 51 24 53 24 54
REMARK Flexibility Score: inf
ROOT
ATOM      1  C   UNL     1     -47.286  35.005  26.357  1.00  0.00     0.043 C 
ATOM      2  H   UNL     1     -48.170  35.637  26.194  1.00  0.00     0.054 H 
ATOM      3  H   UNL     1     -46.445  35.473  25.829  1.00  0.00     0.054 H 
ENDROOT
BRANCH   1   4
ATOM      4  C   UNL     1     -47.603  33.655  25.751  1.00  0.00    -0.027 A 
ATOM      5  C   UNL     1     -46.315  30.121  22.809  1.00  0.00     0.126 A 
ATOM      6  C   UNL     1     -47.444  29.377  23.136  1.00  0.00    -0.019 A 
ATOM      7  N   UNL     1     -46.077  31.324  23.368  1.00  0.00    -0.231 NA
ATOM      8  C   UNL     1     -48.360  29.892  24.048  1.00  0.00    -0.049 A 
ATOM      9  H   UNL     1     -47.604  28.399  22.696  1.00  0.00     0.066 H 
ATOM     10  C   UNL     1     -46.958  31.829  24.251  1.00  0.00     0.073 A 
ATOM     11  C   UNL     1     -48.128  31.142  24.625  1.00  0.00     0.000 A 
ATOM     12  H   UNL     1     -49.241  29.311  24.304  1.00  0.00     0.063 H 
ATOM     13  C   UNL     1     -46.719  33.070  24.824  1.00  0.00    -0.031 A 
ATOM     14  C   UNL     1     -49.021  31.707  25.552  1.00  0.00    -0.052 A 
ATOM     15  H   UNL     1     -45.817  33.609  24.537  1.00  0.00     0.065 H 
ATOM     16  C   UNL     1     -48.757  32.955  26.113  1.00  0.00    -0.057 A 
ATOM     17  H   UNL     1     -49.923  31.174  25.843  1.00  0.00     0.063 H 
ATOM     18  H   UNL     1     -49.458  33.375  26.831  1.00  0.00     0.063 H 
BRANCH   5  19
ATOM     19  N   UNL     1     -45.397  29.558  21.903  1.00  0.00    -0.373 N 
ATOM     20  H   UNL     1     -44.867  30.306  21.466  1.00  0.00     0.161 HD
BRANCH  19  21
ATOM     21  C   UNL     1     -44.528  28.551  22.488  1.00  0.00     0.005 C 
ATOM     22  H   UNL     1     -43.520  28.966  22.587  1.00  0.00     0.045 H 
ATOM     23  H   UNL     1     -44.453  27.662  21.851  1.00  0.00     0.045 H 
ATOM     24  H   UNL     1     -44.864  28.260  23.491  1.00  0.00     0.045 H 
ENDBRANCH  19  21
ENDBRANCH   5  19
ENDBRANCH   1   4
BRANCH   1  25
ATOM     25  N   UNL     1     -46.983  34.883  27.793  1.00  0.00    -0.370 N 
BRANCH  25  26
ATOM     26  C   UNL     1     -46.028  33.822  28.140  1.00  0.00     0.007 C 
ATOM     27  H   UNL     1     -45.793  33.202  27.267  1.00  0.00     0.046 H 
ATOM     28  H   UNL     1     -46.438  33.169  28.918  1.00  0.00     0.046 H 
ATOM     29  H   UNL     1     -45.093  34.230  28.542  1.00  0.00     0.046 H 
ENDBRANCH  25  26
BRANCH  25  30
ATOM     30  C   UNL     1     -46.673  36.082  28.469  1.00  0.00     0.039 A 
ATOM     31  C   UNL     1     -46.138  36.127  29.759  1.00  0.00    -0.039 A 
ATOM     32  C   UNL     1     -46.920  37.304  27.813  1.00  0.00    -0.015 A 
ATOM     33  C   UNL     1     -45.860  37.349  30.372  1.00  0.00    -0.058 A 
ATOM     34  H   UNL     1     -45.944  35.218  30.320  1.00  0.00     0.064 H 
ATOM     35  C   UNL     1     -46.644  38.548  28.413  1.00  0.00     0.049 A 
ATOM     36  H   UNL     1     -47.296  37.234  26.797  1.00  0.00     0.067 H 
ATOM     37  C   UNL     1     -46.111  38.551  29.705  1.00  0.00    -0.038 A 
ATOM     38  H   UNL     1     -45.451  37.368  31.379  1.00  0.00     0.062 H 
ATOM     39  H   UNL     1     -45.891  39.465  30.245  1.00  0.00     0.064 H 
BRANCH  35  40
ATOM     40  N   UNL     1     -46.910  39.772  27.705  1.00  0.00    -0.300 N 
ATOM     41  C   UNL     1     -48.148  40.396  27.641  1.00  0.00     0.026 A 
ATOM     42  C   UNL     1     -46.016  40.560  26.966  1.00  0.00     0.151 A 
ATOM     43  C   UNL     1     -48.030  41.541  26.898  1.00  0.00     0.049 A 
ATOM     44  H   UNL     1     -49.016  40.000  28.145  1.00  0.00     0.084 H 
ATOM     45  C   UNL     1     -46.698  41.667  26.460  1.00  0.00     0.076 A 
ATOM     46  N   UNL     1     -44.710  40.303  26.747  1.00  0.00    -0.218 NA
ATOM     47  Br  UNL     1     -49.430  42.737  26.530  1.00  0.00    -0.048 Br
ATOM     48  C   UNL     1     -45.958  42.578  25.689  1.00  0.00     0.137 A 
ATOM     49  C   UNL     1     -44.111  41.234  25.993  1.00  0.00     0.120 A 
ATOM     50  N   UNL     1     -44.656  42.337  25.459  1.00  0.00    -0.219 NA
ATOM     51  H   UNL     1     -43.057  41.077  25.787  1.00  0.00     0.106 H 
BRANCH  48  52
ATOM     52  N   UNL     1     -46.483  43.726  25.118  1.00  0.00    -0.383 N 
ATOM     53  H   UNL     1     -46.350  43.817  24.119  1.00  0.00     0.158 HD
ATOM     54  H   UNL     1     -46.290  44.543  25.685  1.00  0.00     0.158 HD
ENDBRANCH  48  52
ENDBRANCH  35  40
ENDBRANCH  25  30
ENDBRANCH   1  25
TORSDOF 8
ENDMDL
