MODEL 1
REMARK VINA RESULT:     -10.1      0.000      0.000
REMARK SMILES CCc1cc(N)c2ccc(OCc3cncc(-n4cc(Cl)c5c(N)ncnc54)c3)cc2n1
REMARK SMILES IDX 12 1 11 4 10 5 3 6 4 7 32 8 5 9 31 11 7 12 30 13 8 14 9 16
REMARK SMILES IDX 2 19 1 22 6 26 13 29 14 30 29 31 15 32 17 34 16 36 18 38
REMARK SMILES IDX 19 39 28 40 20 41 22 43 27 44 21 45 23 46 26 47 25 48 24 50
REMARK H PARENT 12 2 12 3 4 10 30 15 8 17 9 18 2 20 2 21 1 23 1 24 1 25 6 27
REMARK H PARENT 6 28 14 33 29 35 16 37 19 42 26 49 24 51 24 52
REMARK Flexibility Score: inf
ROOT
ATOM      1  C   UNL     1     -46.721  36.712  26.842  1.00  0.00     0.115 C 
ATOM      2  H   UNL     1     -47.613  37.109  26.340  1.00  0.00     0.076 H 
ATOM      3  H   UNL     1     -45.862  37.036  26.241  1.00  0.00     0.076 H 
ENDROOT
BRANCH   1   4
ATOM      4  O   UNL     1     -46.553  37.306  28.132  1.00  0.00    -0.489 OA
BRANCH   4   5
ATOM      5  C   UNL     1     -45.557  38.227  28.304  1.00  0.00     0.122 A 
ATOM      6  C   UNL     1     -42.964  42.003  27.045  1.00  0.00     0.043 A 
ATOM      7  C   UNL     1     -42.216  41.979  28.214  1.00  0.00    -0.017 A 
ATOM      8  N   UNL     1     -43.921  41.087  26.779  1.00  0.00    -0.253 NA
ATOM      9  C   UNL     1     -42.417  40.949  29.133  1.00  0.00     0.043 A 
ATOM     10  H   UNL     1     -41.478  42.752  28.402  1.00  0.00     0.066 H 
ATOM     11  C   UNL     1     -44.178  40.136  27.688  1.00  0.00     0.076 A 
ATOM     12  C   UNL     1     -43.469  40.028  28.905  1.00  0.00     0.023 A 
ATOM     13  C   UNL     1     -45.201  39.237  27.411  1.00  0.00     0.007 A 
ATOM     14  C   UNL     1     -43.847  39.017  29.816  1.00  0.00    -0.047 A 
ATOM     15  H   UNL     1     -45.724  39.372  26.470  1.00  0.00     0.069 H 
ATOM     16  C   UNL     1     -44.880  38.129  29.515  1.00  0.00    -0.019 A 
ATOM     17  H   UNL     1     -43.350  38.916  30.775  1.00  0.00     0.063 H 
ATOM     18  H   UNL     1     -45.156  37.359  30.232  1.00  0.00     0.066 H 
BRANCH   6  19
ATOM     19  C   UNL     1     -42.764  43.097  26.029  1.00  0.00    -0.013 C 
ATOM     20  H   UNL     1     -41.729  43.063  25.666  1.00  0.00     0.033 H 
ATOM     21  H   UNL     1     -42.896  44.076  26.503  1.00  0.00     0.033 H 
BRANCH  19  22
ATOM     22  C   UNL     1     -43.718  42.948  24.854  1.00  0.00    -0.060 C 
ATOM     23  H   UNL     1     -44.753  43.138  25.156  1.00  0.00     0.023 H 
ATOM     24  H   UNL     1     -43.670  41.939  24.431  1.00  0.00     0.023 H 
ATOM     25  H   UNL     1     -43.458  43.660  24.064  1.00  0.00     0.023 H 
ENDBRANCH  19  22
ENDBRANCH   6  19
BRANCH   9  26
ATOM     26  N   UNL     1     -41.704  40.993  30.350  1.00  0.00    -0.398 N 
ATOM     27  H   UNL     1     -41.040  41.760  30.405  1.00  0.00     0.156 HD
ATOM     28  H   UNL     1     -41.269  40.112  30.599  1.00  0.00     0.156 HD
ENDBRANCH   9  26
ENDBRANCH   4   5
ENDBRANCH   1   4
BRANCH   1  29
ATOM     29  C   UNL     1     -46.709  35.205  26.867  1.00  0.00     0.010 A 
ATOM     30  C   UNL     1     -46.120  34.538  27.933  1.00  0.00     0.034 A 
ATOM     31  C   UNL     1     -47.324  34.423  25.878  1.00  0.00    -0.028 A 
ATOM     32  N   UNL     1     -46.090  33.195  28.055  1.00  0.00    -0.262 NA
ATOM     33  H   UNL     1     -45.640  35.076  28.746  1.00  0.00     0.084 H 
ATOM     34  C   UNL     1     -47.307  33.023  25.961  1.00  0.00     0.066 A 
ATOM     35  H   UNL     1     -47.816  34.942  25.061  1.00  0.00     0.065 H 
ATOM     36  C   UNL     1     -46.678  32.469  27.070  1.00  0.00     0.051 A 
ATOM     37  H   UNL     1     -46.585  31.403  27.236  1.00  0.00     0.086 H 
BRANCH  34  38
ATOM     38  N   UNL     1     -47.907  32.213  24.942  1.00  0.00    -0.298 N 
ATOM     39  C   UNL     1     -49.268  31.993  24.803  1.00  0.00     0.031 A 
ATOM     40  C   UNL     1     -47.272  31.509  23.915  1.00  0.00     0.151 A 
ATOM     41  C   UNL     1     -49.490  31.177  23.722  1.00  0.00     0.072 A 
ATOM     42  H   UNL     1     -49.993  32.448  25.463  1.00  0.00     0.084 H 
ATOM     43  C   UNL     1     -48.238  30.857  23.151  1.00  0.00     0.080 A 
ATOM     44  N   UNL     1     -45.945  31.441  23.690  1.00  0.00    -0.218 NA
ATOM     45  Cl  UNL     1     -51.012  30.657  23.167  1.00  0.00    -0.082 Cl
ATOM     46  C   UNL     1     -47.786  30.086  22.070  1.00  0.00     0.137 A 
ATOM     47  C   UNL     1     -45.631  30.682  22.632  1.00  0.00     0.120 A 
ATOM     48  N   UNL     1     -46.467  30.019  21.819  1.00  0.00    -0.219 NA
ATOM     49  H   UNL     1     -44.573  30.594  22.403  1.00  0.00     0.106 H 
BRANCH  46  50
ATOM     50  N   UNL     1     -48.619  29.377  21.219  1.00  0.00    -0.383 N 
ATOM     51  H   UNL     1     -48.166  28.711  20.608  1.00  0.00     0.158 HD
ATOM     52  H   UNL     1     -49.466  29.078  21.686  1.00  0.00     0.158 HD
ENDBRANCH  46  50
ENDBRANCH  34  38
ENDBRANCH   1  29
TORSDOF 8
ENDMDL
MODEL 2
REMARK VINA RESULT:      -9.9      2.950     10.554
REMARK SMILES CCc1cc(N)c2ccc(OCc3cncc(-n4cc(Cl)c5c(N)ncnc54)c3)cc2n1
REMARK SMILES IDX 12 1 11 4 10 5 3 6 4 7 32 8 5 9 31 11 7 12 30 13 8 14 9 16
REMARK SMILES IDX 2 19 1 22 6 26 13 29 14 30 29 31 15 32 17 34 16 36 18 38
REMARK SMILES IDX 19 39 28 40 20 41 22 43 27 44 21 45 23 46 26 47 25 48 24 50
REMARK H PARENT 12 2 12 3 4 10 30 15 8 17 9 18 2 20 2 21 1 23 1 24 1 25 6 27
REMARK H PARENT 6 28 14 33 29 35 16 37 19 42 26 49 24 51 24 52
REMARK Flexibility Score: inf
ROOT
ATOM      1  C   UNL     1     -48.293  35.842  26.976  1.00  0.00     0.115 C 
ATOM      2  H   UNL     1     -48.144  35.966  25.896  1.00  0.00     0.076 H 
ATOM      3  H   UNL     1     -49.285  36.255  27.198  1.00  0.00     0.076 H 
ENDROOT
BRANCH   1   4
ATOM      4  O   UNL     1     -48.348  34.458  27.330  1.00  0.00    -0.489 OA
BRANCH   4   5
ATOM      5  C   UNL     1     -47.982  33.529  26.396  1.00  0.00     0.122 A 
ATOM      6  C   UNL     1     -48.740  29.807  23.543  1.00  0.00     0.043 A 
ATOM      7  C   UNL     1     -47.469  29.870  22.990  1.00  0.00    -0.017 A 
ATOM      8  N   UNL     1     -49.150  30.651  24.515  1.00  0.00    -0.253 NA
ATOM      9  C   UNL     1     -46.556  30.804  23.480  1.00  0.00     0.043 A 
ATOM     10  H   UNL     1     -47.191  29.192  22.190  1.00  0.00     0.066 H 
ATOM     11  C   UNL     1     -48.309  31.605  24.942  1.00  0.00     0.076 A 
ATOM     12  C   UNL     1     -46.996  31.747  24.442  1.00  0.00     0.023 A 
ATOM     13  C   UNL     1     -48.774  32.491  25.906  1.00  0.00     0.007 A 
ATOM     14  C   UNL     1     -46.204  32.812  24.926  1.00  0.00    -0.047 A 
ATOM     15  H   UNL     1     -49.794  32.348  26.246  1.00  0.00     0.069 H 
ATOM     16  C   UNL     1     -46.696  33.691  25.891  1.00  0.00    -0.019 A 
ATOM     17  H   UNL     1     -45.201  32.978  24.547  1.00  0.00     0.063 H 
ATOM     18  H   UNL     1     -46.069  34.505  26.249  1.00  0.00     0.066 H 
BRANCH   6  19
ATOM     19  C   UNL     1     -49.745  28.803  23.043  1.00  0.00    -0.013 C 
ATOM     20  H   UNL     1     -50.568  28.730  23.764  1.00  0.00     0.033 H 
ATOM     21  H   UNL     1     -49.286  27.809  22.991  1.00  0.00     0.033 H 
BRANCH  19  22
ATOM     22  C   UNL     1     -50.298  29.197  21.682  1.00  0.00    -0.060 C 
ATOM     23  H   UNL     1     -50.590  28.315  21.101  1.00  0.00     0.023 H 
ATOM     24  H   UNL     1     -49.556  29.754  21.099  1.00  0.00     0.023 H 
ATOM     25  H   UNL     1     -51.182  29.831  21.802  1.00  0.00     0.023 H 
ENDBRANCH  19  22
ENDBRANCH   6  19
BRANCH   9  26
ATOM     26  N   UNL     1     -45.300  30.905  22.845  1.00  0.00    -0.398 N 
ATOM     27  H   UNL     1     -44.877  31.825  22.923  1.00  0.00     0.156 HD
ATOM     28  H   UNL     1     -45.302  30.581  21.885  1.00  0.00     0.156 HD
ENDBRANCH   9  26
ENDBRANCH   4   5
ENDBRANCH   1   4
BRANCH   1  29
ATOM     29  C   UNL     1     -47.289  36.629  27.780  1.00  0.00     0.010 A 
ATOM     30  C   UNL     1     -46.991  36.242  29.079  1.00  0.00     0.034 A 
ATOM     31  C   UNL     1     -46.582  37.721  27.255  1.00  0.00    -0.028 A 
ATOM     32  N   UNL     1     -46.086  36.866  29.860  1.00  0.00    -0.262 NA
ATOM     33  H   UNL     1     -47.485  35.395  29.549  1.00  0.00     0.084 H 
ATOM     34  C   UNL     1     -45.639  38.404  28.036  1.00  0.00     0.066 A 
ATOM     35  H   UNL     1     -46.787  38.004  26.227  1.00  0.00     0.065 H 
ATOM     36  C   UNL     1     -45.434  37.931  29.327  1.00  0.00     0.051 A 
ATOM     37  H   UNL     1     -44.746  38.384  30.029  1.00  0.00     0.086 H 
BRANCH  34  38
ATOM     38  N   UNL     1     -44.931  39.538  27.519  1.00  0.00    -0.298 N 
ATOM     39  C   UNL     1     -45.194  40.152  26.305  1.00  0.00     0.031 A 
ATOM     40  C   UNL     1     -43.875  40.238  28.110  1.00  0.00     0.151 A 
ATOM     41  C   UNL     1     -44.333  41.207  26.131  1.00  0.00     0.072 A 
ATOM     42  H   UNL     1     -45.989  39.817  25.653  1.00  0.00     0.084 H 
ATOM     43  C   UNL     1     -43.488  41.273  27.261  1.00  0.00     0.080 A 
ATOM     44  N   UNL     1     -43.296  39.965  29.297  1.00  0.00    -0.218 NA
ATOM     45  Cl  UNL     1     -44.305  42.254  24.791  1.00  0.00    -0.082 Cl
ATOM     46  C   UNL     1     -42.427  42.087  27.686  1.00  0.00     0.137 A 
ATOM     47  C   UNL     1     -42.300  40.806  29.599  1.00  0.00     0.120 A 
ATOM     48  N   UNL     1     -41.847  41.841  28.874  1.00  0.00    -0.219 NA
ATOM     49  H   UNL     1     -41.797  40.634  30.547  1.00  0.00     0.106 H 
BRANCH  46  50
ATOM     50  N   UNL     1     -41.925  43.152  26.956  1.00  0.00    -0.383 N 
ATOM     51  H   UNL     1     -42.608  43.718  26.470  1.00  0.00     0.158 HD
ATOM     52  H   UNL     1     -41.189  43.637  27.455  1.00  0.00     0.158 HD
ENDBRANCH  46  50
ENDBRANCH  34  38
ENDBRANCH   1  29
TORSDOF 8
ENDMDL
MODEL 3
REMARK VINA RESULT:      -9.9      1.124      2.253
REMARK SMILES CCc1cc(N)c2ccc(OCc3cncc(-n4cc(Cl)c5c(N)ncnc54)c3)cc2n1
REMARK SMILES IDX 12 1 11 4 10 5 3 6 4 7 32 8 5 9 31 11 7 12 30 13 8 14 9 16
REMARK SMILES IDX 2 19 1 22 6 26 13 29 14 30 29 31 15 32 17 34 16 36 18 38
REMARK SMILES IDX 19 39 28 40 20 41 22 43 27 44 21 45 23 46 26 47 25 48 24 50
REMARK H PARENT 12 2 12 3 4 10 30 15 8 17 9 18 2 20 2 21 1 23 1 24 1 25 6 27
REMARK H PARENT 6 28 14 33 29 35 16 37 19 42 26 49 24 51 24 52
REMARK Flexibility Score: inf
ROOT
ATOM      1  C   UNL     1     -48.242  36.371  27.556  1.00  0.00     0.115 C 
ATOM      2  H   UNL     1     -49.282  36.315  27.903  1.00  0.00     0.076 H 
ATOM      3  H   UNL     1     -48.260  36.953  26.627  1.00  0.00     0.076 H 
ENDROOT
BRANCH   1   4
ATOM      4  O   UNL     1     -47.435  37.112  28.476  1.00  0.00    -0.489 OA
BRANCH   4   5
ATOM      5  C   UNL     1     -46.666  38.134  27.995  1.00  0.00     0.122 A 
ATOM      6  C   UNL     1     -42.958  41.102  28.085  1.00  0.00     0.043 A 
ATOM      7  C   UNL     1     -43.300  41.694  26.878  1.00  0.00    -0.017 A 
ATOM      8  N   UNL     1     -43.705  40.129  28.653  1.00  0.00    -0.253 NA
ATOM      9  C   UNL     1     -44.482  41.314  26.241  1.00  0.00     0.043 A 
ATOM     10  H   UNL     1     -42.656  42.450  26.442  1.00  0.00     0.066 H 
ATOM     11  C   UNL     1     -44.802  39.699  28.013  1.00  0.00     0.076 A 
ATOM     12  C   UNL     1     -45.233  40.242  26.783  1.00  0.00     0.023 A 
ATOM     13  C   UNL     1     -45.524  38.664  28.595  1.00  0.00     0.007 A 
ATOM     14  C   UNL     1     -46.379  39.688  26.168  1.00  0.00    -0.047 A 
ATOM     15  H   UNL     1     -45.144  38.273  29.532  1.00  0.00     0.069 H 
ATOM     16  C   UNL     1     -47.083  38.646  26.771  1.00  0.00    -0.019 A 
ATOM     17  H   UNL     1     -46.728  40.053  25.208  1.00  0.00     0.063 H 
ATOM     18  H   UNL     1     -47.962  38.234  26.280  1.00  0.00     0.066 H 
BRANCH   6  19
ATOM     19  C   UNL     1     -41.694  41.498  28.802  1.00  0.00    -0.013 C 
ATOM     20  H   UNL     1     -41.673  42.589  28.915  1.00  0.00     0.033 H 
ATOM     21  H   UNL     1     -40.821  41.230  28.196  1.00  0.00     0.033 H 
BRANCH  19  22
ATOM     22  C   UNL     1     -41.602  40.845  30.173  1.00  0.00    -0.060 C 
ATOM     23  H   UNL     1     -40.578  40.878  30.560  1.00  0.00     0.023 H 
ATOM     24  H   UNL     1     -41.914  39.796  30.134  1.00  0.00     0.023 H 
ATOM     25  H   UNL     1     -42.250  41.367  30.884  1.00  0.00     0.023 H 
ENDBRANCH  19  22
ENDBRANCH   6  19
BRANCH   9  26
ATOM     26  N   UNL     1     -44.765  41.870  24.975  1.00  0.00    -0.398 N 
ATOM     27  H   UNL     1     -45.520  42.549  24.989  1.00  0.00     0.156 HD
ATOM     28  H   UNL     1     -44.908  41.177  24.249  1.00  0.00     0.156 HD
ENDBRANCH   9  26
ENDBRANCH   4   5
ENDBRANCH   1   4
BRANCH   1  29
ATOM     29  C   UNL     1     -47.682  35.011  27.224  1.00  0.00     0.010 A 
ATOM     30  C   UNL     1     -46.627  34.500  27.967  1.00  0.00     0.034 A 
ATOM     31  C   UNL     1     -48.218  34.193  26.218  1.00  0.00    -0.028 A 
ATOM     32  N   UNL     1     -46.084  33.283  27.762  1.00  0.00    -0.262 NA
ATOM     33  H   UNL     1     -46.171  35.068  28.774  1.00  0.00     0.084 H 
ATOM     34  C   UNL     1     -47.677  32.924  25.965  1.00  0.00     0.066 A 
ATOM     35  H   UNL     1     -49.066  34.575  25.659  1.00  0.00     0.065 H 
ATOM     36  C   UNL     1     -46.615  32.525  26.768  1.00  0.00     0.051 A 
ATOM     37  H   UNL     1     -46.103  31.577  26.658  1.00  0.00     0.086 H 
BRANCH  34  38
ATOM     38  N   UNL     1     -48.198  32.091  24.922  1.00  0.00    -0.298 N 
ATOM     39  C   UNL     1     -49.504  31.634  24.850  1.00  0.00     0.031 A 
ATOM     40  C   UNL     1     -47.527  31.591  23.802  1.00  0.00     0.151 A 
ATOM     41  C   UNL     1     -49.658  30.869  23.721  1.00  0.00     0.072 A 
ATOM     42  H   UNL     1     -50.246  31.899  25.590  1.00  0.00     0.084 H 
ATOM     43  C   UNL     1     -48.416  30.826  23.049  1.00  0.00     0.080 A 
ATOM     44  N   UNL     1     -46.231  31.786  23.490  1.00  0.00    -0.218 NA
ATOM     45  Cl  UNL     1     -51.099  30.117  23.221  1.00  0.00    -0.082 Cl
ATOM     46  C   UNL     1     -47.916  30.231  21.881  1.00  0.00     0.137 A 
ATOM     47  C   UNL     1     -45.867  31.174  22.356  1.00  0.00     0.120 A 
ATOM     48  N   UNL     1     -46.630  30.426  21.543  1.00  0.00    -0.219 NA
ATOM     49  H   UNL     1     -44.831  31.299  22.055  1.00  0.00     0.106 H 
BRANCH  46  50
ATOM     50  N   UNL     1     -48.671  29.441  21.028  1.00  0.00    -0.383 N 
ATOM     51  H   UNL     1     -48.456  28.453  21.031  1.00  0.00     0.158 HD
ATOM     52  H   UNL     1     -49.648  29.704  21.038  1.00  0.00     0.158 HD
ENDBRANCH  46  50
ENDBRANCH  34  38
ENDBRANCH   1  29
TORSDOF 8
ENDMDL
MODEL 4
REMARK VINA RESULT:      -9.8      3.321     10.664
REMARK SMILES CCc1cc(N)c2ccc(OCc3cncc(-n4cc(Cl)c5c(N)ncnc54)c3)cc2n1
REMARK SMILES IDX 12 1 11 4 10 5 3 6 4 7 32 8 5 9 31 11 7 12 30 13 8 14 9 16
REMARK SMILES IDX 2 19 1 22 6 26 13 29 14 30 29 31 15 32 17 34 16 36 18 38
REMARK SMILES IDX 19 39 28 40 20 41 22 43 27 44 21 45 23 46 26 47 25 48 24 50
REMARK H PARENT 12 2 12 3 4 10 30 15 8 17 9 18 2 20 2 21 1 23 1 24 1 25 6 27
REMARK H PARENT 6 28 14 33 29 35 16 37 19 42 26 49 24 51 24 52
REMARK Flexibility Score: inf
ROOT
ATOM      1  C   UNL     1     -47.337  35.869  28.114  1.00  0.00     0.115 C 
ATOM      2  H   UNL     1     -47.394  35.555  29.164  1.00  0.00     0.076 H 
ATOM      3  H   UNL     1     -46.381  35.489  27.733  1.00  0.00     0.076 H 
ENDROOT
BRANCH   1   4
ATOM      4  O   UNL     1     -48.357  35.237  27.335  1.00  0.00    -0.489 OA
BRANCH   4   5
ATOM      5  C   UNL     1     -48.006  34.202  26.514  1.00  0.00     0.122 A 
ATOM      6  C   UNL     1     -48.760  30.089  24.259  1.00  0.00     0.043 A 
ATOM      7  C   UNL     1     -47.533  30.126  23.613  1.00  0.00    -0.017 A 
ATOM      8  N   UNL     1     -49.148  31.044  25.133  1.00  0.00    -0.253 NA
ATOM      9  C   UNL     1     -46.638  31.157  23.904  1.00  0.00     0.043 A 
ATOM     10  H   UNL     1     -47.274  29.355  22.896  1.00  0.00     0.066 H 
ATOM     11  C   UNL     1     -48.330  32.082  25.363  1.00  0.00     0.076 A 
ATOM     12  C   UNL     1     -47.061  32.206  24.756  1.00  0.00     0.023 A 
ATOM     13  C   UNL     1     -48.775  33.075  26.228  1.00  0.00     0.007 A 
ATOM     14  C   UNL     1     -46.294  33.360  25.032  1.00  0.00    -0.047 A 
ATOM     15  H   UNL     1     -49.762  32.939  26.657  1.00  0.00     0.069 H 
ATOM     16  C   UNL     1     -46.765  34.344  25.901  1.00  0.00    -0.019 A 
ATOM     17  H   UNL     1     -45.327  33.511  24.564  1.00  0.00     0.063 H 
ATOM     18  H   UNL     1     -46.159  35.226  26.098  1.00  0.00     0.066 H 
BRANCH   6  19
ATOM     19  C   UNL     1     -49.744  28.985  23.974  1.00  0.00    -0.013 C 
ATOM     20  H   UNL     1     -50.335  29.252  23.089  1.00  0.00     0.033 H 
ATOM     21  H   UNL     1     -50.451  28.891  24.805  1.00  0.00     0.033 H 
BRANCH  19  22
ATOM     22  C   UNL     1     -49.039  27.659  23.731  1.00  0.00    -0.060 C 
ATOM     23  H   UNL     1     -47.977  27.808  23.512  1.00  0.00     0.023 H 
ATOM     24  H   UNL     1     -49.485  27.123  22.886  1.00  0.00     0.023 H 
ATOM     25  H   UNL     1     -49.117  27.021  24.617  1.00  0.00     0.023 H 
ENDBRANCH  19  22
ENDBRANCH   6  19
BRANCH   9  26
ATOM     26  N   UNL     1     -45.432  31.218  23.173  1.00  0.00    -0.398 N 
ATOM     27  H   UNL     1     -44.706  30.607  23.535  1.00  0.00     0.156 HD
ATOM     28  H   UNL     1     -45.086  32.162  23.037  1.00  0.00     0.156 HD
ENDBRANCH   9  26
ENDBRANCH   4   5
ENDBRANCH   1   4
BRANCH   1  29
ATOM     29  C   UNL     1     -47.314  37.370  27.972  1.00  0.00     0.010 A 
ATOM     30  C   UNL     1     -48.505  38.082  27.988  1.00  0.00     0.034 A 
ATOM     31  C   UNL     1     -46.124  38.106  27.879  1.00  0.00    -0.028 A 
ATOM     32  N   UNL     1     -48.578  39.425  27.898  1.00  0.00    -0.262 NA
ATOM     33  H   UNL     1     -49.466  37.582  28.074  1.00  0.00     0.084 H 
ATOM     34  C   UNL     1     -46.155  39.504  27.774  1.00  0.00     0.066 A 
ATOM     35  H   UNL     1     -45.189  37.555  27.902  1.00  0.00     0.065 H 
ATOM     36  C   UNL     1     -47.408  40.106  27.791  1.00  0.00     0.051 A 
ATOM     37  H   UNL     1     -47.561  41.174  27.700  1.00  0.00     0.086 H 
BRANCH  34  38
ATOM     38  N   UNL     1     -44.947  40.265  27.651  1.00  0.00    -0.298 N 
ATOM     39  C   UNL     1     -43.860  40.171  28.506  1.00  0.00     0.031 A 
ATOM     40  C   UNL     1     -44.622  41.217  26.680  1.00  0.00     0.151 A 
ATOM     41  C   UNL     1     -42.877  41.036  28.089  1.00  0.00     0.072 A 
ATOM     42  H   UNL     1     -43.842  39.482  29.338  1.00  0.00     0.084 H 
ATOM     43  C   UNL     1     -43.345  41.709  26.939  1.00  0.00     0.080 A 
ATOM     44  N   UNL     1     -45.407  41.623  25.662  1.00  0.00    -0.218 NA
ATOM     45  Cl  UNL     1     -41.360  41.243  28.830  1.00  0.00    -0.082 Cl
ATOM     46  C   UNL     1     -42.848  42.689  26.067  1.00  0.00     0.137 A 
ATOM     47  C   UNL     1     -44.829  42.556  24.895  1.00  0.00     0.120 A 
ATOM     48  N   UNL     1     -43.608  43.096  25.036  1.00  0.00    -0.219 NA
ATOM     49  H   UNL     1     -45.416  42.919  24.057  1.00  0.00     0.106 H 
BRANCH  46  50
ATOM     50  N   UNL     1     -41.599  43.278  26.191  1.00  0.00    -0.383 N 
ATOM     51  H   UNL     1     -41.407  44.048  25.565  1.00  0.00     0.158 HD
ATOM     52  H   UNL     1     -41.331  43.389  27.161  1.00  0.00     0.158 HD
ENDBRANCH  46  50
ENDBRANCH  34  38
ENDBRANCH   1  29
TORSDOF 8
ENDMDL
MODEL 5
REMARK VINA RESULT:      -9.5      3.604     11.305
REMARK SMILES CCc1cc(N)c2ccc(OCc3cncc(-n4cc(Cl)c5c(N)ncnc54)c3)cc2n1
REMARK SMILES IDX 12 1 11 4 10 5 3 6 4 7 32 8 5 9 31 11 7 12 30 13 8 14 9 16
REMARK SMILES IDX 2 19 1 22 6 26 13 29 14 30 29 31 15 32 17 34 16 36 18 38
REMARK SMILES IDX 19 39 28 40 20 41 22 43 27 44 21 45 23 46 26 47 25 48 24 50
REMARK H PARENT 12 2 12 3 4 10 30 15 8 17 9 18 2 20 2 21 1 23 1 24 1 25 6 27
REMARK H PARENT 6 28 14 33 29 35 16 37 19 42 26 49 24 51 24 52
REMARK Flexibility Score: inf
ROOT
ATOM      1  C   UNL     1     -47.231  34.002  26.136  1.00  0.00     0.115 C 
ATOM      2  H   UNL     1     -46.178  33.727  26.268  1.00  0.00     0.076 H 
ATOM      3  H   UNL     1     -47.399  34.061  25.054  1.00  0.00     0.076 H 
ENDROOT
BRANCH   1   4
ATOM      4  O   UNL     1     -48.094  32.968  26.618  1.00  0.00    -0.489 OA
BRANCH   4   5
ATOM      5  C   UNL     1     -48.300  31.869  25.832  1.00  0.00     0.122 A 
ATOM      6  C   UNL     1     -49.072  27.244  25.069  1.00  0.00     0.043 A 
ATOM      7  C   UNL     1     -49.171  27.405  23.694  1.00  0.00    -0.017 A 
ATOM      8  N   UNL     1     -48.807  28.274  25.902  1.00  0.00    -0.253 NA
ATOM      9  C   UNL     1     -48.944  28.663  23.136  1.00  0.00     0.043 A 
ATOM     10  H   UNL     1     -49.416  26.557  23.065  1.00  0.00     0.066 H 
ATOM     11  C   UNL     1     -48.663  29.503  25.387  1.00  0.00     0.076 A 
ATOM     12  C   UNL     1     -48.744  29.767  24.001  1.00  0.00     0.023 A 
ATOM     13  C   UNL     1     -48.441  30.553  26.271  1.00  0.00     0.007 A 
ATOM     14  C   UNL     1     -48.622  31.105  23.563  1.00  0.00    -0.047 A 
ATOM     15  H   UNL     1     -48.402  30.299  27.325  1.00  0.00     0.069 H 
ATOM     16  C   UNL     1     -48.403  32.140  24.472  1.00  0.00    -0.019 A 
ATOM     17  H   UNL     1     -48.708  31.357  22.511  1.00  0.00     0.063 H 
ATOM     18  H   UNL     1     -48.313  33.163  24.113  1.00  0.00     0.066 H 
BRANCH   6  19
ATOM     19  C   UNL     1     -49.302  25.896  25.701  1.00  0.00    -0.013 C 
ATOM     20  H   UNL     1     -49.381  25.139  24.911  1.00  0.00     0.033 H 
ATOM     21  H   UNL     1     -50.259  25.892  26.235  1.00  0.00     0.033 H 
BRANCH  19  22
ATOM     22  C   UNL     1     -48.171  25.523  26.648  1.00  0.00    -0.060 C 
ATOM     23  H   UNL     1     -47.731  24.557  26.380  1.00  0.00     0.023 H 
ATOM     24  H   UNL     1     -48.527  25.456  27.682  1.00  0.00     0.023 H 
ATOM     25  H   UNL     1     -47.380  26.279  26.608  1.00  0.00     0.023 H 
ENDBRANCH  19  22
ENDBRANCH   6  19
BRANCH   9  26
ATOM     26  N   UNL     1     -49.133  28.819  21.746  1.00  0.00    -0.398 N 
ATOM     27  H   UNL     1     -49.818  28.180  21.354  1.00  0.00     0.156 HD
ATOM     28  H   UNL     1     -48.270  28.806  21.214  1.00  0.00     0.156 HD
ENDBRANCH   9  26
ENDBRANCH   4   5
ENDBRANCH   1   4
BRANCH   1  29
ATOM     29  C   UNL     1     -47.539  35.361  26.713  1.00  0.00     0.010 A 
ATOM     30  C   UNL     1     -48.793  35.612  27.252  1.00  0.00     0.034 A 
ATOM     31  C   UNL     1     -46.587  36.388  26.788  1.00  0.00    -0.028 A 
ATOM     32  N   UNL     1     -49.147  36.785  27.816  1.00  0.00    -0.262 NA
ATOM     33  H   UNL     1     -49.577  34.860  27.246  1.00  0.00     0.084 H 
ATOM     34  C   UNL     1     -46.916  37.627  27.358  1.00  0.00     0.066 A 
ATOM     35  H   UNL     1     -45.595  36.183  26.400  1.00  0.00     0.065 H 
ATOM     36  C   UNL     1     -48.208  37.764  27.855  1.00  0.00     0.051 A 
ATOM     37  H   UNL     1     -48.584  38.676  28.301  1.00  0.00     0.086 H 
BRANCH  34  38
ATOM     38  N   UNL     1     -45.961  38.693  27.415  1.00  0.00    -0.298 N 
ATOM     39  C   UNL     1     -45.835  39.697  26.468  1.00  0.00     0.031 A 
ATOM     40  C   UNL     1     -45.000  38.938  28.400  1.00  0.00     0.151 A 
ATOM     41  C   UNL     1     -44.827  40.551  26.840  1.00  0.00     0.072 A 
ATOM     42  H   UNL     1     -46.483  39.755  25.605  1.00  0.00     0.084 H 
ATOM     43  C   UNL     1     -44.284  40.083  28.057  1.00  0.00     0.080 A 
ATOM     44  N   UNL     1     -44.770  38.193  29.500  1.00  0.00    -0.218 NA
ATOM     45  Cl  UNL     1     -44.334  41.935  25.984  1.00  0.00    -0.082 Cl
ATOM     46  C   UNL     1     -43.262  40.485  28.930  1.00  0.00     0.137 A 
ATOM     47  C   UNL     1     -43.777  38.672  30.259  1.00  0.00     0.120 A 
ATOM     48  N   UNL     1     -43.028  39.764  30.041  1.00  0.00    -0.219 NA
ATOM     49  H   UNL     1     -43.549  38.111  31.161  1.00  0.00     0.106 H 
BRANCH  46  50
ATOM     50  N   UNL     1     -42.461  41.597  28.729  1.00  0.00    -0.383 N 
ATOM     51  H   UNL     1     -42.852  42.484  29.016  1.00  0.00     0.158 HD
ATOM     52  H   UNL     1     -41.495  41.414  28.973  1.00  0.00     0.158 HD
ENDBRANCH  46  50
ENDBRANCH  34  38
ENDBRANCH   1  29
TORSDOF 8
ENDMDL
MODEL 6
REMARK VINA RESULT:      -9.4      3.440     11.008
REMARK SMILES CCc1cc(N)c2ccc(OCc3cncc(-n4cc(Cl)c5c(N)ncnc54)c3)cc2n1
REMARK SMILES IDX 12 1 11 4 10 5 3 6 4 7 32 8 5 9 31 11 7 12 30 13 8 14 9 16
REMARK SMILES IDX 2 19 1 22 6 26 13 29 14 30 29 31 15 32 17 34 16 36 18 38
REMARK SMILES IDX 19 39 28 40 20 41 22 43 27 44 21 45 23 46 26 47 25 48 24 50
REMARK H PARENT 12 2 12 3 4 10 30 15 8 17 9 18 2 20 2 21 1 23 1 24 1 25 6 27
REMARK H PARENT 6 28 14 33 29 35 16 37 19 42 26 49 24 51 24 52
REMARK Flexibility Score: inf
ROOT
ATOM      1  C   UNL     1     -45.888  34.534  27.124  1.00  0.00     0.115 C 
ATOM      2  H   UNL     1     -45.110  33.788  27.331  1.00  0.00     0.076 H 
ATOM      3  H   UNL     1     -45.636  34.978  26.153  1.00  0.00     0.076 H 
ENDROOT
BRANCH   1   4
ATOM      4  O   UNL     1     -47.164  33.910  26.958  1.00  0.00    -0.489 OA
BRANCH   4   5
ATOM      5  C   UNL     1     -47.276  32.873  26.075  1.00  0.00     0.122 A 
ATOM      6  C   UNL     1     -49.253  28.905  24.367  1.00  0.00     0.043 A 
ATOM      7  C   UNL     1     -48.402  28.858  23.271  1.00  0.00    -0.017 A 
ATOM      8  N   UNL     1     -49.160  29.864  25.315  1.00  0.00    -0.253 NA
ATOM      9  C   UNL     1     -47.380  29.800  23.159  1.00  0.00     0.043 A 
ATOM     10  H   UNL     1     -48.531  28.088  22.518  1.00  0.00     0.066 H 
ATOM     11  C   UNL     1     -48.232  30.822  25.178  1.00  0.00     0.076 A 
ATOM     12  C   UNL     1     -47.319  30.856  24.101  1.00  0.00     0.023 A 
ATOM     13  C   UNL     1     -48.191  31.823  26.141  1.00  0.00     0.007 A 
ATOM     14  C   UNL     1     -46.408  31.933  24.025  1.00  0.00    -0.047 A 
ATOM     15  H   UNL     1     -48.922  31.759  26.940  1.00  0.00     0.069 H 
ATOM     16  C   UNL     1     -46.391  32.928  25.003  1.00  0.00    -0.019 A 
ATOM     17  H   UNL     1     -45.710  32.016  23.198  1.00  0.00     0.063 H 
ATOM     18  H   UNL     1     -45.681  33.749  24.924  1.00  0.00     0.066 H 
BRANCH   6  19
ATOM     19  C   UNL     1     -50.360  27.896  24.522  1.00  0.00    -0.013 C 
ATOM     20  H   UNL     1     -50.496  27.365  23.572  1.00  0.00     0.033 H 
ATOM     21  H   UNL     1     -51.306  28.408  24.732  1.00  0.00     0.033 H 
BRANCH  19  22
ATOM     22  C   UNL     1     -50.050  26.893  25.623  1.00  0.00    -0.060 C 
ATOM     23  H   UNL     1     -50.969  26.497  26.069  1.00  0.00     0.023 H 
ATOM     24  H   UNL     1     -49.459  27.353  26.422  1.00  0.00     0.023 H 
ATOM     25  H   UNL     1     -49.479  26.052  25.218  1.00  0.00     0.023 H 
ENDBRANCH  19  22
ENDBRANCH   6  19
BRANCH   9  26
ATOM     26  N   UNL     1     -46.582  29.781  21.995  1.00  0.00    -0.398 N 
ATOM     27  H   UNL     1     -47.024  29.320  21.205  1.00  0.00     0.156 HD
ATOM     28  H   UNL     1     -45.644  29.427  22.150  1.00  0.00     0.156 HD
ENDBRANCH   9  26
ENDBRANCH   4   5
ENDBRANCH   1   4
BRANCH   1  29
ATOM     29  C   UNL     1     -45.890  35.647  28.141  1.00  0.00     0.010 A 
ATOM     30  C   UNL     1     -46.660  35.530  29.290  1.00  0.00     0.034 A 
ATOM     31  C   UNL     1     -45.093  36.794  28.013  1.00  0.00    -0.028 A 
ATOM     32  N   UNL     1     -46.699  36.459  30.266  1.00  0.00    -0.262 NA
ATOM     33  H   UNL     1     -47.289  34.662  29.467  1.00  0.00     0.084 H 
ATOM     34  C   UNL     1     -45.111  37.790  29.001  1.00  0.00     0.066 A 
ATOM     35  H   UNL     1     -44.463  36.873  27.133  1.00  0.00     0.065 H 
ATOM     36  C   UNL     1     -45.930  37.566  30.101  1.00  0.00     0.051 A 
ATOM     37  H   UNL     1     -46.041  38.268  30.918  1.00  0.00     0.086 H 
BRANCH  34  38
ATOM     38  N   UNL     1     -44.323  38.980  28.868  1.00  0.00    -0.298 N 
ATOM     39  C   UNL     1     -43.310  39.361  29.733  1.00  0.00     0.031 A 
ATOM     40  C   UNL     1     -44.405  39.962  27.876  1.00  0.00     0.151 A 
ATOM     41  C   UNL     1     -42.765  40.546  29.303  1.00  0.00     0.072 A 
ATOM     42  H   UNL     1     -43.023  38.757  30.582  1.00  0.00     0.084 H 
ATOM     43  C   UNL     1     -43.449  40.943  28.133  1.00  0.00     0.080 A 
ATOM     44  N   UNL     1     -45.269  39.987  26.842  1.00  0.00    -0.218 NA
ATOM     45  Cl  UNL     1     -41.483  41.376  30.050  1.00  0.00    -0.082 Cl
ATOM     46  C   UNL     1     -43.386  42.023  27.240  1.00  0.00     0.137 A 
ATOM     47  C   UNL     1     -45.115  41.060  26.056  1.00  0.00     0.120 A 
ATOM     48  N   UNL     1     -44.229  42.059  26.193  1.00  0.00    -0.219 NA
ATOM     49  H   UNL     1     -45.785  41.132  25.205  1.00  0.00     0.106 H 
BRANCH  46  50
ATOM     50  N   UNL     1     -42.495  43.078  27.359  1.00  0.00    -0.383 N 
ATOM     51  H   UNL     1     -41.657  42.893  27.894  1.00  0.00     0.158 HD
ATOM     52  H   UNL     1     -42.388  43.581  26.487  1.00  0.00     0.158 HD
ENDBRANCH  46  50
ENDBRANCH  34  38
ENDBRANCH   1  29
TORSDOF 8
ENDMDL
MODEL 7
REMARK VINA RESULT:      -9.2      1.785      2.216
REMARK SMILES CCc1cc(N)c2ccc(OCc3cncc(-n4cc(Cl)c5c(N)ncnc54)c3)cc2n1
REMARK SMILES IDX 12 1 11 4 10 5 3 6 4 7 32 8 5 9 31 11 7 12 30 13 8 14 9 16
REMARK SMILES IDX 2 19 1 22 6 26 13 29 14 30 29 31 15 32 17 34 16 36 18 38
REMARK SMILES IDX 19 39 28 40 20 41 22 43 27 44 21 45 23 46 26 47 25 48 24 50
REMARK H PARENT 12 2 12 3 4 10 30 15 8 17 9 18 2 20 2 21 1 23 1 24 1 25 6 27
REMARK H PARENT 6 28 14 33 29 35 16 37 19 42 26 49 24 51 24 52
REMARK Flexibility Score: inf
ROOT
ATOM      1  C   UNL     1     -45.553  35.789  27.805  1.00  0.00     0.115 C 
ATOM      2  H   UNL     1     -44.743  35.993  27.094  1.00  0.00     0.076 H 
ATOM      3  H   UNL     1     -45.109  35.194  28.613  1.00  0.00     0.076 H 
ENDROOT
BRANCH   1   4
ATOM      4  O   UNL     1     -46.021  36.997  28.410  1.00  0.00    -0.489 OA
BRANCH   4   5
ATOM      5  C   UNL     1     -45.178  38.072  28.462  1.00  0.00     0.122 A 
ATOM      6  C   UNL     1     -43.258  42.083  26.791  1.00  0.00     0.043 A 
ATOM      7  C   UNL     1     -42.476  42.274  27.921  1.00  0.00    -0.017 A 
ATOM      8  N   UNL     1     -44.067  41.011  26.642  1.00  0.00    -0.253 NA
ATOM      9  C   UNL     1     -42.480  41.306  28.926  1.00  0.00     0.043 A 
ATOM     10  H   UNL     1     -41.863  43.164  28.013  1.00  0.00     0.066 H 
ATOM     11  C   UNL     1     -44.140  40.112  27.635  1.00  0.00     0.076 A 
ATOM     12  C   UNL     1     -43.381  40.218  28.821  1.00  0.00     0.023 A 
ATOM     13  C   UNL     1     -45.017  39.046  27.477  1.00  0.00     0.007 A 
ATOM     14  C   UNL     1     -43.563  39.241  29.825  1.00  0.00    -0.047 A 
ATOM     15  H   UNL     1     -45.587  39.018  26.554  1.00  0.00     0.069 H 
ATOM     16  C   UNL     1     -44.453  38.183  29.643  1.00  0.00    -0.019 A 
ATOM     17  H   UNL     1     -43.023  39.300  30.765  1.00  0.00     0.063 H 
ATOM     18  H   UNL     1     -44.578  37.442  30.431  1.00  0.00     0.066 H 
BRANCH   6  19
ATOM     19  C   UNL     1     -43.268  43.105  25.684  1.00  0.00    -0.013 C 
ATOM     20  H   UNL     1     -43.834  43.985  26.014  1.00  0.00     0.033 H 
ATOM     21  H   UNL     1     -43.796  42.704  24.811  1.00  0.00     0.033 H 
BRANCH  19  22
ATOM     22  C   UNL     1     -41.858  43.524  25.299  1.00  0.00    -0.060 C 
ATOM     23  H   UNL     1     -41.745  44.613  25.333  1.00  0.00     0.023 H 
ATOM     24  H   UNL     1     -41.609  43.191  24.285  1.00  0.00     0.023 H 
ATOM     25  H   UNL     1     -41.131  43.086  25.990  1.00  0.00     0.023 H 
ENDBRANCH  19  22
ENDBRANCH   6  19
BRANCH   9  26
ATOM     26  N   UNL     1     -41.741  41.563  30.101  1.00  0.00    -0.398 N 
ATOM     27  H   UNL     1     -40.797  41.188  30.077  1.00  0.00     0.156 HD
ATOM     28  H   UNL     1     -42.223  41.294  30.952  1.00  0.00     0.156 HD
ENDBRANCH   9  26
ENDBRANCH   4   5
ENDBRANCH   1   4
BRANCH   1  29
ATOM     29  C   UNL     1     -46.651  34.959  27.189  1.00  0.00     0.010 A 
ATOM     30  C   UNL     1     -47.979  35.290  27.424  1.00  0.00     0.034 A 
ATOM     31  C   UNL     1     -46.398  33.883  26.326  1.00  0.00    -0.028 A 
ATOM     32  N   UNL     1     -49.024  34.626  26.891  1.00  0.00    -0.262 NA
ATOM     33  H   UNL     1     -48.253  36.122  28.067  1.00  0.00     0.084 H 
ATOM     34  C   UNL     1     -47.456  33.158  25.758  1.00  0.00     0.066 A 
ATOM     35  H   UNL     1     -45.361  33.644  26.112  1.00  0.00     0.065 H 
ATOM     36  C   UNL     1     -48.743  33.577  26.076  1.00  0.00     0.051 A 
ATOM     37  H   UNL     1     -49.638  33.088  25.713  1.00  0.00     0.086 H 
BRANCH  34  38
ATOM     38  N   UNL     1     -47.210  32.039  24.898  1.00  0.00    -0.298 N 
ATOM     39  C   UNL     1     -46.345  32.047  23.815  1.00  0.00     0.031 A 
ATOM     40  C   UNL     1     -47.763  30.757  24.971  1.00  0.00     0.151 A 
ATOM     41  C   UNL     1     -46.348  30.809  23.220  1.00  0.00     0.072 A 
ATOM     42  H   UNL     1     -45.765  32.919  23.549  1.00  0.00     0.084 H 
ATOM     43  C   UNL     1     -47.244  29.983  23.935  1.00  0.00     0.080 A 
ATOM     44  N   UNL     1     -48.665  30.323  25.872  1.00  0.00    -0.218 NA
ATOM     45  Cl  UNL     1     -45.424  30.356  21.867  1.00  0.00    -0.082 Cl
ATOM     46  C   UNL     1     -47.693  28.657  23.841  1.00  0.00     0.137 A 
ATOM     47  C   UNL     1     -49.018  29.045  25.688  1.00  0.00     0.120 A 
ATOM     48  N   UNL     1     -48.581  28.200  24.741  1.00  0.00    -0.219 NA
ATOM     49  H   UNL     1     -49.743  28.641  26.389  1.00  0.00     0.106 H 
BRANCH  46  50
ATOM     50  N   UNL     1     -47.275  27.762  22.869  1.00  0.00    -0.383 N 
ATOM     51  H   UNL     1     -46.562  28.097  22.235  1.00  0.00     0.158 HD
ATOM     52  H   UNL     1     -47.164  26.827  23.241  1.00  0.00     0.158 HD
ENDBRANCH  46  50
ENDBRANCH  34  38
ENDBRANCH   1  29
TORSDOF 8
ENDMDL
