MODEL 1
REMARK VINA RESULT:      -7.9      0.000      0.000
REMARK SMILES CC1(C)CCN(Cc2ccc(C(=O)NC3CCN(c4cc(NCc5ccccc5)ncn4)CC3)cn2)CC1
REMARK SMILES IDX 15 1 16 2 17 3 18 4 33 5 34 6 14 16 12 17 13 18 11 20 8 21
REMARK SMILES IDX 9 22 36 23 10 24 35 26 7 29 6 32 2 33 4 34 38 35 5 36 37 39
REMARK SMILES IDX 1 46 3 50 19 54 20 55 32 56 21 57 31 59 30 60 22 62 23 64
REMARK SMILES IDX 24 67 25 68 29 69 26 70 28 72 27 74
REMARK H PARENT 15 7 16 8 16 9 17 10 17 11 33 12 33 13 34 14 34 15 14 19 9 25
REMARK H PARENT 10 27 35 28 7 30 7 31 4 37 4 38 38 40 38 41 5 42 5 43 37 44
REMARK H PARENT 37 45 1 47 1 48 1 49 3 51 3 52 3 53 20 58 31 61 22 63 23 65
REMARK H PARENT 23 66 25 71 29 73 26 75 28 76 27 77
REMARK Flexibility Score: inf
ROOT
ATOM      1  C   UNL     1     -49.895  44.476  26.241  1.00  0.00     0.032 C 
ATOM      2  C   UNL     1     -49.330  45.771  26.826  1.00  0.00    -0.015 C 
ATOM      3  C   UNL     1     -47.824  45.925  26.577  1.00  0.00     0.021 C 
ATOM      4  N   UNL     1     -47.368  44.993  25.529  1.00  0.00    -0.356 N 
ATOM      5  C   UNL     1     -48.240  44.965  24.347  1.00  0.00     0.021 C 
ATOM      6  C   UNL     1     -49.618  44.411  24.730  1.00  0.00    -0.015 C 
ATOM      7  H   UNL     1     -50.981  44.448  26.400  1.00  0.00     0.053 H 
ATOM      8  H   UNL     1     -49.531  45.834  27.902  1.00  0.00     0.031 H 
ATOM      9  H   UNL     1     -49.851  46.621  26.367  1.00  0.00     0.031 H 
ATOM     10  H   UNL     1     -47.614  46.970  26.312  1.00  0.00     0.049 H 
ATOM     11  H   UNL     1     -47.294  45.703  27.512  1.00  0.00     0.049 H 
ATOM     12  H   UNL     1     -47.843  44.352  23.531  1.00  0.00     0.049 H 
ATOM     13  H   UNL     1     -48.349  45.983  23.948  1.00  0.00     0.049 H 
ATOM     14  H   UNL     1     -49.710  43.379  24.368  1.00  0.00     0.031 H 
ATOM     15  H   UNL     1     -50.380  44.988  24.191  1.00  0.00     0.031 H 
ENDROOT
BRANCH   1  16
ATOM     16  N   UNL     1     -49.324  43.316  26.922  1.00  0.00    -0.349 N 
ATOM     17  C   UNL     1     -49.742  42.033  26.631  1.00  0.00     0.253 C 
ATOM     18  O   UNL     1     -50.721  41.777  25.939  1.00  0.00    -0.269 OA
ATOM     19  H   UNL     1     -48.353  43.435  27.191  1.00  0.00     0.164 HD
BRANCH  17  20
ATOM     20  C   UNL     1     -48.894  40.938  27.156  1.00  0.00     0.058 A 
ATOM     21  C   UNL     1     -47.487  38.794  28.176  1.00  0.00     0.054 A 
ATOM     22  C   UNL     1     -46.847  39.679  27.308  1.00  0.00    -0.038 A 
ATOM     23  N   UNL     1     -48.778  38.970  28.561  1.00  0.00    -0.259 NA
ATOM     24  C   UNL     1     -47.559  40.762  26.790  1.00  0.00    -0.046 A 
ATOM     25  H   UNL     1     -45.809  39.531  27.029  1.00  0.00     0.064 H 
ATOM     26  C   UNL     1     -49.446  40.037  28.053  1.00  0.00     0.040 A 
ATOM     27  H   UNL     1     -47.059  41.456  26.123  1.00  0.00     0.063 H 
ATOM     28  H   UNL     1     -50.475  40.134  28.390  1.00  0.00     0.085 H 
BRANCH  21  29
ATOM     29  C   UNL     1     -46.758  37.573  28.717  1.00  0.00     0.041 C 
ATOM     30  H   UNL     1     -45.696  37.639  28.445  1.00  0.00     0.050 H 
ATOM     31  H   UNL     1     -46.765  37.634  29.813  1.00  0.00     0.050 H 
BRANCH  29  32
ATOM     32  N   UNL     1     -47.285  36.254  28.324  1.00  0.00    -0.297 NA
ATOM     33  C   UNL     1     -46.914  33.870  26.516  1.00  0.00    -0.033 C 
ATOM     34  C   UNL     1     -48.154  34.799  26.526  1.00  0.00    -0.035 C 
ATOM     35  C   UNL     1     -45.838  34.386  27.504  1.00  0.00    -0.035 C 
ATOM     36  C   UNL     1     -47.790  36.225  26.947  1.00  0.00    -0.001 C 
ATOM     37  H   UNL     1     -48.630  34.817  25.538  1.00  0.00     0.029 H 
ATOM     38  H   UNL     1     -48.916  34.417  27.219  1.00  0.00     0.029 H 
ATOM     39  C   UNL     1     -46.456  35.111  28.700  1.00  0.00    -0.001 C 
ATOM     40  H   UNL     1     -45.153  35.077  26.993  1.00  0.00     0.029 H 
ATOM     41  H   UNL     1     -45.213  33.557  27.859  1.00  0.00     0.029 H 
ATOM     42  H   UNL     1     -48.684  36.856  26.878  1.00  0.00     0.043 H 
ATOM     43  H   UNL     1     -47.060  36.618  26.231  1.00  0.00     0.043 H 
ATOM     44  H   UNL     1     -45.671  35.387  29.412  1.00  0.00     0.043 H 
ATOM     45  H   UNL     1     -47.094  34.404  29.246  1.00  0.00     0.043 H 
BRANCH  33  46
ATOM     46  C   UNL     1     -47.352  32.447  26.907  1.00  0.00    -0.060 C 
ATOM     47  H   UNL     1     -47.621  31.860  26.020  1.00  0.00     0.024 H 
ATOM     48  H   UNL     1     -48.223  32.466  27.571  1.00  0.00     0.024 H 
ATOM     49  H   UNL     1     -46.551  31.914  27.429  1.00  0.00     0.024 H 
ENDBRANCH  33  46
BRANCH  33  50
ATOM     50  C   UNL     1     -46.302  33.816  25.104  1.00  0.00    -0.060 C 
ATOM     51  H   UNL     1     -46.762  33.026  24.501  1.00  0.00     0.024 H 
ATOM     52  H   UNL     1     -45.225  33.619  25.145  1.00  0.00     0.024 H 
ATOM     53  H   UNL     1     -46.447  34.764  24.576  1.00  0.00     0.024 H 
ENDBRANCH  33  50
ENDBRANCH  29  32
ENDBRANCH  21  29
ENDBRANCH  17  20
ENDBRANCH   1  16
BRANCH   4  54
ATOM     54  C   UNL     1     -45.992  45.085  25.244  1.00  0.00     0.134 A 
ATOM     55  C   UNL     1     -45.120  44.123  25.731  1.00  0.00     0.023 A 
ATOM     56  N   UNL     1     -45.526  46.139  24.556  1.00  0.00    -0.219 NA
ATOM     57  C   UNL     1     -43.771  44.249  25.450  1.00  0.00     0.131 A 
ATOM     58  H   UNL     1     -45.474  43.308  26.349  1.00  0.00     0.070 H 
ATOM     59  C   UNL     1     -44.205  46.187  24.344  1.00  0.00     0.120 A 
ATOM     60  N   UNL     1     -43.299  45.290  24.753  1.00  0.00    -0.219 NA
ATOM     61  H   UNL     1     -43.831  47.037  23.785  1.00  0.00     0.106 H 
BRANCH  57  62
ATOM     62  N   UNL     1     -42.891  43.293  25.981  1.00  0.00    -0.366 N 
ATOM     63  H   UNL     1     -42.467  43.639  26.837  1.00  0.00     0.162 HD
BRANCH  62  64
ATOM     64  C   UNL     1     -43.472  41.971  26.176  1.00  0.00     0.041 C 
ATOM     65  H   UNL     1     -44.568  42.018  26.192  1.00  0.00     0.054 H 
ATOM     66  H   UNL     1     -43.179  41.286  25.370  1.00  0.00     0.054 H 
BRANCH  64  67
ATOM     67  C   UNL     1     -42.978  41.416  27.493  1.00  0.00    -0.029 A 
ATOM     68  C   UNL     1     -43.709  40.435  28.178  1.00  0.00    -0.057 A 
ATOM     69  C   UNL     1     -41.796  41.905  28.067  1.00  0.00    -0.057 A 
ATOM     70  C   UNL     1     -43.259  39.947  29.407  1.00  0.00    -0.062 A 
ATOM     71  H   UNL     1     -44.634  40.045  27.761  1.00  0.00     0.063 H 
ATOM     72  C   UNL     1     -41.348  41.418  29.295  1.00  0.00    -0.062 A 
ATOM     73  H   UNL     1     -41.226  42.680  27.557  1.00  0.00     0.063 H 
ATOM     74  C   UNL     1     -42.078  40.437  29.963  1.00  0.00    -0.062 A 
ATOM     75  H   UNL     1     -43.828  39.184  29.931  1.00  0.00     0.062 H 
ATOM     76  H   UNL     1     -40.431  41.806  29.731  1.00  0.00     0.062 H 
ATOM     77  H   UNL     1     -41.729  40.058  30.920  1.00  0.00     0.062 H 
ENDBRANCH  64  67
ENDBRANCH  62  64
ENDBRANCH  57  62
ENDBRANCH   4  54
TORSDOF 10
ENDMDL
MODEL 2
REMARK VINA RESULT:      -7.8      2.535      4.533
REMARK SMILES CC1(C)CCN(Cc2ccc(C(=O)NC3CCN(c4cc(NCc5ccccc5)ncn4)CC3)cn2)CC1
REMARK SMILES IDX 15 1 16 2 17 3 18 4 33 5 34 6 14 16 12 17 13 18 11 20 8 21
REMARK SMILES IDX 9 22 36 23 10 24 35 26 7 29 6 32 2 33 4 34 38 35 5 36 37 39
REMARK SMILES IDX 1 46 3 50 19 54 20 55 32 56 21 57 31 59 30 60 22 62 23 64
REMARK SMILES IDX 24 67 25 68 29 69 26 70 28 72 27 74
REMARK H PARENT 15 7 16 8 16 9 17 10 17 11 33 12 33 13 34 14 34 15 14 19 9 25
REMARK H PARENT 10 27 35 28 7 30 7 31 4 37 4 38 38 40 38 41 5 42 5 43 37 44
REMARK H PARENT 37 45 1 47 1 48 1 49 3 51 3 52 3 53 20 58 31 61 22 63 23 65
REMARK H PARENT 23 66 25 71 29 73 26 75 28 76 27 77
REMARK Flexibility Score: inf
ROOT
ATOM      1  C   UNL     1     -51.377  39.572  28.404  1.00  0.00     0.032 C 
ATOM      2  C   UNL     1     -50.719  40.526  29.401  1.00  0.00    -0.015 C 
ATOM      3  C   UNL     1     -49.564  41.324  28.782  1.00  0.00     0.021 C 
ATOM      4  N   UNL     1     -49.612  41.259  27.310  1.00  0.00    -0.356 N 
ATOM      5  C   UNL     1     -50.953  41.485  26.755  1.00  0.00     0.021 C 
ATOM      6  C   UNL     1     -51.892  40.351  27.183  1.00  0.00    -0.015 C 
ATOM      7  H   UNL     1     -52.227  39.072  28.886  1.00  0.00     0.053 H 
ATOM      8  H   UNL     1     -50.357  39.981  30.282  1.00  0.00     0.031 H 
ATOM      9  H   UNL     1     -51.478  41.230  29.767  1.00  0.00     0.031 H 
ATOM     10  H   UNL     1     -49.616  42.359  29.146  1.00  0.00     0.049 H 
ATOM     11  H   UNL     1     -48.618  40.892  29.132  1.00  0.00     0.049 H 
ATOM     12  H   UNL     1     -50.964  41.540  25.661  1.00  0.00     0.049 H 
ATOM     13  H   UNL     1     -51.342  42.446  27.118  1.00  0.00     0.049 H 
ATOM     14  H   UNL     1     -52.056  39.673  26.337  1.00  0.00     0.031 H 
ATOM     15  H   UNL     1     -52.872  40.789  27.413  1.00  0.00     0.031 H 
ENDROOT
BRANCH   1  16
ATOM     16  N   UNL     1     -50.435  38.532  27.993  1.00  0.00    -0.349 N 
ATOM     17  C   UNL     1     -50.515  37.249  28.496  1.00  0.00     0.253 C 
ATOM     18  O   UNL     1     -51.238  36.930  29.433  1.00  0.00    -0.269 OA
ATOM     19  H   UNL     1     -50.100  38.635  27.041  1.00  0.00     0.164 HD
BRANCH  17  20
ATOM     20  C   UNL     1     -49.711  36.224  27.791  1.00  0.00     0.058 A 
ATOM     21  C   UNL     1     -48.059  34.354  26.612  1.00  0.00     0.054 A 
ATOM     22  C   UNL     1     -49.439  34.261  26.424  1.00  0.00    -0.038 A 
ATOM     23  N   UNL     1     -47.497  35.357  27.336  1.00  0.00    -0.259 NA
ATOM     24  C   UNL     1     -50.273  35.205  27.022  1.00  0.00    -0.046 A 
ATOM     25  H   UNL     1     -49.865  33.464  25.825  1.00  0.00     0.064 H 
ATOM     26  C   UNL     1     -48.329  36.270  27.899  1.00  0.00     0.040 A 
ATOM     27  H   UNL     1     -51.346  35.140  26.868  1.00  0.00     0.063 H 
ATOM     28  H   UNL     1     -47.832  37.051  28.468  1.00  0.00     0.085 H 
BRANCH  21  29
ATOM     29  C   UNL     1     -47.122  33.311  26.020  1.00  0.00     0.041 C 
ATOM     30  H   UNL     1     -46.159  33.784  25.789  1.00  0.00     0.050 H 
ATOM     31  H   UNL     1     -46.888  32.582  26.808  1.00  0.00     0.050 H 
BRANCH  29  32
ATOM     32  N   UNL     1     -47.606  32.576  24.838  1.00  0.00    -0.297 NA
ATOM     33  C   UNL     1     -47.905  29.866  23.550  1.00  0.00    -0.033 C 
ATOM     34  C   UNL     1     -47.088  31.047  22.968  1.00  0.00    -0.035 C 
ATOM     35  C   UNL     1     -48.479  30.234  24.941  1.00  0.00    -0.035 C 
ATOM     36  C   UNL     1     -46.526  31.946  24.072  1.00  0.00    -0.001 C 
ATOM     37  H   UNL     1     -46.266  30.676  22.342  1.00  0.00     0.029 H 
ATOM     38  H   UNL     1     -47.714  31.661  22.307  1.00  0.00     0.029 H 
ATOM     39  C   UNL     1     -48.776  31.729  25.063  1.00  0.00    -0.001 C 
ATOM     40  H   UNL     1     -47.770  29.953  25.731  1.00  0.00     0.029 H 
ATOM     41  H   UNL     1     -49.393  29.660  25.143  1.00  0.00     0.029 H 
ATOM     42  H   UNL     1     -45.906  32.727  23.615  1.00  0.00     0.043 H 
ATOM     43  H   UNL     1     -45.869  31.340  24.706  1.00  0.00     0.043 H 
ATOM     44  H   UNL     1     -49.255  31.934  26.026  1.00  0.00     0.043 H 
ATOM     45  H   UNL     1     -49.530  31.999  24.312  1.00  0.00     0.043 H 
BRANCH  33  46
ATOM     46  C   UNL     1     -49.048  29.523  22.578  1.00  0.00    -0.060 C 
ATOM     47  H   UNL     1     -49.687  30.396  22.397  1.00  0.00     0.024 H 
ATOM     48  H   UNL     1     -49.682  28.723  22.974  1.00  0.00     0.024 H 
ATOM     49  H   UNL     1     -48.660  29.189  21.611  1.00  0.00     0.024 H 
ENDBRANCH  33  46
BRANCH  33  50
ATOM     50  C   UNL     1     -47.008  28.623  23.700  1.00  0.00    -0.060 C 
ATOM     51  H   UNL     1     -47.559  27.788  24.147  1.00  0.00     0.024 H 
ATOM     52  H   UNL     1     -46.143  28.832  24.339  1.00  0.00     0.024 H 
ATOM     53  H   UNL     1     -46.632  28.290  22.727  1.00  0.00     0.024 H 
ENDBRANCH  33  50
ENDBRANCH  29  32
ENDBRANCH  21  29
ENDBRANCH  17  20
ENDBRANCH   1  16
BRANCH   4  54
ATOM     54  C   UNL     1     -48.581  41.977  26.674  1.00  0.00     0.134 A 
ATOM     55  C   UNL     1     -47.284  41.488  26.692  1.00  0.00     0.023 A 
ATOM     56  N   UNL     1     -48.851  43.165  26.109  1.00  0.00    -0.219 NA
ATOM     57  C   UNL     1     -46.288  42.225  26.076  1.00  0.00     0.131 A 
ATOM     58  H   UNL     1     -47.041  40.568  27.209  1.00  0.00     0.070 H 
ATOM     59  C   UNL     1     -47.823  43.816  25.549  1.00  0.00     0.120 A 
ATOM     60  N   UNL     1     -46.552  43.403  25.498  1.00  0.00    -0.219 NA
ATOM     61  H   UNL     1     -48.044  44.773  25.091  1.00  0.00     0.106 H 
BRANCH  57  62
ATOM     62  N   UNL     1     -44.972  41.740  26.134  1.00  0.00    -0.366 N 
ATOM     63  H   UNL     1     -44.356  42.439  26.538  1.00  0.00     0.162 HD
BRANCH  62  64
ATOM     64  C   UNL     1     -44.824  40.454  26.803  1.00  0.00     0.041 C 
ATOM     65  H   UNL     1     -45.757  40.153  27.295  1.00  0.00     0.054 H 
ATOM     66  H   UNL     1     -44.554  39.665  26.089  1.00  0.00     0.054 H 
BRANCH  64  67
ATOM     67  C   UNL     1     -43.729  40.571  27.838  1.00  0.00    -0.029 A 
ATOM     68  C   UNL     1     -43.754  39.790  29.002  1.00  0.00    -0.057 A 
ATOM     69  C   UNL     1     -42.690  41.497  27.665  1.00  0.00    -0.057 A 
ATOM     70  C   UNL     1     -42.753  39.924  29.966  1.00  0.00    -0.062 A 
ATOM     71  H   UNL     1     -44.555  39.072  29.166  1.00  0.00     0.063 H 
ATOM     72  C   UNL     1     -41.691  41.631  28.630  1.00  0.00    -0.062 A 
ATOM     73  H   UNL     1     -42.665  42.124  26.777  1.00  0.00     0.063 H 
ATOM     74  C   UNL     1     -41.722  40.843  29.779  1.00  0.00    -0.062 A 
ATOM     75  H   UNL     1     -42.777  39.312  30.864  1.00  0.00     0.062 H 
ATOM     76  H   UNL     1     -40.891  42.353  28.486  1.00  0.00     0.062 H 
ATOM     77  H   UNL     1     -40.943  40.948  30.530  1.00  0.00     0.062 H 
ENDBRANCH  64  67
ENDBRANCH  62  64
ENDBRANCH  57  62
ENDBRANCH   4  54
TORSDOF 10
ENDMDL
MODEL 3
REMARK VINA RESULT:      -7.8      2.156      6.339
REMARK SMILES CC1(C)CCN(Cc2ccc(C(=O)NC3CCN(c4cc(NCc5ccccc5)ncn4)CC3)cn2)CC1
REMARK SMILES IDX 15 1 16 2 17 3 18 4 33 5 34 6 14 16 12 17 13 18 11 20 8 21
REMARK SMILES IDX 9 22 36 23 10 24 35 26 7 29 6 32 2 33 4 34 38 35 5 36 37 39
REMARK SMILES IDX 1 46 3 50 19 54 20 55 32 56 21 57 31 59 30 60 22 62 23 64
REMARK SMILES IDX 24 67 25 68 29 69 26 70 28 72 27 74
REMARK H PARENT 15 7 16 8 16 9 17 10 17 11 33 12 33 13 34 14 34 15 14 19 9 25
REMARK H PARENT 10 27 35 28 7 30 7 31 4 37 4 38 38 40 38 41 5 42 5 43 37 44
REMARK H PARENT 37 45 1 47 1 48 1 49 3 51 3 52 3 53 20 58 31 61 22 63 23 65
REMARK H PARENT 23 66 25 71 29 73 26 75 28 76 27 77
REMARK Flexibility Score: inf
ROOT
ATOM      1  C   UNL     1     -44.488  43.844  24.591  1.00  0.00     0.032 C 
ATOM      2  C   UNL     1     -43.318  44.407  25.399  1.00  0.00    -0.015 C 
ATOM      3  C   UNL     1     -43.015  43.580  26.655  1.00  0.00     0.021 C 
ATOM      4  N   UNL     1     -43.662  42.257  26.581  1.00  0.00    -0.356 N 
ATOM      5  C   UNL     1     -43.488  41.590  25.284  1.00  0.00     0.021 C 
ATOM      6  C   UNL     1     -44.203  42.389  24.187  1.00  0.00    -0.015 C 
ATOM      7  H   UNL     1     -44.622  44.442  23.680  1.00  0.00     0.053 H 
ATOM      8  H   UNL     1     -43.506  45.449  25.685  1.00  0.00     0.031 H 
ATOM      9  H   UNL     1     -42.424  44.420  24.762  1.00  0.00     0.031 H 
ATOM     10  H   UNL     1     -41.926  43.494  26.767  1.00  0.00     0.049 H 
ATOM     11  H   UNL     1     -43.401  44.122  27.529  1.00  0.00     0.049 H 
ATOM     12  H   UNL     1     -43.879  40.567  25.268  1.00  0.00     0.049 H 
ATOM     13  H   UNL     1     -42.416  41.517  25.050  1.00  0.00     0.049 H 
ATOM     14  H   UNL     1     -45.133  41.878  23.911  1.00  0.00     0.031 H 
ATOM     15  H   UNL     1     -43.573  42.374  23.288  1.00  0.00     0.031 H 
ENDROOT
BRANCH   1  16
ATOM     16  N   UNL     1     -45.729  43.934  25.358  1.00  0.00    -0.349 N 
ATOM     17  C   UNL     1     -46.786  44.710  24.928  1.00  0.00     0.253 C 
ATOM     18  O   UNL     1     -46.711  45.507  24.000  1.00  0.00    -0.269 OA
ATOM     19  H   UNL     1     -45.956  43.089  25.871  1.00  0.00     0.164 HD
BRANCH  17  20
ATOM     20  C   UNL     1     -48.078  44.488  25.617  1.00  0.00     0.058 A 
ATOM     21  C   UNL     1     -50.381  44.073  27.082  1.00  0.00     0.054 A 
ATOM     22  C   UNL     1     -50.476  44.611  25.798  1.00  0.00    -0.038 A 
ATOM     23  N   UNL     1     -49.188  43.717  27.626  1.00  0.00    -0.259 NA
ATOM     24  C   UNL     1     -49.311  44.823  25.059  1.00  0.00    -0.046 A 
ATOM     25  H   UNL     1     -51.440  44.869  25.374  1.00  0.00     0.064 H 
ATOM     26  C   UNL     1     -48.070  43.923  26.884  1.00  0.00     0.040 A 
ATOM     27  H   UNL     1     -49.386  45.232  24.056  1.00  0.00     0.063 H 
ATOM     28  H   UNL     1     -47.142  43.623  27.363  1.00  0.00     0.085 H 
BRANCH  21  29
ATOM     29  C   UNL     1     -51.624  43.878  27.937  1.00  0.00     0.041 C 
ATOM     30  H   UNL     1     -51.472  44.369  28.907  1.00  0.00     0.050 H 
ATOM     31  H   UNL     1     -52.445  44.440  27.471  1.00  0.00     0.050 H 
BRANCH  29  32
ATOM     32  N   UNL     1     -52.075  42.492  28.151  1.00  0.00    -0.297 NA
ATOM     33  C   UNL     1     -51.206  39.639  28.596  1.00  0.00    -0.033 C 
ATOM     34  C   UNL     1     -52.043  40.141  27.393  1.00  0.00    -0.035 C 
ATOM     35  C   UNL     1     -50.790  40.825  29.503  1.00  0.00    -0.035 C 
ATOM     36  C   UNL     1     -51.721  41.596  27.045  1.00  0.00    -0.001 C 
ATOM     37  H   UNL     1     -51.875  39.506  26.514  1.00  0.00     0.029 H 
ATOM     38  H   UNL     1     -53.117  40.068  27.613  1.00  0.00     0.029 H 
ATOM     39  C   UNL     1     -51.824  41.952  29.486  1.00  0.00    -0.001 C 
ATOM     40  H   UNL     1     -49.824  41.233  29.176  1.00  0.00     0.029 H 
ATOM     41  H   UNL     1     -50.636  40.483  30.534  1.00  0.00     0.029 H 
ATOM     42  H   UNL     1     -52.290  41.884  26.153  1.00  0.00     0.043 H 
ATOM     43  H   UNL     1     -50.658  41.659  26.787  1.00  0.00     0.043 H 
ATOM     44  H   UNL     1     -51.535  42.730  30.199  1.00  0.00     0.043 H 
ATOM     45  H   UNL     1     -52.775  41.560  29.868  1.00  0.00     0.043 H 
BRANCH  33  46
ATOM     46  C   UNL     1     -52.041  38.626  29.399  1.00  0.00    -0.060 C 
ATOM     47  H   UNL     1     -52.531  37.905  28.733  1.00  0.00     0.024 H 
ATOM     48  H   UNL     1     -52.821  39.125  29.983  1.00  0.00     0.024 H 
ATOM     49  H   UNL     1     -51.416  38.062  30.098  1.00  0.00     0.024 H 
ENDBRANCH  33  46
BRANCH  33  50
ATOM     50  C   UNL     1     -49.933  38.930  28.098  1.00  0.00    -0.060 C 
ATOM     51  H   UNL     1     -50.140  37.890  27.821  1.00  0.00     0.024 H 
ATOM     52  H   UNL     1     -49.156  38.920  28.870  1.00  0.00     0.024 H 
ATOM     53  H   UNL     1     -49.521  39.433  27.217  1.00  0.00     0.024 H 
ENDBRANCH  33  50
ENDBRANCH  29  32
ENDBRANCH  21  29
ENDBRANCH  17  20
ENDBRANCH   1  16
BRANCH   4  54
ATOM     54  C   UNL     1     -43.419  41.440  27.701  1.00  0.00     0.134 A 
ATOM     55  C   UNL     1     -44.273  40.385  27.986  1.00  0.00     0.023 A 
ATOM     56  N   UNL     1     -42.398  41.727  28.524  1.00  0.00    -0.219 NA
ATOM     57  C   UNL     1     -44.021  39.611  29.104  1.00  0.00     0.131 A 
ATOM     58  H   UNL     1     -45.142  40.188  27.371  1.00  0.00     0.070 H 
ATOM     59  C   UNL     1     -42.238  40.934  29.590  1.00  0.00     0.120 A 
ATOM     60  N   UNL     1     -42.996  39.883  29.922  1.00  0.00    -0.219 NA
ATOM     61  H   UNL     1     -41.411  41.167  30.251  1.00  0.00     0.106 H 
BRANCH  57  62
ATOM     62  N   UNL     1     -44.913  38.570  29.406  1.00  0.00    -0.366 N 
ATOM     63  H   UNL     1     -45.158  38.590  30.391  1.00  0.00     0.162 HD
BRANCH  62  64
ATOM     64  C   UNL     1     -46.103  38.524  28.566  1.00  0.00     0.041 C 
ATOM     65  H   UNL     1     -47.011  38.701  29.155  1.00  0.00     0.054 H 
ATOM     66  H   UNL     1     -46.062  39.288  27.778  1.00  0.00     0.054 H 
BRANCH  64  67
ATOM     67  C   UNL     1     -46.186  37.160  27.919  1.00  0.00    -0.029 A 
ATOM     68  C   UNL     1     -45.412  36.091  28.394  1.00  0.00    -0.057 A 
ATOM     69  C   UNL     1     -47.013  36.957  26.805  1.00  0.00    -0.057 A 
ATOM     70  C   UNL     1     -45.475  34.842  27.773  1.00  0.00    -0.062 A 
ATOM     71  H   UNL     1     -44.755  36.225  29.250  1.00  0.00     0.063 H 
ATOM     72  C   UNL     1     -47.074  35.708  26.184  1.00  0.00    -0.062 A 
ATOM     73  H   UNL     1     -47.605  37.780  26.412  1.00  0.00     0.063 H 
ATOM     74  C   UNL     1     -46.306  34.651  26.671  1.00  0.00    -0.062 A 
ATOM     75  H   UNL     1     -44.876  34.017  28.149  1.00  0.00     0.062 H 
ATOM     76  H   UNL     1     -47.716  35.562  25.320  1.00  0.00     0.062 H 
ATOM     77  H   UNL     1     -46.354  33.679  26.187  1.00  0.00     0.062 H 
ENDBRANCH  64  67
ENDBRANCH  62  64
ENDBRANCH  57  62
ENDBRANCH   4  54
TORSDOF 10
ENDMDL
MODEL 4
REMARK VINA RESULT:      -7.7      1.736      2.592
REMARK SMILES CC1(C)CCN(Cc2ccc(C(=O)NC3CCN(c4cc(NCc5ccccc5)ncn4)CC3)cn2)CC1
REMARK SMILES IDX 15 1 16 2 17 3 18 4 33 5 34 6 14 16 12 17 13 18 11 20 8 21
REMARK SMILES IDX 9 22 36 23 10 24 35 26 7 29 6 32 2 33 4 34 38 35 5 36 37 39
REMARK SMILES IDX 1 46 3 50 19 54 20 55 32 56 21 57 31 59 30 60 22 62 23 64
REMARK SMILES IDX 24 67 25 68 29 69 26 70 28 72 27 74
REMARK H PARENT 15 7 16 8 16 9 17 10 17 11 33 12 33 13 34 14 34 15 14 19 9 25
REMARK H PARENT 10 27 35 28 7 30 7 31 4 37 4 38 38 40 38 41 5 42 5 43 37 44
REMARK H PARENT 37 45 1 47 1 48 1 49 3 51 3 52 3 53 20 58 31 61 22 63 23 65
REMARK H PARENT 23 66 25 71 29 73 26 75 28 76 27 77
REMARK Flexibility Score: inf
ROOT
ATOM      1  C   UNL     1     -48.117  46.852  28.271  1.00  0.00     0.032 C 
ATOM      2  C   UNL     1     -46.704  47.281  28.667  1.00  0.00    -0.015 C 
ATOM      3  C   UNL     1     -45.637  46.782  27.683  1.00  0.00     0.021 C 
ATOM      4  N   UNL     1     -46.255  46.345  26.417  1.00  0.00    -0.356 N 
ATOM      5  C   UNL     1     -47.257  47.284  25.897  1.00  0.00     0.021 C 
ATOM      6  C   UNL     1     -48.450  47.359  26.858  1.00  0.00    -0.015 C 
ATOM      7  H   UNL     1     -48.839  47.281  28.977  1.00  0.00     0.053 H 
ATOM      8  H   UNL     1     -46.459  46.932  29.678  1.00  0.00     0.031 H 
ATOM      9  H   UNL     1     -46.665  48.377  28.702  1.00  0.00     0.031 H 
ATOM     10  H   UNL     1     -44.903  47.583  27.521  1.00  0.00     0.049 H 
ATOM     11  H   UNL     1     -45.112  45.934  28.141  1.00  0.00     0.049 H 
ATOM     12  H   UNL     1     -47.636  47.007  24.907  1.00  0.00     0.049 H 
ATOM     13  H   UNL     1     -46.804  48.279  25.789  1.00  0.00     0.049 H 
ATOM     14  H   UNL     1     -49.293  46.797  26.438  1.00  0.00     0.031 H 
ATOM     15  H   UNL     1     -48.780  48.404  26.911  1.00  0.00     0.031 H 
ENDROOT
BRANCH   1  16
ATOM     16  N   UNL     1     -48.250  45.398  28.343  1.00  0.00    -0.349 N 
ATOM     17  C   UNL     1     -49.460  44.798  28.629  1.00  0.00     0.253 C 
ATOM     18  O   UNL     1     -50.447  45.412  29.017  1.00  0.00    -0.269 OA
ATOM     19  H   UNL     1     -47.622  44.897  27.721  1.00  0.00     0.164 HD
BRANCH  17  20
ATOM     20  C   UNL     1     -49.537  43.341  28.380  1.00  0.00     0.058 A 
ATOM     21  C   UNL     1     -49.788  40.607  28.094  1.00  0.00     0.054 A 
ATOM     22  C   UNL     1     -49.532  41.390  26.968  1.00  0.00    -0.038 A 
ATOM     23  N   UNL     1     -49.890  41.145  29.338  1.00  0.00    -0.259 NA
ATOM     24  C   UNL     1     -49.407  42.772  27.113  1.00  0.00    -0.046 A 
ATOM     25  H   UNL     1     -49.433  40.937  25.988  1.00  0.00     0.064 H 
ATOM     26  C   UNL     1     -49.754  42.490  29.454  1.00  0.00     0.040 A 
ATOM     27  H   UNL     1     -49.198  43.381  26.239  1.00  0.00     0.063 H 
ATOM     28  H   UNL     1     -49.844  42.873  30.468  1.00  0.00     0.085 H 
BRANCH  21  29
ATOM     29  C   UNL     1     -49.983  39.103  27.967  1.00  0.00     0.041 C 
ATOM     30  H   UNL     1     -50.860  38.804  28.556  1.00  0.00     0.050 H 
ATOM     31  H   UNL     1     -50.265  38.887  26.928  1.00  0.00     0.050 H 
BRANCH  29  32
ATOM     32  N   UNL     1     -48.836  38.250  28.323  1.00  0.00    -0.297 NA
ATOM     33  C   UNL     1     -46.744  36.342  27.285  1.00  0.00    -0.033 C 
ATOM     34  C   UNL     1     -47.830  35.993  28.334  1.00  0.00    -0.035 C 
ATOM     35  C   UNL     1     -46.934  37.789  26.765  1.00  0.00    -0.035 C 
ATOM     36  C   UNL     1     -49.102  36.821  28.130  1.00  0.00    -0.001 C 
ATOM     37  H   UNL     1     -48.076  34.925  28.295  1.00  0.00     0.029 H 
ATOM     38  H   UNL     1     -47.457  36.178  29.351  1.00  0.00     0.029 H 
ATOM     39  C   UNL     1     -47.539  38.708  27.827  1.00  0.00    -0.001 C 
ATOM     40  H   UNL     1     -47.591  37.794  25.884  1.00  0.00     0.029 H 
ATOM     41  H   UNL     1     -45.976  38.203  26.423  1.00  0.00     0.029 H 
ATOM     42  H   UNL     1     -49.858  36.495  28.854  1.00  0.00     0.043 H 
ATOM     43  H   UNL     1     -49.494  36.605  27.131  1.00  0.00     0.043 H 
ATOM     44  H   UNL     1     -47.580  39.734  27.449  1.00  0.00     0.043 H 
ATOM     45  H   UNL     1     -46.854  38.751  28.683  1.00  0.00     0.043 H 
BRANCH  33  46
ATOM     46  C   UNL     1     -45.356  36.189  27.932  1.00  0.00    -0.060 C 
ATOM     47  H   UNL     1     -44.929  37.167  28.184  1.00  0.00     0.024 H 
ATOM     48  H   UNL     1     -44.656  35.682  27.261  1.00  0.00     0.024 H 
ATOM     49  H   UNL     1     -45.411  35.603  28.855  1.00  0.00     0.024 H 
ENDBRANCH  33  46
BRANCH  33  50
ATOM     50  C   UNL     1     -46.830  35.374  26.091  1.00  0.00    -0.060 C 
ATOM     51  H   UNL     1     -47.376  35.823  25.253  1.00  0.00     0.024 H 
ATOM     52  H   UNL     1     -47.348  34.448  26.366  1.00  0.00     0.024 H 
ATOM     53  H   UNL     1     -45.832  35.103  25.731  1.00  0.00     0.024 H 
ENDBRANCH  33  50
ENDBRANCH  29  32
ENDBRANCH  21  29
ENDBRANCH  17  20
ENDBRANCH   1  16
BRANCH   4  54
ATOM     54  C   UNL     1     -45.330  45.880  25.463  1.00  0.00     0.134 A 
ATOM     55  C   UNL     1     -44.695  44.661  25.652  1.00  0.00     0.023 A 
ATOM     56  N   UNL     1     -45.022  46.649  24.407  1.00  0.00    -0.219 NA
ATOM     57  C   UNL     1     -43.777  44.239  24.706  1.00  0.00     0.131 A 
ATOM     58  H   UNL     1     -44.880  44.066  26.536  1.00  0.00     0.070 H 
ATOM     59  C   UNL     1     -44.112  46.168  23.552  1.00  0.00     0.120 A 
ATOM     60  N   UNL     1     -43.475  44.995  23.644  1.00  0.00    -0.219 NA
ATOM     61  H   UNL     1     -43.868  46.790  22.698  1.00  0.00     0.106 H 
BRANCH  57  62
ATOM     62  N   UNL     1     -43.110  43.023  24.926  1.00  0.00    -0.366 N 
ATOM     63  H   UNL     1     -42.671  42.701  24.069  1.00  0.00     0.162 HD
BRANCH  62  64
ATOM     64  C   UNL     1     -42.162  43.039  26.032  1.00  0.00     0.041 C 
ATOM     65  H   UNL     1     -41.147  42.804  25.688  1.00  0.00     0.054 H 
ATOM     66  H   UNL     1     -42.130  44.026  26.513  1.00  0.00     0.054 H 
BRANCH  64  67
ATOM     67  C   UNL     1     -42.592  42.011  27.053  1.00  0.00    -0.029 A 
ATOM     68  C   UNL     1     -43.659  41.140  26.791  1.00  0.00    -0.057 A 
ATOM     69  C   UNL     1     -41.951  41.942  28.299  1.00  0.00    -0.057 A 
ATOM     70  C   UNL     1     -44.067  40.212  27.751  1.00  0.00    -0.062 A 
ATOM     71  H   UNL     1     -44.180  41.180  25.837  1.00  0.00     0.063 H 
ATOM     72  C   UNL     1     -42.361  41.015  29.258  1.00  0.00    -0.062 A 
ATOM     73  H   UNL     1     -41.134  42.623  28.526  1.00  0.00     0.063 H 
ATOM     74  C   UNL     1     -43.417  40.149  28.982  1.00  0.00    -0.062 A 
ATOM     75  H   UNL     1     -44.893  39.537  27.538  1.00  0.00     0.062 H 
ATOM     76  H   UNL     1     -41.858  40.972  30.220  1.00  0.00     0.062 H 
ATOM     77  H   UNL     1     -43.736  39.427  29.730  1.00  0.00     0.062 H 
ENDBRANCH  64  67
ENDBRANCH  62  64
ENDBRANCH  57  62
ENDBRANCH   4  54
TORSDOF 10
ENDMDL
MODEL 5
REMARK VINA RESULT:      -7.6      1.695      2.721
REMARK SMILES CC1(C)CCN(Cc2ccc(C(=O)NC3CCN(c4cc(NCc5ccccc5)ncn4)CC3)cn2)CC1
REMARK SMILES IDX 15 1 16 2 17 3 18 4 33 5 34 6 14 16 12 17 13 18 11 20 8 21
REMARK SMILES IDX 9 22 36 23 10 24 35 26 7 29 6 32 2 33 4 34 38 35 5 36 37 39
REMARK SMILES IDX 1 46 3 50 19 54 20 55 32 56 21 57 31 59 30 60 22 62 23 64
REMARK SMILES IDX 24 67 25 68 29 69 26 70 28 72 27 74
REMARK H PARENT 15 7 16 8 16 9 17 10 17 11 33 12 33 13 34 14 34 15 14 19 9 25
REMARK H PARENT 10 27 35 28 7 30 7 31 4 37 4 38 38 40 38 41 5 42 5 43 37 44
REMARK H PARENT 37 45 1 47 1 48 1 49 3 51 3 52 3 53 20 58 31 61 22 63 23 65
REMARK H PARENT 23 66 25 71 29 73 26 75 28 76 27 77
REMARK Flexibility Score: inf
ROOT
ATOM      1  C   UNL     1     -51.526  41.508  28.218  1.00  0.00     0.032 C 
ATOM      2  C   UNL     1     -51.182  42.872  28.819  1.00  0.00    -0.015 C 
ATOM      3  C   UNL     1     -49.887  43.461  28.244  1.00  0.00     0.021 C 
ATOM      4  N   UNL     1     -49.499  42.764  27.005  1.00  0.00    -0.356 N 
ATOM      5  C   UNL     1     -50.613  42.562  26.069  1.00  0.00     0.021 C 
ATOM      6  C   UNL     1     -51.649  41.617  26.690  1.00  0.00    -0.015 C 
ATOM      7  H   UNL     1     -52.485  41.163  28.625  1.00  0.00     0.053 H 
ATOM      8  H   UNL     1     -51.101  42.808  29.911  1.00  0.00     0.031 H 
ATOM      9  H   UNL     1     -52.007  43.565  28.612  1.00  0.00     0.031 H 
ATOM     10  H   UNL     1     -50.033  44.537  28.077  1.00  0.00     0.049 H 
ATOM     11  H   UNL     1     -49.091  43.342  28.990  1.00  0.00     0.049 H 
ATOM     12  H   UNL     1     -50.301  42.139  25.109  1.00  0.00     0.049 H 
ATOM     13  H   UNL     1     -51.083  43.530  25.845  1.00  0.00     0.049 H 
ATOM     14  H   UNL     1     -51.563  40.626  26.227  1.00  0.00     0.031 H 
ATOM     15  H   UNL     1     -52.649  41.986  26.428  1.00  0.00     0.031 H 
ENDROOT
BRANCH   1  16
ATOM     16  N   UNL     1     -50.515  40.518  28.586  1.00  0.00    -0.349 N 
ATOM     17  C   UNL     1     -50.550  39.233  28.082  1.00  0.00     0.253 C 
ATOM     18  O   UNL     1     -51.498  38.774  27.455  1.00  0.00    -0.269 OA
ATOM     19  H   UNL     1     -49.601  40.915  28.775  1.00  0.00     0.164 HD
BRANCH  17  20
ATOM     20  C   UNL     1     -49.326  38.423  28.283  1.00  0.00     0.058 A 
ATOM     21  C   UNL     1     -47.159  36.746  28.612  1.00  0.00     0.054 A 
ATOM     22  C   UNL     1     -46.941  38.101  28.360  1.00  0.00    -0.038 A 
ATOM     23  N   UNL     1     -48.409  36.228  28.731  1.00  0.00    -0.259 NA
ATOM     24  C   UNL     1     -48.037  38.948  28.191  1.00  0.00    -0.046 A 
ATOM     25  H   UNL     1     -45.934  38.498  28.289  1.00  0.00     0.064 H 
ATOM     26  C   UNL     1     -49.459  37.074  28.574  1.00  0.00     0.040 A 
ATOM     27  H   UNL     1     -47.869  40.004  28.005  1.00  0.00     0.063 H 
ATOM     28  H   UNL     1     -50.438  36.612  28.678  1.00  0.00     0.085 H 
BRANCH  21  29
ATOM     29  C   UNL     1     -45.988  35.783  28.747  1.00  0.00     0.041 C 
ATOM     30  H   UNL     1     -45.060  36.360  28.851  1.00  0.00     0.050 H 
ATOM     31  H   UNL     1     -46.093  35.258  29.706  1.00  0.00     0.050 H 
BRANCH  29  32
ATOM     32  N   UNL     1     -45.828  34.777  27.684  1.00  0.00    -0.297 NA
ATOM     33  C   UNL     1     -47.256  32.899  25.806  1.00  0.00    -0.033 C 
ATOM     34  C   UNL     1     -46.249  32.471  26.904  1.00  0.00    -0.035 C 
ATOM     35  C   UNL     1     -47.505  34.427  25.861  1.00  0.00    -0.035 C 
ATOM     36  C   UNL     1     -46.261  33.436  28.091  1.00  0.00    -0.001 C 
ATOM     37  H   UNL     1     -46.469  31.454  27.254  1.00  0.00     0.029 H 
ATOM     38  H   UNL     1     -45.229  32.434  26.498  1.00  0.00     0.029 H 
ATOM     39  C   UNL     1     -46.277  35.192  26.356  1.00  0.00    -0.001 C 
ATOM     40  H   UNL     1     -48.348  34.651  26.529  1.00  0.00     0.029 H 
ATOM     41  H   UNL     1     -47.799  34.803  24.873  1.00  0.00     0.029 H 
ATOM     42  H   UNL     1     -45.582  33.058  28.864  1.00  0.00     0.043 H 
ATOM     43  H   UNL     1     -47.270  33.441  28.519  1.00  0.00     0.043 H 
ATOM     44  H   UNL     1     -46.465  36.269  26.302  1.00  0.00     0.043 H 
ATOM     45  H   UNL     1     -45.450  35.017  25.656  1.00  0.00     0.043 H 
BRANCH  33  46
ATOM     46  C   UNL     1     -46.692  32.503  24.430  1.00  0.00    -0.060 C 
ATOM     47  H   UNL     1     -45.608  32.663  24.387  1.00  0.00     0.024 H 
ATOM     48  H   UNL     1     -47.149  33.091  23.627  1.00  0.00     0.024 H 
ATOM     49  H   UNL     1     -46.881  31.446  24.212  1.00  0.00     0.024 H 
ENDBRANCH  33  46
BRANCH  33  50
ATOM     50  C   UNL     1     -48.599  32.173  26.006  1.00  0.00    -0.060 C 
ATOM     51  H   UNL     1     -49.296  32.395  25.190  1.00  0.00     0.024 H 
ATOM     52  H   UNL     1     -49.078  32.475  26.944  1.00  0.00     0.024 H 
ATOM     53  H   UNL     1     -48.459  31.088  26.037  1.00  0.00     0.024 H 
ENDBRANCH  33  50
ENDBRANCH  29  32
ENDBRANCH  21  29
ENDBRANCH  17  20
ENDBRANCH   1  16
BRANCH   4  54
ATOM     54  C   UNL     1     -48.319  43.260  26.418  1.00  0.00     0.134 A 
ATOM     55  C   UNL     1     -47.216  42.432  26.276  1.00  0.00     0.023 A 
ATOM     56  N   UNL     1     -48.249  44.551  26.057  1.00  0.00    -0.219 NA
ATOM     57  C   UNL     1     -46.064  42.952  25.713  1.00  0.00     0.131 A 
ATOM     58  H   UNL     1     -47.236  41.409  26.630  1.00  0.00     0.070 H 
ATOM     59  C   UNL     1     -47.091  44.972  25.535  1.00  0.00     0.120 A 
ATOM     60  N   UNL     1     -45.991  44.235  25.338  1.00  0.00    -0.219 NA
ATOM     61  H   UNL     1     -47.038  46.014  25.241  1.00  0.00     0.106 H 
BRANCH  57  62
ATOM     62  N   UNL     1     -44.941  42.117  25.610  1.00  0.00    -0.366 N 
ATOM     63  H   UNL     1     -44.811  41.816  24.649  1.00  0.00     0.162 HD
BRANCH  62  64
ATOM     64  C   UNL     1     -43.712  42.677  26.159  1.00  0.00     0.041 C 
ATOM     65  H   UNL     1     -42.899  42.646  25.423  1.00  0.00     0.054 H 
ATOM     66  H   UNL     1     -43.852  43.724  26.457  1.00  0.00     0.054 H 
BRANCH  64  67
ATOM     67  C   UNL     1     -43.316  41.872  27.376  1.00  0.00    -0.029 A 
ATOM     68  C   UNL     1     -43.961  40.665  27.680  1.00  0.00    -0.057 A 
ATOM     69  C   UNL     1     -42.318  42.345  28.241  1.00  0.00    -0.057 A 
ATOM     70  C   UNL     1     -43.606  39.941  28.821  1.00  0.00    -0.062 A 
ATOM     71  H   UNL     1     -44.745  40.280  27.032  1.00  0.00     0.063 H 
ATOM     72  C   UNL     1     -41.966  41.622  29.381  1.00  0.00    -0.062 A 
ATOM     73  H   UNL     1     -41.820  43.289  28.029  1.00  0.00     0.063 H 
ATOM     74  C   UNL     1     -42.608  40.419  29.669  1.00  0.00    -0.062 A 
ATOM     75  H   UNL     1     -44.107  39.004  29.049  1.00  0.00     0.062 H 
ATOM     76  H   UNL     1     -41.192  41.999  30.045  1.00  0.00     0.062 H 
ATOM     77  H   UNL     1     -42.333  39.856  30.557  1.00  0.00     0.062 H 
ENDBRANCH  64  67
ENDBRANCH  62  64
ENDBRANCH  57  62
ENDBRANCH   4  54
TORSDOF 10
ENDMDL
MODEL 6
REMARK VINA RESULT:      -7.5      3.080      8.344
REMARK SMILES CC1(C)CCN(Cc2ccc(C(=O)NC3CCN(c4cc(NCc5ccccc5)ncn4)CC3)cn2)CC1
REMARK SMILES IDX 15 1 16 2 17 3 18 4 33 5 34 6 14 16 12 17 13 18 11 20 8 21
REMARK SMILES IDX 9 22 36 23 10 24 35 26 7 29 6 32 2 33 4 34 38 35 5 36 37 39
REMARK SMILES IDX 1 46 3 50 19 54 20 55 32 56 21 57 31 59 30 60 22 62 23 64
REMARK SMILES IDX 24 67 25 68 29 69 26 70 28 72 27 74
REMARK H PARENT 15 7 16 8 16 9 17 10 17 11 33 12 33 13 34 14 34 15 14 19 9 25
REMARK H PARENT 10 27 35 28 7 30 7 31 4 37 4 38 38 40 38 41 5 42 5 43 37 44
REMARK H PARENT 37 45 1 47 1 48 1 49 3 51 3 52 3 53 20 58 31 61 22 63 23 65
REMARK H PARENT 23 66 25 71 29 73 26 75 28 76 27 77
REMARK Flexibility Score: inf
ROOT
ATOM      1  C   UNL     1     -43.709  43.252  25.787  1.00  0.00     0.032 C 
ATOM      2  C   UNL     1     -42.384  42.691  26.306  1.00  0.00    -0.015 C 
ATOM      3  C   UNL     1     -42.578  41.528  27.288  1.00  0.00     0.021 C 
ATOM      4  N   UNL     1     -43.950  40.995  27.204  1.00  0.00    -0.356 N 
ATOM      5  C   UNL     1     -44.419  40.791  25.827  1.00  0.00     0.021 C 
ATOM      6  C   UNL     1     -44.526  42.142  25.108  1.00  0.00    -0.015 C 
ATOM      7  H   UNL     1     -43.507  44.040  25.051  1.00  0.00     0.053 H 
ATOM      8  H   UNL     1     -41.788  43.478  26.784  1.00  0.00     0.031 H 
ATOM      9  H   UNL     1     -41.794  42.335  25.451  1.00  0.00     0.031 H 
ATOM     10  H   UNL     1     -41.828  40.756  27.073  1.00  0.00     0.049 H 
ATOM     11  H   UNL     1     -42.397  41.900  28.305  1.00  0.00     0.049 H 
ATOM     12  H   UNL     1     -45.396  40.298  25.771  1.00  0.00     0.049 H 
ATOM     13  H   UNL     1     -43.712  40.142  25.292  1.00  0.00     0.049 H 
ATOM     14  H   UNL     1     -45.581  42.433  25.034  1.00  0.00     0.031 H 
ATOM     15  H   UNL     1     -44.178  42.007  24.076  1.00  0.00     0.031 H 
ENDROOT
BRANCH   1  16
ATOM     16  N   UNL     1     -44.469  43.859  26.878  1.00  0.00    -0.349 N 
ATOM     17  C   UNL     1     -44.498  45.227  27.061  1.00  0.00     0.253 C 
ATOM     18  O   UNL     1     -43.767  46.009  26.463  1.00  0.00    -0.269 OA
ATOM     19  H   UNL     1     -45.303  43.342  27.135  1.00  0.00     0.164 HD
BRANCH  17  20
ATOM     20  C   UNL     1     -45.526  45.736  27.998  1.00  0.00     0.058 A 
ATOM     21  C   UNL     1     -47.585  46.587  29.627  1.00  0.00     0.054 A 
ATOM     22  C   UNL     1     -46.283  46.564  30.128  1.00  0.00    -0.038 A 
ATOM     23  N   UNL     1     -47.870  46.230  28.347  1.00  0.00    -0.259 NA
ATOM     24  C   UNL     1     -45.243  46.132  29.304  1.00  0.00    -0.046 A 
ATOM     25  H   UNL     1     -46.075  46.873  31.147  1.00  0.00     0.064 H 
ATOM     26  C   UNL     1     -46.840  45.824  27.563  1.00  0.00     0.040 A 
ATOM     27  H   UNL     1     -44.228  46.124  29.690  1.00  0.00     0.063 H 
ATOM     28  H   UNL     1     -47.119  45.548  26.549  1.00  0.00     0.085 H 
BRANCH  21  29
ATOM     29  C   UNL     1     -48.751  47.000  30.513  1.00  0.00     0.041 C 
ATOM     30  H   UNL     1     -48.371  47.599  31.350  1.00  0.00     0.050 H 
ATOM     31  H   UNL     1     -49.378  47.697  29.940  1.00  0.00     0.050 H 
BRANCH  29  32
ATOM     32  N   UNL     1     -49.611  45.921  31.029  1.00  0.00    -0.297 NA
ATOM     33  C   UNL     1     -51.172  43.439  30.326  1.00  0.00    -0.033 C 
ATOM     34  C   UNL     1     -51.776  44.736  30.918  1.00  0.00    -0.035 C 
ATOM     35  C   UNL     1     -49.657  43.618  30.053  1.00  0.00    -0.035 C 
ATOM     36  C   UNL     1     -50.979  45.975  30.502  1.00  0.00    -0.001 C 
ATOM     37  H   UNL     1     -52.823  44.851  30.608  1.00  0.00     0.029 H 
ATOM     38  H   UNL     1     -51.793  44.688  32.016  1.00  0.00     0.029 H 
ATOM     39  C   UNL     1     -49.007  44.590  31.038  1.00  0.00    -0.001 C 
ATOM     40  H   UNL     1     -49.497  43.995  29.033  1.00  0.00     0.029 H 
ATOM     41  H   UNL     1     -49.142  42.650  30.097  1.00  0.00     0.029 H 
ATOM     42  H   UNL     1     -51.480  46.869  30.893  1.00  0.00     0.043 H 
ATOM     43  H   UNL     1     -50.998  46.043  29.409  1.00  0.00     0.043 H 
ATOM     44  H   UNL     1     -47.926  44.626  30.864  1.00  0.00     0.043 H 
ATOM     45  H   UNL     1     -49.114  44.184  32.052  1.00  0.00     0.043 H 
BRANCH  33  46
ATOM     46  C   UNL     1     -51.398  42.284  31.318  1.00  0.00    -0.060 C 
ATOM     47  H   UNL     1     -51.599  41.344  30.789  1.00  0.00     0.024 H 
ATOM     48  H   UNL     1     -52.248  42.484  31.977  1.00  0.00     0.024 H 
ATOM     49  H   UNL     1     -50.519  42.127  31.952  1.00  0.00     0.024 H 
ENDBRANCH  33  46
BRANCH  33  50
ATOM     50  C   UNL     1     -51.872  43.083  29.002  1.00  0.00    -0.060 C 
ATOM     51  H   UNL     1     -52.407  43.947  28.591  1.00  0.00     0.024 H 
ATOM     52  H   UNL     1     -52.601  42.277  29.142  1.00  0.00     0.024 H 
ATOM     53  H   UNL     1     -51.149  42.751  28.250  1.00  0.00     0.024 H 
ENDBRANCH  33  50
ENDBRANCH  29  32
ENDBRANCH  21  29
ENDBRANCH  17  20
ENDBRANCH   1  16
BRANCH   4  54
ATOM     54  C   UNL     1     -44.197  39.918  28.077  1.00  0.00     0.134 A 
ATOM     55  C   UNL     1     -45.168  38.980  27.760  1.00  0.00     0.023 A 
ATOM     56  N   UNL     1     -43.533  39.841  29.241  1.00  0.00    -0.219 NA
ATOM     57  C   UNL     1     -45.402  37.943  28.646  1.00  0.00     0.131 A 
ATOM     58  H   UNL     1     -45.762  39.072  26.860  1.00  0.00     0.070 H 
ATOM     59  C   UNL     1     -43.835  38.813  30.043  1.00  0.00     0.120 A 
ATOM     60  N   UNL     1     -44.735  37.852  29.803  1.00  0.00    -0.219 NA
ATOM     61  H   UNL     1     -43.295  38.751  30.982  1.00  0.00     0.106 H 
BRANCH  57  62
ATOM     62  N   UNL     1     -46.415  37.022  28.336  1.00  0.00    -0.366 N 
ATOM     63  H   UNL     1     -47.205  37.141  28.963  1.00  0.00     0.162 HD
BRANCH  62  64
ATOM     64  C   UNL     1     -46.840  37.028  26.942  1.00  0.00     0.041 C 
ATOM     65  H   UNL     1     -47.683  37.713  26.788  1.00  0.00     0.054 H 
ATOM     66  H   UNL     1     -46.024  37.349  26.280  1.00  0.00     0.054 H 
BRANCH  64  67
ATOM     67  C   UNL     1     -47.258  35.627  26.558  1.00  0.00    -0.029 A 
ATOM     68  C   UNL     1     -46.392  34.789  25.842  1.00  0.00    -0.057 A 
ATOM     69  C   UNL     1     -48.541  35.160  26.880  1.00  0.00    -0.057 A 
ATOM     70  C   UNL     1     -46.797  33.506  25.468  1.00  0.00    -0.062 A 
ATOM     71  H   UNL     1     -45.395  35.131  25.570  1.00  0.00     0.063 H 
ATOM     72  C   UNL     1     -48.945  33.879  26.505  1.00  0.00    -0.062 A 
ATOM     73  H   UNL     1     -49.233  35.804  27.419  1.00  0.00     0.063 H 
ATOM     74  C   UNL     1     -48.071  33.052  25.800  1.00  0.00    -0.062 A 
ATOM     75  H   UNL     1     -46.118  32.861  24.916  1.00  0.00     0.062 H 
ATOM     76  H   UNL     1     -49.942  33.528  26.758  1.00  0.00     0.062 H 
ATOM     77  H   UNL     1     -48.387  32.053  25.508  1.00  0.00     0.062 H 
ENDBRANCH  64  67
ENDBRANCH  62  64
ENDBRANCH  57  62
ENDBRANCH   4  54
TORSDOF 10
ENDMDL
MODEL 7
REMARK VINA RESULT:      -7.4      2.249      5.590
REMARK SMILES CC1(C)CCN(Cc2ccc(C(=O)NC3CCN(c4cc(NCc5ccccc5)ncn4)CC3)cn2)CC1
REMARK SMILES IDX 15 1 16 2 17 3 18 4 33 5 34 6 14 16 12 17 13 18 11 20 8 21
REMARK SMILES IDX 9 22 36 23 10 24 35 26 7 29 6 32 2 33 4 34 38 35 5 36 37 39
REMARK SMILES IDX 1 46 3 50 19 54 20 55 32 56 21 57 31 59 30 60 22 62 23 64
REMARK SMILES IDX 24 67 25 68 29 69 26 70 28 72 27 74
REMARK H PARENT 15 7 16 8 16 9 17 10 17 11 33 12 33 13 34 14 34 15 14 19 9 25
REMARK H PARENT 10 27 35 28 7 30 7 31 4 37 4 38 38 40 38 41 5 42 5 43 37 44
REMARK H PARENT 37 45 1 47 1 48 1 49 3 51 3 52 3 53 20 58 31 61 22 63 23 65
REMARK H PARENT 23 66 25 71 29 73 26 75 28 76 27 77
REMARK Flexibility Score: inf
ROOT
ATOM      1  C   UNL     1     -42.238  42.366  27.633  1.00  0.00     0.032 C 
ATOM      2  C   UNL     1     -42.093  42.811  26.178  1.00  0.00    -0.015 C 
ATOM      3  C   UNL     1     -43.442  43.130  25.519  1.00  0.00     0.021 C 
ATOM      4  N   UNL     1     -44.496  43.293  26.537  1.00  0.00    -0.356 N 
ATOM      5  C   UNL     1     -44.092  44.133  27.673  1.00  0.00     0.021 C 
ATOM      6  C   UNL     1     -42.961  43.448  28.451  1.00  0.00    -0.015 C 
ATOM      7  H   UNL     1     -41.242  42.206  28.065  1.00  0.00     0.053 H 
ATOM      8  H   UNL     1     -41.569  42.050  25.587  1.00  0.00     0.031 H 
ATOM      9  H   UNL     1     -41.465  43.711  26.146  1.00  0.00     0.031 H 
ATOM     10  H   UNL     1     -43.330  44.031  24.902  1.00  0.00     0.049 H 
ATOM     11  H   UNL     1     -43.708  42.298  24.854  1.00  0.00     0.049 H 
ATOM     12  H   UNL     1     -44.910  44.336  28.373  1.00  0.00     0.049 H 
ATOM     13  H   UNL     1     -43.749  45.109  27.302  1.00  0.00     0.049 H 
ATOM     14  H   UNL     1     -43.361  43.024  29.379  1.00  0.00     0.031 H 
ATOM     15  H   UNL     1     -42.243  44.219  28.756  1.00  0.00     0.031 H 
ENDROOT
BRANCH   1  16
ATOM     16  N   UNL     1     -42.955  41.094  27.710  1.00  0.00    -0.349 N 
ATOM     17  C   UNL     1     -43.146  40.447  28.914  1.00  0.00     0.253 C 
ATOM     18  O   UNL     1     -42.590  40.773  29.957  1.00  0.00    -0.269 OA
ATOM     19  H   UNL     1     -43.683  40.991  27.010  1.00  0.00     0.164 HD
BRANCH  17  20
ATOM     20  C   UNL     1     -44.131  39.341  28.908  1.00  0.00     0.058 A 
ATOM     21  C   UNL     1     -45.964  37.289  28.690  1.00  0.00     0.054 A 
ATOM     22  C   UNL     1     -45.229  37.425  29.869  1.00  0.00    -0.038 A 
ATOM     23  N   UNL     1     -45.828  38.155  27.652  1.00  0.00    -0.259 NA
ATOM     24  C   UNL     1     -44.301  38.462  29.977  1.00  0.00    -0.046 A 
ATOM     25  H   UNL     1     -45.369  36.735  30.693  1.00  0.00     0.064 H 
ATOM     26  C   UNL     1     -44.926  39.161  27.786  1.00  0.00     0.040 A 
ATOM     27  H   UNL     1     -43.736  38.574  30.897  1.00  0.00     0.063 H 
ATOM     28  H   UNL     1     -44.853  39.827  26.930  1.00  0.00     0.085 H 
BRANCH  21  29
ATOM     29  C   UNL     1     -46.945  36.139  28.515  1.00  0.00     0.041 C 
ATOM     30  H   UNL     1     -46.991  35.562  29.448  1.00  0.00     0.050 H 
ATOM     31  H   UNL     1     -47.951  36.568  28.409  1.00  0.00     0.050 H 
BRANCH  29  32
ATOM     32  N   UNL     1     -46.708  35.228  27.382  1.00  0.00    -0.297 NA
ATOM     33  C   UNL     1     -47.535  32.651  26.053  1.00  0.00    -0.033 C 
ATOM     34  C   UNL     1     -46.122  32.955  26.611  1.00  0.00    -0.035 C 
ATOM     35  C   UNL     1     -48.503  33.823  26.353  1.00  0.00    -0.035 C 
ATOM     36  C   UNL     1     -46.177  33.925  27.795  1.00  0.00    -0.001 C 
ATOM     37  H   UNL     1     -45.620  32.029  26.918  1.00  0.00     0.029 H 
ATOM     38  H   UNL     1     -45.486  33.396  25.832  1.00  0.00     0.029 H 
ATOM     39  C   UNL     1     -47.782  35.170  26.391  1.00  0.00    -0.001 C 
ATOM     40  H   UNL     1     -49.001  33.666  27.320  1.00  0.00     0.029 H 
ATOM     41  H   UNL     1     -49.307  33.857  25.606  1.00  0.00     0.029 H 
ATOM     42  H   UNL     1     -45.164  34.060  28.192  1.00  0.00     0.043 H 
ATOM     43  H   UNL     1     -46.778  33.466  28.586  1.00  0.00     0.043 H 
ATOM     44  H   UNL     1     -48.510  35.977  26.523  1.00  0.00     0.043 H 
ATOM     45  H   UNL     1     -47.333  35.355  25.406  1.00  0.00     0.043 H 
BRANCH  33  46
ATOM     46  C   UNL     1     -47.434  32.423  24.534  1.00  0.00    -0.060 C 
ATOM     47  H   UNL     1     -47.772  31.415  24.264  1.00  0.00     0.024 H 
ATOM     48  H   UNL     1     -46.403  32.534  24.182  1.00  0.00     0.024 H 
ATOM     49  H   UNL     1     -48.051  33.140  23.983  1.00  0.00     0.024 H 
ENDBRANCH  33  46
BRANCH  33  50
ATOM     50  C   UNL     1     -48.096  31.370  26.699  1.00  0.00    -0.060 C 
ATOM     51  H   UNL     1     -48.463  31.564  27.713  1.00  0.00     0.024 H 
ATOM     52  H   UNL     1     -47.329  30.591  26.766  1.00  0.00     0.024 H 
ATOM     53  H   UNL     1     -48.930  30.968  26.114  1.00  0.00     0.024 H 
ENDBRANCH  33  50
ENDBRANCH  29  32
ENDBRANCH  21  29
ENDBRANCH  17  20
ENDBRANCH   1  16
BRANCH   4  54
ATOM     54  C   UNL     1     -45.763  43.594  26.002  1.00  0.00     0.134 A 
ATOM     55  C   UNL     1     -46.900  43.018  26.549  1.00  0.00     0.023 A 
ATOM     56  N   UNL     1     -45.856  44.389  24.924  1.00  0.00    -0.219 NA
ATOM     57  C   UNL     1     -48.129  43.318  25.990  1.00  0.00     0.131 A 
ATOM     58  H   UNL     1     -46.831  42.318  27.372  1.00  0.00     0.070 H 
ATOM     59  C   UNL     1     -47.085  44.612  24.442  1.00  0.00     0.120 A 
ATOM     60  N   UNL     1     -48.232  44.120  24.924  1.00  0.00    -0.219 NA
ATOM     61  H   UNL     1     -47.158  45.257  23.573  1.00  0.00     0.106 H 
BRANCH  57  62
ATOM     62  N   UNL     1     -49.270  42.699  26.526  1.00  0.00    -0.366 N 
ATOM     63  H   UNL     1     -50.043  42.756  25.870  1.00  0.00     0.162 HD
BRANCH  62  64
ATOM     64  C   UNL     1     -49.064  41.330  26.982  1.00  0.00     0.041 C 
ATOM     65  H   UNL     1     -49.223  40.612  26.167  1.00  0.00     0.054 H 
ATOM     66  H   UNL     1     -48.042  41.187  27.357  1.00  0.00     0.054 H 
BRANCH  64  67
ATOM     67  C   UNL     1     -50.039  41.041  28.100  1.00  0.00    -0.029 A 
ATOM     68  C   UNL     1     -50.244  41.966  29.133  1.00  0.00    -0.057 A 
ATOM     69  C   UNL     1     -50.727  39.819  28.138  1.00  0.00    -0.057 A 
ATOM     70  C   UNL     1     -51.127  41.679  30.176  1.00  0.00    -0.062 A 
ATOM     71  H   UNL     1     -49.715  42.917  29.133  1.00  0.00     0.063 H 
ATOM     72  C   UNL     1     -51.608  39.532  29.181  1.00  0.00    -0.062 A 
ATOM     73  H   UNL     1     -50.566  39.082  27.354  1.00  0.00     0.063 H 
ATOM     74  C   UNL     1     -51.809  40.464  30.198  1.00  0.00    -0.062 A 
ATOM     75  H   UNL     1     -51.283  42.403  30.971  1.00  0.00     0.062 H 
ATOM     76  H   UNL     1     -52.134  38.582  29.202  1.00  0.00     0.062 H 
ATOM     77  H   UNL     1     -52.496  40.240  31.011  1.00  0.00     0.062 H 
ENDBRANCH  64  67
ENDBRANCH  62  64
ENDBRANCH  57  62
ENDBRANCH   4  54
TORSDOF 10
ENDMDL
