MODEL 1
REMARK VINA RESULT:     -11.0      0.000      0.000
REMARK SMILES CC1(C)CCN(Cc2cc3ccc(CNC(=O)c4cc(=O)n5ccccc5n4)cc3[nH]2)CC1
REMARK SMILES IDX 8 1 9 2 10 3 11 4 12 5 13 6 29 7 30 8 31 9 7 15 6 18 2 19
REMARK SMILES IDX 4 20 33 21 5 22 32 25 1 32 3 36 14 40 15 43 16 44 17 46
REMARK SMILES IDX 18 47 19 48 28 49 20 50 27 52 21 53 22 54 26 55 23 56 25 57
REMARK SMILES IDX 24 59
REMARK H PARENT 9 10 11 11 12 12 29 13 31 14 7 16 7 17 4 23 4 24 33 26 33 27
REMARK H PARENT 5 28 5 29 32 30 32 31 1 33 1 34 1 35 3 37 3 38 3 39 14 41
REMARK H PARENT 14 42 15 45 19 51 26 58 23 60 25 61 24 62
REMARK Flexibility Score: inf
ROOT
ATOM      1  C   UNL     1     -48.113  30.004  23.683  1.00  0.00     0.030 A 
ATOM      2  C   UNL     1     -46.903  30.672  23.669  1.00  0.00    -0.032 A 
ATOM      3  C   UNL     1     -47.025  31.831  24.482  1.00  0.00    -0.000 A 
ATOM      4  C   UNL     1     -46.143  32.862  24.855  1.00  0.00    -0.052 A 
ATOM      5  C   UNL     1     -46.600  33.881  25.700  1.00  0.00    -0.057 A 
ATOM      6  C   UNL     1     -47.919  33.894  26.176  1.00  0.00    -0.027 A 
ATOM      7  C   UNL     1     -48.805  32.865  25.815  1.00  0.00    -0.033 A 
ATOM      8  C   UNL     1     -48.330  31.855  24.968  1.00  0.00     0.046 A 
ATOM      9  N   UNL     1     -48.970  30.749  24.457  1.00  0.00    -0.357 N 
ATOM     10  H   UNL     1     -46.016  30.352  23.137  1.00  0.00     0.065 H 
ATOM     11  H   UNL     1     -45.119  32.870  24.495  1.00  0.00     0.063 H 
ATOM     12  H   UNL     1     -45.910  34.671  25.993  1.00  0.00     0.063 H 
ATOM     13  H   UNL     1     -49.827  32.850  26.179  1.00  0.00     0.065 H 
ATOM     14  H   UNL     1     -49.935  30.514  24.641  1.00  0.00     0.166 HD
ENDROOT
BRANCH   1  15
ATOM     15  C   UNL     1     -48.544  28.744  23.005  1.00  0.00     0.038 C 
ATOM     16  H   UNL     1     -48.175  28.751  21.971  1.00  0.00     0.050 H 
ATOM     17  H   UNL     1     -49.638  28.732  22.911  1.00  0.00     0.050 H 
BRANCH  15  18
ATOM     18  N   UNL     1     -48.103  27.514  23.662  1.00  0.00    -0.298 NA
ATOM     19  C   UNL     1     -47.194  26.229  26.231  1.00  0.00    -0.033 C 
ATOM     20  C   UNL     1     -46.365  26.298  24.924  1.00  0.00    -0.035 C 
ATOM     21  C   UNL     1     -48.543  26.972  26.061  1.00  0.00    -0.035 C 
ATOM     22  C   UNL     1     -46.706  27.542  24.101  1.00  0.00    -0.001 C 
ATOM     23  H   UNL     1     -46.550  25.411  24.303  1.00  0.00     0.029 H 
ATOM     24  H   UNL     1     -45.291  26.287  25.146  1.00  0.00     0.029 H 
ATOM     25  C   UNL     1     -49.044  26.931  24.617  1.00  0.00    -0.001 C 
ATOM     26  H   UNL     1     -48.439  28.022  26.365  1.00  0.00     0.029 H 
ATOM     27  H   UNL     1     -49.303  26.543  26.726  1.00  0.00     0.029 H 
ATOM     28  H   UNL     1     -46.483  28.428  24.706  1.00  0.00     0.043 H 
ATOM     29  H   UNL     1     -46.053  27.577  23.222  1.00  0.00     0.043 H 
ATOM     30  H   UNL     1     -49.205  25.885  24.329  1.00  0.00     0.043 H 
ATOM     31  H   UNL     1     -50.033  27.398  24.556  1.00  0.00     0.043 H 
BRANCH  19  32
ATOM     32  C   UNL     1     -46.411  26.878  27.388  1.00  0.00    -0.060 C 
ATOM     33  H   UNL     1     -46.651  26.398  28.344  1.00  0.00     0.024 H 
ATOM     34  H   UNL     1     -46.649  27.944  27.481  1.00  0.00     0.024 H 
ATOM     35  H   UNL     1     -45.330  26.791  27.234  1.00  0.00     0.024 H 
ENDBRANCH  19  32
BRANCH  19  36
ATOM     36  C   UNL     1     -47.442  24.752  26.589  1.00  0.00    -0.060 C 
ATOM     37  H   UNL     1     -46.497  24.228  26.778  1.00  0.00     0.024 H 
ATOM     38  H   UNL     1     -48.059  24.661  27.490  1.00  0.00     0.024 H 
ATOM     39  H   UNL     1     -47.959  24.226  25.779  1.00  0.00     0.024 H 
ENDBRANCH  19  36
ENDBRANCH  15  18
ENDBRANCH   1  15
BRANCH   6  40
ATOM     40  C   UNL     1     -48.369  34.992  27.107  1.00  0.00     0.043 C 
ATOM     41  H   UNL     1     -48.540  34.594  28.113  1.00  0.00     0.054 H 
ATOM     42  H   UNL     1     -49.319  35.417  26.760  1.00  0.00     0.054 H 
BRANCH  40  43
ATOM     43  N   UNL     1     -47.361  36.014  27.214  1.00  0.00    -0.347 N 
ATOM     44  C   UNL     1     -46.874  36.454  28.420  1.00  0.00     0.270 C 
ATOM     45  H   UNL     1     -47.166  36.606  26.413  1.00  0.00     0.164 HD
ATOM     46  O   UNL     1     -47.125  35.935  29.502  1.00  0.00    -0.268 OA
BRANCH  44  47
ATOM     47  C   UNL     1     -45.997  37.675  28.273  1.00  0.00     0.136 A 
ATOM     48  C   UNL     1     -46.242  38.458  27.221  1.00  0.00     0.035 A 
ATOM     49  N   UNL     1     -45.012  37.900  29.209  1.00  0.00    -0.225 NA
ATOM     50  C   UNL     1     -45.407  39.652  27.033  1.00  0.00     0.258 A 
ATOM     51  H   UNL     1     -47.018  38.269  26.491  1.00  0.00     0.071 H 
ATOM     52  C   UNL     1     -44.273  38.953  29.036  1.00  0.00     0.140 A 
ATOM     53  O   UNL     1     -45.630  40.383  26.069  1.00  0.00    -0.269 OA
ATOM     54  N   UNL     1     -44.419  39.853  27.985  1.00  0.00    -0.268 N 
ATOM     55  C   UNL     1     -43.190  39.235  30.020  1.00  0.00    -0.019 A 
ATOM     56  C   UNL     1     -43.586  40.961  27.873  1.00  0.00     0.014 A 
ATOM     57  C   UNL     1     -42.413  40.314  29.870  1.00  0.00    -0.057 A 
ATOM     58  H   UNL     1     -43.067  38.539  30.841  1.00  0.00     0.066 H 
ATOM     59  C   UNL     1     -42.616  41.208  28.762  1.00  0.00    -0.045 A 
ATOM     60  H   UNL     1     -43.757  41.623  27.028  1.00  0.00     0.082 H 
ATOM     61  H   UNL     1     -41.619  40.535  30.576  1.00  0.00     0.062 H 
ATOM     62  H   UNL     1     -41.972  42.076  28.663  1.00  0.00     0.064 H 
ENDBRANCH  44  47
ENDBRANCH  40  43
ENDBRANCH   6  40
TORSDOF 7
ENDMDL
MODEL 2
REMARK VINA RESULT:     -10.6      1.536      2.445
REMARK SMILES CC1(C)CCN(Cc2cc3ccc(CNC(=O)c4cc(=O)n5ccccc5n4)cc3[nH]2)CC1
REMARK SMILES IDX 8 1 9 2 10 3 11 4 12 5 13 6 29 7 30 8 31 9 7 15 6 18 2 19
REMARK SMILES IDX 4 20 33 21 5 22 32 25 1 32 3 36 14 40 15 43 16 44 17 46
REMARK SMILES IDX 18 47 19 48 28 49 20 50 27 52 21 53 22 54 26 55 23 56 25 57
REMARK SMILES IDX 24 59
REMARK H PARENT 9 10 11 11 12 12 29 13 31 14 7 16 7 17 4 23 4 24 33 26 33 27
REMARK H PARENT 5 28 5 29 32 30 32 31 1 33 1 34 1 35 3 37 3 38 3 39 14 41
REMARK H PARENT 14 42 15 45 19 51 26 58 23 60 25 61 24 62
REMARK Flexibility Score: inf
ROOT
ATOM      1  C   UNL     1     -47.930  31.370  24.499  1.00  0.00     0.030 A 
ATOM      2  C   UNL     1     -46.716  32.024  24.589  1.00  0.00    -0.032 A 
ATOM      3  C   UNL     1     -46.900  33.201  25.363  1.00  0.00    -0.000 A 
ATOM      4  C   UNL     1     -46.045  34.230  25.799  1.00  0.00    -0.052 A 
ATOM      5  C   UNL     1     -46.568  35.272  26.575  1.00  0.00    -0.057 A 
ATOM      6  C   UNL     1     -47.926  35.310  26.920  1.00  0.00    -0.027 A 
ATOM      7  C   UNL     1     -48.787  34.284  26.496  1.00  0.00    -0.033 A 
ATOM      8  C   UNL     1     -48.246  33.250  25.720  1.00  0.00     0.046 A 
ATOM      9  N   UNL     1     -48.848  32.141  25.171  1.00  0.00    -0.357 N 
ATOM     10  H   UNL     1     -45.785  31.683  24.152  1.00  0.00     0.065 H 
ATOM     11  H   UNL     1     -44.991  34.219  25.541  1.00  0.00     0.063 H 
ATOM     12  H   UNL     1     -45.899  36.061  26.918  1.00  0.00     0.063 H 
ATOM     13  H   UNL     1     -49.840  34.288  26.759  1.00  0.00     0.065 H 
ATOM     14  H   UNL     1     -49.830  31.921  25.265  1.00  0.00     0.166 HD
ENDROOT
BRANCH   1  15
ATOM     15  C   UNL     1     -48.309  30.101  23.808  1.00  0.00     0.038 C 
ATOM     16  H   UNL     1     -47.739  30.019  22.873  1.00  0.00     0.050 H 
ATOM     17  H   UNL     1     -49.360  30.155  23.491  1.00  0.00     0.050 H 
BRANCH  15  18
ATOM     18  N   UNL     1     -48.107  28.889  24.599  1.00  0.00    -0.298 NA
ATOM     19  C   UNL     1     -49.374  26.430  25.794  1.00  0.00    -0.033 C 
ATOM     20  C   UNL     1     -48.666  27.550  26.597  1.00  0.00    -0.035 C 
ATOM     21  C   UNL     1     -49.401  26.775  24.284  1.00  0.00    -0.035 C 
ATOM     22  C   UNL     1     -48.782  28.907  25.899  1.00  0.00    -0.001 C 
ATOM     23  H   UNL     1     -47.600  27.317  26.725  1.00  0.00     0.029 H 
ATOM     24  H   UNL     1     -49.080  27.621  27.610  1.00  0.00     0.029 H 
ATOM     25  C   UNL     1     -48.202  27.628  23.867  1.00  0.00    -0.001 C 
ATOM     26  H   UNL     1     -50.321  27.322  24.035  1.00  0.00     0.029 H 
ATOM     27  H   UNL     1     -49.428  25.858  23.682  1.00  0.00     0.029 H 
ATOM     28  H   UNL     1     -49.844  29.159  25.808  1.00  0.00     0.043 H 
ATOM     29  H   UNL     1     -48.321  29.673  26.533  1.00  0.00     0.043 H 
ATOM     30  H   UNL     1     -47.283  27.061  24.059  1.00  0.00     0.043 H 
ATOM     31  H   UNL     1     -48.219  27.782  22.782  1.00  0.00     0.043 H 
BRANCH  19  32
ATOM     32  C   UNL     1     -50.823  26.260  26.291  1.00  0.00    -0.060 C 
ATOM     33  H   UNL     1     -51.236  25.295  25.974  1.00  0.00     0.024 H 
ATOM     34  H   UNL     1     -51.474  27.047  25.897  1.00  0.00     0.024 H 
ATOM     35  H   UNL     1     -50.874  26.301  27.385  1.00  0.00     0.024 H 
ENDBRANCH  19  32
BRANCH  19  36
ATOM     36  C   UNL     1     -48.629  25.103  26.022  1.00  0.00    -0.060 C 
ATOM     37  H   UNL     1     -48.808  24.719  27.034  1.00  0.00     0.024 H 
ATOM     38  H   UNL     1     -48.958  24.336  25.313  1.00  0.00     0.024 H 
ATOM     39  H   UNL     1     -47.547  25.225  25.899  1.00  0.00     0.024 H 
ENDBRANCH  19  36
ENDBRANCH  15  18
ENDBRANCH   1  15
BRANCH   6  40
ATOM     40  C   UNL     1     -48.450  36.433  27.781  1.00  0.00     0.043 C 
ATOM     41  H   UNL     1     -48.986  36.031  28.648  1.00  0.00     0.054 H 
ATOM     42  H   UNL     1     -49.162  37.044  27.214  1.00  0.00     0.054 H 
BRANCH  40  43
ATOM     43  N   UNL     1     -47.367  37.240  28.280  1.00  0.00    -0.347 N 
ATOM     44  C   UNL     1     -46.922  38.368  27.635  1.00  0.00     0.270 C 
ATOM     45  H   UNL     1     -46.747  36.858  28.986  1.00  0.00     0.164 HD
ATOM     46  O   UNL     1     -47.480  38.884  26.674  1.00  0.00    -0.268 OA
BRANCH  44  47
ATOM     47  C   UNL     1     -45.645  38.905  28.236  1.00  0.00     0.136 A 
ATOM     48  C   UNL     1     -45.245  38.344  29.379  1.00  0.00     0.035 A 
ATOM     49  N   UNL     1     -44.985  39.925  27.588  1.00  0.00    -0.225 NA
ATOM     50  C   UNL     1     -44.013  38.841  30.004  1.00  0.00     0.258 A 
ATOM     51  H   UNL     1     -45.775  37.544  29.880  1.00  0.00     0.071 H 
ATOM     52  C   UNL     1     -43.899  40.365  28.147  1.00  0.00     0.140 A 
ATOM     53  O   UNL     1     -43.634  38.326  31.055  1.00  0.00    -0.269 OA
ATOM     54  N   UNL     1     -43.370  39.872  29.335  1.00  0.00    -0.268 N 
ATOM     55  C   UNL     1     -43.153  41.472  27.484  1.00  0.00    -0.019 A 
ATOM     56  C   UNL     1     -42.197  40.397  29.868  1.00  0.00     0.014 A 
ATOM     57  C   UNL     1     -42.029  41.945  28.035  1.00  0.00    -0.057 A 
ATOM     58  H   UNL     1     -43.557  41.863  26.559  1.00  0.00     0.066 H 
ATOM     59  C   UNL     1     -41.532  41.391  29.266  1.00  0.00    -0.045 A 
ATOM     60  H   UNL     1     -41.841  39.963  30.798  1.00  0.00     0.082 H 
ATOM     61  H   UNL     1     -41.473  42.751  27.567  1.00  0.00     0.062 H 
ATOM     62  H   UNL     1     -40.618  41.793  29.691  1.00  0.00     0.064 H 
ENDBRANCH  44  47
ENDBRANCH  40  43
ENDBRANCH   6  40
TORSDOF 7
ENDMDL
MODEL 3
REMARK VINA RESULT:     -10.4      1.629      2.430
REMARK SMILES CC1(C)CCN(Cc2cc3ccc(CNC(=O)c4cc(=O)n5ccccc5n4)cc3[nH]2)CC1
REMARK SMILES IDX 8 1 9 2 10 3 11 4 12 5 13 6 29 7 30 8 31 9 7 15 6 18 2 19
REMARK SMILES IDX 4 20 33 21 5 22 32 25 1 32 3 36 14 40 15 43 16 44 17 46
REMARK SMILES IDX 18 47 19 48 28 49 20 50 27 52 21 53 22 54 26 55 23 56 25 57
REMARK SMILES IDX 24 59
REMARK H PARENT 9 10 11 11 12 12 29 13 31 14 7 16 7 17 4 23 4 24 33 26 33 27
REMARK H PARENT 5 28 5 29 32 30 32 31 1 33 1 34 1 35 3 37 3 38 3 39 14 41
REMARK H PARENT 14 42 15 45 19 51 26 58 23 60 25 61 24 62
REMARK Flexibility Score: inf
ROOT
ATOM      1  C   UNL     1     -48.252  31.895  25.164  1.00  0.00     0.030 A 
ATOM      2  C   UNL     1     -46.976  32.426  25.210  1.00  0.00    -0.032 A 
ATOM      3  C   UNL     1     -47.043  33.691  25.855  1.00  0.00    -0.000 A 
ATOM      4  C   UNL     1     -46.088  34.665  26.199  1.00  0.00    -0.052 A 
ATOM      5  C   UNL     1     -46.506  35.832  26.852  1.00  0.00    -0.057 A 
ATOM      6  C   UNL     1     -47.855  36.047  27.164  1.00  0.00    -0.027 A 
ATOM      7  C   UNL     1     -48.815  35.076  26.831  1.00  0.00    -0.033 A 
ATOM      8  C   UNL     1     -48.379  33.916  26.177  1.00  0.00     0.046 A 
ATOM      9  N   UNL     1     -49.089  32.824  25.734  1.00  0.00    -0.357 N 
ATOM     10  H   UNL     1     -46.083  31.946  24.830  1.00  0.00     0.065 H 
ATOM     11  H   UNL     1     -45.039  34.517  25.964  1.00  0.00     0.063 H 
ATOM     12  H   UNL     1     -45.760  36.578  27.124  1.00  0.00     0.063 H 
ATOM     13  H   UNL     1     -49.864  35.218  27.071  1.00  0.00     0.065 H 
ATOM     14  H   UNL     1     -50.090  32.718  25.830  1.00  0.00     0.166 HD
ENDROOT
BRANCH   1  15
ATOM     15  C   UNL     1     -48.756  30.607  24.601  1.00  0.00     0.038 C 
ATOM     16  H   UNL     1     -48.628  30.620  23.510  1.00  0.00     0.050 H 
ATOM     17  H   UNL     1     -49.842  30.539  24.754  1.00  0.00     0.050 H 
BRANCH  15  18
ATOM     18  N   UNL     1     -48.117  29.410  25.144  1.00  0.00    -0.298 NA
ATOM     19  C   UNL     1     -48.311  26.432  25.563  1.00  0.00    -0.033 C 
ATOM     20  C   UNL     1     -48.197  27.488  26.691  1.00  0.00    -0.035 C 
ATOM     21  C   UNL     1     -48.377  27.120  24.176  1.00  0.00    -0.035 C 
ATOM     22  C   UNL     1     -48.824  28.823  26.284  1.00  0.00    -0.001 C 
ATOM     23  H   UNL     1     -47.143  27.665  26.948  1.00  0.00     0.029 H 
ATOM     24  H   UNL     1     -48.671  27.124  27.611  1.00  0.00     0.029 H 
ATOM     25  C   UNL     1     -47.622  28.450  24.158  1.00  0.00    -0.001 C 
ATOM     26  H   UNL     1     -49.422  27.308  23.895  1.00  0.00     0.029 H 
ATOM     27  H   UNL     1     -47.974  26.458  23.400  1.00  0.00     0.029 H 
ATOM     28  H   UNL     1     -49.885  28.653  26.067  1.00  0.00     0.043 H 
ATOM     29  H   UNL     1     -48.774  29.513  27.133  1.00  0.00     0.043 H 
ATOM     30  H   UNL     1     -46.565  28.259  24.381  1.00  0.00     0.043 H 
ATOM     31  H   UNL     1     -47.628  28.864  23.143  1.00  0.00     0.043 H 
BRANCH  19  32
ATOM     32  C   UNL     1     -49.583  25.586  25.758  1.00  0.00    -0.060 C 
ATOM     33  H   UNL     1     -50.480  26.216  25.749  1.00  0.00     0.024 H 
ATOM     34  H   UNL     1     -49.562  25.050  26.713  1.00  0.00     0.024 H 
ATOM     35  H   UNL     1     -49.690  24.841  24.961  1.00  0.00     0.024 H 
ENDBRANCH  19  32
BRANCH  19  36
ATOM     36  C   UNL     1     -47.093  25.492  25.632  1.00  0.00    -0.060 C 
ATOM     37  H   UNL     1     -47.113  24.762  24.814  1.00  0.00     0.024 H 
ATOM     38  H   UNL     1     -46.155  26.052  25.555  1.00  0.00     0.024 H 
ATOM     39  H   UNL     1     -47.071  24.935  26.575  1.00  0.00     0.024 H 
ENDBRANCH  19  36
ENDBRANCH  15  18
ENDBRANCH   1  15
BRANCH   6  40
ATOM     40  C   UNL     1     -48.266  37.301  27.893  1.00  0.00     0.043 C 
ATOM     41  H   UNL     1     -48.573  37.065  28.918  1.00  0.00     0.054 H 
ATOM     42  H   UNL     1     -49.126  37.765  27.395  1.00  0.00     0.054 H 
BRANCH  40  43
ATOM     43  N   UNL     1     -47.164  38.226  27.976  1.00  0.00    -0.347 N 
ATOM     44  C   UNL     1     -47.008  39.275  27.105  1.00  0.00     0.270 C 
ATOM     45  H   UNL     1     -46.348  37.978  28.525  1.00  0.00     0.164 HD
ATOM     46  O   UNL     1     -47.843  39.624  26.279  1.00  0.00    -0.268 OA
BRANCH  44  47
ATOM     47  C   UNL     1     -45.669  39.957  27.263  1.00  0.00     0.136 A 
ATOM     48  C   UNL     1     -45.295  40.768  26.272  1.00  0.00     0.035 A 
ATOM     49  N   UNL     1     -44.925  39.702  28.394  1.00  0.00    -0.225 NA
ATOM     50  C   UNL     1     -43.997  41.445  26.380  1.00  0.00     0.258 A 
ATOM     51  H   UNL     1     -45.889  40.958  25.387  1.00  0.00     0.071 H 
ATOM     52  C   UNL     1     -43.776  40.299  28.482  1.00  0.00     0.140 A 
ATOM     53  O   UNL     1     -43.647  42.200  25.473  1.00  0.00    -0.269 OA
ATOM     54  N   UNL     1     -43.265  41.168  27.524  1.00  0.00    -0.268 N 
ATOM     55  C   UNL     1     -42.933  40.050  29.686  1.00  0.00    -0.019 A 
ATOM     56  C   UNL     1     -42.023  41.771  27.696  1.00  0.00     0.014 A 
ATOM     57  C   UNL     1     -41.744  40.653  29.807  1.00  0.00    -0.057 A 
ATOM     58  H   UNL     1     -43.321  39.373  30.437  1.00  0.00     0.066 H 
ATOM     59  C   UNL     1     -41.271  41.542  28.780  1.00  0.00    -0.045 A 
ATOM     60  H   UNL     1     -41.686  42.440  26.908  1.00  0.00     0.082 H 
ATOM     61  H   UNL     1     -41.116  40.483  30.675  1.00  0.00     0.062 H 
ATOM     62  H   UNL     1     -40.304  42.018  28.903  1.00  0.00     0.064 H 
ENDBRANCH  44  47
ENDBRANCH  40  43
ENDBRANCH   6  40
TORSDOF 7
ENDMDL
MODEL 4
REMARK VINA RESULT:     -10.2      1.881      3.452
REMARK SMILES CC1(C)CCN(Cc2cc3ccc(CNC(=O)c4cc(=O)n5ccccc5n4)cc3[nH]2)CC1
REMARK SMILES IDX 8 1 9 2 10 3 11 4 12 5 13 6 29 7 30 8 31 9 7 15 6 18 2 19
REMARK SMILES IDX 4 20 33 21 5 22 32 25 1 32 3 36 14 40 15 43 16 44 17 46
REMARK SMILES IDX 18 47 19 48 28 49 20 50 27 52 21 53 22 54 26 55 23 56 25 57
REMARK SMILES IDX 24 59
REMARK H PARENT 9 10 11 11 12 12 29 13 31 14 7 16 7 17 4 23 4 24 33 26 33 27
REMARK H PARENT 5 28 5 29 32 30 32 31 1 33 1 34 1 35 3 37 3 38 3 39 14 41
REMARK H PARENT 14 42 15 45 19 51 26 58 23 60 25 61 24 62
REMARK Flexibility Score: inf
ROOT
ATOM      1  C   UNL     1     -48.161  30.534  24.683  1.00  0.00     0.030 A 
ATOM      2  C   UNL     1     -47.047  31.268  24.324  1.00  0.00    -0.032 A 
ATOM      3  C   UNL     1     -47.123  32.534  24.964  1.00  0.00    -0.000 A 
ATOM      4  C   UNL     1     -46.290  33.668  24.992  1.00  0.00    -0.052 A 
ATOM      5  C   UNL     1     -46.674  34.780  25.752  1.00  0.00    -0.057 A 
ATOM      6  C   UNL     1     -47.872  34.785  26.479  1.00  0.00    -0.027 A 
ATOM      7  C   UNL     1     -48.707  33.655  26.463  1.00  0.00    -0.033 A 
ATOM      8  C   UNL     1     -48.307  32.553  25.697  1.00  0.00     0.046 A 
ATOM      9  N   UNL     1     -48.923  31.338  25.496  1.00  0.00    -0.357 N 
ATOM     10  H   UNL     1     -46.251  30.924  23.676  1.00  0.00     0.065 H 
ATOM     11  H   UNL     1     -45.359  33.684  24.434  1.00  0.00     0.063 H 
ATOM     12  H   UNL     1     -46.021  35.652  25.778  1.00  0.00     0.063 H 
ATOM     13  H   UNL     1     -49.635  33.634  27.026  1.00  0.00     0.065 H 
ATOM     14  H   UNL     1     -49.808  31.074  25.906  1.00  0.00     0.166 HD
ENDROOT
BRANCH   1  15
ATOM     15  C   UNL     1     -48.590  29.154  24.302  1.00  0.00     0.038 C 
ATOM     16  H   UNL     1     -49.078  28.680  25.163  1.00  0.00     0.050 H 
ATOM     17  H   UNL     1     -47.704  28.535  24.106  1.00  0.00     0.050 H 
BRANCH  15  18
ATOM     18  N   UNL     1     -49.486  29.089  23.149  1.00  0.00    -0.298 NA
ATOM     19  C   UNL     1     -51.170  30.640  21.189  1.00  0.00    -0.033 C 
ATOM     20  C   UNL     1     -51.701  29.560  22.164  1.00  0.00    -0.035 C 
ATOM     21  C   UNL     1     -49.652  30.867  21.399  1.00  0.00    -0.035 C 
ATOM     22  C   UNL     1     -50.864  29.490  23.443  1.00  0.00    -0.001 C 
ATOM     23  H   UNL     1     -51.687  28.570  21.687  1.00  0.00     0.029 H 
ATOM     24  H   UNL     1     -52.750  29.752  22.420  1.00  0.00     0.029 H 
ATOM     25  C   UNL     1     -48.945  29.603  21.892  1.00  0.00    -0.001 C 
ATOM     26  H   UNL     1     -49.485  31.668  22.133  1.00  0.00     0.029 H 
ATOM     27  H   UNL     1     -49.183  31.212  20.470  1.00  0.00     0.029 H 
ATOM     28  H   UNL     1     -50.912  30.465  23.940  1.00  0.00     0.043 H 
ATOM     29  H   UNL     1     -51.314  28.758  24.123  1.00  0.00     0.043 H 
ATOM     30  H   UNL     1     -49.058  28.818  21.135  1.00  0.00     0.043 H 
ATOM     31  H   UNL     1     -47.865  29.785  21.953  1.00  0.00     0.043 H 
BRANCH  19  32
ATOM     32  C   UNL     1     -51.908  31.971  21.423  1.00  0.00    -0.060 C 
ATOM     33  H   UNL     1     -51.795  32.307  22.460  1.00  0.00     0.024 H 
ATOM     34  H   UNL     1     -52.980  31.874  21.218  1.00  0.00     0.024 H 
ATOM     35  H   UNL     1     -51.517  32.762  20.772  1.00  0.00     0.024 H 
ENDBRANCH  19  32
BRANCH  19  36
ATOM     36  C   UNL     1     -51.443  30.187  19.743  1.00  0.00    -0.060 C 
ATOM     37  H   UNL     1     -52.394  29.645  19.672  1.00  0.00     0.024 H 
ATOM     38  H   UNL     1     -51.498  31.044  19.062  1.00  0.00     0.024 H 
ATOM     39  H   UNL     1     -50.653  29.523  19.376  1.00  0.00     0.024 H 
ENDBRANCH  19  36
ENDBRANCH  15  18
ENDBRANCH   1  15
BRANCH   6  40
ATOM     40  C   UNL     1     -48.241  35.990  27.309  1.00  0.00     0.043 C 
ATOM     41  H   UNL     1     -48.436  35.694  28.346  1.00  0.00     0.054 H 
ATOM     42  H   UNL     1     -49.159  36.449  26.924  1.00  0.00     0.054 H 
BRANCH  40  43
ATOM     43  N   UNL     1     -47.162  36.944  27.329  1.00  0.00    -0.347 N 
ATOM     44  C   UNL     1     -46.478  37.268  28.475  1.00  0.00     0.270 C 
ATOM     45  H   UNL     1     -47.047  37.580  26.548  1.00  0.00     0.164 HD
ATOM     46  O   UNL     1     -46.603  36.687  29.547  1.00  0.00    -0.268 OA
BRANCH  44  47
ATOM     47  C   UNL     1     -45.553  38.445  28.276  1.00  0.00     0.136 A 
ATOM     48  C   UNL     1     -45.767  39.191  27.191  1.00  0.00     0.035 A 
ATOM     49  N   UNL     1     -44.559  38.671  29.202  1.00  0.00    -0.225 NA
ATOM     50  C   UNL     1     -44.886  40.341  26.952  1.00  0.00     0.258 A 
ATOM     51  H   UNL     1     -46.551  39.001  26.469  1.00  0.00     0.071 H 
ATOM     52  C   UNL     1     -43.779  39.684  28.984  1.00  0.00     0.140 A 
ATOM     53  O   UNL     1     -45.079  41.038  25.957  1.00  0.00    -0.269 OA
ATOM     54  N   UNL     1     -43.889  40.543  27.896  1.00  0.00    -0.268 N 
ATOM     55  C   UNL     1     -42.685  39.965  29.957  1.00  0.00    -0.019 A 
ATOM     56  C   UNL     1     -43.013  41.612  27.736  1.00  0.00     0.014 A 
ATOM     57  C   UNL     1     -41.866  41.006  29.761  1.00  0.00    -0.057 A 
ATOM     58  H   UNL     1     -42.589  39.302  30.807  1.00  0.00     0.066 H 
ATOM     59  C   UNL     1     -42.033  41.858  28.614  1.00  0.00    -0.045 A 
ATOM     60  H   UNL     1     -43.158  42.243  26.863  1.00  0.00     0.082 H 
ATOM     61  H   UNL     1     -41.063  41.225  30.457  1.00  0.00     0.062 H 
ATOM     62  H   UNL     1     -41.355  42.694  28.479  1.00  0.00     0.064 H 
ENDBRANCH  44  47
ENDBRANCH  40  43
ENDBRANCH   6  40
TORSDOF 7
ENDMDL
MODEL 5
REMARK VINA RESULT:     -10.2      2.684     11.739
REMARK SMILES CC1(C)CCN(Cc2cc3ccc(CNC(=O)c4cc(=O)n5ccccc5n4)cc3[nH]2)CC1
REMARK SMILES IDX 8 1 9 2 10 3 11 4 12 5 13 6 29 7 30 8 31 9 7 15 6 18 2 19
REMARK SMILES IDX 4 20 33 21 5 22 32 25 1 32 3 36 14 40 15 43 16 44 17 46
REMARK SMILES IDX 18 47 19 48 28 49 20 50 27 52 21 53 22 54 26 55 23 56 25 57
REMARK SMILES IDX 24 59
REMARK H PARENT 9 10 11 11 12 12 29 13 31 14 7 16 7 17 4 23 4 24 33 26 33 27
REMARK H PARENT 5 28 5 29 32 30 32 31 1 33 1 34 1 35 3 37 3 38 3 39 14 41
REMARK H PARENT 14 42 15 45 19 51 26 58 23 60 25 61 24 62
REMARK Flexibility Score: inf
ROOT
ATOM      1  C   UNL     1     -45.986  38.160  27.897  1.00  0.00     0.030 A 
ATOM      2  C   UNL     1     -45.228  37.014  28.047  1.00  0.00    -0.032 A 
ATOM      3  C   UNL     1     -45.999  35.908  27.600  1.00  0.00    -0.000 A 
ATOM      4  C   UNL     1     -45.759  34.526  27.496  1.00  0.00    -0.052 A 
ATOM      5  C   UNL     1     -46.766  33.692  26.993  1.00  0.00    -0.057 A 
ATOM      6  C   UNL     1     -48.008  34.209  26.598  1.00  0.00    -0.027 A 
ATOM      7  C   UNL     1     -48.255  35.590  26.691  1.00  0.00    -0.033 A 
ATOM      8  C   UNL     1     -47.236  36.407  27.197  1.00  0.00     0.046 A 
ATOM      9  N   UNL     1     -47.206  37.768  27.403  1.00  0.00    -0.357 N 
ATOM     10  H   UNL     1     -44.215  36.977  28.428  1.00  0.00     0.065 H 
ATOM     11  H   UNL     1     -44.805  34.106  27.798  1.00  0.00     0.063 H 
ATOM     12  H   UNL     1     -46.571  32.624  26.905  1.00  0.00     0.063 H 
ATOM     13  H   UNL     1     -49.205  36.013  26.382  1.00  0.00     0.065 H 
ATOM     14  H   UNL     1     -47.976  38.391  27.202  1.00  0.00     0.166 HD
ENDROOT
BRANCH   1  15
ATOM     15  C   UNL     1     -45.675  39.588  28.210  1.00  0.00     0.038 C 
ATOM     16  H   UNL     1     -45.270  39.650  29.229  1.00  0.00     0.050 H 
ATOM     17  H   UNL     1     -46.607  40.168  28.243  1.00  0.00     0.050 H 
BRANCH  15  18
ATOM     18  N   UNL     1     -44.741  40.227  27.285  1.00  0.00    -0.298 NA
ATOM     19  C   UNL     1     -43.395  42.791  26.450  1.00  0.00    -0.033 C 
ATOM     20  C   UNL     1     -44.318  41.932  25.550  1.00  0.00    -0.035 C 
ATOM     21  C   UNL     1     -43.304  42.186  27.874  1.00  0.00    -0.035 C 
ATOM     22  C   UNL     1     -45.370  41.182  26.370  1.00  0.00    -0.001 C 
ATOM     23  H   UNL     1     -43.729  41.196  24.986  1.00  0.00     0.029 H 
ATOM     24  H   UNL     1     -44.814  42.557  24.798  1.00  0.00     0.029 H 
ATOM     25  C   UNL     1     -43.472  40.665  27.864  1.00  0.00    -0.001 C 
ATOM     26  H   UNL     1     -44.079  42.618  28.521  1.00  0.00     0.029 H 
ATOM     27  H   UNL     1     -42.346  42.447  28.341  1.00  0.00     0.029 H 
ATOM     28  H   UNL     1     -45.984  41.918  26.900  1.00  0.00     0.043 H 
ATOM     29  H   UNL     1     -46.033  40.640  25.686  1.00  0.00     0.043 H 
ATOM     30  H   UNL     1     -42.664  40.225  27.266  1.00  0.00     0.043 H 
ATOM     31  H   UNL     1     -43.324  40.271  28.876  1.00  0.00     0.043 H 
BRANCH  19  32
ATOM     32  C   UNL     1     -43.946  44.226  26.555  1.00  0.00    -0.060 C 
ATOM     33  H   UNL     1     -43.629  44.833  25.699  1.00  0.00     0.024 H 
ATOM     34  H   UNL     1     -43.592  44.722  27.465  1.00  0.00     0.024 H 
ATOM     35  H   UNL     1     -45.041  44.229  26.579  1.00  0.00     0.024 H 
ENDBRANCH  19  32
BRANCH  19  36
ATOM     36  C   UNL     1     -41.995  42.859  25.812  1.00  0.00    -0.060 C 
ATOM     37  H   UNL     1     -41.377  43.622  26.301  1.00  0.00     0.024 H 
ATOM     38  H   UNL     1     -41.472  41.901  25.900  1.00  0.00     0.024 H 
ATOM     39  H   UNL     1     -42.053  43.109  24.747  1.00  0.00     0.024 H 
ENDBRANCH  19  36
ENDBRANCH  15  18
ENDBRANCH   1  15
BRANCH   6  40
ATOM     40  C   UNL     1     -49.060  33.287  26.035  1.00  0.00     0.043 C 
ATOM     41  H   UNL     1     -49.458  33.689  25.096  1.00  0.00     0.054 H 
ATOM     42  H   UNL     1     -49.900  33.199  26.733  1.00  0.00     0.054 H 
BRANCH  40  43
ATOM     43  N   UNL     1     -48.499  31.993  25.744  1.00  0.00    -0.347 N 
ATOM     44  C   UNL     1     -49.058  31.128  24.835  1.00  0.00     0.270 C 
ATOM     45  H   UNL     1     -47.822  31.590  26.383  1.00  0.00     0.164 HD
ATOM     46  O   UNL     1     -49.980  31.413  24.081  1.00  0.00    -0.268 OA
BRANCH  44  47
ATOM     47  C   UNL     1     -48.416  29.761  24.874  1.00  0.00     0.136 A 
ATOM     48  C   UNL     1     -47.445  29.537  23.987  1.00  0.00     0.035 A 
ATOM     49  N   UNL     1     -48.864  28.845  25.799  1.00  0.00    -0.225 NA
ATOM     50  C   UNL     1     -46.798  28.219  23.983  1.00  0.00     0.258 A 
ATOM     51  H   UNL     1     -47.103  30.266  23.264  1.00  0.00     0.071 H 
ATOM     52  C   UNL     1     -48.293  27.679  25.788  1.00  0.00     0.140 A 
ATOM     53  O   UNL     1     -45.897  28.005  23.172  1.00  0.00    -0.269 OA
ATOM     54  N   UNL     1     -47.271  27.311  24.919  1.00  0.00    -0.268 N 
ATOM     55  C   UNL     1     -48.749  26.652  26.767  1.00  0.00    -0.019 A 
ATOM     56  C   UNL     1     -46.708  26.040  24.974  1.00  0.00     0.014 A 
ATOM     57  C   UNL     1     -48.177  25.441  26.782  1.00  0.00    -0.057 A 
ATOM     58  H   UNL     1     -49.545  26.928  27.447  1.00  0.00     0.066 H 
ATOM     59  C   UNL     1     -47.123  25.123  25.857  1.00  0.00    -0.045 A 
ATOM     60  H   UNL     1     -45.913  25.822  24.266  1.00  0.00     0.082 H 
ATOM     61  H   UNL     1     -48.496  24.681  27.486  1.00  0.00     0.062 H 
ATOM     62  H   UNL     1     -46.677  24.134  25.891  1.00  0.00     0.064 H 
ENDBRANCH  44  47
ENDBRANCH  40  43
ENDBRANCH   6  40
TORSDOF 7
ENDMDL
MODEL 6
REMARK VINA RESULT:     -10.1      2.441      3.915
REMARK SMILES CC1(C)CCN(Cc2cc3ccc(CNC(=O)c4cc(=O)n5ccccc5n4)cc3[nH]2)CC1
REMARK SMILES IDX 8 1 9 2 10 3 11 4 12 5 13 6 29 7 30 8 31 9 7 15 6 18 2 19
REMARK SMILES IDX 4 20 33 21 5 22 32 25 1 32 3 36 14 40 15 43 16 44 17 46
REMARK SMILES IDX 18 47 19 48 28 49 20 50 27 52 21 53 22 54 26 55 23 56 25 57
REMARK SMILES IDX 24 59
REMARK H PARENT 9 10 11 11 12 12 29 13 31 14 7 16 7 17 4 23 4 24 33 26 33 27
REMARK H PARENT 5 28 5 29 32 30 32 31 1 33 1 34 1 35 3 37 3 38 3 39 14 41
REMARK H PARENT 14 42 15 45 19 51 26 58 23 60 25 61 24 62
REMARK Flexibility Score: inf
ROOT
ATOM      1  C   UNL     1     -48.505  31.293  25.175  1.00  0.00     0.030 A 
ATOM      2  C   UNL     1     -47.308  31.893  24.833  1.00  0.00    -0.032 A 
ATOM      3  C   UNL     1     -47.253  33.167  25.459  1.00  0.00    -0.000 A 
ATOM      4  C   UNL     1     -46.298  34.200  25.494  1.00  0.00    -0.052 A 
ATOM      5  C   UNL     1     -46.569  35.358  26.234  1.00  0.00    -0.057 A 
ATOM      6  C   UNL     1     -47.775  35.508  26.933  1.00  0.00    -0.027 A 
ATOM      7  C   UNL     1     -48.732  34.479  26.911  1.00  0.00    -0.033 A 
ATOM      8  C   UNL     1     -48.443  33.329  26.164  1.00  0.00     0.046 A 
ATOM      9  N   UNL     1     -49.188  32.189  25.962  1.00  0.00    -0.357 N 
ATOM     10  H   UNL     1     -46.542  31.453  24.207  1.00  0.00     0.065 H 
ATOM     11  H   UNL     1     -45.360  34.103  24.957  1.00  0.00     0.063 H 
ATOM     12  H   UNL     1     -45.822  36.150  26.265  1.00  0.00     0.063 H 
ATOM     13  H   UNL     1     -49.667  34.570  27.453  1.00  0.00     0.065 H 
ATOM     14  H   UNL     1     -50.106  32.032  26.354  1.00  0.00     0.166 HD
ENDROOT
BRANCH   1  15
ATOM     15  C   UNL     1     -49.079  29.966  24.798  1.00  0.00     0.038 C 
ATOM     16  H   UNL     1     -49.782  29.646  25.578  1.00  0.00     0.050 H 
ATOM     17  H   UNL     1     -48.285  29.207  24.807  1.00  0.00     0.050 H 
BRANCH  15  18
ATOM     18  N   UNL     1     -49.757  29.939  23.503  1.00  0.00    -0.298 NA
ATOM     19  C   UNL     1     -49.503  30.343  20.527  1.00  0.00    -0.033 C 
ATOM     20  C   UNL     1     -50.457  31.132  21.457  1.00  0.00    -0.035 C 
ATOM     21  C   UNL     1     -48.639  29.351  21.346  1.00  0.00    -0.035 C 
ATOM     22  C   UNL     1     -49.894  31.255  22.875  1.00  0.00    -0.001 C 
ATOM     23  H   UNL     1     -51.436  30.635  21.516  1.00  0.00     0.029 H 
ATOM     24  H   UNL     1     -50.655  32.132  21.052  1.00  0.00     0.029 H 
ATOM     25  C   UNL     1     -49.363  28.859  22.601  1.00  0.00    -0.001 C 
ATOM     26  H   UNL     1     -47.698  29.828  21.652  1.00  0.00     0.029 H 
ATOM     27  H   UNL     1     -48.351  28.492  20.728  1.00  0.00     0.029 H 
ATOM     28  H   UNL     1     -48.938  31.787  22.821  1.00  0.00     0.043 H 
ATOM     29  H   UNL     1     -50.573  31.871  23.475  1.00  0.00     0.043 H 
ATOM     30  H   UNL     1     -50.274  28.329  22.297  1.00  0.00     0.043 H 
ATOM     31  H   UNL     1     -48.751  28.103  23.107  1.00  0.00     0.043 H 
BRANCH  19  32
ATOM     32  C   UNL     1     -48.569  31.315  19.782  1.00  0.00    -0.060 C 
ATOM     33  H   UNL     1     -48.997  32.324  19.747  1.00  0.00     0.024 H 
ATOM     34  H   UNL     1     -48.397  30.990  18.750  1.00  0.00     0.024 H 
ATOM     35  H   UNL     1     -47.593  31.385  20.275  1.00  0.00     0.024 H 
ENDBRANCH  19  32
BRANCH  19  36
ATOM     36  C   UNL     1     -50.338  29.582  19.482  1.00  0.00    -0.060 C 
ATOM     37  H   UNL     1     -50.674  30.253  18.682  1.00  0.00     0.024 H 
ATOM     38  H   UNL     1     -49.756  28.778  19.018  1.00  0.00     0.024 H 
ATOM     39  H   UNL     1     -51.227  29.129  19.933  1.00  0.00     0.024 H 
ENDBRANCH  19  36
ENDBRANCH  15  18
ENDBRANCH   1  15
BRANCH   6  40
ATOM     40  C   UNL     1     -48.022  36.756  27.743  1.00  0.00     0.043 C 
ATOM     41  H   UNL     1     -48.222  36.500  28.789  1.00  0.00     0.054 H 
ATOM     42  H   UNL     1     -48.904  37.285  27.363  1.00  0.00     0.054 H 
BRANCH  40  43
ATOM     43  N   UNL     1     -46.865  37.613  27.724  1.00  0.00    -0.347 N 
ATOM     44  C   UNL     1     -46.077  37.823  28.828  1.00  0.00     0.270 C 
ATOM     45  H   UNL     1     -46.749  38.275  26.963  1.00  0.00     0.164 HD
ATOM     46  O   UNL     1     -46.177  37.203  29.881  1.00  0.00    -0.268 OA
BRANCH  44  47
ATOM     47  C   UNL     1     -45.067  38.925  28.611  1.00  0.00     0.136 A 
ATOM     48  C   UNL     1     -44.150  39.085  29.567  1.00  0.00     0.035 A 
ATOM     49  N   UNL     1     -45.154  39.688  27.468  1.00  0.00    -0.225 NA
ATOM     50  C   UNL     1     -43.153  40.151  29.403  1.00  0.00     0.258 A 
ATOM     51  H   UNL     1     -44.094  38.480  30.463  1.00  0.00     0.071 H 
ATOM     52  C   UNL     1     -44.274  40.632  27.330  1.00  0.00     0.140 A 
ATOM     53  O   UNL     1     -42.300  40.302  30.276  1.00  0.00    -0.269 OA
ATOM     54  N   UNL     1     -43.265  40.909  28.247  1.00  0.00    -0.268 N 
ATOM     55  C   UNL     1     -44.331  41.488  26.111  1.00  0.00    -0.019 A 
ATOM     56  C   UNL     1     -42.358  41.939  28.022  1.00  0.00     0.014 A 
ATOM     57  C   UNL     1     -43.436  42.468  25.939  1.00  0.00    -0.057 A 
ATOM     58  H   UNL     1     -45.114  41.282  25.392  1.00  0.00     0.066 H 
ATOM     59  C   UNL     1     -42.415  42.703  26.924  1.00  0.00    -0.045 A 
ATOM     60  H   UNL     1     -41.595  42.098  28.780  1.00  0.00     0.082 H 
ATOM     61  H   UNL     1     -43.463  43.102  25.058  1.00  0.00     0.062 H 
ATOM     62  H   UNL     1     -41.702  43.505  26.760  1.00  0.00     0.064 H 
ENDBRANCH  44  47
ENDBRANCH  40  43
ENDBRANCH   6  40
TORSDOF 7
ENDMDL
MODEL 7
REMARK VINA RESULT:     -10.0      2.236      3.732
REMARK SMILES CC1(C)CCN(Cc2cc3ccc(CNC(=O)c4cc(=O)n5ccccc5n4)cc3[nH]2)CC1
REMARK SMILES IDX 8 1 9 2 10 3 11 4 12 5 13 6 29 7 30 8 31 9 7 15 6 18 2 19
REMARK SMILES IDX 4 20 33 21 5 22 32 25 1 32 3 36 14 40 15 43 16 44 17 46
REMARK SMILES IDX 18 47 19 48 28 49 20 50 27 52 21 53 22 54 26 55 23 56 25 57
REMARK SMILES IDX 24 59
REMARK H PARENT 9 10 11 11 12 12 29 13 31 14 7 16 7 17 4 23 4 24 33 26 33 27
REMARK H PARENT 5 28 5 29 32 30 32 31 1 33 1 34 1 35 3 37 3 38 3 39 14 41
REMARK H PARENT 14 42 15 45 19 51 26 58 23 60 25 61 24 62
REMARK Flexibility Score: inf
ROOT
ATOM      1  C   UNL     1     -46.961  32.467  25.044  1.00  0.00     0.030 A 
ATOM      2  C   UNL     1     -48.058  33.284  25.245  1.00  0.00    -0.032 A 
ATOM      3  C   UNL     1     -47.773  34.153  26.332  1.00  0.00    -0.000 A 
ATOM      4  C   UNL     1     -48.480  35.189  26.968  1.00  0.00    -0.052 A 
ATOM      5  C   UNL     1     -47.886  35.866  28.041  1.00  0.00    -0.057 A 
ATOM      6  C   UNL     1     -46.604  35.526  28.494  1.00  0.00    -0.027 A 
ATOM      7  C   UNL     1     -45.886  34.498  27.860  1.00  0.00    -0.033 A 
ATOM      8  C   UNL     1     -46.497  33.832  26.789  1.00  0.00     0.046 A 
ATOM      9  N   UNL     1     -46.037  32.799  26.005  1.00  0.00    -0.357 N 
ATOM     10  H   UNL     1     -48.969  33.266  24.660  1.00  0.00     0.065 H 
ATOM     11  H   UNL     1     -49.475  35.466  26.633  1.00  0.00     0.063 H 
ATOM     12  H   UNL     1     -48.435  36.673  28.524  1.00  0.00     0.063 H 
ATOM     13  H   UNL     1     -44.888  34.224  28.188  1.00  0.00     0.065 H 
ATOM     14  H   UNL     1     -45.134  32.358  26.116  1.00  0.00     0.166 HD
ENDROOT
BRANCH   1  15
ATOM     15  C   UNL     1     -46.721  31.377  24.050  1.00  0.00     0.038 C 
ATOM     16  H   UNL     1     -45.640  31.203  23.966  1.00  0.00     0.050 H 
ATOM     17  H   UNL     1     -47.029  31.716  23.052  1.00  0.00     0.050 H 
BRANCH  15  18
ATOM     18  N   UNL     1     -47.387  30.112  24.357  1.00  0.00    -0.298 NA
ATOM     19  C   UNL     1     -49.844  28.411  23.970  1.00  0.00    -0.033 C 
ATOM     20  C   UNL     1     -49.316  28.921  25.334  1.00  0.00    -0.035 C 
ATOM     21  C   UNL     1     -48.969  28.950  22.810  1.00  0.00    -0.035 C 
ATOM     22  C   UNL     1     -48.580  30.255  25.194  1.00  0.00    -0.001 C 
ATOM     23  H   UNL     1     -48.626  28.190  25.777  1.00  0.00     0.029 H 
ATOM     24  H   UNL     1     -50.138  29.028  26.052  1.00  0.00     0.029 H 
ATOM     25  C   UNL     1     -47.519  29.177  23.241  1.00  0.00    -0.001 C 
ATOM     26  H   UNL     1     -49.374  29.901  22.437  1.00  0.00     0.029 H 
ATOM     27  H   UNL     1     -48.995  28.260  21.957  1.00  0.00     0.029 H 
ATOM     28  H   UNL     1     -49.280  30.995  24.791  1.00  0.00     0.043 H 
ATOM     29  H   UNL     1     -48.281  30.602  26.189  1.00  0.00     0.043 H 
ATOM     30  H   UNL     1     -47.092  28.218  23.558  1.00  0.00     0.043 H 
ATOM     31  H   UNL     1     -46.920  29.482  22.375  1.00  0.00     0.043 H 
BRANCH  19  32
ATOM     32  C   UNL     1     -51.295  28.882  23.756  1.00  0.00    -0.060 C 
ATOM     33  H   UNL     1     -51.489  29.092  22.697  1.00  0.00     0.024 H 
ATOM     34  H   UNL     1     -51.505  29.796  24.322  1.00  0.00     0.024 H 
ATOM     35  H   UNL     1     -52.012  28.118  24.081  1.00  0.00     0.024 H 
ENDBRANCH  19  32
BRANCH  19  36
ATOM     36  C   UNL     1     -49.834  26.872  23.971  1.00  0.00    -0.060 C 
ATOM     37  H   UNL     1     -50.115  26.477  24.955  1.00  0.00     0.024 H 
ATOM     38  H   UNL     1     -50.540  26.469  23.237  1.00  0.00     0.024 H 
ATOM     39  H   UNL     1     -48.841  26.478  23.726  1.00  0.00     0.024 H 
ENDBRANCH  19  36
ENDBRANCH  15  18
ENDBRANCH   1  15
BRANCH   6  40
ATOM     40  C   UNL     1     -45.983  36.294  29.634  1.00  0.00     0.043 C 
ATOM     41  H   UNL     1     -45.345  35.637  30.235  1.00  0.00     0.054 H 
ATOM     42  H   UNL     1     -46.764  36.685  30.297  1.00  0.00     0.054 H 
BRANCH  40  43
ATOM     43  N   UNL     1     -45.153  37.361  29.137  1.00  0.00    -0.347 N 
ATOM     44  C   UNL     1     -44.595  38.311  29.956  1.00  0.00     0.270 C 
ATOM     45  H   UNL     1     -45.165  37.579  28.146  1.00  0.00     0.164 HD
ATOM     46  O   UNL     1     -44.613  38.270  31.180  1.00  0.00    -0.268 OA
BRANCH  44  47
ATOM     47  C   UNL     1     -43.959  39.437  29.176  1.00  0.00     0.136 A 
ATOM     48  C   UNL     1     -42.880  40.002  29.723  1.00  0.00     0.035 A 
ATOM     49  N   UNL     1     -44.520  39.813  27.976  1.00  0.00    -0.225 NA
ATOM     50  C   UNL     1     -42.233  41.106  29.004  1.00  0.00     0.258 A 
ATOM     51  H   UNL     1     -42.450  39.698  30.668  1.00  0.00     0.071 H 
ATOM     52  C   UNL     1     -43.948  40.794  27.347  1.00  0.00     0.140 A 
ATOM     53  O   UNL     1     -41.235  41.629  29.497  1.00  0.00    -0.269 OA
ATOM     54  N   UNL     1     -42.821  41.470  27.801  1.00  0.00    -0.268 N 
ATOM     55  C   UNL     1     -44.524  41.239  26.046  1.00  0.00    -0.019 A 
ATOM     56  C   UNL     1     -42.266  42.511  27.064  1.00  0.00     0.014 A 
ATOM     57  C   UNL     1     -43.955  42.246  25.372  1.00  0.00    -0.057 A 
ATOM     58  H   UNL     1     -45.403  40.720  25.684  1.00  0.00     0.066 H 
ATOM     59  C   UNL     1     -42.788  42.905  25.896  1.00  0.00    -0.045 A 
ATOM     60  H   UNL     1     -41.385  42.994  27.478  1.00  0.00     0.082 H 
ATOM     61  H   UNL     1     -44.360  42.585  24.425  1.00  0.00     0.062 H 
ATOM     62  H   UNL     1     -42.347  43.719  25.329  1.00  0.00     0.064 H 
ENDBRANCH  44  47
ENDBRANCH  40  43
ENDBRANCH   6  40
TORSDOF 7
ENDMDL
