MODEL 1
REMARK VINA RESULT:     -10.4      0.000      0.000
REMARK SMILES Cn1ccc(-c2cn([C@@H]3O[C@H](COc4ccc(C(=O)N5CCNCC5)c(N)c4)[C@@H](O)[C@@H]3F)c3ncnc(N)c23)n1
REMARK SMILES IDX 9 1 10 2 11 3 29 4 31 5 32 6 8 11 6 12 7 13 39 14 33 16
REMARK SMILES IDX 37 17 34 18 36 19 35 20 5 22 2 23 3 24 40 25 4 26 1 29 38 33
REMARK SMILES IDX 12 36 13 39 14 40 15 41 28 42 16 43 26 45 17 47 27 49 18 52
REMARK SMILES IDX 19 53 20 54 21 55 25 56 22 57 24 60 23 63 30 69
REMARK H PARENT 9 7 11 8 29 9 31 10 7 15 35 21 3 27 4 28 1 30 1 31 1 32 38 34
REMARK H PARENT 38 35 12 37 12 38 15 44 28 46 16 48 27 50 27 51 21 58 21 59
REMARK H PARENT 25 61 25 62 22 64 22 65 24 66 24 67 23 68 30 70
REMARK Flexibility Score: inf
ROOT
ATOM      1  C   UNL     1     -45.011  37.565  29.024  1.00  0.00     0.169 C 
ATOM      2  O   UNL     1     -45.066  36.606  27.935  1.00  0.00    -0.345 OA
ATOM      3  C   UNL     1     -46.356  35.960  27.987  1.00  0.00     0.123 C 
ATOM      4  C   UNL     1     -47.276  36.959  28.664  1.00  0.00     0.119 C 
ATOM      5  C   UNL     1     -46.363  37.524  29.730  1.00  0.00     0.173 C 
ATOM      6  F   UNL     1     -46.826  38.734  30.121  1.00  0.00    -0.239 F 
ATOM      7  H   UNL     1     -44.200  37.254  29.691  1.00  0.00     0.088 H 
ATOM      8  H   UNL     1     -46.238  35.058  28.600  1.00  0.00     0.067 H 
ATOM      9  H   UNL     1     -47.597  37.752  27.978  1.00  0.00     0.066 H 
ATOM     10  H   UNL     1     -46.335  36.871  30.611  1.00  0.00     0.074 H 
ENDROOT
BRANCH   1  11
ATOM     11  N   UNL     1     -44.662  38.873  28.487  1.00  0.00    -0.302 N 
ATOM     12  C   UNL     1     -44.613  40.741  27.268  1.00  0.00     0.033 A 
ATOM     13  C   UNL     1     -45.256  39.527  27.437  1.00  0.00     0.019 A 
ATOM     14  C   UNL     1     -43.599  40.838  28.275  1.00  0.00     0.071 A 
ATOM     15  H   UNL     1     -46.061  39.069  26.878  1.00  0.00     0.083 H 
ATOM     16  C   UNL     1     -43.645  39.646  28.992  1.00  0.00     0.148 A 
ATOM     17  C   UNL     1     -42.630  41.767  28.691  1.00  0.00     0.137 A 
ATOM     18  N   UNL     1     -42.850  39.289  30.015  1.00  0.00    -0.218 NA
ATOM     19  N   UNL     1     -41.796  41.439  29.700  1.00  0.00    -0.219 NA
ATOM     20  C   UNL     1     -41.953  40.246  30.299  1.00  0.00     0.120 A 
ATOM     21  H   UNL     1     -41.269  40.033  31.114  1.00  0.00     0.106 H 
BRANCH  12  22
ATOM     22  C   UNL     1     -44.907  41.734  26.229  1.00  0.00     0.095 A 
ATOM     23  N   UNL     1     -45.796  43.334  25.166  1.00  0.00    -0.275 N 
ATOM     24  C   UNL     1     -44.769  42.926  24.367  1.00  0.00     0.025 A 
ATOM     25  N   UNL     1     -45.900  42.632  26.310  1.00  0.00    -0.173 NA
ATOM     26  C   UNL     1     -44.167  41.885  25.034  1.00  0.00    -0.016 A 
ATOM     27  H   UNL     1     -44.556  43.395  23.416  1.00  0.00     0.084 H 
ATOM     28  H   UNL     1     -43.315  41.312  24.699  1.00  0.00     0.066 H 
BRANCH  23  29
ATOM     29  C   UNL     1     -46.730  44.401  24.901  1.00  0.00     0.030 C 
ATOM     30  H   UNL     1     -47.719  43.980  24.708  1.00  0.00     0.048 H 
ATOM     31  H   UNL     1     -46.766  45.054  25.776  1.00  0.00     0.048 H 
ATOM     32  H   UNL     1     -46.382  44.952  24.023  1.00  0.00     0.048 H 
ENDBRANCH  23  29
ENDBRANCH  12  22
BRANCH  17  33
ATOM     33  N   UNL     1     -42.461  43.022  28.126  1.00  0.00    -0.383 N 
ATOM     34  H   UNL     1     -42.314  43.732  28.829  1.00  0.00     0.158 HD
ATOM     35  H   UNL     1     -41.810  43.009  27.335  1.00  0.00     0.158 HD
ENDBRANCH  17  33
ENDBRANCH   1  11
BRANCH   3  36
ATOM     36  C   UNL     1     -46.839  35.584  26.584  1.00  0.00     0.117 C 
ATOM     37  H   UNL     1     -47.905  35.331  26.553  1.00  0.00     0.073 H 
ATOM     38  H   UNL     1     -46.708  36.447  25.919  1.00  0.00     0.073 H 
BRANCH  36  39
ATOM     39  O   UNL     1     -46.038  34.541  26.022  1.00  0.00    -0.491 OA
BRANCH  39  40
ATOM     40  C   UNL     1     -46.663  33.438  25.509  1.00  0.00     0.121 A 
ATOM     41  C   UNL     1     -48.017  33.342  25.837  1.00  0.00    -0.019 A 
ATOM     42  C   UNL     1     -46.080  32.453  24.702  1.00  0.00     0.004 A 
ATOM     43  C   UNL     1     -48.791  32.290  25.350  1.00  0.00    -0.044 A 
ATOM     44  H   UNL     1     -48.472  34.100  26.470  1.00  0.00     0.066 H 
ATOM     45  C   UNL     1     -46.826  31.353  24.250  1.00  0.00     0.048 A 
ATOM     46  H   UNL     1     -45.038  32.516  24.405  1.00  0.00     0.068 H 
ATOM     47  C   UNL     1     -48.205  31.324  24.523  1.00  0.00     0.063 A 
ATOM     48  H   UNL     1     -49.843  32.226  25.613  1.00  0.00     0.063 H 
BRANCH  45  49
ATOM     49  N   UNL     1     -46.220  30.443  23.357  1.00  0.00    -0.398 N 
ATOM     50  H   UNL     1     -46.050  29.540  23.810  1.00  0.00     0.156 HD
ATOM     51  H   UNL     1     -45.368  30.799  22.932  1.00  0.00     0.156 HD
ENDBRANCH  45  49
BRANCH  47  52
ATOM     52  C   UNL     1     -49.046  30.221  24.004  1.00  0.00     0.256 C 
ATOM     53  O   UNL     1     -49.788  30.469  23.056  1.00  0.00    -0.269 OA
ATOM     54  N   UNL     1     -48.970  28.974  24.624  1.00  0.00    -0.336 N 
ATOM     55  C   UNL     1     -48.412  28.779  25.968  1.00  0.00     0.033 C 
ATOM     56  C   UNL     1     -49.819  27.887  24.132  1.00  0.00     0.033 C 
ATOM     57  C   UNL     1     -48.662  27.363  26.521  1.00  0.00     0.013 C 
ATOM     58  H   UNL     1     -48.866  29.523  26.633  1.00  0.00     0.051 H 
ATOM     59  H   UNL     1     -47.335  28.966  25.935  1.00  0.00     0.051 H 
ATOM     60  C   UNL     1     -50.751  27.373  25.243  1.00  0.00     0.013 C 
ATOM     61  H   UNL     1     -49.154  27.083  23.792  1.00  0.00     0.051 H 
ATOM     62  H   UNL     1     -50.411  28.203  23.267  1.00  0.00     0.051 H 
ATOM     63  N   UNL     1     -50.068  26.931  26.478  1.00  0.00    -0.313 NA
ATOM     64  H   UNL     1     -48.302  27.303  27.555  1.00  0.00     0.045 H 
ATOM     65  H   UNL     1     -48.067  26.642  25.947  1.00  0.00     0.045 H 
ATOM     66  H   UNL     1     -51.354  26.541  24.865  1.00  0.00     0.045 H 
ATOM     67  H   UNL     1     -51.447  28.178  25.511  1.00  0.00     0.045 H 
ATOM     68  H   UNL     1     -50.569  27.327  27.274  1.00  0.00     0.122 HD
ENDBRANCH  47  52
ENDBRANCH  39  40
ENDBRANCH  36  39
ENDBRANCH   3  36
BRANCH   4  69
ATOM     69  O   UNL     1     -48.435  36.334  29.201  1.00  0.00    -0.387 OA
ATOM     70  H   UNL     1     -49.183  36.946  29.053  1.00  0.00     0.211 HD
ENDBRANCH   4  69
TORSDOF 10
ENDMDL
MODEL 2
REMARK VINA RESULT:     -10.4      1.452      2.060
REMARK SMILES Cn1ccc(-c2cn([C@@H]3O[C@H](COc4ccc(C(=O)N5CCNCC5)c(N)c4)[C@@H](O)[C@@H]3F)c3ncnc(N)c23)n1
REMARK SMILES IDX 9 1 10 2 11 3 29 4 31 5 32 6 8 11 6 12 7 13 39 14 33 16
REMARK SMILES IDX 37 17 34 18 36 19 35 20 5 22 2 23 3 24 40 25 4 26 1 29 38 33
REMARK SMILES IDX 12 36 13 39 14 40 15 41 28 42 16 43 26 45 17 47 27 49 18 52
REMARK SMILES IDX 19 53 20 54 21 55 25 56 22 57 24 60 23 63 30 69
REMARK H PARENT 9 7 11 8 29 9 31 10 7 15 35 21 3 27 4 28 1 30 1 31 1 32 38 34
REMARK H PARENT 38 35 12 37 12 38 15 44 28 46 16 48 27 50 27 51 21 58 21 59
REMARK H PARENT 25 61 25 62 22 64 22 65 24 66 24 67 23 68 30 70
REMARK Flexibility Score: inf
ROOT
ATOM      1  C   UNL     1     -45.404  38.302  29.303  1.00  0.00     0.169 C 
ATOM      2  O   UNL     1     -44.952  37.069  28.684  1.00  0.00    -0.345 OA
ATOM      3  C   UNL     1     -46.121  36.280  28.377  1.00  0.00     0.123 C 
ATOM      4  C   UNL     1     -47.248  37.283  28.213  1.00  0.00     0.119 C 
ATOM      5  C   UNL     1     -46.929  38.266  29.318  1.00  0.00     0.173 C 
ATOM      6  F   UNL     1     -47.518  39.453  29.044  1.00  0.00    -0.239 F 
ATOM      7  H   UNL     1     -44.993  38.326  30.319  1.00  0.00     0.088 H 
ATOM      8  H   UNL     1     -46.301  35.626  29.239  1.00  0.00     0.067 H 
ATOM      9  H   UNL     1     -47.214  37.782  27.237  1.00  0.00     0.066 H 
ATOM     10  H   UNL     1     -47.312  37.912  30.283  1.00  0.00     0.074 H 
ENDROOT
BRANCH   1  11
ATOM     11  N   UNL     1     -44.844  39.432  28.575  1.00  0.00    -0.302 N 
ATOM     12  C   UNL     1     -44.512  41.076  27.104  1.00  0.00     0.033 A 
ATOM     13  C   UNL     1     -45.365  40.047  27.465  1.00  0.00     0.019 A 
ATOM     14  C   UNL     1     -43.439  41.101  28.052  1.00  0.00     0.071 A 
ATOM     15  H   UNL     1     -46.274  39.687  27.004  1.00  0.00     0.083 H 
ATOM     16  C   UNL     1     -43.669  40.048  28.931  1.00  0.00     0.148 A 
ATOM     17  C   UNL     1     -42.286  41.867  28.300  1.00  0.00     0.137 A 
ATOM     18  N   UNL     1     -42.896  39.678  29.967  1.00  0.00    -0.218 NA
ATOM     19  N   UNL     1     -41.471  41.517  29.316  1.00  0.00    -0.219 NA
ATOM     20  C   UNL     1     -41.817  40.467  30.082  1.00  0.00     0.120 A 
ATOM     21  H   UNL     1     -41.137  40.233  30.895  1.00  0.00     0.106 H 
BRANCH  12  22
ATOM     22  C   UNL     1     -44.674  41.961  25.945  1.00  0.00     0.095 A 
ATOM     23  N   UNL     1     -45.341  43.521  24.680  1.00  0.00    -0.275 N 
ATOM     24  C   UNL     1     -44.384  42.880  23.951  1.00  0.00     0.025 A 
ATOM     25  N   UNL     1     -45.534  42.988  25.901  1.00  0.00    -0.173 NA
ATOM     26  C   UNL     1     -43.926  41.859  24.750  1.00  0.00    -0.016 A 
ATOM     27  H   UNL     1     -44.113  43.193  22.952  1.00  0.00     0.084 H 
ATOM     28  H   UNL     1     -43.161  41.138  24.499  1.00  0.00     0.066 H 
BRANCH  23  29
ATOM     29  C   UNL     1     -46.122  44.663  24.272  1.00  0.00     0.030 C 
ATOM     30  H   UNL     1     -46.933  44.824  24.987  1.00  0.00     0.048 H 
ATOM     31  H   UNL     1     -45.468  45.537  24.246  1.00  0.00     0.048 H 
ATOM     32  H   UNL     1     -46.535  44.460  23.280  1.00  0.00     0.048 H 
ENDBRANCH  23  29
ENDBRANCH  12  22
BRANCH  17  33
ATOM     33  N   UNL     1     -41.915  42.978  27.557  1.00  0.00    -0.383 N 
ATOM     34  H   UNL     1     -42.719  43.504  27.247  1.00  0.00     0.158 HD
ATOM     35  H   UNL     1     -41.155  43.504  27.998  1.00  0.00     0.158 HD
ENDBRANCH  17  33
ENDBRANCH   1  11
BRANCH   3  36
ATOM     36  C   UNL     1     -45.902  35.441  27.116  1.00  0.00     0.117 C 
ATOM     37  H   UNL     1     -45.172  35.885  26.429  1.00  0.00     0.073 H 
ATOM     38  H   UNL     1     -45.496  34.463  27.404  1.00  0.00     0.073 H 
BRANCH  36  39
ATOM     39  O   UNL     1     -47.140  35.164  26.455  1.00  0.00    -0.491 OA
BRANCH  39  40
ATOM     40  C   UNL     1     -47.316  33.936  25.878  1.00  0.00     0.121 A 
ATOM     41  C   UNL     1     -48.567  33.365  26.119  1.00  0.00    -0.019 A 
ATOM     42  C   UNL     1     -46.387  33.250  25.087  1.00  0.00     0.004 A 
ATOM     43  C   UNL     1     -48.901  32.132  25.561  1.00  0.00    -0.044 A 
ATOM     44  H   UNL     1     -49.288  33.890  26.740  1.00  0.00     0.066 H 
ATOM     45  C   UNL     1     -46.681  31.980  24.564  1.00  0.00     0.048 A 
ATOM     46  H   UNL     1     -45.418  33.681  24.857  1.00  0.00     0.068 H 
ATOM     47  C   UNL     1     -47.976  31.465  24.750  1.00  0.00     0.063 A 
ATOM     48  H   UNL     1     -49.877  31.696  25.756  1.00  0.00     0.063 H 
BRANCH  45  49
ATOM     49  N   UNL     1     -45.752  31.376  23.690  1.00  0.00    -0.398 N 
ATOM     50  H   UNL     1     -46.070  30.445  23.401  1.00  0.00     0.156 HD
ATOM     51  H   UNL     1     -44.809  31.333  24.067  1.00  0.00     0.156 HD
ENDBRANCH  45  49
BRANCH  47  52
ATOM     52  C   UNL     1     -48.353  30.162  24.154  1.00  0.00     0.256 C 
ATOM     53  O   UNL     1     -47.773  29.159  24.567  1.00  0.00    -0.269 OA
ATOM     54  N   UNL     1     -49.322  30.141  23.152  1.00  0.00    -0.336 N 
ATOM     55  C   UNL     1     -49.715  31.334  22.390  1.00  0.00     0.033 C 
ATOM     56  C   UNL     1     -49.680  28.859  22.541  1.00  0.00     0.033 C 
ATOM     57  C   UNL     1     -50.618  31.005  21.186  1.00  0.00     0.013 C 
ATOM     58  H   UNL     1     -48.799  31.829  22.044  1.00  0.00     0.051 H 
ATOM     59  H   UNL     1     -50.242  32.022  23.056  1.00  0.00     0.051 H 
ATOM     60  C   UNL     1     -49.412  28.880  21.026  1.00  0.00     0.013 C 
ATOM     61  H   UNL     1     -50.746  28.692  22.736  1.00  0.00     0.051 H 
ATOM     62  H   UNL     1     -49.133  28.031  23.004  1.00  0.00     0.051 H 
ATOM     63  N   UNL     1     -50.082  29.971  20.287  1.00  0.00    -0.313 NA
ATOM     64  H   UNL     1     -50.807  31.917  20.608  1.00  0.00     0.045 H 
ATOM     65  H   UNL     1     -51.595  30.666  21.551  1.00  0.00     0.045 H 
ATOM     66  H   UNL     1     -49.714  27.925  20.584  1.00  0.00     0.045 H 
ATOM     67  H   UNL     1     -48.330  28.978  20.868  1.00  0.00     0.045 H 
ATOM     68  H   UNL     1     -49.400  30.390  19.655  1.00  0.00     0.122 HD
ENDBRANCH  47  52
ENDBRANCH  39  40
ENDBRANCH  36  39
ENDBRANCH   3  36
BRANCH   4  69
ATOM     69  O   UNL     1     -48.524  36.676  28.362  1.00  0.00    -0.387 OA
ATOM     70  H   UNL     1     -49.170  37.398  28.491  1.00  0.00     0.211 HD
ENDBRANCH   4  69
TORSDOF 10
ENDMDL
MODEL 3
REMARK VINA RESULT:     -10.1      2.208      2.999
REMARK SMILES Cn1ccc(-c2cn([C@@H]3O[C@H](COc4ccc(C(=O)N5CCNCC5)c(N)c4)[C@@H](O)[C@@H]3F)c3ncnc(N)c23)n1
REMARK SMILES IDX 9 1 10 2 11 3 29 4 31 5 32 6 8 11 6 12 7 13 39 14 33 16
REMARK SMILES IDX 37 17 34 18 36 19 35 20 5 22 2 23 3 24 40 25 4 26 1 29 38 33
REMARK SMILES IDX 12 36 13 39 14 40 15 41 28 42 16 43 26 45 17 47 27 49 18 52
REMARK SMILES IDX 19 53 20 54 21 55 25 56 22 57 24 60 23 63 30 69
REMARK H PARENT 9 7 11 8 29 9 31 10 7 15 35 21 3 27 4 28 1 30 1 31 1 32 38 34
REMARK H PARENT 38 35 12 37 12 38 15 44 28 46 16 48 27 50 27 51 21 58 21 59
REMARK H PARENT 25 61 25 62 22 64 22 65 24 66 24 67 23 68 30 70
REMARK Flexibility Score: inf
ROOT
ATOM      1  C   UNL     1     -45.205  37.814  27.943  1.00  0.00     0.169 C 
ATOM      2  O   UNL     1     -45.705  36.635  27.259  1.00  0.00    -0.345 OA
ATOM      3  C   UNL     1     -45.983  35.634  28.262  1.00  0.00     0.123 C 
ATOM      4  C   UNL     1     -46.267  36.411  29.534  1.00  0.00     0.119 C 
ATOM      5  C   UNL     1     -45.237  37.515  29.439  1.00  0.00     0.173 C 
ATOM      6  F   UNL     1     -45.627  38.558  30.209  1.00  0.00    -0.239 F 
ATOM      7  H   UNL     1     -44.182  37.986  27.590  1.00  0.00     0.088 H 
ATOM      8  H   UNL     1     -45.076  35.026  28.368  1.00  0.00     0.067 H 
ATOM      9  H   UNL     1     -47.279  36.833  29.541  1.00  0.00     0.066 H 
ATOM     10  H   UNL     1     -44.259  37.175  29.801  1.00  0.00     0.074 H 
ENDROOT
BRANCH   1  11
ATOM     11  N   UNL     1     -46.005  38.966  27.551  1.00  0.00    -0.302 N 
ATOM     12  C   UNL     1     -47.702  40.369  27.192  1.00  0.00     0.033 A 
ATOM     13  C   UNL     1     -47.360  39.126  27.697  1.00  0.00     0.019 A 
ATOM     14  C   UNL     1     -46.498  41.000  26.742  1.00  0.00     0.071 A 
ATOM     15  H   UNL     1     -47.973  38.338  28.114  1.00  0.00     0.083 H 
ATOM     16  C   UNL     1     -45.473  40.084  26.957  1.00  0.00     0.148 A 
ATOM     17  C   UNL     1     -46.116  42.226  26.171  1.00  0.00     0.137 A 
ATOM     18  N   UNL     1     -44.173  40.243  26.656  1.00  0.00    -0.218 NA
ATOM     19  N   UNL     1     -44.824  42.419  25.833  1.00  0.00    -0.219 NA
ATOM     20  C   UNL     1     -43.941  41.440  26.095  1.00  0.00     0.120 A 
ATOM     21  H   UNL     1     -42.912  41.647  25.817  1.00  0.00     0.106 H 
BRANCH  12  22
ATOM     22  C   UNL     1     -49.059  40.922  27.115  1.00  0.00     0.095 A 
ATOM     23  N   UNL     1     -50.760  41.999  26.464  1.00  0.00    -0.275 N 
ATOM     24  C   UNL     1     -51.187  41.329  27.572  1.00  0.00     0.025 A 
ATOM     25  N   UNL     1     -49.471  41.765  26.157  1.00  0.00    -0.173 NA
ATOM     26  C   UNL     1     -50.101  40.614  28.019  1.00  0.00    -0.016 A 
ATOM     27  H   UNL     1     -52.200  41.413  27.943  1.00  0.00     0.084 H 
ATOM     28  H   UNL     1     -50.068  39.964  28.881  1.00  0.00     0.066 H 
BRANCH  23  29
ATOM     29  C   UNL     1     -51.536  42.891  25.638  1.00  0.00     0.030 C 
ATOM     30  H   UNL     1     -51.605  42.484  24.626  1.00  0.00     0.048 H 
ATOM     31  H   UNL     1     -52.535  42.983  26.072  1.00  0.00     0.048 H 
ATOM     32  H   UNL     1     -51.035  43.863  25.615  1.00  0.00     0.048 H 
ENDBRANCH  23  29
ENDBRANCH  12  22
BRANCH  17  33
ATOM     33  N   UNL     1     -46.989  43.274  25.920  1.00  0.00    -0.383 N 
ATOM     34  H   UNL     1     -47.878  43.137  26.380  1.00  0.00     0.158 HD
ATOM     35  H   UNL     1     -46.542  44.188  26.035  1.00  0.00     0.158 HD
ENDBRANCH  17  33
ENDBRANCH   1  11
BRANCH   3  36
ATOM     36  C   UNL     1     -47.162  34.753  27.845  1.00  0.00     0.117 C 
ATOM     37  H   UNL     1     -47.069  33.719  28.196  1.00  0.00     0.073 H 
ATOM     38  H   UNL     1     -48.080  35.148  28.297  1.00  0.00     0.073 H 
BRANCH  36  39
ATOM     39  O   UNL     1     -47.377  34.806  26.431  1.00  0.00    -0.491 OA
BRANCH  39  40
ATOM     40  C   UNL     1     -47.477  33.632  25.738  1.00  0.00     0.121 A 
ATOM     41  C   UNL     1     -48.752  33.064  25.756  1.00  0.00    -0.019 A 
ATOM     42  C   UNL     1     -46.450  32.996  25.030  1.00  0.00     0.004 A 
ATOM     43  C   UNL     1     -49.012  31.885  25.057  1.00  0.00    -0.044 A 
ATOM     44  H   UNL     1     -49.550  33.549  26.311  1.00  0.00     0.066 H 
ATOM     45  C   UNL     1     -46.675  31.777  24.369  1.00  0.00     0.048 A 
ATOM     46  H   UNL     1     -45.457  33.428  24.972  1.00  0.00     0.068 H 
ATOM     47  C   UNL     1     -47.986  31.270  24.331  1.00  0.00     0.063 A 
ATOM     48  H   UNL     1     -50.008  31.452  25.079  1.00  0.00     0.063 H 
BRANCH  45  49
ATOM     49  N   UNL     1     -45.636  31.229  23.586  1.00  0.00    -0.398 N 
ATOM     50  H   UNL     1     -45.856  30.268  23.302  1.00  0.00     0.156 HD
ATOM     51  H   UNL     1     -44.725  31.273  24.033  1.00  0.00     0.156 HD
ENDBRANCH  45  49
BRANCH  47  52
ATOM     52  C   UNL     1     -48.283  30.025  23.585  1.00  0.00     0.256 C 
ATOM     53  O   UNL     1     -48.408  30.110  22.364  1.00  0.00    -0.269 OA
ATOM     54  N   UNL     1     -48.426  28.836  24.297  1.00  0.00    -0.336 N 
ATOM     55  C   UNL     1     -48.677  28.792  25.744  1.00  0.00     0.033 C 
ATOM     56  C   UNL     1     -48.747  27.608  23.567  1.00  0.00     0.033 C 
ATOM     57  C   UNL     1     -49.037  27.382  26.248  1.00  0.00     0.013 C 
ATOM     58  H   UNL     1     -49.497  29.487  25.965  1.00  0.00     0.051 H 
ATOM     59  H   UNL     1     -47.784  29.144  26.269  1.00  0.00     0.051 H 
ATOM     60  C   UNL     1     -50.074  27.007  24.062  1.00  0.00     0.013 C 
ATOM     61  H   UNL     1     -47.924  26.903  23.738  1.00  0.00     0.051 H 
ATOM     62  H   UNL     1     -48.800  27.787  22.489  1.00  0.00     0.051 H 
ATOM     63  N   UNL     1     -50.135  26.734  25.514  1.00  0.00    -0.313 NA
ATOM     64  H   UNL     1     -49.296  27.427  27.312  1.00  0.00     0.045 H 
ATOM     65  H   UNL     1     -48.152  26.738  26.175  1.00  0.00     0.045 H 
ATOM     66  H   UNL     1     -50.280  26.074  23.526  1.00  0.00     0.045 H 
ATOM     67  H   UNL     1     -50.884  27.704  23.814  1.00  0.00     0.045 H 
ATOM     68  H   UNL     1     -51.028  27.083  25.863  1.00  0.00     0.122 HD
ENDBRANCH  47  52
ENDBRANCH  39  40
ENDBRANCH  36  39
ENDBRANCH   3  36
BRANCH   4  69
ATOM     69  O   UNL     1     -46.109  35.605  30.694  1.00  0.00    -0.387 OA
ATOM     70  H   UNL     1     -46.898  35.751  31.252  1.00  0.00     0.211 HD
ENDBRANCH   4  69
TORSDOF 10
ENDMDL
MODEL 4
REMARK VINA RESULT:      -9.6      2.871      3.994
REMARK SMILES Cn1ccc(-c2cn([C@@H]3O[C@H](COc4ccc(C(=O)N5CCNCC5)c(N)c4)[C@@H](O)[C@@H]3F)c3ncnc(N)c23)n1
REMARK SMILES IDX 9 1 10 2 11 3 29 4 31 5 32 6 8 11 6 12 7 13 39 14 33 16
REMARK SMILES IDX 37 17 34 18 36 19 35 20 5 22 2 23 3 24 40 25 4 26 1 29 38 33
REMARK SMILES IDX 12 36 13 39 14 40 15 41 28 42 16 43 26 45 17 47 27 49 18 52
REMARK SMILES IDX 19 53 20 54 21 55 25 56 22 57 24 60 23 63 30 69
REMARK H PARENT 9 7 11 8 29 9 31 10 7 15 35 21 3 27 4 28 1 30 1 31 1 32 38 34
REMARK H PARENT 38 35 12 37 12 38 15 44 28 46 16 48 27 50 27 51 21 58 21 59
REMARK H PARENT 25 61 25 62 22 64 22 65 24 66 24 67 23 68 30 70
REMARK Flexibility Score: inf
ROOT
ATOM      1  C   UNL     1     -45.478  37.751  27.763  1.00  0.00     0.169 C 
ATOM      2  O   UNL     1     -46.001  36.705  26.902  1.00  0.00    -0.345 OA
ATOM      3  C   UNL     1     -46.253  35.546  27.726  1.00  0.00     0.123 C 
ATOM      4  C   UNL     1     -46.496  36.093  29.120  1.00  0.00     0.119 C 
ATOM      5  C   UNL     1     -45.466  37.199  29.186  1.00  0.00     0.173 C 
ATOM      6  F   UNL     1     -45.831  38.093  30.134  1.00  0.00    -0.239 F 
ATOM      7  H   UNL     1     -44.466  37.983  27.415  1.00  0.00     0.088 H 
ATOM      8  H   UNL     1     -45.345  34.931  27.699  1.00  0.00     0.067 H 
ATOM      9  H   UNL     1     -47.507  36.505  29.229  1.00  0.00     0.066 H 
ATOM     10  H   UNL     1     -44.480  36.804  29.455  1.00  0.00     0.074 H 
ENDROOT
BRANCH   1  11
ATOM     11  N   UNL     1     -46.286  38.951  27.598  1.00  0.00    -0.302 N 
ATOM     12  C   UNL     1     -47.928  40.456  27.716  1.00  0.00     0.033 A 
ATOM     13  C   UNL     1     -47.533  39.193  28.119  1.00  0.00     0.019 A 
ATOM     14  C   UNL     1     -46.865  41.015  26.936  1.00  0.00     0.071 A 
ATOM     15  H   UNL     1     -48.048  38.442  28.702  1.00  0.00     0.083 H 
ATOM     16  C   UNL     1     -45.877  40.037  26.865  1.00  0.00     0.148 A 
ATOM     17  C   UNL     1     -46.587  42.218  26.264  1.00  0.00     0.137 A 
ATOM     18  N   UNL     1     -44.708  40.118  26.206  1.00  0.00    -0.218 NA
ATOM     19  N   UNL     1     -45.434  42.333  25.573  1.00  0.00    -0.219 NA
ATOM     20  C   UNL     1     -44.573  41.301  25.587  1.00  0.00     0.120 A 
ATOM     21  H   UNL     1     -43.654  41.446  25.028  1.00  0.00     0.106 H 
BRANCH  12  22
ATOM     22  C   UNL     1     -49.216  41.092  28.018  1.00  0.00     0.095 A 
ATOM     23  N   UNL     1     -50.670  42.475  28.690  1.00  0.00    -0.275 N 
ATOM     24  C   UNL     1     -51.396  41.468  28.126  1.00  0.00     0.025 A 
ATOM     25  N   UNL     1     -49.340  42.277  28.633  1.00  0.00    -0.173 NA
ATOM     26  C   UNL     1     -50.475  40.551  27.674  1.00  0.00    -0.016 A 
ATOM     27  H   UNL     1     -52.476  41.484  28.092  1.00  0.00     0.084 H 
ATOM     28  H   UNL     1     -50.688  39.619  27.171  1.00  0.00     0.066 H 
BRANCH  23  29
ATOM     29  C   UNL     1     -51.184  43.671  29.310  1.00  0.00     0.030 C 
ATOM     30  H   UNL     1     -52.052  44.028  28.751  1.00  0.00     0.048 H 
ATOM     31  H   UNL     1     -51.474  43.431  30.336  1.00  0.00     0.048 H 
ATOM     32  H   UNL     1     -50.397  44.430  29.300  1.00  0.00     0.048 H 
ENDBRANCH  23  29
ENDBRANCH  12  22
BRANCH  17  33
ATOM     33  N   UNL     1     -47.431  43.319  26.258  1.00  0.00    -0.383 N 
ATOM     34  H   UNL     1     -48.163  43.223  25.569  1.00  0.00     0.158 HD
ATOM     35  H   UNL     1     -47.713  43.598  27.201  1.00  0.00     0.158 HD
ENDBRANCH  17  33
ENDBRANCH   1  11
BRANCH   3  36
ATOM     36  C   UNL     1     -47.447  34.747  27.199  1.00  0.00     0.117 C 
ATOM     37  H   UNL     1     -48.398  35.049  27.653  1.00  0.00     0.073 H 
ATOM     38  H   UNL     1     -47.550  34.929  26.122  1.00  0.00     0.073 H 
BRANCH  36  39
ATOM     39  O   UNL     1     -47.229  33.340  27.332  1.00  0.00    -0.491 OA
BRANCH  39  40
ATOM     40  C   UNL     1     -47.247  32.563  26.206  1.00  0.00     0.121 A 
ATOM     41  C   UNL     1     -48.175  31.521  26.244  1.00  0.00    -0.019 A 
ATOM     42  C   UNL     1     -46.456  32.738  25.065  1.00  0.00     0.004 A 
ATOM     43  C   UNL     1     -48.331  30.672  25.150  1.00  0.00    -0.044 A 
ATOM     44  H   UNL     1     -48.786  31.376  27.132  1.00  0.00     0.066 H 
ATOM     45  C   UNL     1     -46.554  31.858  23.974  1.00  0.00     0.048 A 
ATOM     46  H   UNL     1     -45.747  33.557  24.993  1.00  0.00     0.068 H 
ATOM     47  C   UNL     1     -47.554  30.870  24.003  1.00  0.00     0.063 A 
ATOM     48  H   UNL     1     -49.056  29.863  25.191  1.00  0.00     0.063 H 
BRANCH  45  49
ATOM     49  N   UNL     1     -45.809  32.137  22.808  1.00  0.00    -0.398 N 
ATOM     50  H   UNL     1     -46.389  32.039  21.968  1.00  0.00     0.156 HD
ATOM     51  H   UNL     1     -44.961  31.583  22.728  1.00  0.00     0.156 HD
ENDBRANCH  45  49
BRANCH  47  52
ATOM     52  C   UNL     1     -47.743  29.966  22.844  1.00  0.00     0.256 C 
ATOM     53  O   UNL     1     -46.826  29.194  22.570  1.00  0.00    -0.269 OA
ATOM     54  N   UNL     1     -48.930  30.049  22.118  1.00  0.00    -0.336 N 
ATOM     55  C   UNL     1     -49.830  31.208  22.183  1.00  0.00     0.033 C 
ATOM     56  C   UNL     1     -49.111  29.177  20.956  1.00  0.00     0.033 C 
ATOM     57  C   UNL     1     -50.939  31.167  21.114  1.00  0.00     0.013 C 
ATOM     58  H   UNL     1     -49.224  32.113  22.054  1.00  0.00     0.051 H 
ATOM     59  H   UNL     1     -50.290  31.245  23.174  1.00  0.00     0.051 H 
ATOM     60  C   UNL     1     -49.330  30.005  19.678  1.00  0.00     0.013 C 
ATOM     61  H   UNL     1     -49.986  28.547  21.155  1.00  0.00     0.051 H 
ATOM     62  H   UNL     1     -48.255  28.508  20.822  1.00  0.00     0.051 H 
ATOM     63  N   UNL     1     -50.452  30.966  19.739  1.00  0.00    -0.313 NA
ATOM     64  H   UNL     1     -51.523  32.093  21.154  1.00  0.00     0.045 H 
ATOM     65  H   UNL     1     -51.636  30.353  21.350  1.00  0.00     0.045 H 
ATOM     66  H   UNL     1     -49.494  29.336  18.827  1.00  0.00     0.045 H 
ATOM     67  H   UNL     1     -48.412  30.569  19.469  1.00  0.00     0.045 H 
ATOM     68  H   UNL     1     -50.127  31.856  19.361  1.00  0.00     0.122 HD
ENDBRANCH  47  52
ENDBRANCH  39  40
ENDBRANCH  36  39
ENDBRANCH   3  36
BRANCH   4  69
ATOM     69  O   UNL     1     -46.307  35.100  30.120  1.00  0.00    -0.387 OA
ATOM     70  H   UNL     1     -46.289  35.562  30.981  1.00  0.00     0.211 HD
ENDBRANCH   4  69
TORSDOF 10
ENDMDL
MODEL 5
REMARK VINA RESULT:      -9.0      3.426      6.895
REMARK SMILES Cn1ccc(-c2cn([C@@H]3O[C@H](COc4ccc(C(=O)N5CCNCC5)c(N)c4)[C@@H](O)[C@@H]3F)c3ncnc(N)c23)n1
REMARK SMILES IDX 9 1 10 2 11 3 29 4 31 5 32 6 8 11 6 12 7 13 39 14 33 16
REMARK SMILES IDX 37 17 34 18 36 19 35 20 5 22 2 23 3 24 40 25 4 26 1 29 38 33
REMARK SMILES IDX 12 36 13 39 14 40 15 41 28 42 16 43 26 45 17 47 27 49 18 52
REMARK SMILES IDX 19 53 20 54 21 55 25 56 22 57 24 60 23 63 30 69
REMARK H PARENT 9 7 11 8 29 9 31 10 7 15 35 21 3 27 4 28 1 30 1 31 1 32 38 34
REMARK H PARENT 38 35 12 37 12 38 15 44 28 46 16 48 27 50 27 51 21 58 21 59
REMARK H PARENT 25 61 25 62 22 64 22 65 24 66 24 67 23 68 30 70
REMARK Flexibility Score: inf
ROOT
ATOM      1  C   UNL     1     -44.539  42.997  25.298  1.00  0.00     0.169 C 
ATOM      2  O   UNL     1     -44.351  41.588  25.593  1.00  0.00    -0.345 OA
ATOM      3  C   UNL     1     -43.321  41.486  26.599  1.00  0.00     0.123 C 
ATOM      4  C   UNL     1     -43.363  42.805  27.349  1.00  0.00     0.119 C 
ATOM      5  C   UNL     1     -43.604  43.779  26.217  1.00  0.00     0.173 C 
ATOM      6  F   UNL     1     -44.136  44.920  26.714  1.00  0.00    -0.239 F 
ATOM      7  H   UNL     1     -44.281  43.146  24.244  1.00  0.00     0.088 H 
ATOM      8  H   UNL     1     -42.368  41.367  26.070  1.00  0.00     0.067 H 
ATOM      9  H   UNL     1     -44.190  42.842  28.068  1.00  0.00     0.066 H 
ATOM     10  H   UNL     1     -42.666  44.035  25.710  1.00  0.00     0.074 H 
ENDROOT
BRANCH   1  11
ATOM     11  N   UNL     1     -45.947  43.333  25.459  1.00  0.00    -0.302 N 
ATOM     12  C   UNL     1     -48.078  43.357  26.118  1.00  0.00     0.033 A 
ATOM     13  C   UNL     1     -46.861  42.716  26.275  1.00  0.00     0.019 A 
ATOM     14  C   UNL     1     -47.887  44.425  25.184  1.00  0.00     0.071 A 
ATOM     15  H   UNL     1     -46.585  41.858  26.872  1.00  0.00     0.083 H 
ATOM     16  C   UNL     1     -46.558  44.358  24.778  1.00  0.00     0.148 A 
ATOM     17  C   UNL     1     -48.653  45.453  24.606  1.00  0.00     0.137 A 
ATOM     18  N   UNL     1     -45.946  45.152  23.883  1.00  0.00    -0.218 NA
ATOM     19  N   UNL     1     -48.083  46.260  23.687  1.00  0.00    -0.219 NA
ATOM     20  C   UNL     1     -46.786  46.072  23.386  1.00  0.00     0.120 A 
ATOM     21  H   UNL     1     -46.370  46.754  22.651  1.00  0.00     0.106 H 
BRANCH  12  22
ATOM     22  C   UNL     1     -49.336  42.989  26.777  1.00  0.00     0.095 A 
ATOM     23  N   UNL     1     -51.144  43.100  27.871  1.00  0.00    -0.275 N 
ATOM     24  C   UNL     1     -51.070  41.799  27.471  1.00  0.00     0.025 A 
ATOM     25  N   UNL     1     -50.106  43.850  27.458  1.00  0.00    -0.173 NA
ATOM     26  C   UNL     1     -49.903  41.695  26.751  1.00  0.00    -0.016 A 
ATOM     27  H   UNL     1     -51.832  41.074  27.723  1.00  0.00     0.084 H 
ATOM     28  H   UNL     1     -49.515  40.804  26.279  1.00  0.00     0.066 H 
BRANCH  23  29
ATOM     29  C   UNL     1     -52.189  43.707  28.660  1.00  0.00     0.030 C 
ATOM     30  H   UNL     1     -52.949  42.959  28.895  1.00  0.00     0.048 H 
ATOM     31  H   UNL     1     -51.745  44.092  29.581  1.00  0.00     0.048 H 
ATOM     32  H   UNL     1     -52.632  44.519  28.077  1.00  0.00     0.048 H 
ENDBRANCH  23  29
ENDBRANCH  12  22
BRANCH  17  33
ATOM     33  N   UNL     1     -49.982  45.703  24.917  1.00  0.00    -0.383 N 
ATOM     34  H   UNL     1     -50.205  45.412  25.858  1.00  0.00     0.158 HD
ATOM     35  H   UNL     1     -50.277  46.643  24.637  1.00  0.00     0.158 HD
ENDBRANCH  17  33
ENDBRANCH   1  11
BRANCH   3  36
ATOM     36  C   UNL     1     -43.567  40.287  27.518  1.00  0.00     0.117 C 
ATOM     37  H   UNL     1     -43.386  39.326  27.024  1.00  0.00     0.073 H 
ATOM     38  H   UNL     1     -42.868  40.335  28.362  1.00  0.00     0.073 H 
BRANCH  36  39
ATOM     39  O   UNL     1     -44.874  40.338  28.098  1.00  0.00    -0.491 OA
BRANCH  39  40
ATOM     40  C   UNL     1     -45.660  39.220  28.044  1.00  0.00     0.121 A 
ATOM     41  C   UNL     1     -46.544  39.194  26.963  1.00  0.00    -0.019 A 
ATOM     42  C   UNL     1     -45.634  38.143  28.938  1.00  0.00     0.004 A 
ATOM     43  C   UNL     1     -47.379  38.096  26.759  1.00  0.00    -0.044 A 
ATOM     44  H   UNL     1     -46.574  40.032  26.271  1.00  0.00     0.066 H 
ATOM     45  C   UNL     1     -46.509  37.055  28.785  1.00  0.00     0.048 A 
ATOM     46  H   UNL     1     -44.938  38.121  29.769  1.00  0.00     0.068 H 
ATOM     47  C   UNL     1     -47.328  37.013  27.643  1.00  0.00     0.063 A 
ATOM     48  H   UNL     1     -48.064  38.087  25.915  1.00  0.00     0.063 H 
BRANCH  45  49
ATOM     49  N   UNL     1     -46.373  35.949  29.652  1.00  0.00    -0.398 N 
ATOM     50  H   UNL     1     -45.676  36.135  30.380  1.00  0.00     0.156 HD
ATOM     51  H   UNL     1     -46.167  35.079  29.169  1.00  0.00     0.156 HD
ENDBRANCH  45  49
BRANCH  47  52
ATOM     52  C   UNL     1     -48.214  35.850  27.403  1.00  0.00     0.256 C 
ATOM     53  O   UNL     1     -49.256  35.785  28.053  1.00  0.00    -0.269 OA
ATOM     54  N   UNL     1     -47.816  34.886  26.477  1.00  0.00    -0.336 N 
ATOM     55  C   UNL     1     -46.431  34.746  26.010  1.00  0.00     0.033 C 
ATOM     56  C   UNL     1     -48.675  33.721  26.256  1.00  0.00     0.033 C 
ATOM     57  C   UNL     1     -46.203  33.465  25.184  1.00  0.00     0.013 C 
ATOM     58  H   UNL     1     -45.777  34.740  26.891  1.00  0.00     0.051 H 
ATOM     59  H   UNL     1     -46.172  35.616  25.401  1.00  0.00     0.051 H 
ATOM     60  C   UNL     1     -47.924  32.417  26.576  1.00  0.00     0.013 C 
ATOM     61  H   UNL     1     -48.977  33.736  25.201  1.00  0.00     0.051 H 
ATOM     62  H   UNL     1     -49.590  33.780  26.855  1.00  0.00     0.051 H 
ATOM     63  N   UNL     1     -46.655  32.228  25.841  1.00  0.00    -0.313 NA
ATOM     64  H   UNL     1     -45.140  33.371  24.938  1.00  0.00     0.045 H 
ATOM     65  H   UNL     1     -46.732  33.556  24.228  1.00  0.00     0.045 H 
ATOM     66  H   UNL     1     -48.572  31.558  26.375  1.00  0.00     0.045 H 
ATOM     67  H   UNL     1     -47.698  32.403  27.650  1.00  0.00     0.045 H 
ATOM     68  H   UNL     1     -45.947  31.920  26.507  1.00  0.00     0.122 HD
ENDBRANCH  47  52
ENDBRANCH  39  40
ENDBRANCH  36  39
ENDBRANCH   3  36
BRANCH   4  69
ATOM     69  O   UNL     1     -42.151  43.057  28.048  1.00  0.00    -0.387 OA
ATOM     70  H   UNL     1     -42.377  43.612  28.820  1.00  0.00     0.211 HD
ENDBRANCH   4  69
TORSDOF 10
ENDMDL
MODEL 6
REMARK VINA RESULT:      -8.5      2.258      3.388
REMARK SMILES Cn1ccc(-c2cn([C@@H]3O[C@H](COc4ccc(C(=O)N5CCNCC5)c(N)c4)[C@@H](O)[C@@H]3F)c3ncnc(N)c23)n1
REMARK SMILES IDX 9 1 10 2 11 3 29 4 31 5 32 6 8 11 6 12 7 13 39 14 33 16
REMARK SMILES IDX 37 17 34 18 36 19 35 20 5 22 2 23 3 24 40 25 4 26 1 29 38 33
REMARK SMILES IDX 12 36 13 39 14 40 15 41 28 42 16 43 26 45 17 47 27 49 18 52
REMARK SMILES IDX 19 53 20 54 21 55 25 56 22 57 24 60 23 63 30 69
REMARK H PARENT 9 7 11 8 29 9 31 10 7 15 35 21 3 27 4 28 1 30 1 31 1 32 38 34
REMARK H PARENT 38 35 12 37 12 38 15 44 28 46 16 48 27 50 27 51 21 58 21 59
REMARK H PARENT 25 61 25 62 22 64 22 65 24 66 24 67 23 68 30 70
REMARK Flexibility Score: inf
ROOT
ATOM      1  C   UNL     1     -44.960  37.836  27.763  1.00  0.00     0.169 C 
ATOM      2  O   UNL     1     -45.763  36.762  27.207  1.00  0.00    -0.345 OA
ATOM      3  C   UNL     1     -46.142  35.891  28.294  1.00  0.00     0.123 C 
ATOM      4  C   UNL     1     -46.124  36.768  29.532  1.00  0.00     0.119 C 
ATOM      5  C   UNL     1     -44.901  37.619  29.272  1.00  0.00     0.173 C 
ATOM      6  F   UNL     1     -44.983  38.755  30.003  1.00  0.00    -0.239 F 
ATOM      7  H   UNL     1     -43.966  37.767  27.308  1.00  0.00     0.088 H 
ATOM      8  H   UNL     1     -45.377  35.108  28.358  1.00  0.00     0.067 H 
ATOM      9  H   UNL     1     -47.019  37.397  29.603  1.00  0.00     0.066 H 
ATOM     10  H   UNL     1     -43.985  37.093  29.566  1.00  0.00     0.074 H 
ENDROOT
BRANCH   1  11
ATOM     11  N   UNL     1     -45.537  39.114  27.369  1.00  0.00    -0.302 N 
ATOM     12  C   UNL     1     -45.816  41.183  26.584  1.00  0.00     0.033 A 
ATOM     13  C   UNL     1     -44.888  40.177  26.794  1.00  0.00     0.019 A 
ATOM     14  C   UNL     1     -47.088  40.700  27.030  1.00  0.00     0.071 A 
ATOM     15  H   UNL     1     -43.823  40.148  26.611  1.00  0.00     0.083 H 
ATOM     16  C   UNL     1     -46.865  39.422  27.535  1.00  0.00     0.148 A 
ATOM     17  C   UNL     1     -48.415  41.159  27.088  1.00  0.00     0.137 A 
ATOM     18  N   UNL     1     -47.776  38.603  28.087  1.00  0.00    -0.218 NA
ATOM     19  N   UNL     1     -49.357  40.377  27.654  1.00  0.00    -0.219 NA
ATOM     20  C   UNL     1     -48.995  39.164  28.108  1.00  0.00     0.120 A 
ATOM     21  H   UNL     1     -49.790  38.567  28.542  1.00  0.00     0.106 H 
BRANCH  12  22
ATOM     22  C   UNL     1     -45.534  42.511  26.027  1.00  0.00     0.095 A 
ATOM     23  N   UNL     1     -45.453  44.609  25.765  1.00  0.00    -0.275 N 
ATOM     24  C   UNL     1     -44.755  44.110  24.707  1.00  0.00     0.025 A 
ATOM     25  N   UNL     1     -45.934  43.660  26.590  1.00  0.00    -0.173 NA
ATOM     26  C   UNL     1     -44.786  42.742  24.851  1.00  0.00    -0.016 A 
ATOM     27  H   UNL     1     -44.305  44.748  23.959  1.00  0.00     0.084 H 
ATOM     28  H   UNL     1     -44.333  42.015  24.192  1.00  0.00     0.066 H 
BRANCH  23  29
ATOM     29  C   UNL     1     -45.707  45.999  26.058  1.00  0.00     0.030 C 
ATOM     30  H   UNL     1     -46.727  46.254  25.761  1.00  0.00     0.048 H 
ATOM     31  H   UNL     1     -45.581  46.154  27.133  1.00  0.00     0.048 H 
ATOM     32  H   UNL     1     -44.992  46.605  25.496  1.00  0.00     0.048 H 
ENDBRANCH  23  29
ENDBRANCH  12  22
BRANCH  17  33
ATOM     33  N   UNL     1     -48.836  42.386  26.597  1.00  0.00    -0.383 N 
ATOM     34  H   UNL     1     -49.842  42.470  26.615  1.00  0.00     0.158 HD
ATOM     35  H   UNL     1     -48.297  43.166  26.986  1.00  0.00     0.158 HD
ENDBRANCH  17  33
ENDBRANCH   1  11
BRANCH   3  36
ATOM     36  C   UNL     1     -47.516  35.266  28.045  1.00  0.00     0.117 C 
ATOM     37  H   UNL     1     -47.630  34.282  28.513  1.00  0.00     0.073 H 
ATOM     38  H   UNL     1     -48.286  35.909  28.489  1.00  0.00     0.073 H 
BRANCH  36  39
ATOM     39  O   UNL     1     -47.818  35.217  26.647  1.00  0.00    -0.491 OA
BRANCH  39  40
ATOM     40  C   UNL     1     -47.796  34.005  26.013  1.00  0.00     0.121 A 
ATOM     41  C   UNL     1     -48.989  33.285  26.113  1.00  0.00    -0.019 A 
ATOM     42  C   UNL     1     -46.726  33.465  25.291  1.00  0.00     0.004 A 
ATOM     43  C   UNL     1     -49.124  32.050  25.482  1.00  0.00    -0.044 A 
ATOM     44  H   UNL     1     -49.820  33.696  26.680  1.00  0.00     0.066 H 
ATOM     45  C   UNL     1     -46.820  32.196  24.698  1.00  0.00     0.048 A 
ATOM     46  H   UNL     1     -45.797  34.013  25.170  1.00  0.00     0.068 H 
ATOM     47  C   UNL     1     -48.057  31.529  24.740  1.00  0.00     0.063 A 
ATOM     48  H   UNL     1     -50.056  31.498  25.567  1.00  0.00     0.063 H 
BRANCH  45  49
ATOM     49  N   UNL     1     -45.751  31.741  23.896  1.00  0.00    -0.398 N 
ATOM     50  H   UNL     1     -45.931  30.794  23.545  1.00  0.00     0.156 HD
ATOM     51  H   UNL     1     -44.848  31.788  24.359  1.00  0.00     0.156 HD
ENDBRANCH  45  49
BRANCH  47  52
ATOM     52  C   UNL     1     -48.224  30.221  24.066  1.00  0.00     0.256 C 
ATOM     53  O   UNL     1     -47.479  29.305  24.409  1.00  0.00    -0.269 OA
ATOM     54  N   UNL     1     -49.194  30.100  23.071  1.00  0.00    -0.336 N 
ATOM     55  C   UNL     1     -49.792  31.256  22.389  1.00  0.00     0.033 C 
ATOM     56  C   UNL     1     -49.345  28.817  22.382  1.00  0.00     0.033 C 
ATOM     57  C   UNL     1     -50.649  30.857  21.173  1.00  0.00     0.013 C 
ATOM     58  H   UNL     1     -48.977  31.917  22.069  1.00  0.00     0.051 H 
ATOM     59  H   UNL     1     -50.413  31.805  23.102  1.00  0.00     0.051 H 
ATOM     60  C   UNL     1     -49.110  28.976  20.870  1.00  0.00     0.013 C 
ATOM     61  H   UNL     1     -50.365  28.464  22.573  1.00  0.00     0.051 H 
ATOM     62  H   UNL     1     -48.661  28.064  22.787  1.00  0.00     0.051 H 
ATOM     63  N   UNL     1     -49.965  29.983  20.206  1.00  0.00    -0.313 NA
ATOM     64  H   UNL     1     -50.996  31.758  20.656  1.00  0.00     0.045 H 
ATOM     65  H   UNL     1     -51.549  30.338  21.523  1.00  0.00     0.045 H 
ATOM     66  H   UNL     1     -49.258  28.013  20.370  1.00  0.00     0.045 H 
ATOM     67  H   UNL     1     -48.063  29.262  20.710  1.00  0.00     0.045 H 
ATOM     68  H   UNL     1     -49.373  30.548  19.598  1.00  0.00     0.122 HD
ENDBRANCH  47  52
ENDBRANCH  39  40
ENDBRANCH  36  39
ENDBRANCH   3  36
BRANCH   4  69
ATOM     69  O   UNL     1     -46.021  36.001  30.725  1.00  0.00    -0.387 OA
ATOM     70  H   UNL     1     -46.933  35.843  31.042  1.00  0.00     0.211 HD
ENDBRANCH   4  69
TORSDOF 10
ENDMDL
