MODEL 1
REMARK VINA RESULT:     -10.3      0.000      0.000
REMARK SMILES CNc1ccc2ccc(CCc3cncc(-n4cc(C5CCCC5)c5c(N)ncnc54)n3)cc2n1
REMARK SMILES IDX 10 1 9 4 3 5 4 6 35 7 5 8 34 10 6 11 33 13 7 14 8 16 2 19
REMARK SMILES IDX 1 21 11 25 12 28 13 29 32 30 14 31 16 33 15 34 17 36 18 37
REMARK SMILES IDX 31 38 19 39 25 41 30 42 26 43 29 44 28 45 20 47 21 48 24 49
REMARK SMILES IDX 22 51 23 54 27 61
REMARK H PARENT 10 2 10 3 4 9 5 12 33 15 7 17 8 18 2 20 1 22 1 23 1 24 11 26
REMARK H PARENT 11 27 13 32 15 35 18 40 29 46 20 50 21 52 21 53 24 55 24 56
REMARK H PARENT 22 57 22 58 23 59 23 60 27 62 27 63
REMARK Flexibility Score: inf
ROOT
ATOM      1  C   UNL     1     -47.974  34.014  26.207  1.00  0.00    -0.022 C 
ATOM      2  H   UNL     1     -48.798  34.561  25.731  1.00  0.00     0.032 H 
ATOM      3  H   UNL     1     -48.339  33.742  27.206  1.00  0.00     0.032 H 
ENDROOT
BRANCH   1   4
ATOM      4  C   UNL     1     -47.703  32.739  25.444  1.00  0.00    -0.045 A 
ATOM      5  C   UNL     1     -48.973  28.255  24.415  1.00  0.00     0.126 A 
ATOM      6  C   UNL     1     -47.895  28.100  23.549  1.00  0.00    -0.019 A 
ATOM      7  N   UNL     1     -49.178  29.404  25.088  1.00  0.00    -0.231 NA
ATOM      8  C   UNL     1     -47.024  29.166  23.346  1.00  0.00    -0.049 A 
ATOM      9  H   UNL     1     -47.730  27.157  23.041  1.00  0.00     0.066 H 
ATOM     10  C   UNL     1     -48.335  30.438  24.901  1.00  0.00     0.073 A 
ATOM     11  C   UNL     1     -47.237  30.367  24.025  1.00  0.00     0.000 A 
ATOM     12  H   UNL     1     -46.186  29.048  22.666  1.00  0.00     0.063 H 
ATOM     13  C   UNL     1     -48.545  31.623  25.595  1.00  0.00    -0.032 A 
ATOM     14  C   UNL     1     -46.391  31.475  23.854  1.00  0.00    -0.053 A 
ATOM     15  H   UNL     1     -49.397  31.675  26.268  1.00  0.00     0.065 H 
ATOM     16  C   UNL     1     -46.626  32.655  24.557  1.00  0.00    -0.058 A 
ATOM     17  H   UNL     1     -45.545  31.423  23.173  1.00  0.00     0.063 H 
ATOM     18  H   UNL     1     -45.963  33.505  24.411  1.00  0.00     0.063 H 
BRANCH   5  19
ATOM     19  N   UNL     1     -49.829  27.153  24.602  1.00  0.00    -0.373 N 
ATOM     20  H   UNL     1     -50.701  27.332  24.115  1.00  0.00     0.161 HD
BRANCH  19  21
ATOM     21  C   UNL     1     -50.053  26.811  25.998  1.00  0.00     0.005 C 
ATOM     22  H   UNL     1     -51.081  26.453  26.114  1.00  0.00     0.045 H 
ATOM     23  H   UNL     1     -49.388  26.003  26.326  1.00  0.00     0.045 H 
ATOM     24  H   UNL     1     -49.930  27.681  26.652  1.00  0.00     0.045 H 
ENDBRANCH  19  21
ENDBRANCH   5  19
ENDBRANCH   1   4
BRANCH   1  25
ATOM     25  C   UNL     1     -46.742  34.914  26.363  1.00  0.00    -0.005 C 
ATOM     26  H   UNL     1     -46.248  35.063  25.394  1.00  0.00     0.034 H 
ATOM     27  H   UNL     1     -46.009  34.412  27.007  1.00  0.00     0.034 H 
BRANCH  25  28
ATOM     28  C   UNL     1     -47.070  36.255  26.962  1.00  0.00     0.061 A 
ATOM     29  C   UNL     1     -48.350  36.548  27.411  1.00  0.00     0.049 A 
ATOM     30  N   UNL     1     -46.081  37.179  27.014  1.00  0.00    -0.232 NA
ATOM     31  N   UNL     1     -48.687  37.753  27.923  1.00  0.00    -0.259 NA
ATOM     32  H   UNL     1     -49.154  35.821  27.369  1.00  0.00     0.086 H 
ATOM     33  C   UNL     1     -46.400  38.408  27.514  1.00  0.00     0.157 A 
ATOM     34  C   UNL     1     -47.687  38.675  27.962  1.00  0.00     0.070 A 
ATOM     35  H   UNL     1     -48.000  39.629  28.363  1.00  0.00     0.088 H 
BRANCH  33  36
ATOM     36  N   UNL     1     -45.367  39.393  27.537  1.00  0.00    -0.284 N 
ATOM     37  C   UNL     1     -45.219  40.356  26.552  1.00  0.00     0.017 A 
ATOM     38  C   UNL     1     -44.360  39.591  28.470  1.00  0.00     0.151 A 
ATOM     39  C   UNL     1     -44.140  41.172  26.833  1.00  0.00    -0.013 A 
ATOM     40  H   UNL     1     -45.918  40.379  25.724  1.00  0.00     0.083 H 
ATOM     41  C   UNL     1     -43.592  40.686  28.067  1.00  0.00     0.065 A 
ATOM     42  N   UNL     1     -44.141  38.854  29.577  1.00  0.00    -0.218 NA
ATOM     43  C   UNL     1     -42.519  41.041  28.907  1.00  0.00     0.136 A 
ATOM     44  C   UNL     1     -43.088  39.282  30.284  1.00  0.00     0.120 A 
ATOM     45  N   UNL     1     -42.284  40.321  30.019  1.00  0.00    -0.219 NA
ATOM     46  H   UNL     1     -42.858  38.721  31.186  1.00  0.00     0.106 H 
BRANCH  39  47
ATOM     47  C   UNL     1     -43.637  42.336  26.016  1.00  0.00    -0.014 C 
ATOM     48  C   UNL     1     -44.351  42.547  24.674  1.00  0.00    -0.046 C 
ATOM     49  C   UNL     1     -43.857  43.680  26.716  1.00  0.00    -0.046 C 
ATOM     50  H   UNL     1     -42.569  42.175  25.821  1.00  0.00     0.035 H 
ATOM     51  C   UNL     1     -45.510  43.508  24.950  1.00  0.00    -0.053 C 
ATOM     52  H   UNL     1     -44.687  41.620  24.199  1.00  0.00     0.027 H 
ATOM     53  H   UNL     1     -43.659  43.030  23.972  1.00  0.00     0.027 H 
ATOM     54  C   UNL     1     -45.285  44.061  26.354  1.00  0.00    -0.053 C 
ATOM     55  H   UNL     1     -43.711  43.644  27.800  1.00  0.00     0.027 H 
ATOM     56  H   UNL     1     -43.166  44.428  26.308  1.00  0.00     0.027 H 
ATOM     57  H   UNL     1     -45.520  44.314  24.207  1.00  0.00     0.027 H 
ATOM     58  H   UNL     1     -46.476  42.998  24.887  1.00  0.00     0.027 H 
ATOM     59  H   UNL     1     -45.985  43.590  27.053  1.00  0.00     0.027 H 
ATOM     60  H   UNL     1     -45.448  45.142  26.403  1.00  0.00     0.027 H 
ENDBRANCH  39  47
BRANCH  43  61
ATOM     61  N   UNL     1     -41.668  42.116  28.687  1.00  0.00    -0.383 N 
ATOM     62  H   UNL     1     -40.706  41.794  28.673  1.00  0.00     0.158 HD
ATOM     63  H   UNL     1     -41.849  42.918  29.273  1.00  0.00     0.158 HD
ENDBRANCH  43  61
ENDBRANCH  33  36
ENDBRANCH  25  28
ENDBRANCH   1  25
TORSDOF 8
ENDMDL
MODEL 2
REMARK VINA RESULT:     -10.0      1.633      2.187
REMARK SMILES CNc1ccc2ccc(CCc3cncc(-n4cc(C5CCCC5)c5c(N)ncnc54)n3)cc2n1
REMARK SMILES IDX 10 1 9 4 3 5 4 6 35 7 5 8 34 10 6 11 33 13 7 14 8 16 2 19
REMARK SMILES IDX 1 21 11 25 12 28 13 29 32 30 14 31 16 33 15 34 17 36 18 37
REMARK SMILES IDX 31 38 19 39 25 41 30 42 26 43 29 44 28 45 20 47 21 48 24 49
REMARK SMILES IDX 22 51 23 54 27 61
REMARK H PARENT 10 2 10 3 4 9 5 12 33 15 7 17 8 18 2 20 1 22 1 23 1 24 11 26
REMARK H PARENT 11 27 13 32 15 35 18 40 29 46 20 50 21 52 21 53 24 55 24 56
REMARK H PARENT 22 57 22 58 23 59 23 60 27 62 27 63
REMARK Flexibility Score: inf
ROOT
ATOM      1  C   UNL     1     -46.764  35.246  26.441  1.00  0.00    -0.022 C 
ATOM      2  H   UNL     1     -45.697  35.179  26.693  1.00  0.00     0.032 H 
ATOM      3  H   UNL     1     -46.836  36.025  25.671  1.00  0.00     0.032 H 
ENDROOT
BRANCH   1   4
ATOM      4  C   UNL     1     -47.224  33.943  25.833  1.00  0.00    -0.045 A 
ATOM      5  C   UNL     1     -46.364  30.292  22.882  1.00  0.00     0.126 A 
ATOM      6  C   UNL     1     -47.585  29.699  23.186  1.00  0.00    -0.019 A 
ATOM      7  N   UNL     1     -45.990  31.462  23.436  1.00  0.00    -0.231 NA
ATOM      8  C   UNL     1     -48.429  30.308  24.109  1.00  0.00    -0.049 A 
ATOM      9  H   UNL     1     -47.881  28.773  22.706  1.00  0.00     0.066 H 
ATOM     10  C   UNL     1     -46.804  32.061  24.325  1.00  0.00     0.073 A 
ATOM     11  C   UNL     1     -48.043  31.512  24.703  1.00  0.00     0.000 A 
ATOM     12  H   UNL     1     -49.379  29.843  24.352  1.00  0.00     0.063 H 
ATOM     13  C   UNL     1     -46.421  33.267  24.897  1.00  0.00    -0.032 A 
ATOM     14  C   UNL     1     -48.855  32.168  25.643  1.00  0.00    -0.053 A 
ATOM     15  H   UNL     1     -45.460  33.686  24.606  1.00  0.00     0.065 H 
ATOM     16  C   UNL     1     -48.444  33.374  26.207  1.00  0.00    -0.058 A 
ATOM     17  H   UNL     1     -49.810  31.742  25.939  1.00  0.00     0.063 H 
ATOM     18  H   UNL     1     -49.084  33.868  26.935  1.00  0.00     0.063 H 
BRANCH   5  19
ATOM     19  N   UNL     1     -45.540  29.651  21.937  1.00  0.00    -0.373 N 
ATOM     20  H   UNL     1     -46.126  29.264  21.204  1.00  0.00     0.161 HD
BRANCH  19  21
ATOM     21  C   UNL     1     -44.659  28.644  22.509  1.00  0.00     0.005 C 
ATOM     22  H   UNL     1     -45.269  27.883  23.007  1.00  0.00     0.045 H 
ATOM     23  H   UNL     1     -44.073  28.136  21.734  1.00  0.00     0.045 H 
ATOM     24  H   UNL     1     -43.988  29.073  23.260  1.00  0.00     0.045 H 
ENDBRANCH  19  21
ENDBRANCH   5  19
ENDBRANCH   1   4
BRANCH   1  25
ATOM     25  C   UNL     1     -47.585  35.683  27.660  1.00  0.00    -0.005 C 
ATOM     26  H   UNL     1     -47.153  35.276  28.583  1.00  0.00     0.034 H 
ATOM     27  H   UNL     1     -48.596  35.262  27.582  1.00  0.00     0.034 H 
BRANCH  25  28
ATOM     28  C   UNL     1     -47.696  37.178  27.784  1.00  0.00     0.061 A 
ATOM     29  C   UNL     1     -48.924  37.795  27.981  1.00  0.00     0.049 A 
ATOM     30  N   UNL     1     -46.559  37.906  27.660  1.00  0.00    -0.232 NA
ATOM     31  N   UNL     1     -49.062  39.137  28.063  1.00  0.00    -0.259 NA
ATOM     32  H   UNL     1     -49.843  37.227  28.075  1.00  0.00     0.086 H 
ATOM     33  C   UNL     1     -46.676  39.263  27.725  1.00  0.00     0.157 A 
ATOM     34  C   UNL     1     -47.915  39.856  27.929  1.00  0.00     0.070 A 
ATOM     35  H   UNL     1     -48.071  40.925  27.985  1.00  0.00     0.088 H 
BRANCH  33  36
ATOM     36  N   UNL     1     -45.484  40.030  27.560  1.00  0.00    -0.284 N 
ATOM     37  C   UNL     1     -45.289  40.908  26.505  1.00  0.00     0.017 A 
ATOM     38  C   UNL     1     -44.344  40.068  28.350  1.00  0.00     0.151 A 
ATOM     39  C   UNL     1     -44.049  41.511  26.601  1.00  0.00    -0.013 A 
ATOM     40  H   UNL     1     -46.074  41.032  25.769  1.00  0.00     0.083 H 
ATOM     41  C   UNL     1     -43.445  40.977  27.788  1.00  0.00     0.065 A 
ATOM     42  N   UNL     1     -44.123  39.347  29.467  1.00  0.00    -0.218 NA
ATOM     43  C   UNL     1     -42.224  41.152  28.468  1.00  0.00     0.136 A 
ATOM     44  C   UNL     1     -42.925  39.591  30.013  1.00  0.00     0.120 A 
ATOM     45  N   UNL     1     -41.984  40.444  29.586  1.00  0.00    -0.219 NA
ATOM     46  H   UNL     1     -42.688  39.032  30.914  1.00  0.00     0.106 H 
BRANCH  39  47
ATOM     47  C   UNL     1     -43.450  42.523  25.656  1.00  0.00    -0.014 C 
ATOM     48  C   UNL     1     -44.217  42.723  24.343  1.00  0.00    -0.046 C 
ATOM     49  C   UNL     1     -43.439  43.936  26.245  1.00  0.00    -0.046 C 
ATOM     50  H   UNL     1     -42.429  42.198  25.418  1.00  0.00     0.035 H 
ATOM     51  C   UNL     1     -45.215  43.855  24.596  1.00  0.00    -0.053 C 
ATOM     52  H   UNL     1     -44.707  41.816  23.972  1.00  0.00     0.027 H 
ATOM     53  H   UNL     1     -43.516  43.045  23.563  1.00  0.00     0.027 H 
ATOM     54  C   UNL     1     -44.824  44.484  25.930  1.00  0.00    -0.053 C 
ATOM     55  H   UNL     1     -43.227  43.968  27.318  1.00  0.00     0.027 H 
ATOM     56  H   UNL     1     -42.682  44.544  25.733  1.00  0.00     0.027 H 
ATOM     57  H   UNL     1     -45.166  44.592  23.785  1.00  0.00     0.027 H 
ATOM     58  H   UNL     1     -46.243  43.482  24.632  1.00  0.00     0.027 H 
ATOM     59  H   UNL     1     -45.533  44.173  26.706  1.00  0.00     0.027 H 
ATOM     60  H   UNL     1     -44.835  45.577  25.891  1.00  0.00     0.027 H 
ENDBRANCH  39  47
BRANCH  43  61
ATOM     61  N   UNL     1     -41.224  42.033  28.078  1.00  0.00    -0.383 N 
ATOM     62  H   UNL     1     -41.162  42.796  28.744  1.00  0.00     0.158 HD
ATOM     63  H   UNL     1     -41.262  42.305  27.107  1.00  0.00     0.158 HD
ENDBRANCH  43  61
ENDBRANCH  33  36
ENDBRANCH  25  28
ENDBRANCH   1  25
TORSDOF 8
ENDMDL
MODEL 3
REMARK VINA RESULT:      -9.7      2.008     12.090
REMARK SMILES CNc1ccc2ccc(CCc3cncc(-n4cc(C5CCCC5)c5c(N)ncnc54)n3)cc2n1
REMARK SMILES IDX 10 1 9 4 3 5 4 6 35 7 5 8 34 10 6 11 33 13 7 14 8 16 2 19
REMARK SMILES IDX 1 21 11 25 12 28 13 29 32 30 14 31 16 33 15 34 17 36 18 37
REMARK SMILES IDX 31 38 19 39 25 41 30 42 26 43 29 44 28 45 20 47 21 48 24 49
REMARK SMILES IDX 22 51 23 54 27 61
REMARK H PARENT 10 2 10 3 4 9 5 12 33 15 7 17 8 18 2 20 1 22 1 23 1 24 11 26
REMARK H PARENT 11 27 13 32 15 35 18 40 29 46 20 50 21 52 21 53 24 55 24 56
REMARK H PARENT 22 57 22 58 23 59 23 60 27 62 27 63
REMARK Flexibility Score: inf
ROOT
ATOM      1  C   UNL     1     -48.262  36.301  26.944  1.00  0.00    -0.022 C 
ATOM      2  H   UNL     1     -49.146  36.948  27.027  1.00  0.00     0.032 H 
ATOM      3  H   UNL     1     -47.915  36.409  25.908  1.00  0.00     0.032 H 
ENDROOT
BRANCH   1   4
ATOM      4  C   UNL     1     -47.174  36.811  27.858  1.00  0.00    -0.045 A 
ATOM      5  C   UNL     1     -43.750  40.021  28.727  1.00  0.00     0.126 A 
ATOM      6  C   UNL     1     -43.426  39.415  29.937  1.00  0.00    -0.019 A 
ATOM      7  N   UNL     1     -44.721  39.531  27.931  1.00  0.00    -0.231 NA
ATOM      8  C   UNL     1     -44.141  38.297  30.354  1.00  0.00    -0.049 A 
ATOM      9  H   UNL     1     -42.621  39.805  30.549  1.00  0.00     0.066 H 
ATOM     10  C   UNL     1     -45.413  38.446  28.325  1.00  0.00     0.073 A 
ATOM     11  C   UNL     1     -45.161  37.792  29.545  1.00  0.00     0.000 A 
ATOM     12  H   UNL     1     -43.894  37.827  31.300  1.00  0.00     0.063 H 
ATOM     13  C   UNL     1     -46.414  37.940  27.505  1.00  0.00    -0.032 A 
ATOM     14  C   UNL     1     -45.917  36.668  29.919  1.00  0.00    -0.053 A 
ATOM     15  H   UNL     1     -46.609  38.451  26.564  1.00  0.00     0.065 H 
ATOM     16  C   UNL     1     -46.920  36.184  29.081  1.00  0.00    -0.058 A 
ATOM     17  H   UNL     1     -45.727  36.166  30.864  1.00  0.00     0.063 H 
ATOM     18  H   UNL     1     -47.497  35.315  29.387  1.00  0.00     0.063 H 
BRANCH   5  19
ATOM     19  N   UNL     1     -43.000  41.145  28.334  1.00  0.00    -0.373 N 
ATOM     20  H   UNL     1     -43.387  41.968  28.784  1.00  0.00     0.161 HD
BRANCH  19  21
ATOM     21  C   UNL     1     -42.904  41.316  26.893  1.00  0.00     0.005 C 
ATOM     22  H   UNL     1     -42.723  40.339  26.432  1.00  0.00     0.045 H 
ATOM     23  H   UNL     1     -43.837  41.707  26.471  1.00  0.00     0.045 H 
ATOM     24  H   UNL     1     -42.069  41.970  26.618  1.00  0.00     0.045 H 
ENDBRANCH  19  21
ENDBRANCH   5  19
ENDBRANCH   1   4
BRANCH   1  25
ATOM     25  C   UNL     1     -48.636  34.834  27.187  1.00  0.00    -0.005 C 
ATOM     26  H   UNL     1     -49.721  34.694  27.108  1.00  0.00     0.034 H 
ATOM     27  H   UNL     1     -48.364  34.559  28.214  1.00  0.00     0.034 H 
BRANCH  25  28
ATOM     28  C   UNL     1     -47.946  33.891  26.238  1.00  0.00     0.061 A 
ATOM     29  C   UNL     1     -46.749  34.235  25.626  1.00  0.00     0.049 A 
ATOM     30  N   UNL     1     -48.554  32.709  25.973  1.00  0.00    -0.232 NA
ATOM     31  N   UNL     1     -46.121  33.426  24.744  1.00  0.00    -0.259 NA
ATOM     32  H   UNL     1     -46.254  35.180  25.822  1.00  0.00     0.086 H 
ATOM     33  C   UNL     1     -47.947  31.882  25.074  1.00  0.00     0.157 A 
ATOM     34  C   UNL     1     -46.746  32.246  24.480  1.00  0.00     0.070 A 
ATOM     35  H   UNL     1     -46.220  31.636  23.759  1.00  0.00     0.088 H 
BRANCH  33  36
ATOM     36  N   UNL     1     -48.604  30.653  24.770  1.00  0.00    -0.284 N 
ATOM     37  C   UNL     1     -47.999  29.415  24.917  1.00  0.00     0.017 A 
ATOM     38  C   UNL     1     -49.890  30.435  24.295  1.00  0.00     0.151 A 
ATOM     39  C   UNL     1     -48.869  28.406  24.549  1.00  0.00    -0.013 A 
ATOM     40  H   UNL     1     -46.982  29.363  25.286  1.00  0.00     0.083 H 
ATOM     41  C   UNL     1     -50.085  29.060  24.157  1.00  0.00     0.065 A 
ATOM     42  N   UNL     1     -50.804  31.383  24.004  1.00  0.00    -0.218 NA
ATOM     43  C   UNL     1     -51.348  28.650  23.689  1.00  0.00     0.136 A 
ATOM     44  C   UNL     1     -51.957  30.870  23.557  1.00  0.00     0.120 A 
ATOM     45  N   UNL     1     -52.276  29.578  23.394  1.00  0.00    -0.219 NA
ATOM     46  H   UNL     1     -52.731  31.588  23.299  1.00  0.00     0.106 H 
BRANCH  39  47
ATOM     47  C   UNL     1     -48.601  26.921  24.557  1.00  0.00    -0.014 C 
ATOM     48  C   UNL     1     -47.132  26.525  24.749  1.00  0.00    -0.046 C 
ATOM     49  C   UNL     1     -49.285  26.211  25.729  1.00  0.00    -0.046 C 
ATOM     50  H   UNL     1     -48.953  26.510  23.602  1.00  0.00     0.035 H 
ATOM     51  C   UNL     1     -46.923  26.362  26.256  1.00  0.00    -0.053 C 
ATOM     52  H   UNL     1     -46.420  27.230  24.307  1.00  0.00     0.027 H 
ATOM     53  H   UNL     1     -46.957  25.554  24.267  1.00  0.00     0.027 H 
ATOM     54  C   UNL     1     -48.312  26.379  26.887  1.00  0.00    -0.053 C 
ATOM     55  H   UNL     1     -50.274  26.610  25.973  1.00  0.00     0.027 H 
ATOM     56  H   UNL     1     -49.398  25.144  25.500  1.00  0.00     0.027 H 
ATOM     57  H   UNL     1     -46.406  25.419  26.468  1.00  0.00     0.027 H 
ATOM     58  H   UNL     1     -46.305  27.168  26.663  1.00  0.00     0.027 H 
ATOM     59  H   UNL     1     -48.482  27.342  27.381  1.00  0.00     0.027 H 
ATOM     60  H   UNL     1     -48.432  25.596  27.642  1.00  0.00     0.027 H 
ENDBRANCH  39  47
BRANCH  43  61
ATOM     61  N   UNL     1     -51.735  27.327  23.518  1.00  0.00    -0.383 N 
ATOM     62  H   UNL     1     -51.409  26.989  22.620  1.00  0.00     0.158 HD
ATOM     63  H   UNL     1     -52.707  27.146  23.724  1.00  0.00     0.158 HD
ENDBRANCH  43  61
ENDBRANCH  33  36
ENDBRANCH  25  28
ENDBRANCH   1  25
TORSDOF 8
ENDMDL
MODEL 4
REMARK VINA RESULT:      -9.6      1.690      2.888
REMARK SMILES CNc1ccc2ccc(CCc3cncc(-n4cc(C5CCCC5)c5c(N)ncnc54)n3)cc2n1
REMARK SMILES IDX 10 1 9 4 3 5 4 6 35 7 5 8 34 10 6 11 33 13 7 14 8 16 2 19
REMARK SMILES IDX 1 21 11 25 12 28 13 29 32 30 14 31 16 33 15 34 17 36 18 37
REMARK SMILES IDX 31 38 19 39 25 41 30 42 26 43 29 44 28 45 20 47 21 48 24 49
REMARK SMILES IDX 22 51 23 54 27 61
REMARK H PARENT 10 2 10 3 4 9 5 12 33 15 7 17 8 18 2 20 1 22 1 23 1 24 11 26
REMARK H PARENT 11 27 13 32 15 35 18 40 29 46 20 50 21 52 21 53 24 55 24 56
REMARK H PARENT 22 57 22 58 23 59 23 60 27 62 27 63
REMARK Flexibility Score: inf
ROOT
ATOM      1  C   UNL     1     -47.772  33.695  26.587  1.00  0.00    -0.022 C 
ATOM      2  H   UNL     1     -48.835  33.819  26.831  1.00  0.00     0.032 H 
ATOM      3  H   UNL     1     -47.276  33.472  27.541  1.00  0.00     0.032 H 
ENDROOT
BRANCH   1   4
ATOM      4  C   UNL     1     -47.596  32.502  25.678  1.00  0.00    -0.045 A 
ATOM      5  C   UNL     1     -48.996  28.133  24.365  1.00  0.00     0.126 A 
ATOM      6  C   UNL     1     -48.023  28.070  23.373  1.00  0.00    -0.019 A 
ATOM      7  N   UNL     1     -49.118  29.209  25.166  1.00  0.00    -0.231 NA
ATOM      8  C   UNL     1     -47.175  29.155  23.178  1.00  0.00    -0.049 A 
ATOM      9  H   UNL     1     -47.922  27.182  22.759  1.00  0.00     0.066 H 
ATOM     10  C   UNL     1     -48.297  30.261  24.988  1.00  0.00     0.073 A 
ATOM     11  C   UNL     1     -47.305  30.283  23.990  1.00  0.00     0.000 A 
ATOM     12  H   UNL     1     -46.420  29.109  22.399  1.00  0.00     0.063 H 
ATOM     13  C   UNL     1     -48.420  31.372  25.813  1.00  0.00    -0.032 A 
ATOM     14  C   UNL     1     -46.477  31.408  23.835  1.00  0.00    -0.053 A 
ATOM     15  H   UNL     1     -49.192  31.353  26.580  1.00  0.00     0.065 H 
ATOM     16  C   UNL     1     -46.626  32.512  24.672  1.00  0.00    -0.058 A 
ATOM     17  H   UNL     1     -45.714  31.428  23.061  1.00  0.00     0.063 H 
ATOM     18  H   UNL     1     -45.979  33.375  24.535  1.00  0.00     0.063 H 
BRANCH   5  19
ATOM     19  N   UNL     1     -49.831  27.012  24.539  1.00  0.00    -0.373 N 
ATOM     20  H   UNL     1     -50.644  27.117  23.941  1.00  0.00     0.161 HD
BRANCH  19  21
ATOM     21  C   UNL     1     -50.210  26.768  25.922  1.00  0.00     0.005 C 
ATOM     22  H   UNL     1     -50.816  27.607  26.276  1.00  0.00     0.045 H 
ATOM     23  H   UNL     1     -50.819  25.862  26.018  1.00  0.00     0.045 H 
ATOM     24  H   UNL     1     -49.333  26.695  26.574  1.00  0.00     0.045 H 
ENDBRANCH  19  21
ENDBRANCH   5  19
ENDBRANCH   1   4
BRANCH   1  25
ATOM     25  C   UNL     1     -47.187  34.995  26.022  1.00  0.00    -0.005 C 
ATOM     26  H   UNL     1     -47.904  35.479  25.347  1.00  0.00     0.034 H 
ATOM     27  H   UNL     1     -46.305  34.758  25.414  1.00  0.00     0.034 H 
BRANCH  25  28
ATOM     28  C   UNL     1     -46.783  35.969  27.095  1.00  0.00     0.061 A 
ATOM     29  C   UNL     1     -46.778  35.603  28.434  1.00  0.00     0.049 A 
ATOM     30  N   UNL     1     -46.461  37.228  26.713  1.00  0.00    -0.232 NA
ATOM     31  N   UNL     1     -46.453  36.462  29.425  1.00  0.00    -0.259 NA
ATOM     32  H   UNL     1     -47.040  34.601  28.756  1.00  0.00     0.086 H 
ATOM     33  C   UNL     1     -46.144  38.118  27.697  1.00  0.00     0.157 A 
ATOM     34  C   UNL     1     -46.139  37.726  29.029  1.00  0.00     0.070 A 
ATOM     35  H   UNL     1     -45.902  38.385  29.852  1.00  0.00     0.088 H 
BRANCH  33  36
ATOM     36  N   UNL     1     -45.838  39.454  27.297  1.00  0.00    -0.284 N 
ATOM     37  C   UNL     1     -44.545  39.950  27.245  1.00  0.00     0.017 A 
ATOM     38  C   UNL     1     -46.693  40.473  26.903  1.00  0.00     0.151 A 
ATOM     39  C   UNL     1     -44.550  41.267  26.825  1.00  0.00    -0.013 A 
ATOM     40  H   UNL     1     -43.719  39.303  27.512  1.00  0.00     0.083 H 
ATOM     41  C   UNL     1     -45.927  41.601  26.598  1.00  0.00     0.065 A 
ATOM     42  N   UNL     1     -48.037  40.404  26.831  1.00  0.00    -0.218 NA
ATOM     43  C   UNL     1     -46.635  42.740  26.169  1.00  0.00     0.136 A 
ATOM     44  C   UNL     1     -48.594  41.551  26.424  1.00  0.00     0.120 A 
ATOM     45  N   UNL     1     -47.976  42.692  26.087  1.00  0.00    -0.219 NA
ATOM     46  H   UNL     1     -49.678  41.558  26.354  1.00  0.00     0.106 H 
BRANCH  39  47
ATOM     47  C   UNL     1     -43.357  42.171  26.639  1.00  0.00    -0.014 C 
ATOM     48  C   UNL     1     -43.270  43.346  27.621  1.00  0.00    -0.046 C 
ATOM     49  C   UNL     1     -42.030  41.445  26.882  1.00  0.00    -0.046 C 
ATOM     50  H   UNL     1     -43.393  42.571  25.618  1.00  0.00     0.035 H 
ATOM     51  C   UNL     1     -42.449  42.850  28.814  1.00  0.00    -0.053 C 
ATOM     52  H   UNL     1     -44.245  43.742  27.927  1.00  0.00     0.027 H 
ATOM     53  H   UNL     1     -42.727  44.172  27.145  1.00  0.00     0.027 H 
ATOM     54  C   UNL     1     -41.834  41.519  28.390  1.00  0.00    -0.053 C 
ATOM     55  H   UNL     1     -42.019  40.411  26.524  1.00  0.00     0.027 H 
ATOM     56  H   UNL     1     -41.217  41.984  26.382  1.00  0.00     0.027 H 
ATOM     57  H   UNL     1     -41.671  43.579  29.068  1.00  0.00     0.027 H 
ATOM     58  H   UNL     1     -43.074  42.720  29.703  1.00  0.00     0.027 H 
ATOM     59  H   UNL     1     -42.367  40.695  28.876  1.00  0.00     0.027 H 
ATOM     60  H   UNL     1     -40.781  41.443  28.672  1.00  0.00     0.027 H 
ENDBRANCH  39  47
BRANCH  43  61
ATOM     61  N   UNL     1     -46.044  43.939  25.793  1.00  0.00    -0.383 N 
ATOM     62  H   UNL     1     -46.561  44.715  26.192  1.00  0.00     0.158 HD
ATOM     63  H   UNL     1     -45.840  44.014  24.807  1.00  0.00     0.158 HD
ENDBRANCH  43  61
ENDBRANCH  33  36
ENDBRANCH  25  28
ENDBRANCH   1  25
TORSDOF 8
ENDMDL
MODEL 5
REMARK VINA RESULT:      -9.5      2.150     11.678
REMARK SMILES CNc1ccc2ccc(CCc3cncc(-n4cc(C5CCCC5)c5c(N)ncnc54)n3)cc2n1
REMARK SMILES IDX 10 1 9 4 3 5 4 6 35 7 5 8 34 10 6 11 33 13 7 14 8 16 2 19
REMARK SMILES IDX 1 21 11 25 12 28 13 29 32 30 14 31 16 33 15 34 17 36 18 37
REMARK SMILES IDX 31 38 19 39 25 41 30 42 26 43 29 44 28 45 20 47 21 48 24 49
REMARK SMILES IDX 22 51 23 54 27 61
REMARK H PARENT 10 2 10 3 4 9 5 12 33 15 7 17 8 18 2 20 1 22 1 23 1 24 11 26
REMARK H PARENT 11 27 13 32 15 35 18 40 29 46 20 50 21 52 21 53 24 55 24 56
REMARK H PARENT 22 57 22 58 23 59 23 60 27 62 27 63
REMARK Flexibility Score: inf
ROOT
ATOM      1  C   UNL     1     -47.076  37.255  27.795  1.00  0.00    -0.022 C 
ATOM      2  H   UNL     1     -47.518  36.626  28.578  1.00  0.00     0.032 H 
ATOM      3  H   UNL     1     -47.851  37.988  27.534  1.00  0.00     0.032 H 
ENDROOT
BRANCH   1   4
ATOM      4  C   UNL     1     -45.891  38.006  28.354  1.00  0.00    -0.045 A 
ATOM      5  C   UNL     1     -42.905  41.717  28.060  1.00  0.00     0.126 A 
ATOM      6  C   UNL     1     -42.204  41.301  29.187  1.00  0.00    -0.019 A 
ATOM      7  N   UNL     1     -43.952  41.016  27.582  1.00  0.00    -0.231 NA
ATOM      8  C   UNL     1     -42.612  40.153  29.860  1.00  0.00    -0.049 A 
ATOM      9  H   UNL     1     -41.345  41.861  29.538  1.00  0.00     0.066 H 
ATOM     10  C   UNL     1     -44.348  39.901  28.223  1.00  0.00     0.073 A 
ATOM     11  C   UNL     1     -43.706  39.430  29.383  1.00  0.00     0.000 A 
ATOM     12  H   UNL     1     -42.070  39.831  30.743  1.00  0.00     0.063 H 
ATOM     13  C   UNL     1     -45.427  39.177  27.731  1.00  0.00    -0.032 A 
ATOM     14  C   UNL     1     -44.162  38.265  30.025  1.00  0.00    -0.053 A 
ATOM     15  H   UNL     1     -45.923  39.547  26.836  1.00  0.00     0.065 H 
ATOM     16  C   UNL     1     -45.251  37.561  29.514  1.00  0.00    -0.058 A 
ATOM     17  H   UNL     1     -43.670  37.904  30.924  1.00  0.00     0.063 H 
ATOM     18  H   UNL     1     -45.592  36.663  30.025  1.00  0.00     0.063 H 
BRANCH   5  19
ATOM     19  N   UNL     1     -42.459  42.878  27.401  1.00  0.00    -0.373 N 
ATOM     20  H   UNL     1     -41.635  43.227  27.880  1.00  0.00     0.161 HD
BRANCH  19  21
ATOM     21  C   UNL     1     -43.477  43.907  27.264  1.00  0.00     0.005 C 
ATOM     22  H   UNL     1     -43.872  43.881  26.243  1.00  0.00     0.045 H 
ATOM     23  H   UNL     1     -44.320  43.732  27.943  1.00  0.00     0.045 H 
ATOM     24  H   UNL     1     -43.066  44.908  27.434  1.00  0.00     0.045 H 
ENDBRANCH  19  21
ENDBRANCH   5  19
ENDBRANCH   1   4
BRANCH   1  25
ATOM     25  C   UNL     1     -46.749  36.424  26.549  1.00  0.00    -0.005 C 
ATOM     26  H   UNL     1     -45.801  36.752  26.104  1.00  0.00     0.034 H 
ATOM     27  H   UNL     1     -47.521  36.596  25.788  1.00  0.00     0.034 H 
BRANCH  25  28
ATOM     28  C   UNL     1     -46.676  34.948  26.834  1.00  0.00     0.061 A 
ATOM     29  C   UNL     1     -46.160  34.471  28.030  1.00  0.00     0.049 A 
ATOM     30  N   UNL     1     -47.098  34.099  25.865  1.00  0.00    -0.232 NA
ATOM     31  N   UNL     1     -46.049  33.152  28.304  1.00  0.00    -0.259 NA
ATOM     32  H   UNL     1     -45.812  35.138  28.812  1.00  0.00     0.086 H 
ATOM     33  C   UNL     1     -46.982  32.762  26.113  1.00  0.00     0.157 A 
ATOM     34  C   UNL     1     -46.468  32.310  27.321  1.00  0.00     0.070 A 
ATOM     35  H   UNL     1     -46.348  31.266  27.572  1.00  0.00     0.088 H 
BRANCH  33  36
ATOM     36  N   UNL     1     -47.394  31.869  25.079  1.00  0.00    -0.284 N 
ATOM     37  C   UNL     1     -48.364  30.896  25.263  1.00  0.00     0.017 A 
ATOM     38  C   UNL     1     -46.954  31.776  23.767  1.00  0.00     0.151 A 
ATOM     39  C   UNL     1     -48.559  30.182  24.096  1.00  0.00    -0.013 A 
ATOM     40  H   UNL     1     -48.845  30.804  26.229  1.00  0.00     0.083 H 
ATOM     41  C   UNL     1     -47.659  30.751  23.134  1.00  0.00     0.065 A 
ATOM     42  N   UNL     1     -46.001  32.535  23.190  1.00  0.00    -0.218 NA
ATOM     43  C   UNL     1     -47.345  30.517  21.781  1.00  0.00     0.136 A 
ATOM     44  C   UNL     1     -45.784  32.210  21.910  1.00  0.00     0.120 A 
ATOM     45  N   UNL     1     -46.399  31.264  21.185  1.00  0.00    -0.219 NA
ATOM     46  H   UNL     1     -45.020  32.784  21.393  1.00  0.00     0.106 H 
BRANCH  39  47
ATOM     47  C   UNL     1     -49.519  29.039  23.873  1.00  0.00    -0.014 C 
ATOM     48  C   UNL     1     -48.871  27.722  23.428  1.00  0.00    -0.046 C 
ATOM     49  C   UNL     1     -50.244  28.627  25.158  1.00  0.00    -0.046 C 
ATOM     50  H   UNL     1     -50.241  29.350  23.108  1.00  0.00     0.035 H 
ATOM     51  C   UNL     1     -48.561  26.941  24.707  1.00  0.00    -0.053 C 
ATOM     52  H   UNL     1     -47.984  27.853  22.799  1.00  0.00     0.027 H 
ATOM     53  H   UNL     1     -49.597  27.147  22.837  1.00  0.00     0.027 H 
ATOM     54  C   UNL     1     -49.280  27.666  25.840  1.00  0.00    -0.053 C 
ATOM     55  H   UNL     1     -50.504  29.467  25.809  1.00  0.00     0.027 H 
ATOM     56  H   UNL     1     -51.170  28.096  24.906  1.00  0.00     0.027 H 
ATOM     57  H   UNL     1     -48.914  25.906  24.615  1.00  0.00     0.027 H 
ATOM     58  H   UNL     1     -47.484  26.899  24.898  1.00  0.00     0.027 H 
ATOM     59  H   UNL     1     -48.554  28.228  26.438  1.00  0.00     0.027 H 
ATOM     60  H   UNL     1     -49.796  26.974  26.512  1.00  0.00     0.027 H 
ENDBRANCH  39  47
BRANCH  43  61
ATOM     61  N   UNL     1     -47.962  29.564  20.981  1.00  0.00    -0.383 N 
ATOM     62  H   UNL     1     -48.456  28.897  21.564  1.00  0.00     0.158 HD
ATOM     63  H   UNL     1     -47.365  29.164  20.272  1.00  0.00     0.158 HD
ENDBRANCH  43  61
ENDBRANCH  33  36
ENDBRANCH  25  28
ENDBRANCH   1  25
TORSDOF 8
ENDMDL
MODEL 6
REMARK VINA RESULT:      -9.2      2.505     11.830
REMARK SMILES CNc1ccc2ccc(CCc3cncc(-n4cc(C5CCCC5)c5c(N)ncnc54)n3)cc2n1
REMARK SMILES IDX 10 1 9 4 3 5 4 6 35 7 5 8 34 10 6 11 33 13 7 14 8 16 2 19
REMARK SMILES IDX 1 21 11 25 12 28 13 29 32 30 14 31 16 33 15 34 17 36 18 37
REMARK SMILES IDX 31 38 19 39 25 41 30 42 26 43 29 44 28 45 20 47 21 48 24 49
REMARK SMILES IDX 22 51 23 54 27 61
REMARK H PARENT 10 2 10 3 4 9 5 12 33 15 7 17 8 18 2 20 1 22 1 23 1 24 11 26
REMARK H PARENT 11 27 13 32 15 35 18 40 29 46 20 50 21 52 21 53 24 55 24 56
REMARK H PARENT 22 57 22 58 23 59 23 60 27 62 27 63
REMARK Flexibility Score: inf
ROOT
ATOM      1  C   UNL     1     -47.725  36.446  26.766  1.00  0.00    -0.022 C 
ATOM      2  H   UNL     1     -48.618  37.083  26.710  1.00  0.00     0.032 H 
ATOM      3  H   UNL     1     -47.340  36.387  25.740  1.00  0.00     0.032 H 
ENDROOT
BRANCH   1   4
ATOM      4  C   UNL     1     -46.677  37.118  27.621  1.00  0.00    -0.045 A 
ATOM      5  C   UNL     1     -43.403  40.556  28.110  1.00  0.00     0.126 A 
ATOM      6  C   UNL     1     -43.080  40.129  29.394  1.00  0.00    -0.019 A 
ATOM      7  N   UNL     1     -44.337  39.926  27.371  1.00  0.00    -0.231 NA
ATOM      8  C   UNL     1     -43.758  39.046  29.944  1.00  0.00    -0.049 A 
ATOM      9  H   UNL     1     -42.304  40.631  29.960  1.00  0.00     0.066 H 
ATOM     10  C   UNL     1     -44.993  38.873  27.894  1.00  0.00     0.073 A 
ATOM     11  C   UNL     1     -44.741  38.397  29.193  1.00  0.00     0.000 A 
ATOM     12  H   UNL     1     -43.512  38.716  30.948  1.00  0.00     0.063 H 
ATOM     13  C   UNL     1     -45.956  38.222  27.133  1.00  0.00    -0.032 A 
ATOM     14  C   UNL     1     -45.458  37.301  29.701  1.00  0.00    -0.053 A 
ATOM     15  H   UNL     1     -46.151  38.596  26.131  1.00  0.00     0.065 H 
ATOM     16  C   UNL     1     -46.423  36.669  28.920  1.00  0.00    -0.058 A 
ATOM     17  H   UNL     1     -45.267  36.936  30.707  1.00  0.00     0.063 H 
ATOM     18  H   UNL     1     -46.971  35.823  29.330  1.00  0.00     0.063 H 
BRANCH   5  19
ATOM     19  N   UNL     1     -42.691  41.650  27.583  1.00  0.00    -0.373 N 
ATOM     20  H   UNL     1     -41.699  41.493  27.731  1.00  0.00     0.161 HD
BRANCH  19  21
ATOM     21  C   UNL     1     -43.115  42.939  28.107  1.00  0.00     0.005 C 
ATOM     22  H   UNL     1     -42.975  43.699  27.332  1.00  0.00     0.045 H 
ATOM     23  H   UNL     1     -44.179  42.935  28.371  1.00  0.00     0.045 H 
ATOM     24  H   UNL     1     -42.518  43.238  28.975  1.00  0.00     0.045 H 
ENDBRANCH  19  21
ENDBRANCH   5  19
ENDBRANCH   1   4
BRANCH   1  25
ATOM     25  C   UNL     1     -48.092  35.033  27.235  1.00  0.00    -0.005 C 
ATOM     26  H   UNL     1     -49.176  34.946  27.385  1.00  0.00     0.034 H 
ATOM     27  H   UNL     1     -47.631  34.847  28.213  1.00  0.00     0.034 H 
BRANCH  25  28
ATOM     28  C   UNL     1     -47.638  33.964  26.279  1.00  0.00     0.061 A 
ATOM     29  C   UNL     1     -46.345  33.953  25.774  1.00  0.00     0.049 A 
ATOM     30  N   UNL     1     -48.546  33.034  25.898  1.00  0.00    -0.232 NA
ATOM     31  N   UNL     1     -45.914  33.028  24.888  1.00  0.00    -0.259 NA
ATOM     32  H   UNL     1     -45.609  34.695  26.064  1.00  0.00     0.086 H 
ATOM     33  C   UNL     1     -48.139  32.097  24.993  1.00  0.00     0.157 A 
ATOM     34  C   UNL     1     -46.838  32.103  24.507  1.00  0.00     0.070 A 
ATOM     35  H   UNL     1     -46.459  31.392  23.787  1.00  0.00     0.088 H 
BRANCH  33  36
ATOM     36  N   UNL     1     -49.106  31.138  24.565  1.00  0.00    -0.284 N 
ATOM     37  C   UNL     1     -50.085  31.419  23.626  1.00  0.00     0.017 A 
ATOM     38  C   UNL     1     -49.272  29.819  24.961  1.00  0.00     0.151 A 
ATOM     39  C   UNL     1     -50.877  30.307  23.407  1.00  0.00    -0.013 A 
ATOM     40  H   UNL     1     -50.126  32.406  23.182  1.00  0.00     0.083 H 
ATOM     41  C   UNL     1     -50.351  29.278  24.258  1.00  0.00     0.065 A 
ATOM     42  N   UNL     1     -48.532  29.160  25.875  1.00  0.00    -0.218 NA
ATOM     43  C   UNL     1     -50.663  27.932  24.529  1.00  0.00     0.136 A 
ATOM     44  C   UNL     1     -48.933  27.896  26.053  1.00  0.00     0.120 A 
ATOM     45  N   UNL     1     -49.936  27.255  25.436  1.00  0.00    -0.219 NA
ATOM     46  H   UNL     1     -48.377  27.316  26.785  1.00  0.00     0.106 H 
BRANCH  39  47
ATOM     47  C   UNL     1     -52.051  30.192  22.467  1.00  0.00    -0.014 C 
ATOM     48  C   UNL     1     -52.422  31.484  21.728  1.00  0.00    -0.046 C 
ATOM     49  C   UNL     1     -51.783  29.222  21.313  1.00  0.00    -0.046 C 
ATOM     50  H   UNL     1     -52.919  29.863  23.052  1.00  0.00     0.035 H 
ATOM     51  C   UNL     1     -51.635  31.470  20.416  1.00  0.00    -0.053 C 
ATOM     52  H   UNL     1     -52.242  32.396  22.307  1.00  0.00     0.027 H 
ATOM     53  H   UNL     1     -53.494  31.466  21.490  1.00  0.00     0.027 H 
ATOM     54  C   UNL     1     -51.054  30.066  20.277  1.00  0.00    -0.053 C 
ATOM     55  H   UNL     1     -51.200  28.343  21.600  1.00  0.00     0.027 H 
ATOM     56  H   UNL     1     -52.735  28.873  20.894  1.00  0.00     0.027 H 
ATOM     57  H   UNL     1     -52.296  31.707  19.574  1.00  0.00     0.027 H 
ATOM     58  H   UNL     1     -50.836  32.218  20.420  1.00  0.00     0.027 H 
ATOM     59  H   UNL     1     -49.982  30.086  20.500  1.00  0.00     0.027 H 
ATOM     60  H   UNL     1     -51.173  29.668  19.265  1.00  0.00     0.027 H 
ENDBRANCH  39  47
BRANCH  43  61
ATOM     61  N   UNL     1     -51.678  27.217  23.907  1.00  0.00    -0.383 N 
ATOM     62  H   UNL     1     -51.279  26.472  23.347  1.00  0.00     0.158 HD
ATOM     63  H   UNL     1     -52.367  27.790  23.442  1.00  0.00     0.158 HD
ENDBRANCH  43  61
ENDBRANCH  33  36
ENDBRANCH  25  28
ENDBRANCH   1  25
TORSDOF 8
ENDMDL
MODEL 7
REMARK VINA RESULT:      -9.1      2.696      5.481
REMARK SMILES CNc1ccc2ccc(CCc3cncc(-n4cc(C5CCCC5)c5c(N)ncnc54)n3)cc2n1
REMARK SMILES IDX 10 1 9 4 3 5 4 6 35 7 5 8 34 10 6 11 33 13 7 14 8 16 2 19
REMARK SMILES IDX 1 21 11 25 12 28 13 29 32 30 14 31 16 33 15 34 17 36 18 37
REMARK SMILES IDX 31 38 19 39 25 41 30 42 26 43 29 44 28 45 20 47 21 48 24 49
REMARK SMILES IDX 22 51 23 54 27 61
REMARK H PARENT 10 2 10 3 4 9 5 12 33 15 7 17 8 18 2 20 1 22 1 23 1 24 11 26
REMARK H PARENT 11 27 13 32 15 35 18 40 29 46 20 50 21 52 21 53 24 55 24 56
REMARK H PARENT 22 57 22 58 23 59 23 60 27 62 27 63
REMARK Flexibility Score: inf
ROOT
ATOM      1  C   UNL     1     -46.822  38.639  27.376  1.00  0.00    -0.022 C 
ATOM      2  H   UNL     1     -46.552  39.116  26.425  1.00  0.00     0.032 H 
ATOM      3  H   UNL     1     -47.649  39.236  27.781  1.00  0.00     0.032 H 
ENDROOT
BRANCH   1   4
ATOM      4  C   UNL     1     -47.336  37.243  27.115  1.00  0.00    -0.045 A 
ATOM      5  C   UNL     1     -46.548  32.863  25.391  1.00  0.00     0.126 A 
ATOM      6  C   UNL     1     -47.830  32.448  25.733  1.00  0.00    -0.019 A 
ATOM      7  N   UNL     1     -46.126  34.121  25.629  1.00  0.00    -0.231 NA
ATOM      8  C   UNL     1     -48.690  33.339  26.367  1.00  0.00    -0.049 A 
ATOM      9  H   UNL     1     -48.161  31.442  25.504  1.00  0.00     0.066 H 
ATOM     10  C   UNL     1     -46.954  34.991  26.236  1.00  0.00     0.073 A 
ATOM     11  C   UNL     1     -48.257  34.639  26.635  1.00  0.00     0.000 A 
ATOM     12  H   UNL     1     -49.689  33.015  26.640  1.00  0.00     0.063 H 
ATOM     13  C   UNL     1     -46.521  36.287  26.483  1.00  0.00    -0.032 A 
ATOM     14  C   UNL     1     -49.083  35.579  27.275  1.00  0.00    -0.053 A 
ATOM     15  H   UNL     1     -45.511  36.554  26.178  1.00  0.00     0.065 H 
ATOM     16  C   UNL     1     -48.622  36.872  27.517  1.00  0.00    -0.058 A 
ATOM     17  H   UNL     1     -50.087  35.307  27.589  1.00  0.00     0.063 H 
ATOM     18  H   UNL     1     -49.273  37.585  28.016  1.00  0.00     0.063 H 
BRANCH   5  19
ATOM     19  N   UNL     1     -45.708  31.937  24.743  1.00  0.00    -0.373 N 
ATOM     20  H   UNL     1     -44.870  32.418  24.434  1.00  0.00     0.161 HD
BRANCH  19  21
ATOM     21  C   UNL     1     -46.350  31.222  23.650  1.00  0.00     0.005 C 
ATOM     22  H   UNL     1     -47.390  31.017  23.924  1.00  0.00     0.045 H 
ATOM     23  H   UNL     1     -46.367  31.822  22.733  1.00  0.00     0.045 H 
ATOM     24  H   UNL     1     -45.863  30.261  23.456  1.00  0.00     0.045 H 
ENDBRANCH  19  21
ENDBRANCH   5  19
ENDBRANCH   1   4
BRANCH   1  25
ATOM     25  C   UNL     1     -45.650  38.691  28.364  1.00  0.00    -0.005 C 
ATOM     26  H   UNL     1     -45.072  37.759  28.327  1.00  0.00     0.034 H 
ATOM     27  H   UNL     1     -46.043  38.768  29.385  1.00  0.00     0.034 H 
BRANCH  25  28
ATOM     28  C   UNL     1     -44.728  39.854  28.115  1.00  0.00     0.061 A 
ATOM     29  C   UNL     1     -43.566  40.021  28.856  1.00  0.00     0.049 A 
ATOM     30  N   UNL     1     -45.090  40.753  27.169  1.00  0.00    -0.232 NA
ATOM     31  N   UNL     1     -42.734  41.072  28.682  1.00  0.00    -0.259 NA
ATOM     32  H   UNL     1     -43.266  39.314  29.622  1.00  0.00     0.086 H 
ATOM     33  C   UNL     1     -44.274  41.830  26.985  1.00  0.00     0.157 A 
ATOM     34  C   UNL     1     -43.113  41.972  27.734  1.00  0.00     0.070 A 
ATOM     35  H   UNL     1     -42.430  42.804  27.637  1.00  0.00     0.088 H 
BRANCH  33  36
ATOM     36  N   UNL     1     -44.673  42.795  26.012  1.00  0.00    -0.284 N 
ATOM     37  C   UNL     1     -45.951  43.328  25.957  1.00  0.00     0.017 A 
ATOM     38  C   UNL     1     -43.936  43.369  24.987  1.00  0.00     0.151 A 
ATOM     39  C   UNL     1     -46.051  44.234  24.918  1.00  0.00    -0.013 A 
ATOM     40  H   UNL     1     -46.689  43.011  26.684  1.00  0.00     0.083 H 
ATOM     41  C   UNL     1     -44.757  44.267  24.300  1.00  0.00     0.065 A 
ATOM     42  N   UNL     1     -42.648  43.108  24.686  1.00  0.00    -0.218 NA
ATOM     43  C   UNL     1     -44.168  44.954  23.221  1.00  0.00     0.136 A 
ATOM     44  C   UNL     1     -42.208  43.812  23.636  1.00  0.00     0.120 A 
ATOM     45  N   UNL     1     -42.883  44.710  22.905  1.00  0.00    -0.219 NA
ATOM     46  H   UNL     1     -41.177  43.638  23.342  1.00  0.00     0.106 H 
BRANCH  39  47
ATOM     47  C   UNL     1     -47.268  45.030  24.514  1.00  0.00    -0.014 C 
ATOM     48  C   UNL     1     -48.593  44.546  25.117  1.00  0.00    -0.046 C 
ATOM     49  C   UNL     1     -47.202  46.482  24.996  1.00  0.00    -0.046 C 
ATOM     50  H   UNL     1     -47.347  44.992  23.420  1.00  0.00     0.035 H 
ATOM     51  C   UNL     1     -48.777  45.317  26.425  1.00  0.00    -0.053 C 
ATOM     52  H   UNL     1     -48.644  43.462  25.266  1.00  0.00     0.027 H 
ATOM     53  H   UNL     1     -49.414  44.811  24.438  1.00  0.00     0.027 H 
ATOM     54  C   UNL     1     -47.730  46.427  26.423  1.00  0.00    -0.053 C 
ATOM     55  H   UNL     1     -46.200  46.918  24.953  1.00  0.00     0.027 H 
ATOM     56  H   UNL     1     -47.868  47.105  24.386  1.00  0.00     0.027 H 
ATOM     57  H   UNL     1     -49.790  45.733  26.481  1.00  0.00     0.027 H 
ATOM     58  H   UNL     1     -48.647  44.666  27.295  1.00  0.00     0.027 H 
ATOM     59  H   UNL     1     -46.917  46.169  27.111  1.00  0.00     0.027 H 
ATOM     60  H   UNL     1     -48.144  47.386  26.746  1.00  0.00     0.027 H 
ENDBRANCH  39  47
BRANCH  43  61
ATOM     61  N   UNL     1     -44.816  45.904  22.443  1.00  0.00    -0.383 N 
ATOM     62  H   UNL     1     -45.783  45.632  22.306  1.00  0.00     0.158 HD
ATOM     63  H   UNL     1     -44.317  46.172  21.608  1.00  0.00     0.158 HD
ENDBRANCH  43  61
ENDBRANCH  33  36
ENDBRANCH  25  28
ENDBRANCH   1  25
TORSDOF 8
ENDMDL
