MODEL 1
REMARK VINA RESULT:     -10.9      0.000      0.000
REMARK SMILES Cc1cc(N)c2ccc(OCc3cncc(-n4cc(Cl)c5c(N)ncnc54)c3)cc2n1
REMARK SMILES IDX 11 1 10 4 9 5 2 6 3 7 31 8 4 9 30 11 6 12 29 13 7 14 8 16
REMARK SMILES IDX 1 19 5 23 12 26 13 27 28 28 14 29 16 31 15 33 17 35 18 36
REMARK SMILES IDX 27 37 19 38 21 40 26 41 20 42 22 43 25 44 24 45 23 47
REMARK H PARENT 11 2 11 3 3 10 29 15 7 17 8 18 1 20 1 21 1 22 5 24 5 25 13 30
REMARK H PARENT 28 32 15 34 18 39 25 46 23 48 23 49
REMARK Flexibility Score: inf
ROOT
ATOM      1  C   UNL     1     -48.486  35.940  27.171  1.00  0.00     0.115 C 
ATOM      2  H   UNL     1     -48.501  36.175  26.100  1.00  0.00     0.076 H 
ATOM      3  H   UNL     1     -49.434  36.312  27.578  1.00  0.00     0.076 H 
ENDROOT
BRANCH   1   4
ATOM      4  O   UNL     1     -48.504  34.523  27.372  1.00  0.00    -0.489 OA
BRANCH   4   5
ATOM      5  C   UNL     1     -47.944  33.720  26.416  1.00  0.00     0.122 A 
ATOM      6  C   UNL     1     -48.390  29.449  24.376  1.00  0.00     0.040 A 
ATOM      7  C   UNL     1     -47.251  29.614  23.603  1.00  0.00    -0.017 A 
ATOM      8  N   UNL     1     -48.856  30.413  25.198  1.00  0.00    -0.253 NA
ATOM      9  C   UNL     1     -46.569  30.831  23.642  1.00  0.00     0.043 A 
ATOM     10  H   UNL     1     -46.902  28.804  22.972  1.00  0.00     0.066 H 
ATOM     11  C   UNL     1     -48.168  31.563  25.299  1.00  0.00     0.076 A 
ATOM     12  C   UNL     1     -46.993  31.821  24.562  1.00  0.00     0.023 A 
ATOM     13  C   UNL     1     -48.629  32.523  26.186  1.00  0.00     0.007 A 
ATOM     14  C   UNL     1     -46.312  33.043  24.786  1.00  0.00    -0.047 A 
ATOM     15  H   UNL     1     -49.535  32.316  26.752  1.00  0.00     0.069 H 
ATOM     16  C   UNL     1     -46.783  33.983  25.706  1.00  0.00    -0.019 A 
ATOM     17  H   UNL     1     -45.388  33.265  24.259  1.00  0.00     0.063 H 
ATOM     18  H   UNL     1     -46.214  34.896  25.843  1.00  0.00     0.066 H 
BRANCH   6  19
ATOM     19  C   UNL     1     -49.151  28.159  24.331  1.00  0.00    -0.022 C 
ATOM     20  H   UNL     1     -49.779  28.108  23.436  1.00  0.00     0.030 H 
ATOM     21  H   UNL     1     -48.457  27.311  24.309  1.00  0.00     0.030 H 
ATOM     22  H   UNL     1     -49.798  28.071  25.208  1.00  0.00     0.030 H 
ENDBRANCH   6  19
BRANCH   9  23
ATOM     23  N   UNL     1     -45.365  30.943  22.914  1.00  0.00    -0.398 N 
ATOM     24  H   UNL     1     -44.581  30.467  23.349  1.00  0.00     0.156 HD
ATOM     25  H   UNL     1     -45.455  30.688  21.936  1.00  0.00     0.156 HD
ENDBRANCH   9  23
ENDBRANCH   4   5
ENDBRANCH   1   4
BRANCH   1  26
ATOM     26  C   UNL     1     -47.375  36.672  27.886  1.00  0.00     0.010 A 
ATOM     27  C   UNL     1     -46.979  36.261  29.152  1.00  0.00     0.034 A 
ATOM     28  C   UNL     1     -46.676  37.745  27.315  1.00  0.00    -0.028 A 
ATOM     29  N   UNL     1     -45.989  36.844  29.862  1.00  0.00    -0.262 NA
ATOM     30  H   UNL     1     -47.458  35.423  29.651  1.00  0.00     0.084 H 
ATOM     31  C   UNL     1     -45.669  38.402  28.028  1.00  0.00     0.066 A 
ATOM     32  H   UNL     1     -46.930  38.043  26.303  1.00  0.00     0.065 H 
ATOM     33  C   UNL     1     -45.362  37.902  29.289  1.00  0.00     0.051 A 
ATOM     34  H   UNL     1     -44.608  38.342  29.933  1.00  0.00     0.086 H 
BRANCH  31  35
ATOM     35  N   UNL     1     -44.991  39.544  27.501  1.00  0.00    -0.298 N 
ATOM     36  C   UNL     1     -45.255  40.132  26.276  1.00  0.00     0.031 A 
ATOM     37  C   UNL     1     -43.941  40.256  28.087  1.00  0.00     0.151 A 
ATOM     38  C   UNL     1     -44.413  41.205  26.101  1.00  0.00     0.072 A 
ATOM     39  H   UNL     1     -46.041  39.773  25.627  1.00  0.00     0.084 H 
ATOM     40  C   UNL     1     -43.572  41.294  27.235  1.00  0.00     0.080 A 
ATOM     41  N   UNL     1     -43.342  39.978  29.261  1.00  0.00    -0.218 NA
ATOM     42  Cl  UNL     1     -44.385  42.230  24.745  1.00  0.00    -0.082 Cl
ATOM     43  C   UNL     1     -42.522  42.122  27.657  1.00  0.00     0.137 A 
ATOM     44  C   UNL     1     -42.342  40.817  29.554  1.00  0.00     0.120 A 
ATOM     45  N   UNL     1     -41.908  41.860  28.826  1.00  0.00    -0.219 NA
ATOM     46  H   UNL     1     -41.819  40.635  30.489  1.00  0.00     0.106 H 
BRANCH  43  47
ATOM     47  N   UNL     1     -42.046  43.203  26.933  1.00  0.00    -0.383 N 
ATOM     48  H   UNL     1     -41.694  42.996  26.008  1.00  0.00     0.158 HD
ATOM     49  H   UNL     1     -41.491  43.824  27.512  1.00  0.00     0.158 HD
ENDBRANCH  43  47
ENDBRANCH  31  35
ENDBRANCH   1  26
TORSDOF 7
ENDMDL
MODEL 2
REMARK VINA RESULT:     -10.6      3.023     10.314
REMARK SMILES Cc1cc(N)c2ccc(OCc3cncc(-n4cc(Cl)c5c(N)ncnc54)c3)cc2n1
REMARK SMILES IDX 11 1 10 4 9 5 2 6 3 7 31 8 4 9 30 11 6 12 29 13 7 14 8 16
REMARK SMILES IDX 1 19 5 23 12 26 13 27 28 28 14 29 16 31 15 33 17 35 18 36
REMARK SMILES IDX 27 37 19 38 21 40 26 41 20 42 22 43 25 44 24 45 23 47
REMARK H PARENT 11 2 11 3 3 10 29 15 7 17 8 18 1 20 1 21 1 22 5 24 5 25 13 30
REMARK H PARENT 28 32 15 34 18 39 25 46 23 48 23 49
REMARK Flexibility Score: inf
ROOT
ATOM      1  C   UNL     1     -46.504  36.818  26.725  1.00  0.00     0.115 C 
ATOM      2  H   UNL     1     -47.200  37.216  25.976  1.00  0.00     0.076 H 
ATOM      3  H   UNL     1     -45.497  37.068  26.368  1.00  0.00     0.076 H 
ENDROOT
BRANCH   1   4
ATOM      4  O   UNL     1     -46.661  37.507  27.970  1.00  0.00    -0.489 OA
BRANCH   4   5
ATOM      5  C   UNL     1     -45.628  38.282  28.423  1.00  0.00     0.122 A 
ATOM      6  C   UNL     1     -42.804  41.885  27.144  1.00  0.00     0.040 A 
ATOM      7  C   UNL     1     -42.050  41.807  28.305  1.00  0.00    -0.017 A 
ATOM      8  N   UNL     1     -43.872  41.091  26.916  1.00  0.00    -0.253 NA
ATOM      9  C   UNL     1     -42.419  40.902  29.300  1.00  0.00     0.043 A 
ATOM     10  H   UNL     1     -41.187  42.452  28.435  1.00  0.00     0.066 H 
ATOM     11  C   UNL     1     -44.194  40.165  27.836  1.00  0.00     0.076 A 
ATOM     12  C   UNL     1     -43.483  40.002  29.043  1.00  0.00     0.023 A 
ATOM     13  C   UNL     1     -45.261  39.322  27.565  1.00  0.00     0.007 A 
ATOM     14  C   UNL     1     -43.870  38.957  29.917  1.00  0.00    -0.047 A 
ATOM     15  H   UNL     1     -45.803  39.453  26.631  1.00  0.00     0.069 H 
ATOM     16  C   UNL     1     -44.933  38.103  29.609  1.00  0.00    -0.019 A 
ATOM     17  H   UNL     1     -43.329  38.783  30.843  1.00  0.00     0.063 H 
ATOM     18  H   UNL     1     -45.178  37.315  30.312  1.00  0.00     0.066 H 
BRANCH   6  19
ATOM     19  C   UNL     1     -42.438  42.867  26.073  1.00  0.00    -0.022 C 
ATOM     20  H   UNL     1     -41.680  43.571  26.432  1.00  0.00     0.030 H 
ATOM     21  H   UNL     1     -42.031  42.344  25.201  1.00  0.00     0.030 H 
ATOM     22  H   UNL     1     -43.319  43.441  25.769  1.00  0.00     0.030 H 
ENDBRANCH   6  19
BRANCH   9  23
ATOM     23  N   UNL     1     -41.586  40.781  30.433  1.00  0.00    -0.398 N 
ATOM     24  H   UNL     1     -42.083  40.865  31.314  1.00  0.00     0.156 HD
ATOM     25  H   UNL     1     -40.998  39.954  30.419  1.00  0.00     0.156 HD
ENDBRANCH   9  23
ENDBRANCH   4   5
ENDBRANCH   1   4
BRANCH   1  26
ATOM     26  C   UNL     1     -46.583  35.312  26.814  1.00  0.00     0.010 A 
ATOM     27  C   UNL     1     -45.950  34.646  27.855  1.00  0.00     0.034 A 
ATOM     28  C   UNL     1     -47.312  34.531  25.905  1.00  0.00    -0.028 A 
ATOM     29  N   UNL     1     -45.977  33.306  28.024  1.00  0.00    -0.262 NA
ATOM     30  H   UNL     1     -45.384  35.185  28.611  1.00  0.00     0.084 H 
ATOM     31  C   UNL     1     -47.337  33.138  26.021  1.00  0.00     0.066 A 
ATOM     32  H   UNL     1     -47.864  35.038  25.120  1.00  0.00     0.065 H 
ATOM     33  C   UNL     1     -46.662  32.584  27.103  1.00  0.00     0.051 A 
ATOM     34  H   UNL     1     -46.606  31.516  27.281  1.00  0.00     0.086 H 
BRANCH  31  35
ATOM     35  N   UNL     1     -48.009  32.312  25.068  1.00  0.00    -0.298 N 
ATOM     36  C   UNL     1     -49.371  32.064  25.049  1.00  0.00     0.031 A 
ATOM     37  C   UNL     1     -47.441  31.592  24.014  1.00  0.00     0.151 A 
ATOM     38  C   UNL     1     -49.662  31.230  23.996  1.00  0.00     0.072 A 
ATOM     39  H   UNL     1     -50.045  32.519  25.761  1.00  0.00     0.084 H 
ATOM     40  C   UNL     1     -48.452  30.917  23.334  1.00  0.00     0.080 A 
ATOM     41  N   UNL     1     -46.130  31.515  23.712  1.00  0.00    -0.218 NA
ATOM     42  Cl  UNL     1     -51.211  30.664  23.579  1.00  0.00    -0.082 Cl
ATOM     43  C   UNL     1     -48.067  30.132  22.238  1.00  0.00     0.137 A 
ATOM     44  C   UNL     1     -45.876  30.723  22.664  1.00  0.00     0.120 A 
ATOM     45  N   UNL     1     -46.762  30.040  21.921  1.00  0.00    -0.219 NA
ATOM     46  H   UNL     1     -44.832  30.621  22.380  1.00  0.00     0.106 H 
BRANCH  43  47
ATOM     47  N   UNL     1     -48.951  29.411  21.451  1.00  0.00    -0.383 N 
ATOM     48  H   UNL     1     -49.260  29.866  20.602  1.00  0.00     0.158 HD
ATOM     49  H   UNL     1     -49.656  28.947  22.012  1.00  0.00     0.158 HD
ENDBRANCH  43  47
ENDBRANCH  31  35
ENDBRANCH   1  26
TORSDOF 7
ENDMDL
MODEL 3
REMARK VINA RESULT:     -10.0      1.463      2.392
REMARK SMILES Cc1cc(N)c2ccc(OCc3cncc(-n4cc(Cl)c5c(N)ncnc54)c3)cc2n1
REMARK SMILES IDX 11 1 10 4 9 5 2 6 3 7 31 8 4 9 30 11 6 12 29 13 7 14 8 16
REMARK SMILES IDX 1 19 5 23 12 26 13 27 28 28 14 29 16 31 15 33 17 35 18 36
REMARK SMILES IDX 27 37 19 38 21 40 26 41 20 42 22 43 25 44 24 45 23 47
REMARK H PARENT 11 2 11 3 3 10 29 15 7 17 8 18 1 20 1 21 1 22 5 24 5 25 13 30
REMARK H PARENT 28 32 15 34 18 39 25 46 23 48 23 49
REMARK Flexibility Score: inf
ROOT
ATOM      1  C   UNL     1     -46.638  34.378  26.828  1.00  0.00     0.115 C 
ATOM      2  H   UNL     1     -45.761  34.023  27.383  1.00  0.00     0.076 H 
ATOM      3  H   UNL     1     -46.355  34.362  25.769  1.00  0.00     0.076 H 
ENDROOT
BRANCH   1   4
ATOM      4  O   UNL     1     -47.721  33.452  26.959  1.00  0.00    -0.489 OA
BRANCH   4   5
ATOM      5  C   UNL     1     -47.791  32.400  26.088  1.00  0.00     0.122 A 
ATOM      6  C   UNL     1     -46.441  31.037  21.739  1.00  0.00     0.040 A 
ATOM      7  C   UNL     1     -47.123  29.833  21.821  1.00  0.00    -0.017 A 
ATOM      8  N   UNL     1     -46.398  31.919  22.760  1.00  0.00    -0.253 NA
ATOM      9  C   UNL     1     -47.765  29.490  23.011  1.00  0.00     0.043 A 
ATOM     10  H   UNL     1     -47.148  29.165  20.966  1.00  0.00     0.066 H 
ATOM     11  C   UNL     1     -47.072  31.633  23.887  1.00  0.00     0.076 A 
ATOM     12  C   UNL     1     -47.803  30.439  24.063  1.00  0.00     0.023 A 
ATOM     13  C   UNL     1     -47.063  32.571  24.908  1.00  0.00     0.007 A 
ATOM     14  C   UNL     1     -48.527  30.263  25.267  1.00  0.00    -0.047 A 
ATOM     15  H   UNL     1     -46.498  33.490  24.764  1.00  0.00     0.069 H 
ATOM     16  C   UNL     1     -48.522  31.236  26.271  1.00  0.00    -0.019 A 
ATOM     17  H   UNL     1     -49.124  29.370  25.427  1.00  0.00     0.063 H 
ATOM     18  H   UNL     1     -49.102  31.050  27.167  1.00  0.00     0.066 H 
BRANCH   6  19
ATOM     19  C   UNL     1     -45.725  31.413  20.477  1.00  0.00    -0.022 C 
ATOM     20  H   UNL     1     -45.033  30.622  20.171  1.00  0.00     0.030 H 
ATOM     21  H   UNL     1     -46.444  31.570  19.665  1.00  0.00     0.030 H 
ATOM     22  H   UNL     1     -45.148  32.331  20.628  1.00  0.00     0.030 H 
ENDBRANCH   6  19
BRANCH   9  23
ATOM     23  N   UNL     1     -48.524  28.301  23.040  1.00  0.00    -0.398 N 
ATOM     24  H   UNL     1     -48.822  28.032  23.973  1.00  0.00     0.156 HD
ATOM     25  H   UNL     1     -49.303  28.299  22.389  1.00  0.00     0.156 HD
ENDBRANCH   9  23
ENDBRANCH   4   5
ENDBRANCH   1   4
BRANCH   1  26
ATOM     26  C   UNL     1     -46.975  35.809  27.178  1.00  0.00     0.010 A 
ATOM     27  C   UNL     1     -48.272  36.145  27.542  1.00  0.00     0.034 A 
ATOM     28  C   UNL     1     -46.021  36.837  27.195  1.00  0.00    -0.028 A 
ATOM     29  N   UNL     1     -48.665  37.391  27.883  1.00  0.00    -0.262 NA
ATOM     30  H   UNL     1     -49.063  35.399  27.574  1.00  0.00     0.084 H 
ATOM     31  C   UNL     1     -46.390  38.148  27.506  1.00  0.00     0.066 A 
ATOM     32  H   UNL     1     -44.989  36.583  26.972  1.00  0.00     0.065 H 
ATOM     33  C   UNL     1     -47.719  38.363  27.851  1.00  0.00     0.051 A 
ATOM     34  H   UNL     1     -48.116  39.342  28.098  1.00  0.00     0.086 H 
BRANCH  31  35
ATOM     35  N   UNL     1     -45.455  39.228  27.459  1.00  0.00    -0.298 N 
ATOM     36  C   UNL     1     -45.368  40.163  26.441  1.00  0.00     0.031 A 
ATOM     37  C   UNL     1     -44.456  39.531  28.388  1.00  0.00     0.151 A 
ATOM     38  C   UNL     1     -44.358  41.050  26.731  1.00  0.00     0.072 A 
ATOM     39  H   UNL     1     -46.045  40.156  25.600  1.00  0.00     0.084 H 
ATOM     40  C   UNL     1     -43.768  40.661  27.956  1.00  0.00     0.080 A 
ATOM     41  N   UNL     1     -44.163  38.835  29.503  1.00  0.00    -0.218 NA
ATOM     42  Cl  UNL     1     -43.896  42.372  25.767  1.00  0.00    -0.082 Cl
ATOM     43  C   UNL     1     -42.717  41.117  28.767  1.00  0.00     0.137 A 
ATOM     44  C   UNL     1     -43.132  39.345  30.188  1.00  0.00     0.120 A 
ATOM     45  N   UNL     1     -42.407  40.434  29.884  1.00  0.00    -0.219 NA
ATOM     46  H   UNL     1     -42.850  38.818  31.095  1.00  0.00     0.106 H 
BRANCH  43  47
ATOM     47  N   UNL     1     -41.946  42.232  28.484  1.00  0.00    -0.383 N 
ATOM     48  H   UNL     1     -41.595  42.300  27.538  1.00  0.00     0.158 HD
ATOM     49  H   UNL     1     -41.296  42.435  29.235  1.00  0.00     0.158 HD
ENDBRANCH  43  47
ENDBRANCH  31  35
ENDBRANCH   1  26
TORSDOF 7
ENDMDL
MODEL 4
REMARK VINA RESULT:     -10.0      2.857     10.173
REMARK SMILES Cc1cc(N)c2ccc(OCc3cncc(-n4cc(Cl)c5c(N)ncnc54)c3)cc2n1
REMARK SMILES IDX 11 1 10 4 9 5 2 6 3 7 31 8 4 9 30 11 6 12 29 13 7 14 8 16
REMARK SMILES IDX 1 19 5 23 12 26 13 27 28 28 14 29 16 31 15 33 17 35 18 36
REMARK SMILES IDX 27 37 19 38 21 40 26 41 20 42 22 43 25 44 24 45 23 47
REMARK H PARENT 11 2 11 3 3 10 29 15 7 17 8 18 1 20 1 21 1 22 5 24 5 25 13 30
REMARK H PARENT 28 32 15 34 18 39 25 46 23 48 23 49
REMARK Flexibility Score: inf
ROOT
ATOM      1  C   UNL     1     -47.891  36.661  27.063  1.00  0.00     0.115 C 
ATOM      2  H   UNL     1     -48.985  36.673  27.137  1.00  0.00     0.076 H 
ATOM      3  H   UNL     1     -47.645  37.115  26.096  1.00  0.00     0.076 H 
ENDROOT
BRANCH   1   4
ATOM      4  O   UNL     1     -47.313  37.516  28.055  1.00  0.00    -0.489 OA
BRANCH   4   5
ATOM      5  C   UNL     1     -46.520  38.552  27.644  1.00  0.00     0.122 A 
ATOM      6  C   UNL     1     -42.648  41.025  28.863  1.00  0.00     0.040 A 
ATOM      7  C   UNL     1     -42.786  41.910  27.804  1.00  0.00    -0.017 A 
ATOM      8  N   UNL     1     -43.481  39.979  29.049  1.00  0.00    -0.253 NA
ATOM      9  C   UNL     1     -43.800  41.704  26.869  1.00  0.00     0.043 A 
ATOM     10  H   UNL     1     -42.104  42.748  27.706  1.00  0.00     0.066 H 
ATOM     11  C   UNL     1     -44.506  39.812  28.196  1.00  0.00     0.076 A 
ATOM     12  C   UNL     1     -44.736  40.665  27.095  1.00  0.00     0.023 A 
ATOM     13  C   UNL     1     -45.385  38.766  28.430  1.00  0.00     0.007 A 
ATOM     14  C   UNL     1     -45.879  40.434  26.292  1.00  0.00    -0.047 A 
ATOM     15  H   UNL     1     -45.202  38.113  29.281  1.00  0.00     0.069 H 
ATOM     16  C   UNL     1     -46.765  39.388  26.565  1.00  0.00    -0.019 A 
ATOM     17  H   UNL     1     -46.105  41.087  25.453  1.00  0.00     0.063 H 
ATOM     18  H   UNL     1     -47.628  39.265  25.920  1.00  0.00     0.066 H 
BRANCH   6  19
ATOM     19  C   UNL     1     -41.550  41.215  29.865  1.00  0.00    -0.022 C 
ATOM     20  H   UNL     1     -40.681  40.599  29.612  1.00  0.00     0.030 H 
ATOM     21  H   UNL     1     -41.231  42.262  29.884  1.00  0.00     0.030 H 
ATOM     22  H   UNL     1     -41.894  40.925  30.862  1.00  0.00     0.030 H 
ENDBRANCH   6  19
BRANCH   9  23
ATOM     23  N   UNL     1     -43.974  42.667  25.851  1.00  0.00    -0.398 N 
ATOM     24  H   UNL     1     -44.360  42.286  24.993  1.00  0.00     0.156 HD
ATOM     25  H   UNL     1     -44.485  43.490  26.153  1.00  0.00     0.156 HD
ENDBRANCH   9  23
ENDBRANCH   4   5
ENDBRANCH   1   4
BRANCH   1  26
ATOM     26  C   UNL     1     -47.350  35.250  27.043  1.00  0.00     0.010 A 
ATOM     27  C   UNL     1     -46.659  34.758  28.143  1.00  0.00     0.034 A 
ATOM     28  C   UNL     1     -47.545  34.373  25.967  1.00  0.00    -0.028 A 
ATOM     29  N   UNL     1     -46.152  33.509  28.222  1.00  0.00    -0.262 NA
ATOM     30  H   UNL     1     -46.487  35.371  29.024  1.00  0.00     0.084 H 
ATOM     31  C   UNL     1     -47.006  33.083  25.990  1.00  0.00     0.066 A 
ATOM     32  H   UNL     1     -48.134  34.718  25.123  1.00  0.00     0.065 H 
ATOM     33  C   UNL     1     -46.330  32.704  27.145  1.00  0.00     0.051 A 
ATOM     34  H   UNL     1     -45.863  31.733  27.265  1.00  0.00     0.086 H 
BRANCH  31  35
ATOM     35  N   UNL     1     -47.125  32.194  24.878  1.00  0.00    -0.298 N 
ATOM     36  C   UNL     1     -46.069  31.729  24.113  1.00  0.00     0.031 A 
ATOM     37  C   UNL     1     -48.296  31.653  24.342  1.00  0.00     0.151 A 
ATOM     38  C   UNL     1     -46.556  30.896  23.134  1.00  0.00     0.072 A 
ATOM     39  H   UNL     1     -45.045  31.994  24.332  1.00  0.00     0.084 H 
ATOM     40  C   UNL     1     -47.963  30.841  23.261  1.00  0.00     0.080 A 
ATOM     41  N   UNL     1     -49.554  31.896  24.759  1.00  0.00    -0.218 NA
ATOM     42  Cl  UNL     1     -45.619  30.088  21.966  1.00  0.00    -0.082 Cl
ATOM     43  C   UNL     1     -49.020  30.210  22.588  1.00  0.00     0.137 A 
ATOM     44  C   UNL     1     -50.482  31.260  24.034  1.00  0.00     0.120 A 
ATOM     45  N   UNL     1     -50.284  30.441  22.988  1.00  0.00    -0.219 NA
ATOM     46  H   UNL     1     -51.516  31.425  24.325  1.00  0.00     0.106 H 
BRANCH  43  47
ATOM     47  N   UNL     1     -48.854  29.361  21.505  1.00  0.00    -0.383 N 
ATOM     48  H   UNL     1     -49.292  29.656  20.642  1.00  0.00     0.158 HD
ATOM     49  H   UNL     1     -48.964  28.390  21.773  1.00  0.00     0.158 HD
ENDBRANCH  43  47
ENDBRANCH  31  35
ENDBRANCH   1  26
TORSDOF 7
ENDMDL
MODEL 5
REMARK VINA RESULT:     -10.0      1.784      2.356
REMARK SMILES Cc1cc(N)c2ccc(OCc3cncc(-n4cc(Cl)c5c(N)ncnc54)c3)cc2n1
REMARK SMILES IDX 11 1 10 4 9 5 2 6 3 7 31 8 4 9 30 11 6 12 29 13 7 14 8 16
REMARK SMILES IDX 1 19 5 23 12 26 13 27 28 28 14 29 16 31 15 33 17 35 18 36
REMARK SMILES IDX 27 37 19 38 21 40 26 41 20 42 22 43 25 44 24 45 23 47
REMARK H PARENT 11 2 11 3 3 10 29 15 7 17 8 18 1 20 1 21 1 22 5 24 5 25 13 30
REMARK H PARENT 28 32 15 34 18 39 25 46 23 48 23 49
REMARK Flexibility Score: inf
ROOT
ATOM      1  C   UNL     1     -46.473  34.458  27.342  1.00  0.00     0.115 C 
ATOM      2  H   UNL     1     -45.965  33.951  28.172  1.00  0.00     0.076 H 
ATOM      3  H   UNL     1     -45.784  34.413  26.490  1.00  0.00     0.076 H 
ENDROOT
BRANCH   1   4
ATOM      4  O   UNL     1     -47.635  33.723  26.945  1.00  0.00    -0.489 OA
BRANCH   4   5
ATOM      5  C   UNL     1     -47.552  32.911  25.847  1.00  0.00     0.122 A 
ATOM      6  C   UNL     1     -50.048  29.748  23.325  1.00  0.00     0.040 A 
ATOM      7  C   UNL     1     -48.985  29.468  22.480  1.00  0.00    -0.017 A 
ATOM      8  N   UNL     1     -49.974  30.676  24.303  1.00  0.00    -0.253 NA
ATOM      9  C   UNL     1     -47.798  30.190  22.612  1.00  0.00     0.043 A 
ATOM     10  H   UNL     1     -49.084  28.699  21.721  1.00  0.00     0.066 H 
ATOM     11  C   UNL     1     -48.813  31.327  24.487  1.00  0.00     0.076 A 
ATOM     12  C   UNL     1     -47.672  31.105  23.686  1.00  0.00     0.023 A 
ATOM     13  C   UNL     1     -48.735  32.238  25.529  1.00  0.00     0.007 A 
ATOM     14  C   UNL     1     -46.481  31.802  24.002  1.00  0.00    -0.047 A 
ATOM     15  H   UNL     1     -49.618  32.403  26.143  1.00  0.00     0.069 H 
ATOM     16  C   UNL     1     -46.421  32.696  25.075  1.00  0.00    -0.019 A 
ATOM     17  H   UNL     1     -45.575  31.636  23.426  1.00  0.00     0.063 H 
ATOM     18  H   UNL     1     -45.479  33.194  25.275  1.00  0.00     0.066 H 
BRANCH   6  19
ATOM     19  C   UNL     1     -51.339  29.001  23.184  1.00  0.00    -0.022 C 
ATOM     20  H   UNL     1     -51.704  29.044  22.153  1.00  0.00     0.030 H 
ATOM     21  H   UNL     1     -51.200  27.948  23.452  1.00  0.00     0.030 H 
ATOM     22  H   UNL     1     -52.103  29.439  23.834  1.00  0.00     0.030 H 
ENDBRANCH   6  19
BRANCH   9  23
ATOM     23  N   UNL     1     -46.703  29.826  21.798  1.00  0.00    -0.398 N 
ATOM     24  H   UNL     1     -46.306  28.922  22.032  1.00  0.00     0.156 HD
ATOM     25  H   UNL     1     -46.893  29.901  20.804  1.00  0.00     0.156 HD
ENDBRANCH   9  23
ENDBRANCH   4   5
ENDBRANCH   1   4
BRANCH   1  26
ATOM     26  C   UNL     1     -46.713  35.918  27.645  1.00  0.00     0.010 A 
ATOM     27  C   UNL     1     -48.011  36.390  27.789  1.00  0.00     0.034 A 
ATOM     28  C   UNL     1     -45.673  36.840  27.833  1.00  0.00    -0.028 A 
ATOM     29  N   UNL     1     -48.323  37.674  28.073  1.00  0.00    -0.262 NA
ATOM     30  H   UNL     1     -48.869  35.731  27.680  1.00  0.00     0.084 H 
ATOM     31  C   UNL     1     -45.951  38.186  28.092  1.00  0.00     0.066 A 
ATOM     32  H   UNL     1     -44.651  36.478  27.784  1.00  0.00     0.065 H 
ATOM     33  C   UNL     1     -47.289  38.541  28.210  1.00  0.00     0.051 A 
ATOM     34  H   UNL     1     -47.617  39.558  28.397  1.00  0.00     0.086 H 
BRANCH  31  35
ATOM     35  N   UNL     1     -44.913  39.161  28.214  1.00  0.00    -0.298 N 
ATOM     36  C   UNL     1     -44.014  39.240  29.264  1.00  0.00     0.031 A 
ATOM     37  C   UNL     1     -44.626  40.213  27.341  1.00  0.00     0.151 A 
ATOM     38  C   UNL     1     -43.162  40.298  29.047  1.00  0.00     0.072 A 
ATOM     39  H   UNL     1     -44.016  38.525  30.073  1.00  0.00     0.084 H 
ATOM     40  C   UNL     1     -43.539  40.927  27.838  1.00  0.00     0.080 A 
ATOM     41  N   UNL     1     -45.301  40.528  26.218  1.00  0.00    -0.218 NA
ATOM     42  Cl  UNL     1     -41.889  40.769  30.072  1.00  0.00    -0.082 Cl
ATOM     43  C   UNL     1     -43.105  42.031  27.090  1.00  0.00     0.137 A 
ATOM     44  C   UNL     1     -44.815  41.609  25.597  1.00  0.00     0.120 A 
ATOM     45  N   UNL     1     -43.768  42.364  25.967  1.00  0.00    -0.219 NA
ATOM     46  H   UNL     1     -45.327  41.912  24.687  1.00  0.00     0.106 H 
BRANCH  43  47
ATOM     47  N   UNL     1     -42.032  42.834  27.441  1.00  0.00    -0.383 N 
ATOM     48  H   UNL     1     -41.146  42.362  27.558  1.00  0.00     0.158 HD
ATOM     49  H   UNL     1     -42.292  43.515  28.146  1.00  0.00     0.158 HD
ENDBRANCH  43  47
ENDBRANCH  31  35
ENDBRANCH   1  26
TORSDOF 7
ENDMDL
MODEL 6
REMARK VINA RESULT:      -9.8      1.635      2.693
REMARK SMILES Cc1cc(N)c2ccc(OCc3cncc(-n4cc(Cl)c5c(N)ncnc54)c3)cc2n1
REMARK SMILES IDX 11 1 10 4 9 5 2 6 3 7 31 8 4 9 30 11 6 12 29 13 7 14 8 16
REMARK SMILES IDX 1 19 5 23 12 26 13 27 28 28 14 29 16 31 15 33 17 35 18 36
REMARK SMILES IDX 27 37 19 38 21 40 26 41 20 42 22 43 25 44 24 45 23 47
REMARK H PARENT 11 2 11 3 3 10 29 15 7 17 8 18 1 20 1 21 1 22 5 24 5 25 13 30
REMARK H PARENT 28 32 15 34 18 39 25 46 23 48 23 49
REMARK Flexibility Score: inf
ROOT
ATOM      1  C   UNL     1     -45.901  34.803  27.545  1.00  0.00     0.115 C 
ATOM      2  H   UNL     1     -46.064  33.871  28.099  1.00  0.00     0.076 H 
ATOM      3  H   UNL     1     -44.932  34.694  27.043  1.00  0.00     0.076 H 
ENDROOT
BRANCH   1   4
ATOM      4  O   UNL     1     -46.869  34.940  26.500  1.00  0.00    -0.489 OA
BRANCH   4   5
ATOM      5  C   UNL     1     -47.417  33.807  25.963  1.00  0.00     0.122 A 
ATOM      6  C   UNL     1     -46.432  30.186  23.045  1.00  0.00     0.040 A 
ATOM      7  C   UNL     1     -47.717  29.671  23.126  1.00  0.00    -0.017 A 
ATOM      8  N   UNL     1     -46.039  31.272  23.743  1.00  0.00    -0.253 NA
ATOM      9  C   UNL     1     -48.640  30.267  23.985  1.00  0.00     0.043 A 
ATOM     10  H   UNL     1     -47.993  28.808  22.529  1.00  0.00     0.066 H 
ATOM     11  C   UNL     1     -46.940  31.899  24.520  1.00  0.00     0.076 A 
ATOM     12  C   UNL     1     -48.273  31.458  24.660  1.00  0.00     0.023 A 
ATOM     13  C   UNL     1     -46.537  33.044  25.190  1.00  0.00     0.007 A 
ATOM     14  C   UNL     1     -49.156  32.225  25.458  1.00  0.00    -0.047 A 
ATOM     15  H   UNL     1     -45.508  33.379  25.076  1.00  0.00     0.069 H 
ATOM     16  C   UNL     1     -48.732  33.390  26.103  1.00  0.00    -0.019 A 
ATOM     17  H   UNL     1     -50.197  31.933  25.567  1.00  0.00     0.063 H 
ATOM     18  H   UNL     1     -49.455  33.942  26.692  1.00  0.00     0.066 H 
BRANCH   6  19
ATOM     19  C   UNL     1     -45.419  29.545  22.145  1.00  0.00    -0.022 C 
ATOM     20  H   UNL     1     -45.719  29.632  21.096  1.00  0.00     0.030 H 
ATOM     21  H   UNL     1     -44.445  30.033  22.262  1.00  0.00     0.030 H 
ATOM     22  H   UNL     1     -45.320  28.482  22.385  1.00  0.00     0.030 H 
ENDBRANCH   6  19
BRANCH   9  23
ATOM     23  N   UNL     1     -49.964  29.778  23.985  1.00  0.00    -0.398 N 
ATOM     24  H   UNL     1     -50.024  28.768  23.913  1.00  0.00     0.156 HD
ATOM     25  H   UNL     1     -50.527  30.128  24.753  1.00  0.00     0.156 HD
ENDBRANCH   9  23
ENDBRANCH   4   5
ENDBRANCH   1   4
BRANCH   1  26
ATOM     26  C   UNL     1     -45.792  35.991  28.473  1.00  0.00     0.010 A 
ATOM     27  C   UNL     1     -46.430  35.966  29.706  1.00  0.00     0.034 A 
ATOM     28  C   UNL     1     -45.031  37.129  28.170  1.00  0.00    -0.028 A 
ATOM     29  N   UNL     1     -46.378  36.972  30.606  1.00  0.00    -0.262 NA
ATOM     30  H   UNL     1     -47.020  35.109  30.021  1.00  0.00     0.084 H 
ATOM     31  C   UNL     1     -44.979  38.209  29.055  1.00  0.00     0.066 A 
ATOM     32  H   UNL     1     -44.476  37.142  27.237  1.00  0.00     0.065 H 
ATOM     33  C   UNL     1     -45.662  38.070  30.259  1.00  0.00     0.051 A 
ATOM     34  H   UNL     1     -45.699  38.850  31.011  1.00  0.00     0.086 H 
BRANCH  31  35
ATOM     35  N   UNL     1     -44.273  39.411  28.741  1.00  0.00    -0.298 N 
ATOM     36  C   UNL     1     -43.173  39.892  29.431  1.00  0.00     0.031 A 
ATOM     37  C   UNL     1     -44.558  40.325  27.724  1.00  0.00     0.151 A 
ATOM     38  C   UNL     1     -42.756  41.067  28.850  1.00  0.00     0.072 A 
ATOM     39  H   UNL     1     -42.741  39.357  30.264  1.00  0.00     0.084 H 
ATOM     40  C   UNL     1     -43.625  41.357  27.772  1.00  0.00     0.080 A 
ATOM     41  N   UNL     1     -45.585  40.260  26.854  1.00  0.00    -0.218 NA
ATOM     42  Cl  UNL     1     -41.434  42.008  29.357  1.00  0.00    -0.082 Cl
ATOM     43  C   UNL     1     -43.755  42.379  26.820  1.00  0.00     0.137 A 
ATOM     44  C   UNL     1     -45.625  41.295  26.007  1.00  0.00     0.120 A 
ATOM     45  N   UNL     1     -44.776  42.334  25.944  1.00  0.00    -0.219 NA
ATOM     46  H   UNL     1     -46.438  41.296  25.286  1.00  0.00     0.106 H 
BRANCH  43  47
ATOM     47  N   UNL     1     -42.902  43.467  26.726  1.00  0.00    -0.383 N 
ATOM     48  H   UNL     1     -42.470  43.767  27.590  1.00  0.00     0.158 HD
ATOM     49  H   UNL     1     -43.282  44.187  26.123  1.00  0.00     0.158 HD
ENDBRANCH  43  47
ENDBRANCH  31  35
ENDBRANCH   1  26
TORSDOF 7
ENDMDL
MODEL 7
REMARK VINA RESULT:      -9.7      2.730     10.210
REMARK SMILES Cc1cc(N)c2ccc(OCc3cncc(-n4cc(Cl)c5c(N)ncnc54)c3)cc2n1
REMARK SMILES IDX 11 1 10 4 9 5 2 6 3 7 31 8 4 9 30 11 6 12 29 13 7 14 8 16
REMARK SMILES IDX 1 19 5 23 12 26 13 27 28 28 14 29 16 31 15 33 17 35 18 36
REMARK SMILES IDX 27 37 19 38 21 40 26 41 20 42 22 43 25 44 24 45 23 47
REMARK H PARENT 11 2 11 3 3 10 29 15 7 17 8 18 1 20 1 21 1 22 5 24 5 25 13 30
REMARK H PARENT 28 32 15 34 18 39 25 46 23 48 23 49
REMARK Flexibility Score: inf
ROOT
ATOM      1  C   UNL     1     -46.900  37.095  26.726  1.00  0.00     0.115 C 
ATOM      2  H   UNL     1     -47.881  37.327  26.296  1.00  0.00     0.076 H 
ATOM      3  H   UNL     1     -46.157  37.457  26.005  1.00  0.00     0.076 H 
ENDROOT
BRANCH   1   4
ATOM      4  O   UNL     1     -46.685  37.853  27.922  1.00  0.00    -0.489 OA
BRANCH   4   5
ATOM      5  C   UNL     1     -45.703  38.805  27.925  1.00  0.00     0.122 A 
ATOM      6  C   UNL     1     -43.922  42.363  25.324  1.00  0.00     0.040 A 
ATOM      7  C   UNL     1     -42.882  42.593  26.211  1.00  0.00    -0.017 A 
ATOM      8  N   UNL     1     -44.874  41.433  25.547  1.00  0.00    -0.253 NA
ATOM      9  C   UNL     1     -42.825  41.867  27.401  1.00  0.00     0.043 A 
ATOM     10  H   UNL     1     -42.127  43.337  25.980  1.00  0.00     0.066 H 
ATOM     11  C   UNL     1     -44.791  40.676  26.654  1.00  0.00     0.076 A 
ATOM     12  C   UNL     1     -43.765  40.828  27.612  1.00  0.00     0.023 A 
ATOM     13  C   UNL     1     -45.746  39.690  26.844  1.00  0.00     0.007 A 
ATOM     14  C   UNL     1     -43.736  39.940  28.714  1.00  0.00    -0.047 A 
ATOM     15  H   UNL     1     -46.532  39.578  26.101  1.00  0.00     0.069 H 
ATOM     16  C   UNL     1     -44.696  38.936  28.869  1.00  0.00    -0.019 A 
ATOM     17  H   UNL     1     -42.946  40.007  29.457  1.00  0.00     0.063 H 
ATOM     18  H   UNL     1     -44.618  38.279  29.728  1.00  0.00     0.066 H 
BRANCH   6  19
ATOM     19  C   UNL     1     -44.014  43.149  24.051  1.00  0.00    -0.022 C 
ATOM     20  H   UNL     1     -43.234  42.844  23.347  1.00  0.00     0.030 H 
ATOM     21  H   UNL     1     -44.987  42.986  23.575  1.00  0.00     0.030 H 
ATOM     22  H   UNL     1     -43.888  44.217  24.257  1.00  0.00     0.030 H 
ENDBRANCH   6  19
BRANCH   9  23
ATOM     23  N   UNL     1     -41.710  42.057  28.246  1.00  0.00    -0.398 N 
ATOM     24  H   UNL     1     -41.801  41.601  29.148  1.00  0.00     0.156 HD
ATOM     25  H   UNL     1     -40.823  41.832  27.807  1.00  0.00     0.156 HD
ENDBRANCH   9  23
ENDBRANCH   4   5
ENDBRANCH   1   4
BRANCH   1  26
ATOM     26  C   UNL     1     -46.692  35.605  26.870  1.00  0.00     0.010 A 
ATOM     27  C   UNL     1     -46.340  35.071  28.102  1.00  0.00     0.034 A 
ATOM     28  C   UNL     1     -46.880  34.703  25.813  1.00  0.00    -0.028 A 
ATOM     29  N   UNL     1     -46.147  33.754  28.329  1.00  0.00    -0.262 NA
ATOM     30  H   UNL     1     -46.198  35.705  28.974  1.00  0.00     0.084 H 
ATOM     31  C   UNL     1     -46.656  33.335  25.993  1.00  0.00     0.066 A 
ATOM     32  H   UNL     1     -47.215  35.094  24.857  1.00  0.00     0.065 H 
ATOM     33  C   UNL     1     -46.302  32.919  27.272  1.00  0.00     0.051 A 
ATOM     34  H   UNL     1     -46.093  31.884  27.520  1.00  0.00     0.086 H 
BRANCH  31  35
ATOM     35  N   UNL     1     -46.767  32.402  24.916  1.00  0.00    -0.298 N 
ATOM     36  C   UNL     1     -46.047  32.460  23.735  1.00  0.00     0.031 A 
ATOM     37  C   UNL     1     -47.615  31.295  24.833  1.00  0.00     0.151 A 
ATOM     38  C   UNL     1     -46.412  31.403  22.934  1.00  0.00     0.072 A 
ATOM     39  H   UNL     1     -45.306  33.224  23.554  1.00  0.00     0.084 H 
ATOM     40  C   UNL     1     -47.406  30.660  23.612  1.00  0.00     0.080 A 
ATOM     41  N   UNL     1     -48.523  30.912  25.751  1.00  0.00    -0.218 NA
ATOM     42  Cl  UNL     1     -45.781  31.067  21.392  1.00  0.00    -0.082 Cl
ATOM     43  C   UNL     1     -48.179  29.520  23.346  1.00  0.00     0.137 A 
ATOM     44  C   UNL     1     -49.218  29.828  25.385  1.00  0.00     0.120 A 
ATOM     45  N   UNL     1     -49.094  29.121  24.250  1.00  0.00    -0.219 NA
ATOM     46  H   UNL     1     -49.969  29.478  26.088  1.00  0.00     0.106 H 
BRANCH  43  47
ATOM     47  N   UNL     1     -48.082  28.768  22.186  1.00  0.00    -0.383 N 
ATOM     48  H   UNL     1     -48.131  27.765  22.303  1.00  0.00     0.158 HD
ATOM     49  H   UNL     1     -47.364  29.129  21.568  1.00  0.00     0.158 HD
ENDBRANCH  43  47
ENDBRANCH  31  35
ENDBRANCH   1  26
TORSDOF 7
ENDMDL
