MODEL 1
REMARK VINA RESULT:      -9.8      0.000      0.000
REMARK SMILES CNc1ccc2ccc(OC[C@H]3O[C@@H](n4cc(C)c5c(N)ncnc54)[C@H](O)[C@@H]3O)cc2n1
REMARK SMILES IDX 11 1 10 4 9 5 3 6 4 7 32 8 5 9 31 11 6 12 30 14 7 15 8 17
REMARK SMILES IDX 2 20 1 22 12 26 13 27 28 28 14 30 26 31 29 35 15 37 16 38
REMARK SMILES IDX 25 39 17 40 19 42 24 43 20 44 23 45 22 46 18 48 21 52 27 55
REMARK H PARENT 11 2 11 3 4 10 5 13 30 16 7 18 8 19 2 21 1 23 1 24 1 25 12 29
REMARK H PARENT 28 32 14 33 26 34 29 36 16 41 23 47 18 49 18 50 18 51 21 53
REMARK H PARENT 21 54 27 56
REMARK Flexibility Score: inf
ROOT
ATOM      1  C   UNL     1     -45.934  35.445  27.235  1.00  0.00     0.117 C 
ATOM      2  H   UNL     1     -45.406  36.033  26.474  1.00  0.00     0.073 H 
ATOM      3  H   UNL     1     -45.460  34.457  27.301  1.00  0.00     0.073 H 
ENDROOT
BRANCH   1   4
ATOM      4  O   UNL     1     -47.317  35.320  26.901  1.00  0.00    -0.491 OA
BRANCH   4   5
ATOM      5  C   UNL     1     -47.703  34.177  26.256  1.00  0.00     0.121 A 
ATOM      6  C   UNL     1     -46.162  30.777  23.305  1.00  0.00     0.126 A 
ATOM      7  C   UNL     1     -47.390  30.130  23.320  1.00  0.00    -0.019 A 
ATOM      8  N   UNL     1     -45.937  31.911  23.996  1.00  0.00    -0.231 NA
ATOM      9  C   UNL     1     -48.420  30.659  24.090  1.00  0.00    -0.049 A 
ATOM     10  H   UNL     1     -47.554  29.238  22.726  1.00  0.00     0.066 H 
ATOM     11  C   UNL     1     -46.931  32.427  24.740  1.00  0.00     0.076 A 
ATOM     12  C   UNL     1     -48.202  31.829  24.822  1.00  0.00     0.001 A 
ATOM     13  H   UNL     1     -49.385  30.160  24.104  1.00  0.00     0.063 H 
ATOM     14  C   UNL     1     -46.710  33.593  25.461  1.00  0.00     0.007 A 
ATOM     15  C   UNL     1     -49.208  32.407  25.615  1.00  0.00    -0.049 A 
ATOM     16  H   UNL     1     -45.731  34.061  25.397  1.00  0.00     0.069 H 
ATOM     17  C   UNL     1     -48.957  33.579  26.330  1.00  0.00    -0.019 A 
ATOM     18  H   UNL     1     -50.192  31.949  25.676  1.00  0.00     0.063 H 
ATOM     19  H   UNL     1     -49.762  33.994  26.927  1.00  0.00     0.066 H 
BRANCH   6  20
ATOM     20  N   UNL     1     -45.088  30.314  22.543  1.00  0.00    -0.373 N 
ATOM     21  H   UNL     1     -44.274  30.729  22.998  1.00  0.00     0.161 HD
BRANCH  20  22
ATOM     22  C   UNL     1     -44.980  28.867  22.486  1.00  0.00     0.005 C 
ATOM     23  H   UNL     1     -44.663  28.523  21.497  1.00  0.00     0.045 H 
ATOM     24  H   UNL     1     -45.924  28.382  22.754  1.00  0.00     0.045 H 
ATOM     25  H   UNL     1     -44.220  28.538  23.203  1.00  0.00     0.045 H 
ENDBRANCH  20  22
ENDBRANCH   6  20
ENDBRANCH   4   5
ENDBRANCH   1   4
BRANCH   1  26
ATOM     26  C   UNL     1     -45.813  36.141  28.589  1.00  0.00     0.123 C 
ATOM     27  O   UNL     1     -44.570  36.858  28.681  1.00  0.00    -0.345 OA
ATOM     28  C   UNL     1     -46.917  37.166  28.828  1.00  0.00     0.114 C 
ATOM     29  H   UNL     1     -45.834  35.377  29.378  1.00  0.00     0.067 H 
ATOM     30  C   UNL     1     -44.817  38.072  29.448  1.00  0.00     0.164 C 
ATOM     31  C   UNL     1     -46.283  38.033  29.901  1.00  0.00     0.128 C 
ATOM     32  H   UNL     1     -47.114  37.761  27.929  1.00  0.00     0.066 H 
ATOM     33  H   UNL     1     -44.113  38.078  30.289  1.00  0.00     0.088 H 
ATOM     34  H   UNL     1     -46.764  39.010  29.997  1.00  0.00     0.068 H 
BRANCH  28  35
ATOM     35  O   UNL     1     -48.136  36.593  29.289  1.00  0.00    -0.387 OA
ATOM     36  H   UNL     1     -48.282  35.782  28.762  1.00  0.00     0.211 HD
ENDBRANCH  28  35
BRANCH  30  37
ATOM     37  N   UNL     1     -44.511  39.232  28.615  1.00  0.00    -0.303 N 
ATOM     38  C   UNL     1     -45.167  39.639  27.478  1.00  0.00     0.012 A 
ATOM     39  C   UNL     1     -43.488  40.108  28.884  1.00  0.00     0.147 A 
ATOM     40  C   UNL     1     -44.569  40.798  27.012  1.00  0.00    -0.020 A 
ATOM     41  H   UNL     1     -46.002  39.075  27.083  1.00  0.00     0.082 H 
ATOM     42  C   UNL     1     -43.488  41.094  27.906  1.00  0.00     0.064 A 
ATOM     43  N   UNL     1     -42.649  40.015  29.928  1.00  0.00    -0.218 NA
ATOM     44  C   UNL     1     -42.499  42.085  28.024  1.00  0.00     0.136 A 
ATOM     45  C   UNL     1     -41.756  41.017  29.937  1.00  0.00     0.120 A 
ATOM     46  N   UNL     1     -41.634  42.027  29.055  1.00  0.00    -0.219 NA
ATOM     47  H   UNL     1     -41.043  41.013  30.755  1.00  0.00     0.106 H 
BRANCH  40  48
ATOM     48  C   UNL     1     -44.981  41.574  25.815  1.00  0.00    -0.037 C 
ATOM     49  H   UNL     1     -44.280  41.404  24.991  1.00  0.00     0.028 H 
ATOM     50  H   UNL     1     -45.006  42.645  26.039  1.00  0.00     0.028 H 
ATOM     51  H   UNL     1     -45.979  41.280  25.475  1.00  0.00     0.028 H 
ENDBRANCH  40  48
BRANCH  44  52
ATOM     52  N   UNL     1     -42.330  43.132  27.126  1.00  0.00    -0.383 N 
ATOM     53  H   UNL     1     -41.626  43.801  27.403  1.00  0.00     0.158 HD
ATOM     54  H   UNL     1     -43.234  43.521  26.882  1.00  0.00     0.158 HD
ENDBRANCH  44  52
ENDBRANCH  30  37
BRANCH  31  55
ATOM     55  O   UNL     1     -46.413  37.372  31.173  1.00  0.00    -0.386 OA
ATOM     56  H   UNL     1     -47.360  37.468  31.408  1.00  0.00     0.211 HD
ENDBRANCH  31  55
ENDBRANCH   1  26
TORSDOF 10
ENDMDL
MODEL 2
REMARK VINA RESULT:      -9.2      1.609      2.167
REMARK SMILES CNc1ccc2ccc(OC[C@H]3O[C@@H](n4cc(C)c5c(N)ncnc54)[C@H](O)[C@@H]3O)cc2n1
REMARK SMILES IDX 11 1 10 4 9 5 3 6 4 7 32 8 5 9 31 11 6 12 30 14 7 15 8 17
REMARK SMILES IDX 2 20 1 22 12 26 13 27 28 28 14 30 26 31 29 35 15 37 16 38
REMARK SMILES IDX 25 39 17 40 19 42 24 43 20 44 23 45 22 46 18 48 21 52 27 55
REMARK H PARENT 11 2 11 3 4 10 5 13 30 16 7 18 8 19 2 21 1 23 1 24 1 25 12 29
REMARK H PARENT 28 32 14 33 26 34 29 36 16 41 23 47 18 49 18 50 18 51 21 53
REMARK H PARENT 21 54 27 56
REMARK Flexibility Score: inf
ROOT
ATOM      1  C   UNL     1     -46.159  34.220  27.006  1.00  0.00     0.117 C 
ATOM      2  H   UNL     1     -46.309  34.543  25.968  1.00  0.00     0.073 H 
ATOM      3  H   UNL     1     -45.106  34.381  27.271  1.00  0.00     0.073 H 
ENDROOT
BRANCH   1   4
ATOM      4  O   UNL     1     -46.513  32.844  27.159  1.00  0.00    -0.491 OA
BRANCH   4   5
ATOM      5  C   UNL     1     -47.178  32.253  26.120  1.00  0.00     0.121 A 
ATOM      6  C   UNL     1     -46.722  30.955  21.564  1.00  0.00     0.126 A 
ATOM      7  C   UNL     1     -48.014  30.450  21.521  1.00  0.00    -0.019 A 
ATOM      8  N   UNL     1     -46.207  31.520  22.673  1.00  0.00    -0.231 NA
ATOM      9  C   UNL     1     -48.800  30.512  22.666  1.00  0.00    -0.049 A 
ATOM     10  H   UNL     1     -48.416  30.032  20.605  1.00  0.00     0.066 H 
ATOM     11  C   UNL     1     -46.964  31.584  23.783  1.00  0.00     0.076 A 
ATOM     12  C   UNL     1     -48.278  31.085  23.830  1.00  0.00     0.001 A 
ATOM     13  H   UNL     1     -49.814  30.121  22.640  1.00  0.00     0.063 H 
ATOM     14  C   UNL     1     -46.442  32.160  24.933  1.00  0.00     0.007 A 
ATOM     15  C   UNL     1     -49.029  31.175  25.014  1.00  0.00    -0.049 A 
ATOM     16  H   UNL     1     -45.428  32.550  24.900  1.00  0.00     0.069 H 
ATOM     17  C   UNL     1     -48.478  31.757  26.157  1.00  0.00    -0.019 A 
ATOM     18  H   UNL     1     -50.047  30.793  25.051  1.00  0.00     0.063 H 
ATOM     19  H   UNL     1     -49.092  31.810  27.049  1.00  0.00     0.066 H 
BRANCH   6  20
ATOM     20  N   UNL     1     -45.882  30.943  20.450  1.00  0.00    -0.373 N 
ATOM     21  H   UNL     1     -46.025  30.015  20.050  1.00  0.00     0.161 HD
BRANCH  20  22
ATOM     22  C   UNL     1     -46.167  31.986  19.480  1.00  0.00     0.005 C 
ATOM     23  H   UNL     1     -45.375  32.069  18.729  1.00  0.00     0.045 H 
ATOM     24  H   UNL     1     -46.311  32.957  19.964  1.00  0.00     0.045 H 
ATOM     25  H   UNL     1     -47.092  31.736  18.950  1.00  0.00     0.045 H 
ENDBRANCH  20  22
ENDBRANCH   6  20
ENDBRANCH   4   5
ENDBRANCH   1   4
BRANCH   1  26
ATOM     26  C   UNL     1     -47.035  35.061  27.932  1.00  0.00     0.123 C 
ATOM     27  O   UNL     1     -46.228  35.941  28.732  1.00  0.00    -0.345 OA
ATOM     28  C   UNL     1     -48.015  35.950  27.173  1.00  0.00     0.114 C 
ATOM     29  H   UNL     1     -47.583  34.386  28.603  1.00  0.00     0.067 H 
ATOM     30  C   UNL     1     -46.968  37.185  28.905  1.00  0.00     0.164 C 
ATOM     31  C   UNL     1     -48.332  36.999  28.225  1.00  0.00     0.128 C 
ATOM     32  H   UNL     1     -47.542  36.418  26.303  1.00  0.00     0.066 H 
ATOM     33  H   UNL     1     -47.053  37.370  29.982  1.00  0.00     0.088 H 
ATOM     34  H   UNL     1     -48.766  37.908  27.801  1.00  0.00     0.068 H 
BRANCH  28  35
ATOM     35  O   UNL     1     -49.196  35.271  26.758  1.00  0.00    -0.387 OA
ATOM     36  H   UNL     1     -49.102  34.342  27.047  1.00  0.00     0.211 HD
ENDBRANCH  28  35
BRANCH  30  37
ATOM     37  N   UNL     1     -46.195  38.283  28.332  1.00  0.00    -0.303 N 
ATOM     38  C   UNL     1     -46.469  38.989  27.185  1.00  0.00     0.012 A 
ATOM     39  C   UNL     1     -45.048  38.779  28.903  1.00  0.00     0.147 A 
ATOM     40  C   UNL     1     -45.495  39.958  27.018  1.00  0.00    -0.020 A 
ATOM     41  H   UNL     1     -47.327  38.746  26.572  1.00  0.00     0.082 H 
ATOM     42  C   UNL     1     -44.580  39.820  28.112  1.00  0.00     0.064 A 
ATOM     43  N   UNL     1     -44.498  38.327  30.042  1.00  0.00    -0.218 NA
ATOM     44  C   UNL     1     -43.403  40.451  28.550  1.00  0.00     0.136 A 
ATOM     45  C   UNL     1     -43.386  39.010  30.359  1.00  0.00     0.120 A 
ATOM     46  N   UNL     1     -42.816  40.026  29.686  1.00  0.00    -0.219 NA
ATOM     47  H   UNL     1     -42.884  38.704  31.272  1.00  0.00     0.106 H 
BRANCH  40  48
ATOM     48  C   UNL     1     -45.426  40.947  25.912  1.00  0.00    -0.037 C 
ATOM     49  H   UNL     1     -46.123  41.773  26.094  1.00  0.00     0.028 H 
ATOM     50  H   UNL     1     -45.682  40.477  24.958  1.00  0.00     0.028 H 
ATOM     51  H   UNL     1     -44.420  41.369  25.819  1.00  0.00     0.028 H 
ENDBRANCH  40  48
BRANCH  44  52
ATOM     52  N   UNL     1     -42.776  41.490  27.875  1.00  0.00    -0.383 N 
ATOM     53  H   UNL     1     -42.814  42.376  28.358  1.00  0.00     0.158 HD
ATOM     54  H   UNL     1     -43.083  41.504  26.909  1.00  0.00     0.158 HD
ENDBRANCH  44  52
ENDBRANCH  30  37
BRANCH  31  55
ATOM     55  O   UNL     1     -49.299  36.459  29.145  1.00  0.00    -0.386 OA
ATOM     56  H   UNL     1     -49.983  36.050  28.576  1.00  0.00     0.211 HD
ENDBRANCH  31  55
ENDBRANCH   1  26
TORSDOF 10
ENDMDL
MODEL 3
REMARK VINA RESULT:      -9.0      2.186      9.657
REMARK SMILES CNc1ccc2ccc(OC[C@H]3O[C@@H](n4cc(C)c5c(N)ncnc54)[C@H](O)[C@@H]3O)cc2n1
REMARK SMILES IDX 11 1 10 4 9 5 3 6 4 7 32 8 5 9 31 11 6 12 30 14 7 15 8 17
REMARK SMILES IDX 2 20 1 22 12 26 13 27 28 28 14 30 26 31 29 35 15 37 16 38
REMARK SMILES IDX 25 39 17 40 19 42 24 43 20 44 23 45 22 46 18 48 21 52 27 55
REMARK H PARENT 11 2 11 3 4 10 5 13 30 16 7 18 8 19 2 21 1 23 1 24 1 25 12 29
REMARK H PARENT 28 32 14 33 26 34 29 36 16 41 23 47 18 49 18 50 18 51 21 53
REMARK H PARENT 21 54 27 56
REMARK Flexibility Score: inf
ROOT
ATOM      1  C   UNL     1     -48.859  35.359  26.750  1.00  0.00     0.117 C 
ATOM      2  H   UNL     1     -48.373  35.922  25.944  1.00  0.00     0.073 H 
ATOM      3  H   UNL     1     -49.892  35.142  26.449  1.00  0.00     0.073 H 
ENDROOT
BRANCH   1   4
ATOM      4  O   UNL     1     -48.834  36.105  27.968  1.00  0.00    -0.491 OA
BRANCH   4   5
ATOM      5  C   UNL     1     -47.706  36.832  28.231  1.00  0.00     0.121 A 
ATOM      6  C   UNL     1     -44.950  40.318  26.527  1.00  0.00     0.126 A 
ATOM      7  C   UNL     1     -44.080  40.233  27.606  1.00  0.00    -0.019 A 
ATOM      8  N   UNL     1     -46.027  39.518  26.406  1.00  0.00    -0.231 NA
ATOM      9  C   UNL     1     -44.337  39.302  28.607  1.00  0.00    -0.049 A 
ATOM     10  H   UNL     1     -43.201  40.865  27.660  1.00  0.00     0.066 H 
ATOM     11  C   UNL     1     -46.279  38.616  27.371  1.00  0.00     0.076 A 
ATOM     12  C   UNL     1     -45.456  38.471  28.503  1.00  0.00     0.001 A 
ATOM     13  H   UNL     1     -43.659  39.227  29.452  1.00  0.00     0.063 H 
ATOM     14  C   UNL     1     -47.388  37.789  27.259  1.00  0.00     0.007 A 
ATOM     15  C   UNL     1     -45.762  37.513  29.484  1.00  0.00    -0.049 A 
ATOM     16  H   UNL     1     -48.024  37.894  26.384  1.00  0.00     0.069 H 
ATOM     17  C   UNL     1     -46.886  36.696  29.347  1.00  0.00    -0.019 A 
ATOM     18  H   UNL     1     -45.125  37.397  30.358  1.00  0.00     0.063 H 
ATOM     19  H   UNL     1     -47.084  35.967  30.125  1.00  0.00     0.066 H 
BRANCH   6  20
ATOM     20  N   UNL     1     -44.747  41.215  25.478  1.00  0.00    -0.373 N 
ATOM     21  H   UNL     1     -45.683  41.355  25.096  1.00  0.00     0.161 HD
BRANCH  20  22
ATOM     22  C   UNL     1     -44.148  42.476  25.882  1.00  0.00     0.005 C 
ATOM     23  H   UNL     1     -43.057  42.450  25.802  1.00  0.00     0.045 H 
ATOM     24  H   UNL     1     -44.431  42.747  26.904  1.00  0.00     0.045 H 
ATOM     25  H   UNL     1     -44.504  43.268  25.215  1.00  0.00     0.045 H 
ENDBRANCH  20  22
ENDBRANCH   6  20
ENDBRANCH   4   5
ENDBRANCH   1   4
BRANCH   1  26
ATOM     26  C   UNL     1     -48.120  34.040  26.964  1.00  0.00     0.123 C 
ATOM     27  O   UNL     1     -48.979  32.924  26.674  1.00  0.00    -0.345 OA
ATOM     28  C   UNL     1     -46.902  33.890  26.058  1.00  0.00     0.114 C 
ATOM     29  H   UNL     1     -47.812  33.978  28.017  1.00  0.00     0.067 H 
ATOM     30  C   UNL     1     -48.159  31.880  26.073  1.00  0.00     0.164 C 
ATOM     31  C   UNL     1     -46.709  32.384  26.075  1.00  0.00     0.128 C 
ATOM     32  H   UNL     1     -47.116  34.231  25.039  1.00  0.00     0.066 H 
ATOM     33  H   UNL     1     -48.294  30.971  26.671  1.00  0.00     0.088 H 
ATOM     34  H   UNL     1     -46.093  32.024  25.247  1.00  0.00     0.068 H 
BRANCH  28  35
ATOM     35  O   UNL     1     -45.743  34.559  26.544  1.00  0.00    -0.387 OA
ATOM     36  H   UNL     1     -45.116  34.614  25.796  1.00  0.00     0.211 HD
ENDBRANCH  28  35
BRANCH  30  37
ATOM     37  N   UNL     1     -48.658  31.598  24.730  1.00  0.00    -0.303 N 
ATOM     38  C   UNL     1     -49.921  31.836  24.241  1.00  0.00     0.012 A 
ATOM     39  C   UNL     1     -47.888  31.042  23.738  1.00  0.00     0.147 A 
ATOM     40  C   UNL     1     -49.965  31.441  22.915  1.00  0.00    -0.020 A 
ATOM     41  H   UNL     1     -50.692  32.261  24.870  1.00  0.00     0.082 H 
ATOM     42  C   UNL     1     -48.667  30.924  22.594  1.00  0.00     0.064 A 
ATOM     43  N   UNL     1     -46.599  30.692  23.869  1.00  0.00    -0.218 NA
ATOM     44  C   UNL     1     -48.035  30.370  21.467  1.00  0.00     0.136 A 
ATOM     45  C   UNL     1     -46.105  30.183  22.729  1.00  0.00     0.120 A 
ATOM     46  N   UNL     1     -46.742  30.002  21.557  1.00  0.00    -0.219 NA
ATOM     47  H   UNL     1     -45.064  29.878  22.755  1.00  0.00     0.106 H 
BRANCH  40  48
ATOM     48  C   UNL     1     -51.139  31.541  22.011  1.00  0.00    -0.037 C 
ATOM     49  H   UNL     1     -51.869  30.759  22.246  1.00  0.00     0.028 H 
ATOM     50  H   UNL     1     -50.831  31.432  20.966  1.00  0.00     0.028 H 
ATOM     51  H   UNL     1     -51.637  32.510  22.113  1.00  0.00     0.028 H 
ENDBRANCH  40  48
BRANCH  44  52
ATOM     52  N   UNL     1     -48.662  30.152  20.247  1.00  0.00    -0.383 N 
ATOM     53  H   UNL     1     -48.063  30.291  19.446  1.00  0.00     0.158 HD
ATOM     54  H   UNL     1     -49.547  30.647  20.225  1.00  0.00     0.158 HD
ENDBRANCH  44  52
ENDBRANCH  30  37
BRANCH  31  55
ATOM     55  O   UNL     1     -46.036  32.014  27.294  1.00  0.00    -0.386 OA
ATOM     56  H   UNL     1     -46.733  31.609  27.850  1.00  0.00     0.211 HD
ENDBRANCH  31  55
ENDBRANCH   1  26
TORSDOF 10
ENDMDL
MODEL 4
REMARK VINA RESULT:      -8.8      3.174     10.922
REMARK SMILES CNc1ccc2ccc(OC[C@H]3O[C@@H](n4cc(C)c5c(N)ncnc54)[C@H](O)[C@@H]3O)cc2n1
REMARK SMILES IDX 11 1 10 4 9 5 3 6 4 7 32 8 5 9 31 11 6 12 30 14 7 15 8 17
REMARK SMILES IDX 2 20 1 22 12 26 13 27 28 28 14 30 26 31 29 35 15 37 16 38
REMARK SMILES IDX 25 39 17 40 19 42 24 43 20 44 23 45 22 46 18 48 21 52 27 55
REMARK H PARENT 11 2 11 3 4 10 5 13 30 16 7 18 8 19 2 21 1 23 1 24 1 25 12 29
REMARK H PARENT 28 32 14 33 26 34 29 36 16 41 23 47 18 49 18 50 18 51 21 53
REMARK H PARENT 21 54 27 56
REMARK Flexibility Score: inf
ROOT
ATOM      1  C   UNL     1     -46.095  32.653  25.576  1.00  0.00     0.117 C 
ATOM      2  H   UNL     1     -45.413  31.799  25.677  1.00  0.00     0.073 H 
ATOM      3  H   UNL     1     -45.624  33.398  24.923  1.00  0.00     0.073 H 
ENDROOT
BRANCH   1   4
ATOM      4  O   UNL     1     -46.387  33.215  26.857  1.00  0.00    -0.491 OA
BRANCH   4   5
ATOM      5  C   UNL     1     -46.465  34.578  26.936  1.00  0.00     0.121 A 
ATOM      6  C   UNL     1     -44.764  38.350  29.287  1.00  0.00     0.126 A 
ATOM      7  C   UNL     1     -45.537  39.232  28.544  1.00  0.00    -0.019 A 
ATOM      8  N   UNL     1     -44.804  37.018  29.093  1.00  0.00    -0.231 NA
ATOM      9  C   UNL     1     -46.368  38.726  27.550  1.00  0.00    -0.049 A 
ATOM     10  H   UNL     1     -45.513  40.297  28.746  1.00  0.00     0.066 H 
ATOM     11  C   UNL     1     -45.607  36.524  28.134  1.00  0.00     0.076 A 
ATOM     12  C   UNL     1     -46.414  37.347  27.327  1.00  0.00     0.001 A 
ATOM     13  H   UNL     1     -46.978  39.409  26.966  1.00  0.00     0.063 H 
ATOM     14  C   UNL     1     -45.652  35.153  27.921  1.00  0.00     0.007 A 
ATOM     15  C   UNL     1     -47.236  36.782  26.337  1.00  0.00    -0.049 A 
ATOM     16  H   UNL     1     -45.034  34.514  28.545  1.00  0.00     0.069 H 
ATOM     17  C   UNL     1     -47.260  35.400  26.143  1.00  0.00    -0.019 A 
ATOM     18  H   UNL     1     -47.863  37.416  25.714  1.00  0.00     0.063 H 
ATOM     19  H   UNL     1     -47.911  35.005  25.371  1.00  0.00     0.066 H 
BRANCH   6  20
ATOM     20  N   UNL     1     -43.921  38.783  30.312  1.00  0.00    -0.373 N 
ATOM     21  H   UNL     1     -43.443  37.932  30.606  1.00  0.00     0.161 HD
BRANCH  20  22
ATOM     22  C   UNL     1     -42.973  39.808  29.907  1.00  0.00     0.005 C 
ATOM     23  H   UNL     1     -41.945  39.530  30.157  1.00  0.00     0.045 H 
ATOM     24  H   UNL     1     -43.208  40.776  30.361  1.00  0.00     0.045 H 
ATOM     25  H   UNL     1     -43.022  39.928  28.820  1.00  0.00     0.045 H 
ENDBRANCH  20  22
ENDBRANCH   6  20
ENDBRANCH   4   5
ENDBRANCH   1   4
BRANCH   1  26
ATOM     26  C   UNL     1     -47.400  32.188  24.932  1.00  0.00     0.123 C 
ATOM     27  O   UNL     1     -47.137  31.252  23.873  1.00  0.00    -0.345 OA
ATOM     28  C   UNL     1     -48.323  31.474  25.915  1.00  0.00     0.114 C 
ATOM     29  H   UNL     1     -47.910  33.062  24.506  1.00  0.00     0.067 H 
ATOM     30  C   UNL     1     -48.210  30.266  23.879  1.00  0.00     0.164 C 
ATOM     31  C   UNL     1     -49.209  30.689  24.964  1.00  0.00     0.128 C 
ATOM     32  H   UNL     1     -47.766  30.790  26.565  1.00  0.00     0.066 H 
ATOM     33  H   UNL     1     -48.652  30.256  22.876  1.00  0.00     0.088 H 
ATOM     34  H   UNL     1     -49.735  29.866  25.456  1.00  0.00     0.068 H 
BRANCH  28  35
ATOM     35  O   UNL     1     -49.095  32.361  26.718  1.00  0.00    -0.387 OA
ATOM     36  H   UNL     1     -49.682  32.853  26.109  1.00  0.00     0.211 HD
ENDBRANCH  28  35
BRANCH  30  37
ATOM     37  N   UNL     1     -47.639  28.943  24.118  1.00  0.00    -0.303 N 
ATOM     38  C   UNL     1     -46.468  28.435  23.610  1.00  0.00     0.012 A 
ATOM     39  C   UNL     1     -48.225  28.002  24.929  1.00  0.00     0.147 A 
ATOM     40  C   UNL     1     -46.288  27.155  24.106  1.00  0.00    -0.020 A 
ATOM     41  H   UNL     1     -45.855  29.015  22.931  1.00  0.00     0.082 H 
ATOM     42  C   UNL     1     -47.416  26.873  24.944  1.00  0.00     0.064 A 
ATOM     43  N   UNL     1     -49.378  28.171  25.596  1.00  0.00    -0.218 NA
ATOM     44  C   UNL     1     -47.865  25.799  25.731  1.00  0.00     0.136 A 
ATOM     45  C   UNL     1     -49.698  27.083  26.315  1.00  0.00     0.120 A 
ATOM     46  N   UNL     1     -49.019  25.925  26.414  1.00  0.00    -0.219 NA
ATOM     47  H   UNL     1     -50.619  27.143  26.886  1.00  0.00     0.106 H 
BRANCH  40  48
ATOM     48  C   UNL     1     -45.139  26.258  23.817  1.00  0.00    -0.037 C 
ATOM     49  H   UNL     1     -45.113  25.430  24.533  1.00  0.00     0.028 H 
ATOM     50  H   UNL     1     -44.196  26.808  23.882  1.00  0.00     0.028 H 
ATOM     51  H   UNL     1     -45.211  25.834  22.811  1.00  0.00     0.028 H 
ENDBRANCH  40  48
BRANCH  44  52
ATOM     52  N   UNL     1     -47.202  24.583  25.845  1.00  0.00    -0.383 N 
ATOM     53  H   UNL     1     -47.739  23.864  26.309  1.00  0.00     0.158 HD
ATOM     54  H   UNL     1     -46.268  24.736  26.208  1.00  0.00     0.158 HD
ENDBRANCH  44  52
ENDBRANCH  30  37
BRANCH  31  55
ATOM     55  O   UNL     1     -50.214  31.570  24.427  1.00  0.00    -0.386 OA
ATOM     56  H   UNL     1     -51.046  31.296  24.865  1.00  0.00     0.211 HD
ENDBRANCH  31  55
ENDBRANCH   1  26
TORSDOF 10
ENDMDL
MODEL 5
REMARK VINA RESULT:      -8.7      2.285      3.222
REMARK SMILES CNc1ccc2ccc(OC[C@H]3O[C@@H](n4cc(C)c5c(N)ncnc54)[C@H](O)[C@@H]3O)cc2n1
REMARK SMILES IDX 11 1 10 4 9 5 3 6 4 7 32 8 5 9 31 11 6 12 30 14 7 15 8 17
REMARK SMILES IDX 2 20 1 22 12 26 13 27 28 28 14 30 26 31 29 35 15 37 16 38
REMARK SMILES IDX 25 39 17 40 19 42 24 43 20 44 23 45 22 46 18 48 21 52 27 55
REMARK H PARENT 11 2 11 3 4 10 5 13 30 16 7 18 8 19 2 21 1 23 1 24 1 25 12 29
REMARK H PARENT 28 32 14 33 26 34 29 36 16 41 23 47 18 49 18 50 18 51 21 53
REMARK H PARENT 21 54 27 56
REMARK Flexibility Score: inf
ROOT
ATOM      1  C   UNL     1     -46.162  34.402  27.093  1.00  0.00     0.117 C 
ATOM      2  H   UNL     1     -46.261  34.684  26.037  1.00  0.00     0.073 H 
ATOM      3  H   UNL     1     -45.133  34.611  27.412  1.00  0.00     0.073 H 
ENDROOT
BRANCH   1   4
ATOM      4  O   UNL     1     -46.477  33.021  27.274  1.00  0.00    -0.491 OA
BRANCH   4   5
ATOM      5  C   UNL     1     -47.122  32.388  26.247  1.00  0.00     0.121 A 
ATOM      6  C   UNL     1     -46.630  31.039  21.710  1.00  0.00     0.126 A 
ATOM      7  C   UNL     1     -47.902  30.484  21.679  1.00  0.00    -0.019 A 
ATOM      8  N   UNL     1     -46.134  31.641  22.808  1.00  0.00    -0.231 NA
ATOM      9  C   UNL     1     -48.686  30.533  22.826  1.00  0.00    -0.049 A 
ATOM     10  H   UNL     1     -48.290  30.037  20.771  1.00  0.00     0.066 H 
ATOM     11  C   UNL     1     -46.889  31.692  23.920  1.00  0.00     0.076 A 
ATOM     12  C   UNL     1     -48.183  31.144  23.979  1.00  0.00     0.001 A 
ATOM     13  H   UNL     1     -49.684  30.104  22.809  1.00  0.00     0.063 H 
ATOM     14  C   UNL     1     -46.386  32.306  25.059  1.00  0.00     0.007 A 
ATOM     15  C   UNL     1     -48.933  31.222  25.165  1.00  0.00    -0.049 A 
ATOM     16  H   UNL     1     -45.389  32.734  25.016  1.00  0.00     0.069 H 
ATOM     17  C   UNL     1     -48.402  31.844  26.296  1.00  0.00    -0.019 A 
ATOM     18  H   UNL     1     -49.935  30.803  25.211  1.00  0.00     0.063 H 
ATOM     19  H   UNL     1     -49.015  31.886  27.190  1.00  0.00     0.066 H 
BRANCH   6  20
ATOM     20  N   UNL     1     -45.793  31.042  20.593  1.00  0.00    -0.373 N 
ATOM     21  H   UNL     1     -45.816  30.074  20.272  1.00  0.00     0.161 HD
BRANCH  20  22
ATOM     22  C   UNL     1     -46.209  31.957  19.543  1.00  0.00     0.005 C 
ATOM     23  H   UNL     1     -46.699  32.846  19.951  1.00  0.00     0.045 H 
ATOM     24  H   UNL     1     -46.878  31.470  18.827  1.00  0.00     0.045 H 
ATOM     25  H   UNL     1     -45.323  32.296  18.996  1.00  0.00     0.045 H 
ENDBRANCH  20  22
ENDBRANCH   6  20
ENDBRANCH   4   5
ENDBRANCH   1   4
BRANCH   1  26
ATOM     26  C   UNL     1     -47.120  35.243  27.935  1.00  0.00     0.123 C 
ATOM     27  O   UNL     1     -46.407  36.278  28.632  1.00  0.00    -0.345 OA
ATOM     28  C   UNL     1     -48.185  35.944  27.097  1.00  0.00     0.114 C 
ATOM     29  H   UNL     1     -47.598  34.589  28.677  1.00  0.00     0.067 H 
ATOM     30  C   UNL     1     -47.270  37.451  28.682  1.00  0.00     0.164 C 
ATOM     31  C   UNL     1     -48.607  37.059  28.038  1.00  0.00     0.128 C 
ATOM     32  H   UNL     1     -47.760  36.365  26.179  1.00  0.00     0.066 H 
ATOM     33  H   UNL     1     -47.374  37.738  29.735  1.00  0.00     0.088 H 
ATOM     34  H   UNL     1     -49.130  37.871  27.526  1.00  0.00     0.068 H 
BRANCH  28  35
ATOM     35  O   UNL     1     -49.290  35.110  26.766  1.00  0.00    -0.387 OA
ATOM     36  H   UNL     1     -49.886  35.645  26.204  1.00  0.00     0.211 HD
ENDBRANCH  28  35
BRANCH  30  37
ATOM     37  N   UNL     1     -46.611  38.557  27.992  1.00  0.00    -0.303 N 
ATOM     38  C   UNL     1     -45.279  38.666  27.672  1.00  0.00     0.012 A 
ATOM     39  C   UNL     1     -47.275  39.673  27.546  1.00  0.00     0.147 A 
ATOM     40  C   UNL     1     -45.081  39.861  27.001  1.00  0.00    -0.020 A 
ATOM     41  H   UNL     1     -44.573  37.893  27.948  1.00  0.00     0.082 H 
ATOM     42  C   UNL     1     -46.356  40.511  26.928  1.00  0.00     0.064 A 
ATOM     43  N   UNL     1     -48.593  39.892  27.683  1.00  0.00    -0.218 NA
ATOM     44  C   UNL     1     -46.865  41.713  26.406  1.00  0.00     0.136 A 
ATOM     45  C   UNL     1     -48.959  41.065  27.142  1.00  0.00     0.120 A 
ATOM     46  N   UNL     1     -48.181  41.973  26.525  1.00  0.00    -0.219 NA
ATOM     47  H   UNL     1     -50.014  41.312  27.211  1.00  0.00     0.106 H 
BRANCH  40  48
ATOM     48  C   UNL     1     -43.788  40.359  26.465  1.00  0.00    -0.037 C 
ATOM     49  H   UNL     1     -43.658  41.419  26.708  1.00  0.00     0.028 H 
ATOM     50  H   UNL     1     -43.750  40.241  25.378  1.00  0.00     0.028 H 
ATOM     51  H   UNL     1     -42.943  39.809  26.892  1.00  0.00     0.028 H 
ENDBRANCH  40  48
BRANCH  44  52
ATOM     52  N   UNL     1     -46.091  42.682  25.779  1.00  0.00    -0.383 N 
ATOM     53  H   UNL     1     -45.278  42.315  25.306  1.00  0.00     0.158 HD
ATOM     54  H   UNL     1     -45.918  43.448  26.420  1.00  0.00     0.158 HD
ENDBRANCH  44  52
ENDBRANCH  30  37
BRANCH  31  55
ATOM     55  O   UNL     1     -49.515  36.523  29.018  1.00  0.00    -0.386 OA
ATOM     56  H   UNL     1     -50.387  36.513  28.571  1.00  0.00     0.211 HD
ENDBRANCH  31  55
ENDBRANCH   1  26
TORSDOF 10
ENDMDL
MODEL 6
REMARK VINA RESULT:      -8.6      2.051      2.928
REMARK SMILES CNc1ccc2ccc(OC[C@H]3O[C@@H](n4cc(C)c5c(N)ncnc54)[C@H](O)[C@@H]3O)cc2n1
REMARK SMILES IDX 11 1 10 4 9 5 3 6 4 7 32 8 5 9 31 11 6 12 30 14 7 15 8 17
REMARK SMILES IDX 2 20 1 22 12 26 13 27 28 28 14 30 26 31 29 35 15 37 16 38
REMARK SMILES IDX 25 39 17 40 19 42 24 43 20 44 23 45 22 46 18 48 21 52 27 55
REMARK H PARENT 11 2 11 3 4 10 5 13 30 16 7 18 8 19 2 21 1 23 1 24 1 25 12 29
REMARK H PARENT 28 32 14 33 26 34 29 36 16 41 23 47 18 49 18 50 18 51 21 53
REMARK H PARENT 21 54 27 56
REMARK Flexibility Score: inf
ROOT
ATOM      1  C   UNL     1     -46.260  34.151  26.672  1.00  0.00     0.117 C 
ATOM      2  H   UNL     1     -45.364  34.720  26.398  1.00  0.00     0.073 H 
ATOM      3  H   UNL     1     -45.944  33.189  27.096  1.00  0.00     0.073 H 
ENDROOT
BRANCH   1   4
ATOM      4  O   UNL     1     -47.096  33.950  25.531  1.00  0.00    -0.491 OA
BRANCH   4   5
ATOM      5  C   UNL     1     -47.040  32.725  24.925  1.00  0.00     0.121 A 
ATOM      6  C   UNL     1     -49.095  28.433  24.837  1.00  0.00     0.126 A 
ATOM      7  C   UNL     1     -48.228  27.977  23.854  1.00  0.00    -0.019 A 
ATOM      8  N   UNL     1     -49.018  29.679  25.343  1.00  0.00    -0.231 NA
ATOM      9  C   UNL     1     -47.256  28.840  23.359  1.00  0.00    -0.049 A 
ATOM     10  H   UNL     1     -48.289  26.958  23.490  1.00  0.00     0.066 H 
ATOM     11  C   UNL     1     -48.079  30.517  24.869  1.00  0.00     0.076 A 
ATOM     12  C   UNL     1     -47.168  30.140  23.865  1.00  0.00     0.001 A 
ATOM     13  H   UNL     1     -46.571  28.489  22.592  1.00  0.00     0.063 H 
ATOM     14  C   UNL     1     -47.993  31.805  25.379  1.00  0.00     0.007 A 
ATOM     15  C   UNL     1     -46.205  31.053  23.402  1.00  0.00    -0.049 A 
ATOM     16  H   UNL     1     -48.692  32.099  26.158  1.00  0.00     0.069 H 
ATOM     17  C   UNL     1     -46.143  32.343  23.932  1.00  0.00    -0.019 A 
ATOM     18  H   UNL     1     -45.498  30.762  22.629  1.00  0.00     0.063 H 
ATOM     19  H   UNL     1     -45.382  33.015  23.550  1.00  0.00     0.066 H 
BRANCH   6  20
ATOM     20  N   UNL     1     -50.083  27.619  25.392  1.00  0.00    -0.373 N 
ATOM     21  H   UNL     1     -50.628  27.316  24.585  1.00  0.00     0.161 HD
BRANCH  20  22
ATOM     22  C   UNL     1     -49.567  26.484  26.137  1.00  0.00     0.005 C 
ATOM     23  H   UNL     1     -49.117  25.736  25.477  1.00  0.00     0.045 H 
ATOM     24  H   UNL     1     -50.347  26.010  26.742  1.00  0.00     0.045 H 
ATOM     25  H   UNL     1     -48.782  26.832  26.817  1.00  0.00     0.045 H 
ENDBRANCH  20  22
ENDBRANCH   6  20
ENDBRANCH   4   5
ENDBRANCH   1   4
BRANCH   1  26
ATOM     26  C   UNL     1     -47.047  34.921  27.731  1.00  0.00     0.123 C 
ATOM     27  O   UNL     1     -46.166  35.730  28.528  1.00  0.00    -0.345 OA
ATOM     28  C   UNL     1     -48.075  35.874  27.127  1.00  0.00     0.114 C 
ATOM     29  H   UNL     1     -47.548  34.199  28.389  1.00  0.00     0.067 H 
ATOM     30  C   UNL     1     -46.874  36.960  28.858  1.00  0.00     0.164 C 
ATOM     31  C   UNL     1     -48.291  36.838  28.281  1.00  0.00     0.128 C 
ATOM     32  H   UNL     1     -47.668  36.406  26.261  1.00  0.00     0.066 H 
ATOM     33  H   UNL     1     -46.868  37.060  29.950  1.00  0.00     0.088 H 
ATOM     34  H   UNL     1     -48.746  37.781  27.966  1.00  0.00     0.068 H 
BRANCH  28  35
ATOM     35  O   UNL     1     -49.294  35.238  26.759  1.00  0.00    -0.387 OA
ATOM     36  H   UNL     1     -49.768  35.859  26.171  1.00  0.00     0.211 HD
ENDBRANCH  28  35
BRANCH  30  37
ATOM     37  N   UNL     1     -46.135  38.096  28.312  1.00  0.00    -0.303 N 
ATOM     38  C   UNL     1     -46.408  38.792  27.159  1.00  0.00     0.012 A 
ATOM     39  C   UNL     1     -45.031  38.642  28.919  1.00  0.00     0.147 A 
ATOM     40  C   UNL     1     -45.476  39.807  27.024  1.00  0.00    -0.020 A 
ATOM     41  H   UNL     1     -47.235  38.513  26.520  1.00  0.00     0.082 H 
ATOM     42  C   UNL     1     -44.588  39.707  28.145  1.00  0.00     0.064 A 
ATOM     43  N   UNL     1     -44.494  38.212  30.072  1.00  0.00    -0.218 NA
ATOM     44  C   UNL     1     -43.455  40.390  28.619  1.00  0.00     0.136 A 
ATOM     45  C   UNL     1     -43.425  38.944  30.424  1.00  0.00     0.120 A 
ATOM     46  N   UNL     1     -42.884  39.988  29.771  1.00  0.00    -0.219 NA
ATOM     47  H   UNL     1     -42.936  38.658  31.350  1.00  0.00     0.106 H 
BRANCH  40  48
ATOM     48  C   UNL     1     -45.420  40.802  25.923  1.00  0.00    -0.037 C 
ATOM     49  H   UNL     1     -45.020  40.343  25.013  1.00  0.00     0.028 H 
ATOM     50  H   UNL     1     -44.782  41.647  26.199  1.00  0.00     0.028 H 
ATOM     51  H   UNL     1     -46.415  41.196  25.693  1.00  0.00     0.028 H 
ENDBRANCH  40  48
BRANCH  44  52
ATOM     52  N   UNL     1     -42.857  41.460  27.965  1.00  0.00    -0.383 N 
ATOM     53  H   UNL     1     -42.040  41.823  28.434  1.00  0.00     0.158 HD
ATOM     54  H   UNL     1     -43.562  42.146  27.718  1.00  0.00     0.158 HD
ENDBRANCH  44  52
ENDBRANCH  30  37
BRANCH  31  55
ATOM     55  O   UNL     1     -49.186  36.233  29.233  1.00  0.00    -0.386 OA
ATOM     56  H   UNL     1     -49.149  35.275  29.035  1.00  0.00     0.211 HD
ENDBRANCH  31  55
ENDBRANCH   1  26
TORSDOF 10
ENDMDL
MODEL 7
REMARK VINA RESULT:      -8.6      2.362     10.540
REMARK SMILES CNc1ccc2ccc(OC[C@H]3O[C@@H](n4cc(C)c5c(N)ncnc54)[C@H](O)[C@@H]3O)cc2n1
REMARK SMILES IDX 11 1 10 4 9 5 3 6 4 7 32 8 5 9 31 11 6 12 30 14 7 15 8 17
REMARK SMILES IDX 2 20 1 22 12 26 13 27 28 28 14 30 26 31 29 35 15 37 16 38
REMARK SMILES IDX 25 39 17 40 19 42 24 43 20 44 23 45 22 46 18 48 21 52 27 55
REMARK H PARENT 11 2 11 3 4 10 5 13 30 16 7 18 8 19 2 21 1 23 1 24 1 25 12 29
REMARK H PARENT 28 32 14 33 26 34 29 36 16 41 23 47 18 49 18 50 18 51 21 53
REMARK H PARENT 21 54 27 56
REMARK Flexibility Score: inf
ROOT
ATOM      1  C   UNL     1     -46.248  32.968  25.981  1.00  0.00     0.117 C 
ATOM      2  H   UNL     1     -45.742  32.025  26.222  1.00  0.00     0.073 H 
ATOM      3  H   UNL     1     -45.571  33.580  25.372  1.00  0.00     0.073 H 
ENDROOT
BRANCH   1   4
ATOM      4  O   UNL     1     -46.617  33.659  27.176  1.00  0.00    -0.491 OA
BRANCH   4   5
ATOM      5  C   UNL     1     -46.549  35.025  27.152  1.00  0.00     0.121 A 
ATOM      6  C   UNL     1     -44.448  38.759  29.224  1.00  0.00     0.126 A 
ATOM      7  C   UNL     1     -45.123  39.660  28.412  1.00  0.00    -0.019 A 
ATOM      8  N   UNL     1     -44.630  37.428  29.130  1.00  0.00    -0.231 NA
ATOM      9  C   UNL     1     -46.006  39.173  27.455  1.00  0.00    -0.049 A 
ATOM     10  H   UNL     1     -44.984  40.728  28.534  1.00  0.00     0.066 H 
ATOM     11  C   UNL     1     -45.484  36.952  28.206  1.00  0.00     0.076 A 
ATOM     12  C   UNL     1     -46.200  37.794  27.335  1.00  0.00     0.001 A 
ATOM     13  H   UNL     1     -46.541  39.872  26.818  1.00  0.00     0.063 H 
ATOM     14  C   UNL     1     -45.677  35.582  28.096  1.00  0.00     0.007 A 
ATOM     15  C   UNL     1     -47.080  37.248  26.385  1.00  0.00    -0.049 A 
ATOM     16  H   UNL     1     -45.129  34.928  28.769  1.00  0.00     0.069 H 
ATOM     17  C   UNL     1     -47.253  35.865  26.295  1.00  0.00    -0.019 A 
ATOM     18  H   UNL     1     -47.638  37.897  25.714  1.00  0.00     0.063 H 
ATOM     19  H   UNL     1     -47.944  35.485  25.552  1.00  0.00     0.066 H 
BRANCH   6  20
ATOM     20  N   UNL     1     -43.560  39.175  30.218  1.00  0.00    -0.373 N 
ATOM     21  H   UNL     1     -43.076  38.317  30.483  1.00  0.00     0.161 HD
BRANCH  20  22
ATOM     22  C   UNL     1     -42.623  40.198  29.786  1.00  0.00     0.005 C 
ATOM     23  H   UNL     1     -41.778  40.290  30.476  1.00  0.00     0.045 H 
ATOM     24  H   UNL     1     -43.112  41.172  29.679  1.00  0.00     0.045 H 
ATOM     25  H   UNL     1     -42.217  39.918  28.809  1.00  0.00     0.045 H 
ENDBRANCH  20  22
ENDBRANCH   6  20
ENDBRANCH   4   5
ENDBRANCH   1   4
BRANCH   1  26
ATOM     26  C   UNL     1     -47.509  32.674  25.171  1.00  0.00     0.123 C 
ATOM     27  O   UNL     1     -47.220  31.767  24.094  1.00  0.00    -0.345 OA
ATOM     28  C   UNL     1     -48.607  32.016  26.002  1.00  0.00     0.114 C 
ATOM     29  H   UNL     1     -47.877  33.616  24.743  1.00  0.00     0.067 H 
ATOM     30  C   UNL     1     -48.379  30.900  23.924  1.00  0.00     0.164 C 
ATOM     31  C   UNL     1     -49.451  31.375  24.915  1.00  0.00     0.128 C 
ATOM     32  H   UNL     1     -48.200  31.248  26.668  1.00  0.00     0.066 H 
ATOM     33  H   UNL     1     -48.701  30.983  22.879  1.00  0.00     0.088 H 
ATOM     34  H   UNL     1     -50.109  30.590  25.297  1.00  0.00     0.068 H 
BRANCH  28  35
ATOM     35  O   UNL     1     -49.375  32.941  26.766  1.00  0.00    -0.387 OA
ATOM     36  H   UNL     1     -48.941  33.812  26.670  1.00  0.00     0.211 HD
ENDBRANCH  28  35
BRANCH  30  37
ATOM     37  N   UNL     1     -47.975  29.515  24.147  1.00  0.00    -0.303 N 
ATOM     38  C   UNL     1     -48.644  28.555  24.869  1.00  0.00     0.012 A 
ATOM     39  C   UNL     1     -46.826  28.969  23.629  1.00  0.00     0.147 A 
ATOM     40  C   UNL     1     -47.926  27.373  24.807  1.00  0.00    -0.020 A 
ATOM     41  H   UNL     1     -49.573  28.783  25.375  1.00  0.00     0.082 H 
ATOM     42  C   UNL     1     -46.757  27.639  24.021  1.00  0.00     0.064 A 
ATOM     43  N   UNL     1     -45.939  29.626  22.863  1.00  0.00    -0.218 NA
ATOM     44  C   UNL     1     -45.635  26.918  23.576  1.00  0.00     0.136 A 
ATOM     45  C   UNL     1     -44.919  28.834  22.497  1.00  0.00     0.120 A 
ATOM     46  N   UNL     1     -44.720  27.540  22.809  1.00  0.00    -0.219 NA
ATOM     47  H   UNL     1     -44.160  29.294  21.872  1.00  0.00     0.106 H 
BRANCH  40  48
ATOM     48  C   UNL     1     -48.307  26.084  25.439  1.00  0.00    -0.037 C 
ATOM     49  H   UNL     1     -48.390  26.201  26.525  1.00  0.00     0.028 H 
ATOM     50  H   UNL     1     -47.559  25.314  25.226  1.00  0.00     0.028 H 
ATOM     51  H   UNL     1     -49.271  25.728  25.063  1.00  0.00     0.028 H 
ENDBRANCH  40  48
BRANCH  44  52
ATOM     52  N   UNL     1     -45.386  25.588  23.892  1.00  0.00    -0.383 N 
ATOM     53  H   UNL     1     -44.602  25.189  23.396  1.00  0.00     0.158 HD
ATOM     54  H   UNL     1     -46.249  25.059  23.847  1.00  0.00     0.158 HD
ENDBRANCH  44  52
ENDBRANCH  30  37
BRANCH  31  55
ATOM     55  O   UNL     1     -50.293  32.381  24.323  1.00  0.00    -0.386 OA
ATOM     56  H   UNL     1     -50.441  32.073  23.405  1.00  0.00     0.211 HD
ENDBRANCH  31  55
ENDBRANCH   1  26
TORSDOF 10
ENDMDL
