MODEL 1
REMARK VINA RESULT:      -9.7      0.000      0.000
REMARK SMILES CNc1ccc2ccc(OCc3cc(CO)cc(-c4c[nH]c5c(N)ncnc45)c3)cc2n1
REMARK SMILES IDX 11 1 10 4 9 5 3 6 4 7 32 8 5 9 31 11 6 12 30 14 7 15 8 17
REMARK SMILES IDX 2 20 1 22 12 26 13 27 29 28 14 29 18 31 17 33 15 35 16 38
REMARK SMILES IDX 19 40 20 41 28 42 21 43 22 45 27 46 23 48 26 49 25 50 24 52
REMARK H PARENT 11 2 11 3 4 10 5 13 30 16 7 18 8 19 2 21 1 23 1 24 1 25 13 30
REMARK H PARENT 29 32 17 34 15 36 15 37 16 39 20 44 21 47 26 51 24 53 24 54
REMARK Flexibility Score: inf
ROOT
ATOM      1  C   UNL     1     -46.088  34.103  26.916  1.00  0.00     0.113 C 
ATOM      2  H   UNL     1     -45.135  33.928  27.432  1.00  0.00     0.076 H 
ATOM      3  H   UNL     1     -45.869  34.050  25.842  1.00  0.00     0.076 H 
ENDROOT
BRANCH   1   4
ATOM      4  O   UNL     1     -47.014  33.048  27.188  1.00  0.00    -0.489 OA
BRANCH   4   5
ATOM      5  C   UNL     1     -47.513  32.332  26.134  1.00  0.00     0.122 A 
ATOM      6  C   UNL     1     -46.569  31.002  21.655  1.00  0.00     0.126 A 
ATOM      7  C   UNL     1     -47.781  30.329  21.552  1.00  0.00    -0.019 A 
ATOM      8  N   UNL     1     -46.219  31.658  22.780  1.00  0.00    -0.231 NA
ATOM      9  C   UNL     1     -48.647  30.311  22.641  1.00  0.00    -0.049 A 
ATOM     10  H   UNL     1     -48.058  29.833  20.629  1.00  0.00     0.066 H 
ATOM     11  C   UNL     1     -47.053  31.647  23.837  1.00  0.00     0.076 A 
ATOM     12  C   UNL     1     -48.289  30.976  23.815  1.00  0.00     0.001 A 
ATOM     13  H   UNL     1     -49.595  29.788  22.561  1.00  0.00     0.063 H 
ATOM     14  C   UNL     1     -46.694  32.315  25.000  1.00  0.00     0.007 A 
ATOM     15  C   UNL     1     -49.125  30.994  24.943  1.00  0.00    -0.049 A 
ATOM     16  H   UNL     1     -45.742  32.841  25.023  1.00  0.00     0.069 H 
ATOM     17  C   UNL     1     -48.738  31.672  26.100  1.00  0.00    -0.019 A 
ATOM     18  H   UNL     1     -50.088  30.488  24.925  1.00  0.00     0.063 H 
ATOM     19  H   UNL     1     -49.422  31.680  26.941  1.00  0.00     0.066 H 
BRANCH   6  20
ATOM     20  N   UNL     1     -45.729  31.019  20.525  1.00  0.00    -0.373 N 
ATOM     21  H   UNL     1     -44.780  31.219  20.827  1.00  0.00     0.161 HD
BRANCH  20  22
ATOM     22  C   UNL     1     -46.165  31.926  19.475  1.00  0.00     0.005 C 
ATOM     23  H   UNL     1     -47.238  32.138  19.545  1.00  0.00     0.045 H 
ATOM     24  H   UNL     1     -45.929  31.534  18.480  1.00  0.00     0.045 H 
ATOM     25  H   UNL     1     -45.633  32.877  19.585  1.00  0.00     0.045 H 
ENDBRANCH  20  22
ENDBRANCH   6  20
ENDBRANCH   4   5
ENDBRANCH   1   4
BRANCH   1  26
ATOM     26  C   UNL     1     -46.635  35.487  27.195  1.00  0.00    -0.010 A 
ATOM     27  C   UNL     1     -47.997  35.639  27.495  1.00  0.00    -0.050 A 
ATOM     28  C   UNL     1     -45.807  36.620  27.209  1.00  0.00    -0.048 A 
ATOM     29  C   UNL     1     -48.539  36.896  27.788  1.00  0.00    -0.022 A 
ATOM     30  H   UNL     1     -48.648  34.765  27.501  1.00  0.00     0.063 H 
ATOM     31  C   UNL     1     -46.322  37.894  27.489  1.00  0.00    -0.014 A 
ATOM     32  H   UNL     1     -44.752  36.501  26.976  1.00  0.00     0.063 H 
ATOM     33  C   UNL     1     -47.690  38.015  27.770  1.00  0.00    -0.049 A 
ATOM     34  H   UNL     1     -48.109  38.997  27.988  1.00  0.00     0.063 H 
BRANCH  29  35
ATOM     35  C   UNL     1     -50.006  37.093  28.071  1.00  0.00     0.068 C 
ATOM     36  H   UNL     1     -50.331  36.369  28.826  1.00  0.00     0.062 H 
ATOM     37  H   UNL     1     -50.587  36.947  27.154  1.00  0.00     0.062 H 
BRANCH  35  38
ATOM     38  O   UNL     1     -50.278  38.402  28.555  1.00  0.00    -0.392 OA
ATOM     39  H   UNL     1     -51.241  38.455  28.672  1.00  0.00     0.211 HD
ENDBRANCH  35  38
ENDBRANCH  29  35
BRANCH  31  40
ATOM     40  C   UNL     1     -45.463  39.075  27.483  1.00  0.00     0.026 A 
ATOM     41  C   UNL     1     -45.523  40.059  26.510  1.00  0.00     0.011 A 
ATOM     42  C   UNL     1     -44.431  39.471  28.391  1.00  0.00     0.101 A 
ATOM     43  N   UNL     1     -44.592  41.021  26.807  1.00  0.00    -0.356 N 
ATOM     44  H   UNL     1     -46.150  40.165  25.634  1.00  0.00     0.082 H 
ATOM     45  C   UNL     1     -43.901  40.671  27.939  1.00  0.00     0.108 A 
ATOM     46  N   UNL     1     -43.980  38.866  29.516  1.00  0.00    -0.234 NA
ATOM     47  H   UNL     1     -44.443  41.874  26.286  1.00  0.00     0.166 HD
ATOM     48  C   UNL     1     -42.875  41.292  28.631  1.00  0.00     0.151 A 
ATOM     49  C   UNL     1     -43.002  39.547  30.129  1.00  0.00     0.118 A 
ATOM     50  N   UNL     1     -42.430  40.706  29.751  1.00  0.00    -0.218 NA
ATOM     51  H   UNL     1     -42.621  39.109  31.046  1.00  0.00     0.106 H 
BRANCH  48  52
ATOM     52  N   UNL     1     -42.274  42.474  28.225  1.00  0.00    -0.382 N 
ATOM     53  H   UNL     1     -41.604  42.762  28.933  1.00  0.00     0.158 HD
ATOM     54  H   UNL     1     -41.905  42.452  27.286  1.00  0.00     0.158 HD
ENDBRANCH  48  52
ENDBRANCH  31  40
ENDBRANCH   1  26
TORSDOF 9
ENDMDL
MODEL 2
REMARK VINA RESULT:      -9.7      3.374      5.846
REMARK SMILES CNc1ccc2ccc(OCc3cc(CO)cc(-c4c[nH]c5c(N)ncnc45)c3)cc2n1
REMARK SMILES IDX 11 1 10 4 9 5 3 6 4 7 32 8 5 9 31 11 6 12 30 14 7 15 8 17
REMARK SMILES IDX 2 20 1 22 12 26 13 27 29 28 14 29 18 31 17 33 15 35 16 38
REMARK SMILES IDX 19 40 20 41 28 42 21 43 22 45 27 46 23 48 26 49 25 50 24 52
REMARK H PARENT 11 2 11 3 4 10 5 13 30 16 7 18 8 19 2 21 1 23 1 24 1 25 13 30
REMARK H PARENT 29 32 17 34 15 36 15 37 16 39 20 44 21 47 26 51 24 53 24 54
REMARK Flexibility Score: inf
ROOT
ATOM      1  C   UNL     1     -45.480  38.502  28.298  1.00  0.00     0.113 C 
ATOM      2  H   UNL     1     -45.489  38.302  29.377  1.00  0.00     0.076 H 
ATOM      3  H   UNL     1     -44.986  37.642  27.830  1.00  0.00     0.076 H 
ENDROOT
BRANCH   1   4
ATOM      4  O   UNL     1     -46.812  38.532  27.776  1.00  0.00    -0.489 OA
BRANCH   4   5
ATOM      5  C   UNL     1     -47.415  37.345  27.464  1.00  0.00     0.122 A 
ATOM      6  C   UNL     1     -46.609  33.068  25.516  1.00  0.00     0.126 A 
ATOM      7  C   UNL     1     -47.936  32.691  25.688  1.00  0.00    -0.019 A 
ATOM      8  N   UNL     1     -46.168  34.287  25.891  1.00  0.00    -0.231 NA
ATOM      9  C   UNL     1     -48.827  33.579  26.281  1.00  0.00    -0.049 A 
ATOM     10  H   UNL     1     -48.278  31.718  25.353  1.00  0.00     0.066 H 
ATOM     11  C   UNL     1     -47.025  35.153  26.463  1.00  0.00     0.076 A 
ATOM     12  C   UNL     1     -48.379  34.838  26.683  1.00  0.00     0.001 A 
ATOM     13  H   UNL     1     -49.864  33.286  26.414  1.00  0.00     0.063 H 
ATOM     14  C   UNL     1     -46.574  36.405  26.856  1.00  0.00     0.007 A 
ATOM     15  C   UNL     1     -49.235  35.776  27.283  1.00  0.00    -0.049 A 
ATOM     16  H   UNL     1     -45.530  36.658  26.683  1.00  0.00     0.069 H 
ATOM     17  C   UNL     1     -48.753  37.027  27.671  1.00  0.00    -0.019 A 
ATOM     18  H   UNL     1     -50.285  35.541  27.444  1.00  0.00     0.063 H 
ATOM     19  H   UNL     1     -49.452  37.730  28.110  1.00  0.00     0.066 H 
BRANCH   6  20
ATOM     20  N   UNL     1     -45.740  32.153  24.891  1.00  0.00    -0.373 N 
ATOM     21  H   UNL     1     -44.942  32.661  24.522  1.00  0.00     0.161 HD
BRANCH  20  22
ATOM     22  C   UNL     1     -46.377  31.332  23.874  1.00  0.00     0.005 C 
ATOM     23  H   UNL     1     -45.734  30.499  23.567  1.00  0.00     0.045 H 
ATOM     24  H   UNL     1     -46.660  31.924  22.997  1.00  0.00     0.045 H 
ATOM     25  H   UNL     1     -47.296  30.904  24.288  1.00  0.00     0.045 H 
ENDBRANCH  20  22
ENDBRANCH   6  20
ENDBRANCH   4   5
ENDBRANCH   1   4
BRANCH   1  26
ATOM     26  C   UNL     1     -44.661  39.729  27.959  1.00  0.00    -0.010 A 
ATOM     27  C   UNL     1     -43.564  40.067  28.765  1.00  0.00    -0.050 A 
ATOM     28  C   UNL     1     -44.939  40.514  26.829  1.00  0.00    -0.048 A 
ATOM     29  C   UNL     1     -42.762  41.176  28.470  1.00  0.00    -0.022 A 
ATOM     30  H   UNL     1     -43.329  39.458  29.637  1.00  0.00     0.063 H 
ATOM     31  C   UNL     1     -44.160  41.637  26.513  1.00  0.00    -0.014 A 
ATOM     32  H   UNL     1     -45.790  40.251  26.205  1.00  0.00     0.063 H 
ATOM     33  C   UNL     1     -43.080  41.957  27.347  1.00  0.00    -0.049 A 
ATOM     34  H   UNL     1     -42.464  42.826  27.119  1.00  0.00     0.063 H 
BRANCH  29  35
ATOM     35  C   UNL     1     -41.604  41.585  29.344  1.00  0.00     0.068 C 
ATOM     36  H   UNL     1     -41.600  42.675  29.456  1.00  0.00     0.062 H 
ATOM     37  H   UNL     1     -40.660  41.262  28.891  1.00  0.00     0.062 H 
BRANCH  35  38
ATOM     38  O   UNL     1     -41.688  41.000  30.637  1.00  0.00    -0.392 OA
ATOM     39  H   UNL     1     -42.003  40.090  30.505  1.00  0.00     0.211 HD
ENDBRANCH  35  38
ENDBRANCH  29  35
BRANCH  31  40
ATOM     40  C   UNL     1     -44.465  42.465  25.349  1.00  0.00     0.026 A 
ATOM     41  C   UNL     1     -43.722  42.443  24.180  1.00  0.00     0.011 A 
ATOM     42  C   UNL     1     -45.506  43.424  25.145  1.00  0.00     0.101 A 
ATOM     43  N   UNL     1     -44.281  43.328  23.294  1.00  0.00    -0.356 N 
ATOM     44  H   UNL     1     -42.846  41.873  23.896  1.00  0.00     0.082 H 
ATOM     45  C   UNL     1     -45.357  43.952  23.870  1.00  0.00     0.108 A 
ATOM     46  N   UNL     1     -46.505  43.815  25.971  1.00  0.00    -0.234 NA
ATOM     47  H   UNL     1     -43.964  43.489  22.347  1.00  0.00     0.166 HD
ATOM     48  C   UNL     1     -46.235  44.914  23.400  1.00  0.00     0.151 A 
ATOM     49  C   UNL     1     -47.316  44.733  25.426  1.00  0.00     0.118 A 
ATOM     50  N   UNL     1     -47.233  45.299  24.208  1.00  0.00    -0.218 NA
ATOM     51  H   UNL     1     -48.142  45.065  26.047  1.00  0.00     0.106 H 
BRANCH  48  52
ATOM     52  N   UNL     1     -46.133  45.510  22.152  1.00  0.00    -0.382 N 
ATOM     53  H   UNL     1     -46.283  46.510  22.252  1.00  0.00     0.158 HD
ATOM     54  H   UNL     1     -45.299  45.263  21.640  1.00  0.00     0.158 HD
ENDBRANCH  48  52
ENDBRANCH  31  40
ENDBRANCH   1  26
TORSDOF 9
ENDMDL
MODEL 3
REMARK VINA RESULT:      -9.6      1.832     10.037
REMARK SMILES CNc1ccc2ccc(OCc3cc(CO)cc(-c4c[nH]c5c(N)ncnc45)c3)cc2n1
REMARK SMILES IDX 11 1 10 4 9 5 3 6 4 7 32 8 5 9 31 11 6 12 30 14 7 15 8 17
REMARK SMILES IDX 2 20 1 22 12 26 13 27 29 28 14 29 18 31 17 33 15 35 16 38
REMARK SMILES IDX 19 40 20 41 28 42 21 43 22 45 27 46 23 48 26 49 25 50 24 52
REMARK H PARENT 11 2 11 3 4 10 5 13 30 16 7 18 8 19 2 21 1 23 1 24 1 25 13 30
REMARK H PARENT 29 32 17 34 15 36 15 37 16 39 20 44 21 47 26 51 24 53 24 54
REMARK Flexibility Score: inf
ROOT
ATOM      1  C   UNL     1     -46.534  36.758  26.909  1.00  0.00     0.113 C 
ATOM      2  H   UNL     1     -47.268  37.155  26.196  1.00  0.00     0.076 H 
ATOM      3  H   UNL     1     -45.549  37.063  26.536  1.00  0.00     0.076 H 
ENDROOT
BRANCH   1   4
ATOM      4  O   UNL     1     -46.686  37.375  28.191  1.00  0.00    -0.489 OA
BRANCH   4   5
ATOM      5  C   UNL     1     -45.620  38.050  28.718  1.00  0.00     0.122 A 
ATOM      6  C   UNL     1     -42.793  41.827  28.029  1.00  0.00     0.126 A 
ATOM      7  C   UNL     1     -42.037  41.522  29.155  1.00  0.00    -0.019 A 
ATOM      8  N   UNL     1     -43.830  41.054  27.645  1.00  0.00    -0.231 NA
ATOM      9  C   UNL     1     -42.369  40.409  29.921  1.00  0.00    -0.049 A 
ATOM     10  H   UNL     1     -41.188  42.138  29.431  1.00  0.00     0.066 H 
ATOM     11  C   UNL     1     -44.156  39.974  28.379  1.00  0.00     0.076 A 
ATOM     12  C   UNL     1     -43.449  39.609  29.540  1.00  0.00     0.001 A 
ATOM     13  H   UNL     1     -41.779  40.169  30.799  1.00  0.00     0.063 H 
ATOM     14  C   UNL     1     -45.227  39.180  27.992  1.00  0.00     0.007 A 
ATOM     15  C   UNL     1     -43.827  38.472  30.272  1.00  0.00    -0.049 A 
ATOM     16  H   UNL     1     -45.776  39.452  27.092  1.00  0.00     0.069 H 
ATOM     17  C   UNL     1     -44.909  37.694  29.860  1.00  0.00    -0.019 A 
ATOM     18  H   UNL     1     -43.274  38.180  31.162  1.00  0.00     0.063 H 
ATOM     19  H   UNL     1     -45.155  36.812  30.441  1.00  0.00     0.066 H 
BRANCH   6  20
ATOM     20  N   UNL     1     -42.413  42.947  27.266  1.00  0.00    -0.373 N 
ATOM     21  H   UNL     1     -41.724  43.479  27.789  1.00  0.00     0.161 HD
BRANCH  20  22
ATOM     22  C   UNL     1     -43.527  43.777  26.836  1.00  0.00     0.005 C 
ATOM     23  H   UNL     1     -43.812  44.500  27.608  1.00  0.00     0.045 H 
ATOM     24  H   UNL     1     -44.396  43.172  26.556  1.00  0.00     0.045 H 
ATOM     25  H   UNL     1     -43.224  44.343  25.949  1.00  0.00     0.045 H 
ENDBRANCH  20  22
ENDBRANCH   6  20
ENDBRANCH   4   5
ENDBRANCH   1   4
BRANCH   1  26
ATOM     26  C   UNL     1     -46.549  35.245  26.951  1.00  0.00    -0.010 A 
ATOM     27  C   UNL     1     -45.932  34.581  28.022  1.00  0.00    -0.050 A 
ATOM     28  C   UNL     1     -47.207  34.485  25.971  1.00  0.00    -0.048 A 
ATOM     29  C   UNL     1     -45.948  33.184  28.115  1.00  0.00    -0.022 A 
ATOM     30  H   UNL     1     -45.429  35.160  28.796  1.00  0.00     0.063 H 
ATOM     31  C   UNL     1     -47.232  33.084  26.032  1.00  0.00    -0.014 A 
ATOM     32  H   UNL     1     -47.685  35.001  25.142  1.00  0.00     0.063 H 
ATOM     33  C   UNL     1     -46.593  32.450  27.106  1.00  0.00    -0.049 A 
ATOM     34  H   UNL     1     -46.600  31.362  27.170  1.00  0.00     0.063 H 
BRANCH  29  35
ATOM     35  C   UNL     1     -45.256  32.446  29.231  1.00  0.00     0.068 C 
ATOM     36  H   UNL     1     -44.241  32.840  29.353  1.00  0.00     0.062 H 
ATOM     37  H   UNL     1     -45.205  31.377  28.998  1.00  0.00     0.062 H 
BRANCH  35  38
ATOM     38  O   UNL     1     -45.946  32.590  30.466  1.00  0.00    -0.392 OA
ATOM     39  H   UNL     1     -46.390  33.453  30.432  1.00  0.00     0.211 HD
ENDBRANCH  35  38
ENDBRANCH  29  35
BRANCH  31  40
ATOM     40  C   UNL     1     -47.899  32.295  25.000  1.00  0.00     0.026 A 
ATOM     41  C   UNL     1     -49.275  32.172  24.901  1.00  0.00     0.011 A 
ATOM     42  C   UNL     1     -47.349  31.515  23.934  1.00  0.00     0.101 A 
ATOM     43  N   UNL     1     -49.564  31.374  23.824  1.00  0.00    -0.356 N 
ATOM     44  H   UNL     1     -50.078  32.587  25.497  1.00  0.00     0.082 H 
ATOM     45  C   UNL     1     -48.403  30.945  23.233  1.00  0.00     0.108 A 
ATOM     46  N   UNL     1     -46.058  31.307  23.582  1.00  0.00    -0.234 NA
ATOM     47  H   UNL     1     -50.492  31.145  23.495  1.00  0.00     0.166 HD
ATOM     48  C   UNL     1     -48.162  30.130  22.140  1.00  0.00     0.151 A 
ATOM     49  C   UNL     1     -45.921  30.524  22.503  1.00  0.00     0.118 A 
ATOM     50  N   UNL     1     -46.887  29.928  21.778  1.00  0.00    -0.218 NA
ATOM     51  H   UNL     1     -44.903  30.343  22.174  1.00  0.00     0.106 H 
BRANCH  48  52
ATOM     52  N   UNL     1     -49.159  29.501  21.411  1.00  0.00    -0.382 N 
ATOM     53  H   UNL     1     -48.964  28.504  21.379  1.00  0.00     0.158 HD
ATOM     54  H   UNL     1     -50.097  29.734  21.701  1.00  0.00     0.158 HD
ENDBRANCH  48  52
ENDBRANCH  31  40
ENDBRANCH   1  26
TORSDOF 9
ENDMDL
MODEL 4
REMARK VINA RESULT:      -9.4      2.664      9.575
REMARK SMILES CNc1ccc2ccc(OCc3cc(CO)cc(-c4c[nH]c5c(N)ncnc45)c3)cc2n1
REMARK SMILES IDX 11 1 10 4 9 5 3 6 4 7 32 8 5 9 31 11 6 12 30 14 7 15 8 17
REMARK SMILES IDX 2 20 1 22 12 26 13 27 29 28 14 29 18 31 17 33 15 35 16 38
REMARK SMILES IDX 19 40 20 41 28 42 21 43 22 45 27 46 23 48 26 49 25 50 24 52
REMARK H PARENT 11 2 11 3 4 10 5 13 30 16 7 18 8 19 2 21 1 23 1 24 1 25 13 30
REMARK H PARENT 29 32 17 34 15 36 15 37 16 39 20 44 21 47 26 51 24 53 24 54
REMARK Flexibility Score: inf
ROOT
ATOM      1  C   UNL     1     -45.794  38.220  28.023  1.00  0.00     0.113 C 
ATOM      2  H   UNL     1     -44.775  37.904  27.771  1.00  0.00     0.076 H 
ATOM      3  H   UNL     1     -45.820  38.330  29.114  1.00  0.00     0.076 H 
ENDROOT
BRANCH   1   4
ATOM      4  O   UNL     1     -46.072  39.516  27.484  1.00  0.00    -0.489 OA
BRANCH   4   5
ATOM      5  C   UNL     1     -45.018  40.344  27.207  1.00  0.00     0.122 A 
ATOM      6  C   UNL     1     -43.340  43.402  23.957  1.00  0.00     0.126 A 
ATOM      7  C   UNL     1     -42.181  43.617  24.694  1.00  0.00    -0.019 A 
ATOM      8  N   UNL     1     -44.297  42.550  24.380  1.00  0.00    -0.231 NA
ATOM      9  C   UNL     1     -42.010  42.959  25.907  1.00  0.00    -0.049 A 
ATOM     10  H   UNL     1     -41.410  44.283  24.323  1.00  0.00     0.066 H 
ATOM     11  C   UNL     1     -44.137  41.907  25.551  1.00  0.00     0.076 A 
ATOM     12  C   UNL     1     -43.000  42.084  26.360  1.00  0.00     0.001 A 
ATOM     13  H   UNL     1     -41.104  43.124  26.482  1.00  0.00     0.063 H 
ATOM     14  C   UNL     1     -45.122  41.035  25.993  1.00  0.00     0.007 A 
ATOM     15  C   UNL     1     -42.879  41.389  27.574  1.00  0.00    -0.049 A 
ATOM     16  H   UNL     1     -46.003  40.888  25.371  1.00  0.00     0.069 H 
ATOM     17  C   UNL     1     -43.886  40.520  27.995  1.00  0.00    -0.019 A 
ATOM     18  H   UNL     1     -41.995  41.514  28.196  1.00  0.00     0.063 H 
ATOM     19  H   UNL     1     -43.744  39.987  28.928  1.00  0.00     0.066 H 
BRANCH   6  20
ATOM     20  N   UNL     1     -43.468  44.068  22.723  1.00  0.00    -0.373 N 
ATOM     21  H   UNL     1     -42.914  44.919  22.753  1.00  0.00     0.161 HD
BRANCH  20  22
ATOM     22  C   UNL     1     -44.843  44.331  22.330  1.00  0.00     0.005 C 
ATOM     23  H   UNL     1     -45.129  45.369  22.532  1.00  0.00     0.045 H 
ATOM     24  H   UNL     1     -45.541  43.650  22.829  1.00  0.00     0.045 H 
ATOM     25  H   UNL     1     -44.941  44.165  21.252  1.00  0.00     0.045 H 
ENDBRANCH  20  22
ENDBRANCH   6  20
ENDBRANCH   4   5
ENDBRANCH   1   4
BRANCH   1  26
ATOM     26  C   UNL     1     -46.820  37.170  27.653  1.00  0.00    -0.010 A 
ATOM     27  C   UNL     1     -48.176  37.408  27.923  1.00  0.00    -0.050 A 
ATOM     28  C   UNL     1     -46.457  35.981  27.001  1.00  0.00    -0.048 A 
ATOM     29  C   UNL     1     -49.159  36.477  27.570  1.00  0.00    -0.022 A 
ATOM     30  H   UNL     1     -48.472  38.334  28.417  1.00  0.00     0.063 H 
ATOM     31  C   UNL     1     -47.419  35.025  26.644  1.00  0.00    -0.014 A 
ATOM     32  H   UNL     1     -45.406  35.798  26.791  1.00  0.00     0.063 H 
ATOM     33  C   UNL     1     -48.764  35.285  26.941  1.00  0.00    -0.049 A 
ATOM     34  H   UNL     1     -49.525  34.553  26.674  1.00  0.00     0.063 H 
BRANCH  29  35
ATOM     35  C   UNL     1     -50.617  36.689  27.888  1.00  0.00     0.068 C 
ATOM     36  H   UNL     1     -50.950  37.638  27.454  1.00  0.00     0.062 H 
ATOM     37  H   UNL     1     -50.764  36.714  28.974  1.00  0.00     0.062 H 
BRANCH  35  38
ATOM     38  O   UNL     1     -51.428  35.645  27.364  1.00  0.00    -0.392 OA
ATOM     39  H   UNL     1     -52.263  36.059  27.090  1.00  0.00     0.211 HD
ENDBRANCH  35  38
ENDBRANCH  29  35
BRANCH  31  40
ATOM     40  C   UNL     1     -47.037  33.779  25.984  1.00  0.00     0.026 A 
ATOM     41  C   UNL     1     -45.722  33.383  25.800  1.00  0.00     0.011 A 
ATOM     42  C   UNL     1     -47.850  32.752  25.408  1.00  0.00     0.101 A 
ATOM     43  N   UNL     1     -45.720  32.170  25.160  1.00  0.00    -0.356 N 
ATOM     44  H   UNL     1     -44.786  33.853  26.073  1.00  0.00     0.082 H 
ATOM     45  C   UNL     1     -47.006  31.777  24.893  1.00  0.00     0.108 A 
ATOM     46  N   UNL     1     -49.198  32.648  25.330  1.00  0.00    -0.234 NA
ATOM     47  H   UNL     1     -44.896  31.629  24.932  1.00  0.00     0.166 HD
ATOM     48  C   UNL     1     -47.525  30.656  24.269  1.00  0.00     0.151 A 
ATOM     49  C   UNL     1     -49.609  31.523  24.729  1.00  0.00     0.118 A 
ATOM     50  N   UNL     1     -48.859  30.540  24.198  1.00  0.00    -0.218 NA
ATOM     51  H   UNL     1     -50.684  31.388  24.659  1.00  0.00     0.106 H 
BRANCH  48  52
ATOM     52  N   UNL     1     -46.748  29.657  23.703  1.00  0.00    -0.382 N 
ATOM     53  H   UNL     1     -45.815  29.700  24.103  1.00  0.00     0.158 HD
ATOM     54  H   UNL     1     -47.169  28.740  23.723  1.00  0.00     0.158 HD
ENDBRANCH  48  52
ENDBRANCH  31  40
ENDBRANCH   1  26
TORSDOF 9
ENDMDL
MODEL 5
REMARK VINA RESULT:      -9.4      1.837      9.807
REMARK SMILES CNc1ccc2ccc(OCc3cc(CO)cc(-c4c[nH]c5c(N)ncnc45)c3)cc2n1
REMARK SMILES IDX 11 1 10 4 9 5 3 6 4 7 32 8 5 9 31 11 6 12 30 14 7 15 8 17
REMARK SMILES IDX 2 20 1 22 12 26 13 27 29 28 14 29 18 31 17 33 15 35 16 38
REMARK SMILES IDX 19 40 20 41 28 42 21 43 22 45 27 46 23 48 26 49 25 50 24 52
REMARK H PARENT 11 2 11 3 4 10 5 13 30 16 7 18 8 19 2 21 1 23 1 24 1 25 13 30
REMARK H PARENT 29 32 17 34 15 36 15 37 16 39 20 44 21 47 26 51 24 53 24 54
REMARK Flexibility Score: inf
ROOT
ATOM      1  C   UNL     1     -45.908  36.235  27.527  1.00  0.00     0.113 C 
ATOM      2  H   UNL     1     -45.135  36.222  26.748  1.00  0.00     0.076 H 
ATOM      3  H   UNL     1     -45.463  35.759  28.409  1.00  0.00     0.076 H 
ENDROOT
BRANCH   1   4
ATOM      4  O   UNL     1     -46.221  37.577  27.910  1.00  0.00    -0.489 OA
BRANCH   4   5
ATOM      5  C   UNL     1     -45.226  38.348  28.447  1.00  0.00     0.122 A 
ATOM      6  C   UNL     1     -42.503  42.169  27.602  1.00  0.00     0.126 A 
ATOM      7  C   UNL     1     -41.827  42.008  28.806  1.00  0.00    -0.019 A 
ATOM      8  N   UNL     1     -43.476  41.316  27.220  1.00  0.00    -0.231 NA
ATOM      9  C   UNL     1     -42.174  40.959  29.650  1.00  0.00    -0.049 A 
ATOM     10  H   UNL     1     -41.027  42.686  29.082  1.00  0.00     0.066 H 
ATOM     11  C   UNL     1     -43.816  40.297  28.030  1.00  0.00     0.076 A 
ATOM     12  C   UNL     1     -43.189  40.077  29.270  1.00  0.00     0.001 A 
ATOM     13  H   UNL     1     -41.646  40.831  30.590  1.00  0.00     0.063 H 
ATOM     14  C   UNL     1     -44.822  39.421  27.644  1.00  0.00     0.007 A 
ATOM     15  C   UNL     1     -43.578  38.999  30.080  1.00  0.00    -0.049 A 
ATOM     16  H   UNL     1     -45.308  39.580  26.684  1.00  0.00     0.069 H 
ATOM     17  C   UNL     1     -44.594  38.135  29.668  1.00  0.00    -0.019 A 
ATOM     18  H   UNL     1     -43.087  38.819  31.034  1.00  0.00     0.063 H 
ATOM     19  H   UNL     1     -44.849  37.302  30.313  1.00  0.00     0.066 H 
BRANCH   6  20
ATOM     20  N   UNL     1     -42.109  43.228  26.763  1.00  0.00    -0.373 N 
ATOM     21  H   UNL     1     -42.124  44.092  27.298  1.00  0.00     0.161 HD
BRANCH  20  22
ATOM     22  C   UNL     1     -42.885  43.336  25.538  1.00  0.00     0.005 C 
ATOM     23  H   UNL     1     -43.145  42.350  25.137  1.00  0.00     0.045 H 
ATOM     24  H   UNL     1     -42.356  43.918  24.775  1.00  0.00     0.045 H 
ATOM     25  H   UNL     1     -43.820  43.861  25.757  1.00  0.00     0.045 H 
ENDBRANCH  20  22
ENDBRANCH   6  20
ENDBRANCH   4   5
ENDBRANCH   1   4
BRANCH   1  26
ATOM     26  C   UNL     1     -47.117  35.412  27.135  1.00  0.00    -0.010 A 
ATOM     27  C   UNL     1     -48.400  35.955  27.298  1.00  0.00    -0.050 A 
ATOM     28  C   UNL     1     -46.989  34.135  26.566  1.00  0.00    -0.048 A 
ATOM     29  C   UNL     1     -49.543  35.240  26.921  1.00  0.00    -0.022 A 
ATOM     30  H   UNL     1     -48.513  36.951  27.727  1.00  0.00     0.063 H 
ATOM     31  C   UNL     1     -48.115  33.391  26.187  1.00  0.00    -0.014 A 
ATOM     32  H   UNL     1     -45.994  33.715  26.439  1.00  0.00     0.063 H 
ATOM     33  C   UNL     1     -49.385  33.955  26.378  1.00  0.00    -0.049 A 
ATOM     34  H   UNL     1     -50.272  33.391  26.092  1.00  0.00     0.063 H 
BRANCH  29  35
ATOM     35  C   UNL     1     -50.934  35.783  27.127  1.00  0.00     0.068 C 
ATOM     36  H   UNL     1     -51.664  34.980  26.976  1.00  0.00     0.062 H 
ATOM     37  H   UNL     1     -51.130  36.592  26.414  1.00  0.00     0.062 H 
BRANCH  35  38
ATOM     38  O   UNL     1     -51.106  36.309  28.437  1.00  0.00    -0.392 OA
ATOM     39  H   UNL     1     -50.900  35.584  29.051  1.00  0.00     0.211 HD
ENDBRANCH  35  38
ENDBRANCH  29  35
BRANCH  31  40
ATOM     40  C   UNL     1     -47.981  32.054  25.614  1.00  0.00     0.026 A 
ATOM     41  C   UNL     1     -48.585  30.928  26.149  1.00  0.00     0.011 A 
ATOM     42  C   UNL     1     -47.250  31.610  24.467  1.00  0.00     0.101 A 
ATOM     43  N   UNL     1     -48.261  29.849  25.368  1.00  0.00    -0.356 N 
ATOM     44  H   UNL     1     -49.223  30.799  27.015  1.00  0.00     0.082 H 
ATOM     45  C   UNL     1     -47.431  30.239  24.349  1.00  0.00     0.108 A 
ATOM     46  N   UNL     1     -46.496  32.313  23.589  1.00  0.00    -0.234 NA
ATOM     47  H   UNL     1     -48.597  28.904  25.505  1.00  0.00     0.166 HD
ATOM     48  C   UNL     1     -46.832  29.537  23.318  1.00  0.00     0.151 A 
ATOM     49  C   UNL     1     -45.973  31.555  22.614  1.00  0.00     0.118 A 
ATOM     50  N   UNL     1     -46.092  30.226  22.437  1.00  0.00    -0.218 NA
ATOM     51  H   UNL     1     -45.373  32.078  21.876  1.00  0.00     0.106 H 
BRANCH  48  52
ATOM     52  N   UNL     1     -46.940  28.164  23.152  1.00  0.00    -0.382 N 
ATOM     53  H   UNL     1     -47.052  27.731  24.065  1.00  0.00     0.158 HD
ATOM     54  H   UNL     1     -47.626  27.880  22.468  1.00  0.00     0.158 HD
ENDBRANCH  48  52
ENDBRANCH  31  40
ENDBRANCH   1  26
TORSDOF 9
ENDMDL
MODEL 6
REMARK VINA RESULT:      -9.3      1.944      2.709
REMARK SMILES CNc1ccc2ccc(OCc3cc(CO)cc(-c4c[nH]c5c(N)ncnc45)c3)cc2n1
REMARK SMILES IDX 11 1 10 4 9 5 3 6 4 7 32 8 5 9 31 11 6 12 30 14 7 15 8 17
REMARK SMILES IDX 2 20 1 22 12 26 13 27 29 28 14 29 18 31 17 33 15 35 16 38
REMARK SMILES IDX 19 40 20 41 28 42 21 43 22 45 27 46 23 48 26 49 25 50 24 52
REMARK H PARENT 11 2 11 3 4 10 5 13 30 16 7 18 8 19 2 21 1 23 1 24 1 25 13 30
REMARK H PARENT 29 32 17 34 15 36 15 37 16 39 20 44 21 47 26 51 24 53 24 54
REMARK Flexibility Score: inf
ROOT
ATOM      1  C   UNL     1     -46.778  34.336  26.383  1.00  0.00     0.113 C 
ATOM      2  H   UNL     1     -46.196  33.781  27.130  1.00  0.00     0.076 H 
ATOM      3  H   UNL     1     -46.118  34.469  25.518  1.00  0.00     0.076 H 
ENDROOT
BRANCH   1   4
ATOM      4  O   UNL     1     -47.887  33.558  25.925  1.00  0.00    -0.489 OA
BRANCH   4   5
ATOM      5  C   UNL     1     -47.633  32.433  25.190  1.00  0.00     0.122 A 
ATOM      6  C   UNL     1     -49.084  27.946  24.483  1.00  0.00     0.126 A 
ATOM      7  C   UNL     1     -48.087  27.726  23.539  1.00  0.00    -0.019 A 
ATOM      8  N   UNL     1     -49.205  29.130  25.118  1.00  0.00    -0.231 NA
ATOM      9  C   UNL     1     -47.207  28.756  23.222  1.00  0.00    -0.049 A 
ATOM     10  H   UNL     1     -47.987  26.758  23.061  1.00  0.00     0.066 H 
ATOM     11  C   UNL     1     -48.355  30.130  24.818  1.00  0.00     0.076 A 
ATOM     12  C   UNL     1     -47.331  29.989  23.864  1.00  0.00     0.001 A 
ATOM     13  H   UNL     1     -46.427  28.584  22.486  1.00  0.00     0.063 H 
ATOM     14  C   UNL     1     -48.480  31.352  25.464  1.00  0.00     0.007 A 
ATOM     15  C   UNL     1     -46.468  31.062  23.587  1.00  0.00    -0.049 A 
ATOM     16  H   UNL     1     -49.266  31.468  26.208  1.00  0.00     0.069 H 
ATOM     17  C   UNL     1     -46.619  32.280  24.250  1.00  0.00    -0.019 A 
ATOM     18  H   UNL     1     -45.667  30.952  22.859  1.00  0.00     0.063 H 
ATOM     19  H   UNL     1     -45.918  33.076  24.023  1.00  0.00     0.066 H 
BRANCH   6  20
ATOM     20  N   UNL     1     -49.941  26.875  24.795  1.00  0.00    -0.373 N 
ATOM     21  H   UNL     1     -50.865  27.245  24.999  1.00  0.00     0.161 HD
BRANCH  20  22
ATOM     22  C   UNL     1     -49.454  26.016  25.863  1.00  0.00     0.005 C 
ATOM     23  H   UNL     1     -49.855  26.317  26.837  1.00  0.00     0.045 H 
ATOM     24  H   UNL     1     -48.359  26.003  25.902  1.00  0.00     0.045 H 
ATOM     25  H   UNL     1     -49.785  24.990  25.671  1.00  0.00     0.045 H 
ENDBRANCH  20  22
ENDBRANCH   6  20
ENDBRANCH   4   5
ENDBRANCH   1   4
BRANCH   1  26
ATOM     26  C   UNL     1     -47.158  35.716  26.875  1.00  0.00    -0.010 A 
ATOM     27  C   UNL     1     -48.460  35.944  27.345  1.00  0.00    -0.050 A 
ATOM     28  C   UNL     1     -46.227  36.766  26.921  1.00  0.00    -0.048 A 
ATOM     29  C   UNL     1     -48.844  37.197  27.836  1.00  0.00    -0.022 A 
ATOM     30  H   UNL     1     -49.188  35.133  27.328  1.00  0.00     0.063 H 
ATOM     31  C   UNL     1     -46.585  38.035  27.398  1.00  0.00    -0.014 A 
ATOM     32  H   UNL     1     -45.218  36.589  26.556  1.00  0.00     0.063 H 
ATOM     33  C   UNL     1     -47.899  38.236  27.846  1.00  0.00    -0.049 A 
ATOM     34  H   UNL     1     -48.196  39.215  28.219  1.00  0.00     0.063 H 
BRANCH  29  35
ATOM     35  C   UNL     1     -50.248  37.479  28.306  1.00  0.00     0.068 C 
ATOM     36  H   UNL     1     -50.449  36.906  29.217  1.00  0.00     0.062 H 
ATOM     37  H   UNL     1     -50.967  37.193  27.530  1.00  0.00     0.062 H 
BRANCH  35  38
ATOM     38  O   UNL     1     -50.441  38.859  28.590  1.00  0.00    -0.392 OA
ATOM     39  H   UNL     1     -51.220  39.137  28.080  1.00  0.00     0.211 HD
ENDBRANCH  35  38
ENDBRANCH  29  35
BRANCH  31  40
ATOM     40  C   UNL     1     -45.622  39.132  27.424  1.00  0.00     0.026 A 
ATOM     41  C   UNL     1     -45.570  40.128  26.462  1.00  0.00     0.011 A 
ATOM     42  C   UNL     1     -44.579  39.424  28.360  1.00  0.00     0.101 A 
ATOM     43  N   UNL     1     -44.562  40.997  26.792  1.00  0.00    -0.356 N 
ATOM     44  H   UNL     1     -46.164  40.299  25.574  1.00  0.00     0.082 H 
ATOM     45  C   UNL     1     -43.931  40.575  27.934  1.00  0.00     0.108 A 
ATOM     46  N   UNL     1     -44.211  38.769  29.487  1.00  0.00    -0.234 NA
ATOM     47  H   UNL     1     -44.324  41.839  26.283  1.00  0.00     0.166 HD
ATOM     48  C   UNL     1     -42.869  41.093  28.655  1.00  0.00     0.151 A 
ATOM     49  C   UNL     1     -43.190  39.352  30.130  1.00  0.00     0.118 A 
ATOM     50  N   UNL     1     -42.506  40.456  29.778  1.00  0.00    -0.218 NA
ATOM     51  H   UNL     1     -42.870  38.871  31.049  1.00  0.00     0.106 H 
BRANCH  48  52
ATOM     52  N   UNL     1     -42.154  42.218  28.277  1.00  0.00    -0.382 N 
ATOM     53  H   UNL     1     -42.579  43.037  28.702  1.00  0.00     0.158 HD
ATOM     54  H   UNL     1     -41.157  42.144  28.418  1.00  0.00     0.158 HD
ENDBRANCH  48  52
ENDBRANCH  31  40
ENDBRANCH   1  26
TORSDOF 9
ENDMDL
MODEL 7
REMARK VINA RESULT:      -9.2      2.161      9.227
REMARK SMILES CNc1ccc2ccc(OCc3cc(CO)cc(-c4c[nH]c5c(N)ncnc45)c3)cc2n1
REMARK SMILES IDX 11 1 10 4 9 5 3 6 4 7 32 8 5 9 31 11 6 12 30 14 7 15 8 17
REMARK SMILES IDX 2 20 1 22 12 26 13 27 29 28 14 29 18 31 17 33 15 35 16 38
REMARK SMILES IDX 19 40 20 41 28 42 21 43 22 45 27 46 23 48 26 49 25 50 24 52
REMARK H PARENT 11 2 11 3 4 10 5 13 30 16 7 18 8 19 2 21 1 23 1 24 1 25 13 30
REMARK H PARENT 29 32 17 34 15 36 15 37 16 39 20 44 21 47 26 51 24 53 24 54
REMARK Flexibility Score: inf
ROOT
ATOM      1  C   UNL     1     -45.659  36.177  29.445  1.00  0.00     0.113 C 
ATOM      2  H   UNL     1     -44.644  36.065  29.044  1.00  0.00     0.076 H 
ATOM      3  H   UNL     1     -45.717  35.518  30.320  1.00  0.00     0.076 H 
ENDROOT
BRANCH   1   4
ATOM      4  O   UNL     1     -45.870  37.506  29.931  1.00  0.00    -0.489 OA
BRANCH   4   5
ATOM      5  C   UNL     1     -45.022  38.494  29.509  1.00  0.00     0.122 A 
ATOM      6  C   UNL     1     -44.438  41.822  26.145  1.00  0.00     0.126 A 
ATOM      7  C   UNL     1     -43.213  42.208  26.678  1.00  0.00    -0.019 A 
ATOM      8  N   UNL     1     -45.162  40.823  26.692  1.00  0.00    -0.231 NA
ATOM      9  C   UNL     1     -42.731  41.569  27.815  1.00  0.00    -0.049 A 
ATOM     10  H   UNL     1     -42.632  42.992  26.207  1.00  0.00     0.066 H 
ATOM     11  C   UNL     1     -44.700  40.198  27.791  1.00  0.00     0.076 A 
ATOM     12  C   UNL     1     -43.478  40.543  28.397  1.00  0.00     0.001 A 
ATOM     13  H   UNL     1     -41.774  41.869  28.231  1.00  0.00     0.063 H 
ATOM     14  C   UNL     1     -45.445  39.175  28.361  1.00  0.00     0.007 A 
ATOM     15  C   UNL     1     -43.038  39.860  29.543  1.00  0.00    -0.049 A 
ATOM     16  H   UNL     1     -46.389  38.899  27.895  1.00  0.00     0.069 H 
ATOM     17  C   UNL     1     -43.809  38.837  30.096  1.00  0.00    -0.019 A 
ATOM     18  H   UNL     1     -42.087  40.115  30.006  1.00  0.00     0.063 H 
ATOM     19  H   UNL     1     -43.423  38.321  30.968  1.00  0.00     0.066 H 
BRANCH   6  20
ATOM     20  N   UNL     1     -44.883  42.475  24.980  1.00  0.00    -0.373 N 
ATOM     21  H   UNL     1     -45.671  41.960  24.599  1.00  0.00     0.161 HD
BRANCH  20  22
ATOM     22  C   UNL     1     -43.844  42.689  23.986  1.00  0.00     0.005 C 
ATOM     23  H   UNL     1     -43.430  41.742  23.624  1.00  0.00     0.045 H 
ATOM     24  H   UNL     1     -43.038  43.321  24.376  1.00  0.00     0.045 H 
ATOM     25  H   UNL     1     -44.279  43.210  23.127  1.00  0.00     0.045 H 
ENDBRANCH  20  22
ENDBRANCH   6  20
ENDBRANCH   4   5
ENDBRANCH   1   4
BRANCH   1  26
ATOM     26  C   UNL     1     -46.710  35.710  28.461  1.00  0.00    -0.010 A 
ATOM     27  C   UNL     1     -47.988  36.289  28.493  1.00  0.00    -0.050 A 
ATOM     28  C   UNL     1     -46.428  34.745  27.481  1.00  0.00    -0.048 A 
ATOM     29  C   UNL     1     -48.979  35.908  27.582  1.00  0.00    -0.022 A 
ATOM     30  H   UNL     1     -48.215  37.050  29.240  1.00  0.00     0.063 H 
ATOM     31  C   UNL     1     -47.404  34.336  26.561  1.00  0.00    -0.014 A 
ATOM     32  H   UNL     1     -45.437  34.297  27.457  1.00  0.00     0.063 H 
ATOM     33  C   UNL     1     -48.675  34.922  26.629  1.00  0.00    -0.049 A 
ATOM     34  H   UNL     1     -49.447  34.616  25.924  1.00  0.00     0.063 H 
BRANCH  29  35
ATOM     35  C   UNL     1     -50.372  36.483  27.623  1.00  0.00     0.068 C 
ATOM     36  H   UNL     1     -51.079  35.702  27.921  1.00  0.00     0.062 H 
ATOM     37  H   UNL     1     -50.648  36.867  26.635  1.00  0.00     0.062 H 
BRANCH  35  38
ATOM     38  O   UNL     1     -50.471  37.558  28.550  1.00  0.00    -0.392 OA
ATOM     39  H   UNL     1     -51.271  37.393  29.075  1.00  0.00     0.211 HD
ENDBRANCH  35  38
ENDBRANCH  29  35
BRANCH  31  40
ATOM     40  C   UNL     1     -47.114  33.316  25.556  1.00  0.00     0.026 A 
ATOM     41  C   UNL     1     -46.212  33.498  24.520  1.00  0.00     0.011 A 
ATOM     42  C   UNL     1     -47.647  31.998  25.398  1.00  0.00     0.101 A 
ATOM     43  N   UNL     1     -46.175  32.350  23.771  1.00  0.00    -0.356 N 
ATOM     44  H   UNL     1     -45.588  34.340  24.251  1.00  0.00     0.082 H 
ATOM     45  C   UNL     1     -47.058  31.430  24.277  1.00  0.00     0.108 A 
ATOM     46  N   UNL     1     -48.554  31.329  26.148  1.00  0.00    -0.234 NA
ATOM     47  H   UNL     1     -45.574  32.189  22.973  1.00  0.00     0.166 HD
ATOM     48  C   UNL     1     -47.390  30.146  23.882  1.00  0.00     0.151 A 
ATOM     49  C   UNL     1     -48.799  30.088  25.703  1.00  0.00     0.118 A 
ATOM     50  N   UNL     1     -48.280  29.472  24.625  1.00  0.00    -0.218 NA
ATOM     51  H   UNL     1     -49.509  29.507  26.283  1.00  0.00     0.106 H 
BRANCH  48  52
ATOM     52  N   UNL     1     -46.869  29.524  22.757  1.00  0.00    -0.382 N 
ATOM     53  H   UNL     1     -47.621  29.363  22.092  1.00  0.00     0.158 HD
ATOM     54  H   UNL     1     -46.058  29.981  22.367  1.00  0.00     0.158 HD
ENDBRANCH  48  52
ENDBRANCH  31  40
ENDBRANCH   1  26
TORSDOF 9
ENDMDL
