MODEL 1
REMARK VINA RESULT:     -11.0      0.000      0.000
REMARK SMILES Cc1cc(N)c2ccc(OCc3cccc(-n4ccc5c(N)ncnc54)c3)cc2n1
REMARK SMILES IDX 11 1 10 4 9 5 2 6 3 7 30 8 4 9 29 11 6 12 28 13 7 14 8 16
REMARK SMILES IDX 1 19 5 23 12 26 13 27 27 28 14 29 16 31 15 33 17 36 18 37
REMARK SMILES IDX 26 38 19 39 20 41 25 42 21 44 24 45 23 46 22 48
REMARK H PARENT 11 2 11 3 3 10 28 15 7 17 8 18 1 20 1 21 1 22 5 24 5 25 13 30
REMARK H PARENT 27 32 14 34 15 35 18 40 19 43 24 47 22 49 22 50
REMARK Flexibility Score: inf
ROOT
ATOM      1  C   UNL     1     -48.530  36.098  27.227  1.00  0.00     0.113 C 
ATOM      2  H   UNL     1     -49.451  36.503  27.666  1.00  0.00     0.076 H 
ATOM      3  H   UNL     1     -48.553  36.367  26.164  1.00  0.00     0.076 H 
ENDROOT
BRANCH   1   4
ATOM      4  O   UNL     1     -48.616  34.677  27.380  1.00  0.00    -0.489 OA
BRANCH   4   5
ATOM      5  C   UNL     1     -48.033  33.876  26.437  1.00  0.00     0.122 A 
ATOM      6  C   UNL     1     -48.491  29.642  24.319  1.00  0.00     0.040 A 
ATOM      7  C   UNL     1     -47.305  29.779  23.617  1.00  0.00    -0.017 A 
ATOM      8  N   UNL     1     -48.966  30.605  25.137  1.00  0.00    -0.253 NA
ATOM      9  C   UNL     1     -46.587  30.970  23.719  1.00  0.00     0.043 A 
ATOM     10  H   UNL     1     -46.945  28.979  22.979  1.00  0.00     0.066 H 
ATOM     11  C   UNL     1     -48.255  31.736  25.286  1.00  0.00     0.076 A 
ATOM     12  C   UNL     1     -47.035  31.971  24.615  1.00  0.00     0.023 A 
ATOM     13  C   UNL     1     -48.733  32.698  26.163  1.00  0.00     0.007 A 
ATOM     14  C   UNL     1     -46.339  33.176  24.878  1.00  0.00    -0.047 A 
ATOM     15  H   UNL     1     -49.668  32.506  26.683  1.00  0.00     0.069 H 
ATOM     16  C   UNL     1     -46.834  34.119  25.783  1.00  0.00    -0.019 A 
ATOM     17  H   UNL     1     -45.393  33.389  24.391  1.00  0.00     0.063 H 
ATOM     18  H   UNL     1     -46.252  35.016  25.958  1.00  0.00     0.066 H 
BRANCH   6  19
ATOM     19  C   UNL     1     -49.294  28.382  24.201  1.00  0.00    -0.022 C 
ATOM     20  H   UNL     1     -49.109  27.892  23.239  1.00  0.00     0.030 H 
ATOM     21  H   UNL     1     -49.021  27.682  24.996  1.00  0.00     0.030 H 
ATOM     22  H   UNL     1     -50.363  28.607  24.269  1.00  0.00     0.030 H 
ENDBRANCH   6  19
BRANCH   9  23
ATOM     23  N   UNL     1     -45.326  31.018  23.080  1.00  0.00    -0.398 N 
ATOM     24  H   UNL     1     -44.675  31.644  23.543  1.00  0.00     0.156 HD
ATOM     25  H   UNL     1     -44.922  30.083  23.034  1.00  0.00     0.156 HD
ENDBRANCH   9  23
ENDBRANCH   4   5
ENDBRANCH   1   4
BRANCH   1  26
ATOM     26  C   UNL     1     -47.368  36.761  27.943  1.00  0.00    -0.009 A 
ATOM     27  C   UNL     1     -46.960  36.270  29.189  1.00  0.00    -0.055 A 
ATOM     28  C   UNL     1     -46.658  37.835  27.377  1.00  0.00    -0.031 A 
ATOM     29  C   UNL     1     -45.887  36.853  29.861  1.00  0.00    -0.060 A 
ATOM     30  H   UNL     1     -47.477  35.428  29.646  1.00  0.00     0.063 H 
ATOM     31  C   UNL     1     -45.599  38.454  28.057  1.00  0.00     0.047 A 
ATOM     32  H   UNL     1     -46.944  38.166  26.383  1.00  0.00     0.065 H 
ATOM     33  C   UNL     1     -45.210  37.940  29.301  1.00  0.00    -0.038 A 
ATOM     34  H   UNL     1     -45.582  36.467  30.831  1.00  0.00     0.062 H 
ATOM     35  H   UNL     1     -44.406  38.382  29.884  1.00  0.00     0.064 H 
BRANCH  31  36
ATOM     36  N   UNL     1     -44.933  39.595  27.498  1.00  0.00    -0.301 N 
ATOM     37  C   UNL     1     -45.216  40.154  26.259  1.00  0.00     0.012 A 
ATOM     38  C   UNL     1     -43.886  40.334  28.055  1.00  0.00     0.150 A 
ATOM     39  C   UNL     1     -44.390  41.234  26.044  1.00  0.00    -0.031 A 
ATOM     40  H   UNL     1     -46.006  39.766  25.632  1.00  0.00     0.082 H 
ATOM     41  C   UNL     1     -43.543  41.353  27.170  1.00  0.00     0.061 A 
ATOM     42  N   UNL     1     -43.263  40.099  29.228  1.00  0.00    -0.218 NA
ATOM     43  H   UNL     1     -44.390  41.863  25.163  1.00  0.00     0.065 H 
ATOM     44  C   UNL     1     -42.497  42.208  27.551  1.00  0.00     0.136 A 
ATOM     45  C   UNL     1     -42.277  40.969  29.483  1.00  0.00     0.120 A 
ATOM     46  N   UNL     1     -41.873  42.002  28.723  1.00  0.00    -0.219 NA
ATOM     47  H   UNL     1     -41.741  40.825  30.417  1.00  0.00     0.106 H 
BRANCH  44  48
ATOM     48  N   UNL     1     -42.065  43.280  26.781  1.00  0.00    -0.383 N 
ATOM     49  H   UNL     1     -41.473  43.888  27.336  1.00  0.00     0.158 HD
ATOM     50  H   UNL     1     -42.792  43.733  26.247  1.00  0.00     0.158 HD
ENDBRANCH  44  48
ENDBRANCH  31  36
ENDBRANCH   1  26
TORSDOF 7
ENDMDL
MODEL 2
REMARK VINA RESULT:     -10.3      1.714     10.149
REMARK SMILES Cc1cc(N)c2ccc(OCc3cccc(-n4ccc5c(N)ncnc54)c3)cc2n1
REMARK SMILES IDX 11 1 10 4 9 5 2 6 3 7 30 8 4 9 29 11 6 12 28 13 7 14 8 16
REMARK SMILES IDX 1 19 5 23 12 26 13 27 27 28 14 29 16 31 15 33 17 36 18 37
REMARK SMILES IDX 26 38 19 39 20 41 25 42 21 44 24 45 23 46 22 48
REMARK H PARENT 11 2 11 3 3 10 28 15 7 17 8 18 1 20 1 21 1 22 5 24 5 25 13 30
REMARK H PARENT 27 32 14 34 15 35 18 40 19 43 24 47 22 49 22 50
REMARK Flexibility Score: inf
ROOT
ATOM      1  C   UNL     1     -46.650  36.943  26.683  1.00  0.00     0.113 C 
ATOM      2  H   UNL     1     -45.686  37.259  26.264  1.00  0.00     0.076 H 
ATOM      3  H   UNL     1     -47.417  37.274  25.973  1.00  0.00     0.076 H 
ENDROOT
BRANCH   1   4
ATOM      4  O   UNL     1     -46.787  37.645  27.923  1.00  0.00    -0.489 OA
BRANCH   4   5
ATOM      5  C   UNL     1     -45.737  38.396  28.375  1.00  0.00     0.122 A 
ATOM      6  C   UNL     1     -42.850  41.953  27.095  1.00  0.00     0.040 A 
ATOM      7  C   UNL     1     -42.075  41.837  28.237  1.00  0.00    -0.017 A 
ATOM      8  N   UNL     1     -43.933  41.178  26.871  1.00  0.00    -0.253 NA
ATOM      9  C   UNL     1     -42.442  40.917  29.218  1.00  0.00     0.043 A 
ATOM     10  H   UNL     1     -41.203  42.466  28.378  1.00  0.00     0.066 H 
ATOM     11  C   UNL     1     -44.265  40.250  27.785  1.00  0.00     0.076 A 
ATOM     12  C   UNL     1     -43.539  40.054  28.979  1.00  0.00     0.023 A 
ATOM     13  C   UNL     1     -45.354  39.432  27.520  1.00  0.00     0.007 A 
ATOM     14  C   UNL     1     -43.944  39.017  29.854  1.00  0.00    -0.047 A 
ATOM     15  H   UNL     1     -45.902  39.583  26.593  1.00  0.00     0.069 H 
ATOM     16  C   UNL     1     -45.032  38.194  29.552  1.00  0.00    -0.019 A 
ATOM     17  H   UNL     1     -43.405  38.826  30.777  1.00  0.00     0.063 H 
ATOM     18  H   UNL     1     -45.288  37.405  30.251  1.00  0.00     0.066 H 
BRANCH   6  19
ATOM     19  C   UNL     1     -42.491  42.956  26.040  1.00  0.00    -0.022 C 
ATOM     20  H   UNL     1     -43.242  43.752  25.989  1.00  0.00     0.030 H 
ATOM     21  H   UNL     1     -41.524  43.415  26.267  1.00  0.00     0.030 H 
ATOM     22  H   UNL     1     -42.441  42.473  25.060  1.00  0.00     0.030 H 
ENDBRANCH   6  19
BRANCH   9  23
ATOM     23  N   UNL     1     -41.555  40.751  30.308  1.00  0.00    -0.398 N 
ATOM     24  H   UNL     1     -41.405  39.776  30.546  1.00  0.00     0.156 HD
ATOM     25  H   UNL     1     -40.660  41.191  30.100  1.00  0.00     0.156 HD
ENDBRANCH   9  23
ENDBRANCH   4   5
ENDBRANCH   1   4
BRANCH   1  26
ATOM     26  C   UNL     1     -46.612  35.429  26.793  1.00  0.00    -0.009 A 
ATOM     27  C   UNL     1     -45.870  34.835  27.821  1.00  0.00    -0.055 A 
ATOM     28  C   UNL     1     -47.331  34.600  25.914  1.00  0.00    -0.031 A 
ATOM     29  C   UNL     1     -45.830  33.448  27.952  1.00  0.00    -0.060 A 
ATOM     30  H   UNL     1     -45.318  35.451  28.529  1.00  0.00     0.063 H 
ATOM     31  C   UNL     1     -47.272  33.202  26.012  1.00  0.00     0.047 A 
ATOM     32  H   UNL     1     -47.952  35.074  25.160  1.00  0.00     0.065 H 
ATOM     33  C   UNL     1     -46.524  32.634  27.052  1.00  0.00    -0.038 A 
ATOM     34  H   UNL     1     -45.247  32.997  28.750  1.00  0.00     0.062 H 
ATOM     35  H   UNL     1     -46.428  31.559  27.175  1.00  0.00     0.064 H 
BRANCH  31  36
ATOM     36  N   UNL     1     -47.952  32.369  25.062  1.00  0.00    -0.301 N 
ATOM     37  C   UNL     1     -49.324  32.159  25.026  1.00  0.00     0.012 A 
ATOM     38  C   UNL     1     -47.390  31.608  24.033  1.00  0.00     0.150 A 
ATOM     39  C   UNL     1     -49.630  31.309  23.988  1.00  0.00    -0.031 A 
ATOM     40  H   UNL     1     -49.988  32.654  25.720  1.00  0.00     0.082 H 
ATOM     41  C   UNL     1     -48.415  30.951  23.358  1.00  0.00     0.061 A 
ATOM     42  N   UNL     1     -46.079  31.478  23.745  1.00  0.00    -0.218 NA
ATOM     43  H   UNL     1     -50.623  30.972  23.721  1.00  0.00     0.065 H 
ATOM     44  C   UNL     1     -48.049  30.124  22.285  1.00  0.00     0.136 A 
ATOM     45  C   UNL     1     -45.848  30.659  22.711  1.00  0.00     0.120 A 
ATOM     46  N   UNL     1     -46.750  29.992  21.970  1.00  0.00    -0.219 NA
ATOM     47  H   UNL     1     -44.806  30.518  22.436  1.00  0.00     0.106 H 
BRANCH  44  48
ATOM     48  N   UNL     1     -48.965  29.428  21.507  1.00  0.00    -0.383 N 
ATOM     49  H   UNL     1     -48.525  29.120  20.647  1.00  0.00     0.158 HD
ATOM     50  H   UNL     1     -49.863  29.879  21.411  1.00  0.00     0.158 HD
ENDBRANCH  44  48
ENDBRANCH  31  36
ENDBRANCH   1  26
TORSDOF 7
ENDMDL
MODEL 3
REMARK VINA RESULT:     -10.2      1.190      2.095
REMARK SMILES Cc1cc(N)c2ccc(OCc3cccc(-n4ccc5c(N)ncnc54)c3)cc2n1
REMARK SMILES IDX 11 1 10 4 9 5 2 6 3 7 30 8 4 9 29 11 6 12 28 13 7 14 8 16
REMARK SMILES IDX 1 19 5 23 12 26 13 27 27 28 14 29 16 31 15 33 17 36 18 37
REMARK SMILES IDX 26 38 19 39 20 41 25 42 21 44 24 45 23 46 22 48
REMARK H PARENT 11 2 11 3 3 10 28 15 7 17 8 18 1 20 1 21 1 22 5 24 5 25 13 30
REMARK H PARENT 27 32 14 34 15 35 18 40 19 43 24 47 22 49 22 50
REMARK Flexibility Score: inf
ROOT
ATOM      1  C   UNL     1     -46.681  34.252  27.534  1.00  0.00     0.113 C 
ATOM      2  H   UNL     1     -45.840  34.152  26.837  1.00  0.00     0.076 H 
ATOM      3  H   UNL     1     -46.384  33.726  28.450  1.00  0.00     0.076 H 
ENDROOT
BRANCH   1   4
ATOM      4  O   UNL     1     -47.785  33.583  26.915  1.00  0.00    -0.489 OA
BRANCH   4   5
ATOM      5  C   UNL     1     -47.538  32.721  25.882  1.00  0.00     0.122 A 
ATOM      6  C   UNL     1     -48.788  28.459  24.180  1.00  0.00     0.040 A 
ATOM      7  C   UNL     1     -47.849  28.505  23.163  1.00  0.00    -0.017 A 
ATOM      8  N   UNL     1     -48.961  29.473  25.055  1.00  0.00    -0.253 NA
ATOM      9  C   UNL     1     -47.076  29.654  23.001  1.00  0.00     0.043 A 
ATOM     10  H   UNL     1     -47.727  27.666  22.486  1.00  0.00     0.066 H 
ATOM     11  C   UNL     1     -48.183  30.564  24.942  1.00  0.00     0.076 A 
ATOM     12  C   UNL     1     -47.199  30.706  23.941  1.00  0.00     0.023 A 
ATOM     13  C   UNL     1     -48.342  31.579  25.874  1.00  0.00     0.007 A 
ATOM     14  C   UNL     1     -46.400  31.875  23.938  1.00  0.00    -0.047 A 
ATOM     15  H   UNL     1     -49.096  31.458  26.648  1.00  0.00     0.069 H 
ATOM     16  C   UNL     1     -46.568  32.872  24.903  1.00  0.00    -0.019 A 
ATOM     17  H   UNL     1     -45.625  32.017  23.192  1.00  0.00     0.063 H 
ATOM     18  H   UNL     1     -45.918  33.739  24.863  1.00  0.00     0.066 H 
BRANCH   6  19
ATOM     19  C   UNL     1     -49.650  27.245  24.354  1.00  0.00    -0.022 C 
ATOM     20  H   UNL     1     -50.138  27.252  25.335  1.00  0.00     0.030 H 
ATOM     21  H   UNL     1     -50.431  27.222  23.587  1.00  0.00     0.030 H 
ATOM     22  H   UNL     1     -49.045  26.337  24.280  1.00  0.00     0.030 H 
ENDBRANCH   6  19
BRANCH   9  23
ATOM     23  N   UNL     1     -46.051  29.608  22.026  1.00  0.00    -0.398 N 
ATOM     24  H   UNL     1     -45.935  30.489  21.537  1.00  0.00     0.156 HD
ATOM     25  H   UNL     1     -45.168  29.342  22.461  1.00  0.00     0.156 HD
ENDBRANCH   9  23
ENDBRANCH   4   5
ENDBRANCH   1   4
BRANCH   1  26
ATOM     26  C   UNL     1     -46.877  35.736  27.785  1.00  0.00    -0.009 A 
ATOM     27  C   UNL     1     -48.156  36.289  27.660  1.00  0.00    -0.055 A 
ATOM     28  C   UNL     1     -45.816  36.572  28.179  1.00  0.00    -0.031 A 
ATOM     29  C   UNL     1     -48.365  37.647  27.898  1.00  0.00    -0.060 A 
ATOM     30  H   UNL     1     -49.001  35.665  27.375  1.00  0.00     0.063 H 
ATOM     31  C   UNL     1     -46.005  37.946  28.388  1.00  0.00     0.047 A 
ATOM     32  H   UNL     1     -44.842  36.118  28.334  1.00  0.00     0.065 H 
ATOM     33  C   UNL     1     -47.297  38.473  28.258  1.00  0.00    -0.038 A 
ATOM     34  H   UNL     1     -49.362  38.067  27.792  1.00  0.00     0.062 H 
ATOM     35  H   UNL     1     -47.506  39.530  28.394  1.00  0.00     0.064 H 
BRANCH  31  36
ATOM     36  N   UNL     1     -44.898  38.798  28.717  1.00  0.00    -0.301 N 
ATOM     37  C   UNL     1     -44.113  38.679  29.856  1.00  0.00     0.012 A 
ATOM     38  C   UNL     1     -44.418  39.895  27.997  1.00  0.00     0.150 A 
ATOM     39  C   UNL     1     -43.145  39.657  29.850  1.00  0.00    -0.031 A 
ATOM     40  H   UNL     1     -44.278  37.888  30.574  1.00  0.00     0.082 H 
ATOM     41  C   UNL     1     -43.332  40.434  28.682  1.00  0.00     0.061 A 
ATOM     42  N   UNL     1     -44.926  40.398  26.853  1.00  0.00    -0.218 NA
ATOM     43  H   UNL     1     -42.391  39.803  30.612  1.00  0.00     0.065 H 
ATOM     44  C   UNL     1     -42.711  41.557  28.116  1.00  0.00     0.136 A 
ATOM     45  C   UNL     1     -44.260  41.473  26.412  1.00  0.00     0.120 A 
ATOM     46  N   UNL     1     -43.190  42.065  26.968  1.00  0.00    -0.219 NA
ATOM     47  H   UNL     1     -44.628  41.919  25.491  1.00  0.00     0.106 H 
BRANCH  44  48
ATOM     48  N   UNL     1     -41.604  42.184  28.675  1.00  0.00    -0.383 N 
ATOM     49  H   UNL     1     -40.757  41.702  28.396  1.00  0.00     0.158 HD
ATOM     50  H   UNL     1     -41.693  42.394  29.659  1.00  0.00     0.158 HD
ENDBRANCH  44  48
ENDBRANCH  31  36
ENDBRANCH   1  26
TORSDOF 7
ENDMDL
MODEL 4
REMARK VINA RESULT:     -10.0      1.720     10.493
REMARK SMILES Cc1cc(N)c2ccc(OCc3cccc(-n4ccc5c(N)ncnc54)c3)cc2n1
REMARK SMILES IDX 11 1 10 4 9 5 2 6 3 7 30 8 4 9 29 11 6 12 28 13 7 14 8 16
REMARK SMILES IDX 1 19 5 23 12 26 13 27 27 28 14 29 16 31 15 33 17 36 18 37
REMARK SMILES IDX 26 38 19 39 20 41 25 42 21 44 24 45 23 46 22 48
REMARK H PARENT 11 2 11 3 3 10 28 15 7 17 8 18 1 20 1 21 1 22 5 24 5 25 13 30
REMARK H PARENT 27 32 14 34 15 35 18 40 19 43 24 47 22 49 22 50
REMARK Flexibility Score: inf
ROOT
ATOM      1  C   UNL     1     -48.436  35.280  27.091  1.00  0.00     0.113 C 
ATOM      2  H   UNL     1     -48.120  36.212  26.605  1.00  0.00     0.076 H 
ATOM      3  H   UNL     1     -49.529  35.324  27.158  1.00  0.00     0.076 H 
ENDROOT
BRANCH   1   4
ATOM      4  O   UNL     1     -47.859  35.307  28.401  1.00  0.00    -0.489 OA
BRANCH   4   5
ATOM      5  C   UNL     1     -46.952  36.286  28.702  1.00  0.00     0.122 A 
ATOM      6  C   UNL     1     -44.832  40.123  26.857  1.00  0.00     0.040 A 
ATOM      7  C   UNL     1     -44.007  40.291  27.957  1.00  0.00    -0.017 A 
ATOM      8  N   UNL     1     -45.758  39.143  26.787  1.00  0.00    -0.253 NA
ATOM      9  C   UNL     1     -44.159  39.448  29.056  1.00  0.00     0.043 A 
ATOM     10  H   UNL     1     -43.264  41.081  27.974  1.00  0.00     0.066 H 
ATOM     11  C   UNL     1     -45.876  38.290  27.819  1.00  0.00     0.076 A 
ATOM     12  C   UNL     1     -45.083  38.377  28.983  1.00  0.00     0.023 A 
ATOM     13  C   UNL     1     -46.802  37.262  27.714  1.00  0.00     0.007 A 
ATOM     14  C   UNL     1     -45.253  37.399  29.992  1.00  0.00    -0.047 A 
ATOM     15  H   UNL     1     -47.403  37.196  26.810  1.00  0.00     0.069 H 
ATOM     16  C   UNL     1     -46.179  36.362  29.851  1.00  0.00    -0.019 A 
ATOM     17  H   UNL     1     -44.655  37.425  30.897  1.00  0.00     0.063 H 
ATOM     18  H   UNL     1     -46.256  35.631  30.648  1.00  0.00     0.066 H 
BRANCH   6  19
ATOM     19  C   UNL     1     -44.707  41.038  25.676  1.00  0.00    -0.022 C 
ATOM     20  H   UNL     1     -44.976  40.518  24.750  1.00  0.00     0.030 H 
ATOM     21  H   UNL     1     -45.376  41.897  25.789  1.00  0.00     0.030 H 
ATOM     22  H   UNL     1     -43.676  41.393  25.580  1.00  0.00     0.030 H 
ENDBRANCH   6  19
BRANCH   9  23
ATOM     23  N   UNL     1     -43.217  39.581  30.104  1.00  0.00    -0.398 N 
ATOM     24  H   UNL     1     -43.525  39.143  30.966  1.00  0.00     0.156 HD
ATOM     25  H   UNL     1     -42.323  39.182  29.822  1.00  0.00     0.156 HD
ENDBRANCH   9  23
ENDBRANCH   4   5
ENDBRANCH   1   4
BRANCH   1  26
ATOM     26  C   UNL     1     -47.979  34.138  26.202  1.00  0.00    -0.009 A 
ATOM     27  C   UNL     1     -46.634  34.060  25.823  1.00  0.00    -0.055 A 
ATOM     28  C   UNL     1     -48.859  33.128  25.774  1.00  0.00    -0.031 A 
ATOM     29  C   UNL     1     -46.186  33.014  25.019  1.00  0.00    -0.060 A 
ATOM     30  H   UNL     1     -45.924  34.816  26.154  1.00  0.00     0.063 H 
ATOM     31  C   UNL     1     -48.431  32.088  24.936  1.00  0.00     0.047 A 
ATOM     32  H   UNL     1     -49.886  33.166  26.126  1.00  0.00     0.065 H 
ATOM     33  C   UNL     1     -47.078  32.033  24.574  1.00  0.00    -0.038 A 
ATOM     34  H   UNL     1     -45.140  32.965  24.726  1.00  0.00     0.062 H 
ATOM     35  H   UNL     1     -46.686  31.262  23.917  1.00  0.00     0.064 H 
BRANCH  31  36
ATOM     36  N   UNL     1     -49.358  31.108  24.448  1.00  0.00    -0.301 N 
ATOM     37  C   UNL     1     -50.368  31.355  23.530  1.00  0.00     0.012 A 
ATOM     38  C   UNL     1     -49.443  29.759  24.804  1.00  0.00     0.150 A 
ATOM     39  C   UNL     1     -51.063  30.192  23.288  1.00  0.00    -0.031 A 
ATOM     40  H   UNL     1     -50.502  32.332  23.088  1.00  0.00     0.082 H 
ATOM     41  C   UNL     1     -50.490  29.179  24.092  1.00  0.00     0.061 A 
ATOM     42  N   UNL     1     -48.685  29.111  25.712  1.00  0.00    -0.218 NA
ATOM     43  H   UNL     1     -51.902  30.086  22.612  1.00  0.00     0.065 H 
ATOM     44  C   UNL     1     -50.742  27.817  24.319  1.00  0.00     0.136 A 
ATOM     45  C   UNL     1     -49.021  27.822  25.853  1.00  0.00     0.120 A 
ATOM     46  N   UNL     1     -49.988  27.148  25.207  1.00  0.00    -0.219 NA
ATOM     47  H   UNL     1     -48.440  27.252  26.573  1.00  0.00     0.106 H 
BRANCH  44  48
ATOM     48  N   UNL     1     -51.736  27.102  23.663  1.00  0.00    -0.383 N 
ATOM     49  H   UNL     1     -51.328  26.544  22.921  1.00  0.00     0.158 HD
ATOM     50  H   UNL     1     -52.549  27.646  23.414  1.00  0.00     0.158 HD
ENDBRANCH  44  48
ENDBRANCH  31  36
ENDBRANCH   1  26
TORSDOF 7
ENDMDL
MODEL 5
REMARK VINA RESULT:     -10.0      1.283      2.544
REMARK SMILES Cc1cc(N)c2ccc(OCc3cccc(-n4ccc5c(N)ncnc54)c3)cc2n1
REMARK SMILES IDX 11 1 10 4 9 5 2 6 3 7 30 8 4 9 29 11 6 12 28 13 7 14 8 16
REMARK SMILES IDX 1 19 5 23 12 26 13 27 27 28 14 29 16 31 15 33 17 36 18 37
REMARK SMILES IDX 26 38 19 39 20 41 25 42 21 44 24 45 23 46 22 48
REMARK H PARENT 11 2 11 3 3 10 28 15 7 17 8 18 1 20 1 21 1 22 5 24 5 25 13 30
REMARK H PARENT 27 32 14 34 15 35 18 40 19 43 24 47 22 49 22 50
REMARK Flexibility Score: inf
ROOT
ATOM      1  C   UNL     1     -45.708  35.069  27.620  1.00  0.00     0.113 C 
ATOM      2  H   UNL     1     -44.754  34.986  27.085  1.00  0.00     0.076 H 
ATOM      3  H   UNL     1     -45.846  34.120  28.151  1.00  0.00     0.076 H 
ENDROOT
BRANCH   1   4
ATOM      4  O   UNL     1     -46.711  35.222  26.609  1.00  0.00    -0.489 OA
BRANCH   4   5
ATOM      5  C   UNL     1     -47.312  34.102  26.103  1.00  0.00     0.122 A 
ATOM      6  C   UNL     1     -46.544  30.441  23.166  1.00  0.00     0.040 A 
ATOM      7  C   UNL     1     -47.844  29.977  23.282  1.00  0.00    -0.017 A 
ATOM      8  N   UNL     1     -46.097  31.522  23.841  1.00  0.00    -0.253 NA
ATOM      9  C   UNL     1     -48.720  30.616  24.157  1.00  0.00     0.043 A 
ATOM     10  H   UNL     1     -48.174  29.113  22.714  1.00  0.00     0.066 H 
ATOM     11  C   UNL     1     -46.948  32.179  24.646  1.00  0.00     0.076 A 
ATOM     12  C   UNL     1     -48.291  31.785  24.831  1.00  0.00     0.023 A 
ATOM     13  C   UNL     1     -46.487  33.313  25.298  1.00  0.00     0.007 A 
ATOM     14  C   UNL     1     -49.119  32.575  25.665  1.00  0.00    -0.047 A 
ATOM     15  H   UNL     1     -45.454  33.616  25.144  1.00  0.00     0.069 H 
ATOM     16  C   UNL     1     -48.633  33.725  26.293  1.00  0.00    -0.019 A 
ATOM     17  H   UNL     1     -50.160  32.312  25.823  1.00  0.00     0.063 H 
ATOM     18  H   UNL     1     -49.316  34.300  26.908  1.00  0.00     0.066 H 
BRANCH   6  19
ATOM     19  C   UNL     1     -45.576  29.750  22.253  1.00  0.00    -0.022 C 
ATOM     20  H   UNL     1     -45.094  28.909  22.762  1.00  0.00     0.030 H 
ATOM     21  H   UNL     1     -46.097  29.360  21.373  1.00  0.00     0.030 H 
ATOM     22  H   UNL     1     -44.796  30.447  21.932  1.00  0.00     0.030 H 
ENDBRANCH   6  19
BRANCH   9  23
ATOM     23  N   UNL     1     -50.067  30.181  24.152  1.00  0.00    -0.398 N 
ATOM     24  H   UNL     1     -50.209  29.341  24.703  1.00  0.00     0.156 HD
ATOM     25  H   UNL     1     -50.674  30.922  24.499  1.00  0.00     0.156 HD
ENDBRANCH   9  23
ENDBRANCH   4   5
ENDBRANCH   1   4
BRANCH   1  26
ATOM     26  C   UNL     1     -45.576  36.232  28.586  1.00  0.00    -0.009 A 
ATOM     27  C   UNL     1     -46.214  36.166  29.830  1.00  0.00    -0.055 A 
ATOM     28  C   UNL     1     -44.799  37.366  28.287  1.00  0.00    -0.031 A 
ATOM     29  C   UNL     1     -46.096  37.214  30.741  1.00  0.00    -0.060 A 
ATOM     30  H   UNL     1     -46.807  35.293  30.099  1.00  0.00     0.063 H 
ATOM     31  C   UNL     1     -44.700  38.443  29.179  1.00  0.00     0.047 A 
ATOM     32  H   UNL     1     -44.258  37.378  27.345  1.00  0.00     0.065 H 
ATOM     33  C   UNL     1     -45.346  38.349  30.419  1.00  0.00    -0.038 A 
ATOM     34  H   UNL     1     -46.600  37.154  31.703  1.00  0.00     0.062 H 
ATOM     35  H   UNL     1     -45.319  39.154  31.148  1.00  0.00     0.064 H 
BRANCH  31  36
ATOM     36  N   UNL     1     -43.963  39.623  28.828  1.00  0.00    -0.301 N 
ATOM     37  C   UNL     1     -42.910  40.152  29.562  1.00  0.00     0.012 A 
ATOM     38  C   UNL     1     -44.163  40.463  27.729  1.00  0.00     0.150 A 
ATOM     39  C   UNL     1     -42.436  41.282  28.935  1.00  0.00    -0.031 A 
ATOM     40  H   UNL     1     -42.550  39.670  30.460  1.00  0.00     0.082 H 
ATOM     41  C   UNL     1     -43.225  41.490  27.779  1.00  0.00     0.061 A 
ATOM     42  N   UNL     1     -45.122  40.349  26.787  1.00  0.00    -0.218 NA
ATOM     43  H   UNL     1     -41.617  41.899  29.281  1.00  0.00     0.065 H 
ATOM     44  C   UNL     1     -43.269  42.449  26.756  1.00  0.00     0.136 A 
ATOM     45  C   UNL     1     -45.074  41.323  25.869  1.00  0.00     0.120 A 
ATOM     46  N   UNL     1     -44.205  42.346  25.798  1.00  0.00    -0.219 NA
ATOM     47  H   UNL     1     -45.825  41.279  25.085  1.00  0.00     0.106 H 
BRANCH  44  48
ATOM     48  N   UNL     1     -42.381  43.514  26.665  1.00  0.00    -0.383 N 
ATOM     49  H   UNL     1     -41.890  43.479  25.778  1.00  0.00     0.158 HD
ATOM     50  H   UNL     1     -41.809  43.655  27.485  1.00  0.00     0.158 HD
ENDBRANCH  44  48
ENDBRANCH  31  36
ENDBRANCH   1  26
TORSDOF 7
ENDMDL
MODEL 6
REMARK VINA RESULT:      -9.9      1.396      2.458
REMARK SMILES Cc1cc(N)c2ccc(OCc3cccc(-n4ccc5c(N)ncnc54)c3)cc2n1
REMARK SMILES IDX 11 1 10 4 9 5 2 6 3 7 30 8 4 9 29 11 6 12 28 13 7 14 8 16
REMARK SMILES IDX 1 19 5 23 12 26 13 27 27 28 14 29 16 31 15 33 17 36 18 37
REMARK SMILES IDX 26 38 19 39 20 41 25 42 21 44 24 45 23 46 22 48
REMARK H PARENT 11 2 11 3 3 10 28 15 7 17 8 18 1 20 1 21 1 22 5 24 5 25 13 30
REMARK H PARENT 27 32 14 34 15 35 18 40 19 43 24 47 22 49 22 50
REMARK Flexibility Score: inf
ROOT
ATOM      1  C   UNL     1     -46.577  34.657  26.429  1.00  0.00     0.113 C 
ATOM      2  H   UNL     1     -46.671  34.697  25.336  1.00  0.00     0.076 H 
ATOM      3  H   UNL     1     -45.528  34.413  26.637  1.00  0.00     0.076 H 
ENDROOT
BRANCH   1   4
ATOM      4  O   UNL     1     -47.428  33.588  26.856  1.00  0.00    -0.489 OA
BRANCH   4   5
ATOM      5  C   UNL     1     -47.620  32.524  26.018  1.00  0.00     0.122 A 
ATOM      6  C   UNL     1     -46.552  30.945  21.661  1.00  0.00     0.040 A 
ATOM      7  C   UNL     1     -47.349  29.819  21.790  1.00  0.00    -0.017 A 
ATOM      8  N   UNL     1     -46.400  31.845  22.656  1.00  0.00    -0.253 NA
ATOM      9  C   UNL     1     -47.990  29.575  23.004  1.00  0.00     0.043 A 
ATOM     10  H   UNL     1     -47.460  29.124  20.965  1.00  0.00     0.066 H 
ATOM     11  C   UNL     1     -47.057  31.648  23.812  1.00  0.00     0.076 A 
ATOM     12  C   UNL     1     -47.893  30.534  24.041  1.00  0.00     0.023 A 
ATOM     13  C   UNL     1     -46.926  32.603  24.809  1.00  0.00     0.007 A 
ATOM     14  C   UNL     1     -48.578  30.445  25.277  1.00  0.00    -0.047 A 
ATOM     15  H   UNL     1     -46.288  33.464  24.621  1.00  0.00     0.069 H 
ATOM     16  C   UNL     1     -48.443  31.433  26.256  1.00  0.00    -0.019 A 
ATOM     17  H   UNL     1     -49.238  29.610  25.488  1.00  0.00     0.063 H 
ATOM     18  H   UNL     1     -49.003  31.322  27.177  1.00  0.00     0.066 H 
BRANCH   6  19
ATOM     19  C   UNL     1     -45.829  31.211  20.375  1.00  0.00    -0.022 C 
ATOM     20  H   UNL     1     -44.956  31.849  20.545  1.00  0.00     0.030 H 
ATOM     21  H   UNL     1     -45.483  30.272  19.933  1.00  0.00     0.030 H 
ATOM     22  H   UNL     1     -46.491  31.721  19.668  1.00  0.00     0.030 H 
ENDBRANCH   6  19
BRANCH   9  23
ATOM     23  N   UNL     1     -48.886  28.480  23.049  1.00  0.00    -0.398 N 
ATOM     24  H   UNL     1     -49.774  28.681  22.601  1.00  0.00     0.156 HD
ATOM     25  H   UNL     1     -48.462  27.664  22.611  1.00  0.00     0.156 HD
ENDBRANCH   9  23
ENDBRANCH   4   5
ENDBRANCH   1   4
BRANCH   1  26
ATOM     26  C   UNL     1     -46.943  36.032  26.957  1.00  0.00    -0.009 A 
ATOM     27  C   UNL     1     -48.240  36.262  27.429  1.00  0.00    -0.055 A 
ATOM     28  C   UNL     1     -46.007  37.079  27.022  1.00  0.00    -0.031 A 
ATOM     29  C   UNL     1     -48.598  37.511  27.932  1.00  0.00    -0.060 A 
ATOM     30  H   UNL     1     -48.983  35.466  27.409  1.00  0.00     0.063 H 
ATOM     31  C   UNL     1     -46.362  38.352  27.494  1.00  0.00     0.047 A 
ATOM     32  H   UNL     1     -44.987  36.870  26.711  1.00  0.00     0.065 H 
ATOM     33  C   UNL     1     -47.667  38.553  27.963  1.00  0.00    -0.038 A 
ATOM     34  H   UNL     1     -49.610  37.680  28.292  1.00  0.00     0.062 H 
ATOM     35  H   UNL     1     -48.008  39.518  28.328  1.00  0.00     0.064 H 
BRANCH  31  36
ATOM     36  N   UNL     1     -45.414  39.429  27.485  1.00  0.00    -0.301 N 
ATOM     37  C   UNL     1     -45.340  40.417  26.513  1.00  0.00     0.012 A 
ATOM     38  C   UNL     1     -44.395  39.681  28.408  1.00  0.00     0.150 A 
ATOM     39  C   UNL     1     -44.320  41.288  26.820  1.00  0.00    -0.031 A 
ATOM     40  H   UNL     1     -46.039  40.450  25.689  1.00  0.00     0.082 H 
ATOM     41  C   UNL     1     -43.713  40.829  28.013  1.00  0.00     0.061 A 
ATOM     42  N   UNL     1     -44.075  38.934  29.484  1.00  0.00    -0.218 NA
ATOM     43  H   UNL     1     -44.034  42.155  26.240  1.00  0.00     0.065 H 
ATOM     44  C   UNL     1     -42.640  41.245  28.815  1.00  0.00     0.136 A 
ATOM     45  C   UNL     1     -43.031  39.420  30.168  1.00  0.00     0.120 A 
ATOM     46  N   UNL     1     -42.313  40.524  29.901  1.00  0.00    -0.219 NA
ATOM     47  H   UNL     1     -42.729  38.855  31.046  1.00  0.00     0.106 H 
BRANCH  44  48
ATOM     48  N   UNL     1     -41.886  42.382  28.557  1.00  0.00    -0.383 N 
ATOM     49  H   UNL     1     -40.945  42.262  28.914  1.00  0.00     0.158 HD
ATOM     50  H   UNL     1     -42.343  43.251  28.792  1.00  0.00     0.158 HD
ENDBRANCH  44  48
ENDBRANCH  31  36
ENDBRANCH   1  26
TORSDOF 7
ENDMDL
MODEL 7
REMARK VINA RESULT:      -9.5      1.759      2.486
REMARK SMILES Cc1cc(N)c2ccc(OCc3cccc(-n4ccc5c(N)ncnc54)c3)cc2n1
REMARK SMILES IDX 11 1 10 4 9 5 2 6 3 7 30 8 4 9 29 11 6 12 28 13 7 14 8 16
REMARK SMILES IDX 1 19 5 23 12 26 13 27 27 28 14 29 16 31 15 33 17 36 18 37
REMARK SMILES IDX 26 38 19 39 20 41 25 42 21 44 24 45 23 46 22 48
REMARK H PARENT 11 2 11 3 3 10 28 15 7 17 8 18 1 20 1 21 1 22 5 24 5 25 13 30
REMARK H PARENT 27 32 14 34 15 35 18 40 19 43 24 47 22 49 22 50
REMARK Flexibility Score: inf
ROOT
ATOM      1  C   UNL     1     -47.842  35.031  27.048  1.00  0.00     0.113 C 
ATOM      2  H   UNL     1     -48.834  35.082  27.514  1.00  0.00     0.076 H 
ATOM      3  H   UNL     1     -47.990  35.267  25.987  1.00  0.00     0.076 H 
ENDROOT
BRANCH   1   4
ATOM      4  O   UNL     1     -47.408  33.676  27.198  1.00  0.00    -0.489 OA
BRANCH   4   5
ATOM      5  C   UNL     1     -47.304  32.889  26.083  1.00  0.00     0.122 A 
ATOM      6  C   UNL     1     -48.972  28.867  24.169  1.00  0.00     0.040 A 
ATOM      7  C   UNL     1     -48.119  28.942  23.080  1.00  0.00    -0.017 A 
ATOM      8  N   UNL     1     -49.004  29.813  25.132  1.00  0.00    -0.253 NA
ATOM      9  C   UNL     1     -47.287  30.051  22.942  1.00  0.00     0.043 A 
ATOM     10  H   UNL     1     -48.110  28.156  22.332  1.00  0.00     0.066 H 
ATOM     11  C   UNL     1     -48.168  30.861  25.037  1.00  0.00     0.076 A 
ATOM     12  C   UNL     1     -47.261  31.027  23.968  1.00  0.00     0.023 A 
ATOM     13  C   UNL     1     -48.181  31.802  26.056  1.00  0.00     0.007 A 
ATOM     14  C   UNL     1     -46.389  32.142  23.987  1.00  0.00    -0.047 A 
ATOM     15  H   UNL     1     -48.876  31.663  26.881  1.00  0.00     0.069 H 
ATOM     16  C   UNL     1     -46.410  33.064  25.037  1.00  0.00    -0.019 A 
ATOM     17  H   UNL     1     -45.670  32.299  23.190  1.00  0.00     0.063 H 
ATOM     18  H   UNL     1     -45.709  33.890  25.009  1.00  0.00     0.066 H 
BRANCH   6  19
ATOM     19  C   UNL     1     -49.897  27.697  24.322  1.00  0.00    -0.022 C 
ATOM     20  H   UNL     1     -50.636  27.886  25.108  1.00  0.00     0.030 H 
ATOM     21  H   UNL     1     -50.436  27.515  23.387  1.00  0.00     0.030 H 
ATOM     22  H   UNL     1     -49.331  26.801  24.594  1.00  0.00     0.030 H 
ENDBRANCH   6  19
BRANCH   9  23
ATOM     23  N   UNL     1     -46.351  30.025  21.881  1.00  0.00    -0.398 N 
ATOM     24  H   UNL     1     -45.736  29.219  21.920  1.00  0.00     0.156 HD
ATOM     25  H   UNL     1     -46.837  30.039  20.986  1.00  0.00     0.156 HD
ENDBRANCH   9  23
ENDBRANCH   4   5
ENDBRANCH   1   4
BRANCH   1  26
ATOM     26  C   UNL     1     -46.975  36.072  27.733  1.00  0.00    -0.009 A 
ATOM     27  C   UNL     1     -46.485  35.817  29.018  1.00  0.00    -0.055 A 
ATOM     28  C   UNL     1     -46.616  37.276  27.101  1.00  0.00    -0.031 A 
ATOM     29  C   UNL     1     -45.675  36.751  29.664  1.00  0.00    -0.060 A 
ATOM     30  H   UNL     1     -46.730  34.886  29.527  1.00  0.00     0.063 H 
ATOM     31  C   UNL     1     -45.831  38.240  27.751  1.00  0.00     0.047 A 
ATOM     32  H   UNL     1     -46.951  37.434  26.080  1.00  0.00     0.065 H 
ATOM     33  C   UNL     1     -45.351  37.957  29.036  1.00  0.00    -0.038 A 
ATOM     34  H   UNL     1     -45.304  36.545  30.664  1.00  0.00     0.062 H 
ATOM     35  H   UNL     1     -44.750  38.667  29.598  1.00  0.00     0.064 H 
BRANCH  31  36
ATOM     36  N   UNL     1     -45.535  39.494  27.120  1.00  0.00    -0.301 N 
ATOM     37  C   UNL     1     -44.275  39.893  26.695  1.00  0.00     0.012 A 
ATOM     38  C   UNL     1     -46.417  40.540  26.837  1.00  0.00     0.150 A 
ATOM     39  C   UNL     1     -44.356  41.147  26.135  1.00  0.00    -0.031 A 
ATOM     40  H   UNL     1     -43.416  39.244  26.791  1.00  0.00     0.082 H 
ATOM     41  C   UNL     1     -45.704  41.567  26.224  1.00  0.00     0.061 A 
ATOM     42  N   UNL     1     -47.731  40.594  27.135  1.00  0.00    -0.218 NA
ATOM     43  H   UNL     1     -43.530  41.707  25.716  1.00  0.00     0.065 H 
ATOM     44  C   UNL     1     -46.420  42.720  25.866  1.00  0.00     0.136 A 
ATOM     45  C   UNL     1     -48.309  41.742  26.757  1.00  0.00     0.120 A 
ATOM     46  N   UNL     1     -47.734  42.788  26.139  1.00  0.00    -0.219 NA
ATOM     47  H   UNL     1     -49.369  41.838  26.973  1.00  0.00     0.106 H 
BRANCH  44  48
ATOM     48  N   UNL     1     -45.846  43.811  25.228  1.00  0.00    -0.383 N 
ATOM     49  H   UNL     1     -45.829  44.609  25.854  1.00  0.00     0.158 HD
ATOM     50  H   UNL     1     -46.196  43.984  24.296  1.00  0.00     0.158 HD
ENDBRANCH  44  48
ENDBRANCH  31  36
ENDBRANCH   1  26
TORSDOF 7
ENDMDL
