MODEL 1
REMARK VINA RESULT:      -9.9      0.000      0.000
REMARK SMILES CNc1ccc2ccc(OCc3cccc(-n4ccc5c(N)ncnc54)c3F)cc2n1
REMARK SMILES IDX 11 1 10 4 9 5 3 6 4 7 31 8 5 9 30 11 6 12 29 14 7 15 8 17
REMARK SMILES IDX 2 20 1 22 12 26 13 27 27 28 14 29 16 31 28 32 15 33 17 36
REMARK SMILES IDX 18 37 26 38 19 39 20 41 25 42 21 44 24 45 23 46 22 48
REMARK H PARENT 11 2 11 3 4 10 5 13 29 16 7 18 8 19 2 21 1 23 1 24 1 25 13 30
REMARK H PARENT 14 34 15 35 18 40 19 43 24 47 22 49 22 50
REMARK Flexibility Score: inf
ROOT
ATOM      1  C   UNL     1     -46.865  34.612  27.568  1.00  0.00     0.116 C 
ATOM      2  H   UNL     1     -45.968  34.509  26.944  1.00  0.00     0.076 H 
ATOM      3  H   UNL     1     -46.662  34.275  28.592  1.00  0.00     0.076 H 
ENDROOT
BRANCH   1   4
ATOM      4  O   UNL     1     -47.920  33.831  27.002  1.00  0.00    -0.489 OA
BRANCH   4   5
ATOM      5  C   UNL     1     -47.583  32.948  26.013  1.00  0.00     0.122 A 
ATOM      6  C   UNL     1     -48.688  28.686  24.185  1.00  0.00     0.126 A 
ATOM      7  C   UNL     1     -47.714  28.806  23.201  1.00  0.00    -0.019 A 
ATOM      8  N   UNL     1     -48.898  29.661  25.093  1.00  0.00    -0.231 NA
ATOM      9  C   UNL     1     -46.921  29.949  23.160  1.00  0.00    -0.049 A 
ATOM     10  H   UNL     1     -47.580  28.024  22.462  1.00  0.00     0.066 H 
ATOM     11  C   UNL     1     -48.136  30.770  25.059  1.00  0.00     0.076 A 
ATOM     12  C   UNL     1     -47.123  30.959  24.102  1.00  0.00     0.001 A 
ATOM     13  H   UNL     1     -46.160  30.043  22.391  1.00  0.00     0.063 H 
ATOM     14  C   UNL     1     -48.344  31.773  25.996  1.00  0.00     0.007 A 
ATOM     15  C   UNL     1     -46.352  32.134  24.107  1.00  0.00    -0.049 A 
ATOM     16  H   UNL     1     -49.129  31.636  26.738  1.00  0.00     0.069 H 
ATOM     17  C   UNL     1     -46.583  33.126  25.062  1.00  0.00    -0.019 A 
ATOM     18  H   UNL     1     -45.570  32.284  23.366  1.00  0.00     0.063 H 
ATOM     19  H   UNL     1     -45.967  34.018  25.030  1.00  0.00     0.066 H 
BRANCH   6  20
ATOM     20  N   UNL     1     -49.488  27.528  24.181  1.00  0.00    -0.373 N 
ATOM     21  H   UNL     1     -49.467  27.119  23.252  1.00  0.00     0.161 HD
BRANCH  20  22
ATOM     22  C   UNL     1     -49.138  26.560  25.207  1.00  0.00     0.005 C 
ATOM     23  H   UNL     1     -48.941  25.571  24.778  1.00  0.00     0.045 H 
ATOM     24  H   UNL     1     -48.274  26.888  25.793  1.00  0.00     0.045 H 
ATOM     25  H   UNL     1     -49.981  26.456  25.899  1.00  0.00     0.045 H 
ENDBRANCH  20  22
ENDBRANCH   6  20
ENDBRANCH   4   5
ENDBRANCH   1   4
BRANCH   1  26
ATOM     26  C   UNL     1     -47.241  36.075  27.626  1.00  0.00     0.027 A 
ATOM     27  C   UNL     1     -48.562  36.514  27.779  1.00  0.00    -0.053 A 
ATOM     28  C   UNL     1     -46.211  37.027  27.577  1.00  0.00     0.153 A 
ATOM     29  C   UNL     1     -48.844  37.876  27.876  1.00  0.00    -0.060 A 
ATOM     30  H   UNL     1     -49.381  35.799  27.831  1.00  0.00     0.063 H 
ATOM     31  C   UNL     1     -46.484  38.398  27.647  1.00  0.00     0.083 A 
ATOM     32  F   UNL     1     -44.951  36.567  27.575  1.00  0.00    -0.204 F 
ATOM     33  C   UNL     1     -47.814  38.816  27.816  1.00  0.00    -0.035 A 
ATOM     34  H   UNL     1     -49.875  38.206  27.991  1.00  0.00     0.062 H 
ATOM     35  H   UNL     1     -48.082  39.869  27.861  1.00  0.00     0.065 H 
BRANCH  31  36
ATOM     36  N   UNL     1     -45.445  39.371  27.570  1.00  0.00    -0.298 N 
ATOM     37  C   UNL     1     -45.269  40.254  26.514  1.00  0.00     0.012 A 
ATOM     38  C   UNL     1     -44.415  39.598  28.481  1.00  0.00     0.150 A 
ATOM     39  C   UNL     1     -44.202  41.078  26.785  1.00  0.00    -0.031 A 
ATOM     40  H   UNL     1     -45.955  40.268  25.677  1.00  0.00     0.082 H 
ATOM     41  C   UNL     1     -43.647  40.664  28.021  1.00  0.00     0.061 A 
ATOM     42  N   UNL     1     -44.152  38.882  29.593  1.00  0.00    -0.218 NA
ATOM     43  H   UNL     1     -43.852  41.888  26.157  1.00  0.00     0.065 H 
ATOM     44  C   UNL     1     -42.560  41.058  28.813  1.00  0.00     0.136 A 
ATOM     45  C   UNL     1     -43.094  39.352  30.269  1.00  0.00     0.120 A 
ATOM     46  N   UNL     1     -42.297  40.386  29.947  1.00  0.00    -0.219 NA
ATOM     47  H   UNL     1     -42.849  38.831  31.188  1.00  0.00     0.106 H 
BRANCH  44  48
ATOM     48  N   UNL     1     -41.704  42.099  28.480  1.00  0.00    -0.383 N 
ATOM     49  H   UNL     1     -41.748  42.900  29.094  1.00  0.00     0.158 HD
ATOM     50  H   UNL     1     -41.753  42.291  27.486  1.00  0.00     0.158 HD
ENDBRANCH  44  48
ENDBRANCH  31  36
ENDBRANCH   1  26
TORSDOF 7
ENDMDL
MODEL 2
REMARK VINA RESULT:      -9.7      1.678      2.519
REMARK SMILES CNc1ccc2ccc(OCc3cccc(-n4ccc5c(N)ncnc54)c3F)cc2n1
REMARK SMILES IDX 11 1 10 4 9 5 3 6 4 7 31 8 5 9 30 11 6 12 29 14 7 15 8 17
REMARK SMILES IDX 2 20 1 22 12 26 13 27 27 28 14 29 16 31 28 32 15 33 17 36
REMARK SMILES IDX 18 37 26 38 19 39 20 41 25 42 21 44 24 45 23 46 22 48
REMARK H PARENT 11 2 11 3 4 10 5 13 29 16 7 18 8 19 2 21 1 23 1 24 1 25 13 30
REMARK H PARENT 14 34 15 35 18 40 19 43 24 47 22 49 22 50
REMARK Flexibility Score: inf
ROOT
ATOM      1  C   UNL     1     -46.824  34.177  26.982  1.00  0.00     0.116 C 
ATOM      2  H   UNL     1     -46.451  34.181  25.949  1.00  0.00     0.076 H 
ATOM      3  H   UNL     1     -46.062  33.776  27.664  1.00  0.00     0.076 H 
ENDROOT
BRANCH   1   4
ATOM      4  O   UNL     1     -48.004  33.374  27.050  1.00  0.00    -0.489 OA
BRANCH   4   5
ATOM      5  C   UNL     1     -48.345  32.668  25.929  1.00  0.00     0.122 A 
ATOM      6  C   UNL     1     -46.513  30.181  22.299  1.00  0.00     0.126 A 
ATOM      7  C   UNL     1     -47.777  29.918  21.783  1.00  0.00    -0.019 A 
ATOM      8  N   UNL     1     -46.347  30.898  23.429  1.00  0.00    -0.231 NA
ATOM      9  C   UNL     1     -48.899  30.421  22.434  1.00  0.00    -0.049 A 
ATOM     10  H   UNL     1     -47.891  29.315  20.889  1.00  0.00     0.066 H 
ATOM     11  C   UNL     1     -47.428  31.387  24.065  1.00  0.00     0.076 A 
ATOM     12  C   UNL     1     -48.737  31.174  23.599  1.00  0.00     0.001 A 
ATOM     13  H   UNL     1     -49.887  30.215  22.032  1.00  0.00     0.063 H 
ATOM     14  C   UNL     1     -47.261  32.131  25.225  1.00  0.00     0.007 A 
ATOM     15  C   UNL     1     -49.835  31.705  24.297  1.00  0.00    -0.049 A 
ATOM     16  H   UNL     1     -46.251  32.298  25.594  1.00  0.00     0.069 H 
ATOM     17  C   UNL     1     -49.638  32.451  25.460  1.00  0.00    -0.019 A 
ATOM     18  H   UNL     1     -50.849  31.540  23.940  1.00  0.00     0.063 H 
ATOM     19  H   UNL     1     -50.511  32.842  25.970  1.00  0.00     0.066 H 
BRANCH   6  20
ATOM     20  N   UNL     1     -45.403  29.635  21.628  1.00  0.00    -0.373 N 
ATOM     21  H   UNL     1     -44.860  30.392  21.223  1.00  0.00     0.161 HD
BRANCH  20  22
ATOM     22  C   UNL     1     -44.583  28.759  22.449  1.00  0.00     0.005 C 
ATOM     23  H   UNL     1     -43.563  28.678  22.058  1.00  0.00     0.045 H 
ATOM     24  H   UNL     1     -44.554  29.095  23.491  1.00  0.00     0.045 H 
ATOM     25  H   UNL     1     -45.020  27.755  22.442  1.00  0.00     0.045 H 
ENDBRANCH  20  22
ENDBRANCH   6  20
ENDBRANCH   4   5
ENDBRANCH   1   4
BRANCH   1  26
ATOM     26  C   UNL     1     -47.110  35.603  27.392  1.00  0.00     0.027 A 
ATOM     27  C   UNL     1     -48.398  36.152  27.386  1.00  0.00    -0.053 A 
ATOM     28  C   UNL     1     -46.041  36.389  27.850  1.00  0.00     0.153 A 
ATOM     29  C   UNL     1     -48.610  37.459  27.822  1.00  0.00    -0.060 A 
ATOM     30  H   UNL     1     -49.249  35.562  27.048  1.00  0.00     0.063 H 
ATOM     31  C   UNL     1     -46.236  37.712  28.266  1.00  0.00     0.083 A 
ATOM     32  F   UNL     1     -44.849  35.788  27.978  1.00  0.00    -0.204 F 
ATOM     33  C   UNL     1     -47.538  38.237  28.265  1.00  0.00    -0.035 A 
ATOM     34  H   UNL     1     -49.615  37.876  27.809  1.00  0.00     0.062 H 
ATOM     35  H   UNL     1     -47.743  39.261  28.564  1.00  0.00     0.065 H 
BRANCH  31  36
ATOM     36  N   UNL     1     -45.150  38.524  28.705  1.00  0.00    -0.298 N 
ATOM     37  C   UNL     1     -44.459  38.339  29.895  1.00  0.00     0.012 A 
ATOM     38  C   UNL     1     -44.611  39.645  28.077  1.00  0.00     0.150 A 
ATOM     39  C   UNL     1     -43.450  39.270  29.981  1.00  0.00    -0.031 A 
ATOM     40  H   UNL     1     -44.700  37.521  30.560  1.00  0.00     0.082 H 
ATOM     41  C   UNL     1     -43.545  40.108  28.843  1.00  0.00     0.061 A 
ATOM     42  N   UNL     1     -45.064  40.234  26.952  1.00  0.00    -0.218 NA
ATOM     43  H   UNL     1     -42.726  39.345  30.783  1.00  0.00     0.065 H 
ATOM     44  C   UNL     1     -42.855  41.231  28.367  1.00  0.00     0.136 A 
ATOM     45  C   UNL     1     -44.327  41.294  26.593  1.00  0.00     0.120 A 
ATOM     46  N   UNL     1     -43.262  41.816  27.227  1.00  0.00    -0.219 NA
ATOM     47  H   UNL     1     -44.628  41.795  25.679  1.00  0.00     0.106 H 
BRANCH  44  48
ATOM     48  N   UNL     1     -41.777  41.807  29.025  1.00  0.00    -0.383 N 
ATOM     49  H   UNL     1     -41.647  41.501  29.978  1.00  0.00     0.158 HD
ATOM     50  H   UNL     1     -41.761  42.809  28.867  1.00  0.00     0.158 HD
ENDBRANCH  44  48
ENDBRANCH  31  36
ENDBRANCH   1  26
TORSDOF 7
ENDMDL
MODEL 3
REMARK VINA RESULT:      -9.6      2.148      3.500
REMARK SMILES CNc1ccc2ccc(OCc3cccc(-n4ccc5c(N)ncnc54)c3F)cc2n1
REMARK SMILES IDX 11 1 10 4 9 5 3 6 4 7 31 8 5 9 30 11 6 12 29 14 7 15 8 17
REMARK SMILES IDX 2 20 1 22 12 26 13 27 27 28 14 29 16 31 28 32 15 33 17 36
REMARK SMILES IDX 18 37 26 38 19 39 20 41 25 42 21 44 24 45 23 46 22 48
REMARK H PARENT 11 2 11 3 4 10 5 13 29 16 7 18 8 19 2 21 1 23 1 24 1 25 13 30
REMARK H PARENT 14 34 15 35 18 40 19 43 24 47 22 49 22 50
REMARK Flexibility Score: inf
ROOT
ATOM      1  C   UNL     1     -46.817  36.967  27.014  1.00  0.00     0.116 C 
ATOM      2  H   UNL     1     -47.713  36.677  27.577  1.00  0.00     0.076 H 
ATOM      3  H   UNL     1     -47.084  37.630  26.180  1.00  0.00     0.076 H 
ENDROOT
BRANCH   1   4
ATOM      4  O   UNL     1     -46.180  35.791  26.511  1.00  0.00    -0.489 OA
BRANCH   4   5
ATOM      5  C   UNL     1     -46.981  34.721  26.222  1.00  0.00     0.122 A 
ATOM      6  C   UNL     1     -47.048  30.528  23.956  1.00  0.00     0.126 A 
ATOM      7  C   UNL     1     -48.367  30.297  24.328  1.00  0.00    -0.019 A 
ATOM      8  N   UNL     1     -46.393  31.645  24.332  1.00  0.00    -0.231 NA
ATOM      9  C   UNL     1     -49.038  31.248  25.092  1.00  0.00    -0.049 A 
ATOM     10  H   UNL     1     -48.867  29.378  24.040  1.00  0.00     0.066 H 
ATOM     11  C   UNL     1     -47.035  32.569  25.071  1.00  0.00     0.076 A 
ATOM     12  C   UNL     1     -48.372  32.413  25.477  1.00  0.00     0.001 A 
ATOM     13  H   UNL     1     -50.068  31.067  25.384  1.00  0.00     0.063 H 
ATOM     14  C   UNL     1     -46.367  33.723  25.456  1.00  0.00     0.007 A 
ATOM     15  C   UNL     1     -49.001  33.405  26.248  1.00  0.00    -0.049 A 
ATOM     16  H   UNL     1     -45.331  33.850  25.148  1.00  0.00     0.069 H 
ATOM     17  C   UNL     1     -48.305  34.557  26.619  1.00  0.00    -0.019 A 
ATOM     18  H   UNL     1     -50.034  33.286  26.566  1.00  0.00     0.063 H 
ATOM     19  H   UNL     1     -48.825  35.298  27.216  1.00  0.00     0.066 H 
BRANCH   6  20
ATOM     20  N   UNL     1     -46.393  29.533  23.205  1.00  0.00    -0.373 N 
ATOM     21  H   UNL     1     -47.086  28.878  22.855  1.00  0.00     0.161 HD
BRANCH  20  22
ATOM     22  C   UNL     1     -45.549  30.050  22.141  1.00  0.00     0.005 C 
ATOM     23  H   UNL     1     -45.245  31.084  22.335  1.00  0.00     0.045 H 
ATOM     24  H   UNL     1     -44.662  29.426  21.992  1.00  0.00     0.045 H 
ATOM     25  H   UNL     1     -46.115  30.042  21.204  1.00  0.00     0.045 H 
ENDBRANCH  20  22
ENDBRANCH   6  20
ENDBRANCH   4   5
ENDBRANCH   1   4
BRANCH   1  26
ATOM     26  C   UNL     1     -45.898  37.732  27.939  1.00  0.00     0.027 A 
ATOM     27  C   UNL     1     -45.597  37.302  29.237  1.00  0.00    -0.053 A 
ATOM     28  C   UNL     1     -45.282  38.895  27.449  1.00  0.00     0.153 A 
ATOM     29  C   UNL     1     -44.703  38.023  30.028  1.00  0.00    -0.060 A 
ATOM     30  H   UNL     1     -46.050  36.398  29.640  1.00  0.00     0.063 H 
ATOM     31  C   UNL     1     -44.403  39.641  28.243  1.00  0.00     0.083 A 
ATOM     32  F   UNL     1     -45.481  39.197  26.158  1.00  0.00    -0.204 F 
ATOM     33  C   UNL     1     -44.103  39.184  29.536  1.00  0.00    -0.035 A 
ATOM     34  H   UNL     1     -44.479  37.681  31.037  1.00  0.00     0.062 H 
ATOM     35  H   UNL     1     -43.439  39.733  30.198  1.00  0.00     0.065 H 
BRANCH  31  36
ATOM     36  N   UNL     1     -43.795  40.838  27.762  1.00  0.00    -0.298 N 
ATOM     37  C   UNL     1     -42.458  41.167  27.935  1.00  0.00     0.012 A 
ATOM     38  C   UNL     1     -44.401  41.893  27.084  1.00  0.00     0.150 A 
ATOM     39  C   UNL     1     -42.201  42.365  27.310  1.00  0.00    -0.031 A 
ATOM     40  H   UNL     1     -41.777  40.493  28.439  1.00  0.00     0.082 H 
ATOM     41  C   UNL     1     -43.426  42.838  26.779  1.00  0.00     0.061 A 
ATOM     42  N   UNL     1     -45.715  42.026  26.811  1.00  0.00    -0.218 NA
ATOM     43  H   UNL     1     -41.237  42.852  27.249  1.00  0.00     0.065 H 
ATOM     44  C   UNL     1     -43.839  43.980  26.078  1.00  0.00     0.136 A 
ATOM     45  C   UNL     1     -45.990  43.152  26.138  1.00  0.00     0.120 A 
ATOM     46  N   UNL     1     -45.137  44.121  25.760  1.00  0.00    -0.219 NA
ATOM     47  H   UNL     1     -47.030  43.302  25.868  1.00  0.00     0.106 H 
BRANCH  44  48
ATOM     48  N   UNL     1     -42.981  45.008  25.710  1.00  0.00    -0.383 N 
ATOM     49  H   UNL     1     -43.129  45.373  24.781  1.00  0.00     0.158 HD
ATOM     50  H   UNL     1     -42.025  44.774  25.956  1.00  0.00     0.158 HD
ENDBRANCH  44  48
ENDBRANCH  31  36
ENDBRANCH   1  26
TORSDOF 7
ENDMDL
MODEL 4
REMARK VINA RESULT:      -9.5      1.946      2.742
REMARK SMILES CNc1ccc2ccc(OCc3cccc(-n4ccc5c(N)ncnc54)c3F)cc2n1
REMARK SMILES IDX 11 1 10 4 9 5 3 6 4 7 31 8 5 9 30 11 6 12 29 14 7 15 8 17
REMARK SMILES IDX 2 20 1 22 12 26 13 27 27 28 14 29 16 31 28 32 15 33 17 36
REMARK SMILES IDX 18 37 26 38 19 39 20 41 25 42 21 44 24 45 23 46 22 48
REMARK H PARENT 11 2 11 3 4 10 5 13 29 16 7 18 8 19 2 21 1 23 1 24 1 25 13 30
REMARK H PARENT 14 34 15 35 18 40 19 43 24 47 22 49 22 50
REMARK Flexibility Score: inf
ROOT
ATOM      1  C   UNL     1     -47.491  35.376  27.815  1.00  0.00     0.116 C 
ATOM      2  H   UNL     1     -47.900  34.641  28.520  1.00  0.00     0.076 H 
ATOM      3  H   UNL     1     -48.302  35.918  27.312  1.00  0.00     0.076 H 
ENDROOT
BRANCH   1   4
ATOM      4  O   UNL     1     -46.690  34.697  26.845  1.00  0.00    -0.489 OA
BRANCH   4   5
ATOM      5  C   UNL     1     -47.297  33.720  26.105  1.00  0.00     0.122 A 
ATOM      6  C   UNL     1     -46.731  30.967  22.255  1.00  0.00     0.126 A 
ATOM      7  C   UNL     1     -47.959  30.350  22.461  1.00  0.00    -0.019 A 
ATOM      8  N   UNL     1     -46.271  31.920  23.091  1.00  0.00    -0.231 NA
ATOM      9  C   UNL     1     -48.746  30.736  23.543  1.00  0.00    -0.049 A 
ATOM     10  H   UNL     1     -48.299  29.565  21.794  1.00  0.00     0.066 H 
ATOM     11  C   UNL     1     -47.025  32.298  24.140  1.00  0.00     0.076 A 
ATOM     12  C   UNL     1     -48.283  31.729  24.408  1.00  0.00     0.001 A 
ATOM     13  H   UNL     1     -49.705  30.253  23.705  1.00  0.00     0.063 H 
ATOM     14  C   UNL     1     -46.558  33.284  24.999  1.00  0.00     0.007 A 
ATOM     15  C   UNL     1     -49.034  32.157  25.515  1.00  0.00    -0.049 A 
ATOM     16  H   UNL     1     -45.584  33.726  24.801  1.00  0.00     0.069 H 
ATOM     17  C   UNL     1     -48.541  33.152  26.362  1.00  0.00    -0.019 A 
ATOM     18  H   UNL     1     -50.006  31.718  25.726  1.00  0.00     0.063 H 
ATOM     19  H   UNL     1     -49.151  33.452  27.206  1.00  0.00     0.066 H 
BRANCH   6  20
ATOM     20  N   UNL     1     -45.952  30.533  21.166  1.00  0.00    -0.373 N 
ATOM     21  H   UNL     1     -46.308  29.638  20.845  1.00  0.00     0.161 HD
BRANCH  20  22
ATOM     22  C   UNL     1     -45.856  31.498  20.083  1.00  0.00     0.005 C 
ATOM     23  H   UNL     1     -46.720  31.439  19.413  1.00  0.00     0.045 H 
ATOM     24  H   UNL     1     -45.750  32.520  20.462  1.00  0.00     0.045 H 
ATOM     25  H   UNL     1     -44.963  31.276  19.489  1.00  0.00     0.045 H 
ENDBRANCH  20  22
ENDBRANCH   6  20
ENDBRANCH   4   5
ENDBRANCH   1   4
BRANCH   1  26
ATOM     26  C   UNL     1     -46.673  36.381  28.592  1.00  0.00     0.027 A 
ATOM     27  C   UNL     1     -46.393  36.240  29.957  1.00  0.00    -0.053 A 
ATOM     28  C   UNL     1     -46.127  37.472  27.898  1.00  0.00     0.153 A 
ATOM     29  C   UNL     1     -45.590  37.173  30.612  1.00  0.00    -0.060 A 
ATOM     30  H   UNL     1     -46.792  35.397  30.520  1.00  0.00     0.063 H 
ATOM     31  C   UNL     1     -45.341  38.429  28.550  1.00  0.00     0.083 A 
ATOM     32  F   UNL     1     -46.295  37.497  26.568  1.00  0.00    -0.204 F 
ATOM     33  C   UNL     1     -45.061  38.261  29.914  1.00  0.00    -0.035 A 
ATOM     34  H   UNL     1     -45.383  37.055  31.674  1.00  0.00     0.062 H 
ATOM     35  H   UNL     1     -44.469  38.982  30.471  1.00  0.00     0.065 H 
BRANCH  31  36
ATOM     36  N   UNL     1     -44.807  39.555  27.855  1.00  0.00    -0.298 N 
ATOM     37  C   UNL     1     -45.241  39.990  26.611  1.00  0.00     0.012 A 
ATOM     38  C   UNL     1     -43.761  40.386  28.249  1.00  0.00     0.150 A 
ATOM     39  C   UNL     1     -44.542  41.122  26.258  1.00  0.00    -0.031 A 
ATOM     40  H   UNL     1     -46.056  39.497  26.098  1.00  0.00     0.082 H 
ATOM     41  C   UNL     1     -43.596  41.373  27.282  1.00  0.00     0.061 A 
ATOM     42  N   UNL     1     -42.987  40.243  29.344  1.00  0.00    -0.218 NA
ATOM     43  H   UNL     1     -44.691  41.702  25.357  1.00  0.00     0.065 H 
ATOM     44  C   UNL     1     -42.591  42.325  27.504  1.00  0.00     0.136 A 
ATOM     45  C   UNL     1     -42.065  41.209  29.452  1.00  0.00     0.120 A 
ATOM     46  N   UNL     1     -41.829  42.228  28.607  1.00  0.00    -0.219 NA
ATOM     47  H   UNL     1     -41.428  41.161  30.329  1.00  0.00     0.106 H 
BRANCH  44  48
ATOM     48  N   UNL     1     -42.308  43.363  26.627  1.00  0.00    -0.383 N 
ATOM     49  H   UNL     1     -43.111  43.759  26.162  1.00  0.00     0.158 HD
ATOM     50  H   UNL     1     -41.520  43.121  26.036  1.00  0.00     0.158 HD
ENDBRANCH  44  48
ENDBRANCH  31  36
ENDBRANCH   1  26
TORSDOF 7
ENDMDL
MODEL 5
REMARK VINA RESULT:      -9.3      1.435      2.268
REMARK SMILES CNc1ccc2ccc(OCc3cccc(-n4ccc5c(N)ncnc54)c3F)cc2n1
REMARK SMILES IDX 11 1 10 4 9 5 3 6 4 7 31 8 5 9 30 11 6 12 29 14 7 15 8 17
REMARK SMILES IDX 2 20 1 22 12 26 13 27 27 28 14 29 16 31 28 32 15 33 17 36
REMARK SMILES IDX 18 37 26 38 19 39 20 41 25 42 21 44 24 45 23 46 22 48
REMARK H PARENT 11 2 11 3 4 10 5 13 29 16 7 18 8 19 2 21 1 23 1 24 1 25 13 30
REMARK H PARENT 14 34 15 35 18 40 19 43 24 47 22 49 22 50
REMARK Flexibility Score: inf
ROOT
ATOM      1  C   UNL     1     -47.131  33.954  26.145  1.00  0.00     0.116 C 
ATOM      2  H   UNL     1     -47.471  34.076  25.108  1.00  0.00     0.076 H 
ATOM      3  H   UNL     1     -46.041  33.829  26.179  1.00  0.00     0.076 H 
ENDROOT
BRANCH   1   4
ATOM      4  O   UNL     1     -47.767  32.808  26.714  1.00  0.00    -0.489 OA
BRANCH   4   5
ATOM      5  C   UNL     1     -48.484  32.006  25.868  1.00  0.00     0.122 A 
ATOM      6  C   UNL     1     -49.258  27.451  24.699  1.00  0.00     0.126 A 
ATOM      7  C   UNL     1     -50.180  27.811  23.723  1.00  0.00    -0.019 A 
ATOM      8  N   UNL     1     -48.636  28.375  25.459  1.00  0.00    -0.231 NA
ATOM      9  C   UNL     1     -50.456  29.158  23.508  1.00  0.00    -0.049 A 
ATOM     10  H   UNL     1     -50.692  27.051  23.143  1.00  0.00     0.066 H 
ATOM     11  C   UNL     1     -48.898  29.679  25.257  1.00  0.00     0.076 A 
ATOM     12  C   UNL     1     -49.808  30.123  24.282  1.00  0.00     0.001 A 
ATOM     13  H   UNL     1     -51.176  29.441  22.747  1.00  0.00     0.063 H 
ATOM     14  C   UNL     1     -48.254  30.635  26.032  1.00  0.00     0.007 A 
ATOM     15  C   UNL     1     -50.049  31.497  24.107  1.00  0.00    -0.049 A 
ATOM     16  H   UNL     1     -47.551  30.299  26.792  1.00  0.00     0.069 H 
ATOM     17  C   UNL     1     -49.386  32.436  24.901  1.00  0.00    -0.019 A 
ATOM     18  H   UNL     1     -50.754  31.843  23.356  1.00  0.00     0.063 H 
ATOM     19  H   UNL     1     -49.602  33.486  24.735  1.00  0.00     0.066 H 
BRANCH   6  20
ATOM     20  N   UNL     1     -49.023  26.078  24.906  1.00  0.00    -0.373 N 
ATOM     21  H   UNL     1     -48.021  25.918  24.936  1.00  0.00     0.161 HD
BRANCH  20  22
ATOM     22  C   UNL     1     -49.695  25.529  26.072  1.00  0.00     0.005 C 
ATOM     23  H   UNL     1     -50.674  25.111  25.813  1.00  0.00     0.045 H 
ATOM     24  H   UNL     1     -49.086  24.765  26.566  1.00  0.00     0.045 H 
ATOM     25  H   UNL     1     -49.862  26.333  26.797  1.00  0.00     0.045 H 
ENDBRANCH  20  22
ENDBRANCH   6  20
ENDBRANCH   4   5
ENDBRANCH   1   4
BRANCH   1  26
ATOM     26  C   UNL     1     -47.480  35.209  26.912  1.00  0.00     0.027 A 
ATOM     27  C   UNL     1     -48.796  35.650  27.089  1.00  0.00    -0.053 A 
ATOM     28  C   UNL     1     -46.437  35.928  27.517  1.00  0.00     0.153 A 
ATOM     29  C   UNL     1     -49.062  36.788  27.849  1.00  0.00    -0.060 A 
ATOM     30  H   UNL     1     -49.627  35.106  26.642  1.00  0.00     0.063 H 
ATOM     31  C   UNL     1     -46.688  37.087  28.260  1.00  0.00     0.083 A 
ATOM     32  F   UNL     1     -45.207  35.399  27.448  1.00  0.00    -0.204 F 
ATOM     33  C   UNL     1     -48.017  37.503  28.437  1.00  0.00    -0.035 A 
ATOM     34  H   UNL     1     -50.089  37.124  27.976  1.00  0.00     0.062 H 
ATOM     35  H   UNL     1     -48.266  38.404  28.993  1.00  0.00     0.065 H 
BRANCH  31  36
ATOM     36  N   UNL     1     -45.631  37.838  28.854  1.00  0.00    -0.298 N 
ATOM     37  C   UNL     1     -45.094  37.585  30.109  1.00  0.00     0.012 A 
ATOM     38  C   UNL     1     -44.977  38.953  28.335  1.00  0.00     0.150 A 
ATOM     39  C   UNL     1     -44.066  38.468  30.347  1.00  0.00    -0.031 A 
ATOM     40  H   UNL     1     -45.444  36.757  30.711  1.00  0.00     0.082 H 
ATOM     41  C   UNL     1     -43.992  39.345  29.237  1.00  0.00     0.061 A 
ATOM     42  N   UNL     1     -45.269  39.596  27.187  1.00  0.00    -0.218 NA
ATOM     43  H   UNL     1     -43.440  38.486  31.230  1.00  0.00     0.065 H 
ATOM     44  C   UNL     1     -43.207  40.452  28.887  1.00  0.00     0.136 A 
ATOM     45  C   UNL     1     -44.454  40.634  26.956  1.00  0.00     0.120 A 
ATOM     46  N   UNL     1     -43.453  41.090  27.729  1.00  0.00    -0.219 NA
ATOM     47  H   UNL     1     -44.625  41.177  26.032  1.00  0.00     0.106 H 
BRANCH  44  48
ATOM     48  N   UNL     1     -42.193  40.959  29.687  1.00  0.00    -0.383 N 
ATOM     49  H   UNL     1     -41.355  41.229  29.193  1.00  0.00     0.158 HD
ATOM     50  H   UNL     1     -42.064  40.375  30.506  1.00  0.00     0.158 HD
ENDBRANCH  44  48
ENDBRANCH  31  36
ENDBRANCH   1  26
TORSDOF 7
ENDMDL
MODEL 6
REMARK VINA RESULT:      -9.3      3.455      5.844
REMARK SMILES CNc1ccc2ccc(OCc3cccc(-n4ccc5c(N)ncnc54)c3F)cc2n1
REMARK SMILES IDX 11 1 10 4 9 5 3 6 4 7 31 8 5 9 30 11 6 12 29 14 7 15 8 17
REMARK SMILES IDX 2 20 1 22 12 26 13 27 27 28 14 29 16 31 28 32 15 33 17 36
REMARK SMILES IDX 18 37 26 38 19 39 20 41 25 42 21 44 24 45 23 46 22 48
REMARK H PARENT 11 2 11 3 4 10 5 13 29 16 7 18 8 19 2 21 1 23 1 24 1 25 13 30
REMARK H PARENT 14 34 15 35 18 40 19 43 24 47 22 49 22 50
REMARK Flexibility Score: inf
ROOT
ATOM      1  C   UNL     1     -44.742  38.650  27.719  1.00  0.00     0.116 C 
ATOM      2  H   UNL     1     -44.661  38.295  26.684  1.00  0.00     0.076 H 
ATOM      3  H   UNL     1     -44.164  38.005  28.393  1.00  0.00     0.076 H 
ENDROOT
BRANCH   1   4
ATOM      4  O   UNL     1     -46.117  38.648  28.109  1.00  0.00    -0.489 OA
BRANCH   4   5
ATOM      5  C   UNL     1     -46.869  37.566  27.741  1.00  0.00     0.122 A 
ATOM      6  C   UNL     1     -46.590  33.240  25.760  1.00  0.00     0.126 A 
ATOM      7  C   UNL     1     -47.959  33.041  25.893  1.00  0.00    -0.019 A 
ATOM      8  N   UNL     1     -45.997  34.374  26.183  1.00  0.00    -0.231 NA
ATOM      9  C   UNL     1     -48.743  34.042  26.459  1.00  0.00    -0.049 A 
ATOM     10  H   UNL     1     -48.414  32.110  25.573  1.00  0.00     0.066 H 
ATOM     11  C   UNL     1     -46.748  35.346  26.732  1.00  0.00     0.076 A 
ATOM     12  C   UNL     1     -48.140  35.225  26.891  1.00  0.00     0.001 A 
ATOM     13  H   UNL     1     -49.813  33.887  26.565  1.00  0.00     0.063 H 
ATOM     14  C   UNL     1     -46.142  36.519  27.164  1.00  0.00     0.007 A 
ATOM     15  C   UNL     1     -48.882  36.268  27.470  1.00  0.00    -0.049 A 
ATOM     16  H   UNL     1     -45.064  36.619  27.048  1.00  0.00     0.069 H 
ATOM     17  C   UNL     1     -48.247  37.437  27.893  1.00  0.00    -0.019 A 
ATOM     18  H   UNL     1     -49.958  36.175  27.596  1.00  0.00     0.063 H 
ATOM     19  H   UNL     1     -48.856  38.217  28.337  1.00  0.00     0.066 H 
BRANCH   6  20
ATOM     20  N   UNL     1     -45.826  32.195  25.206  1.00  0.00    -0.373 N 
ATOM     21  H   UNL     1     -45.846  31.403  25.840  1.00  0.00     0.161 HD
BRANCH  20  22
ATOM     22  C   UNL     1     -46.220  31.821  23.857  1.00  0.00     0.005 C 
ATOM     23  H   UNL     1     -45.355  31.528  23.252  1.00  0.00     0.045 H 
ATOM     24  H   UNL     1     -46.958  31.013  23.863  1.00  0.00     0.045 H 
ATOM     25  H   UNL     1     -46.685  32.685  23.371  1.00  0.00     0.045 H 
ENDBRANCH  20  22
ENDBRANCH   6  20
ENDBRANCH   4   5
ENDBRANCH   1   4
BRANCH   1  26
ATOM     26  C   UNL     1     -44.157  40.043  27.794  1.00  0.00     0.027 A 
ATOM     27  C   UNL     1     -43.232  40.427  28.772  1.00  0.00    -0.053 A 
ATOM     28  C   UNL     1     -44.521  40.969  26.804  1.00  0.00     0.153 A 
ATOM     29  C   UNL     1     -42.688  41.710  28.762  1.00  0.00    -0.060 A 
ATOM     30  H   UNL     1     -42.921  39.726  29.546  1.00  0.00     0.063 H 
ATOM     31  C   UNL     1     -44.002  42.269  26.798  1.00  0.00     0.083 A 
ATOM     32  F   UNL     1     -45.296  40.524  25.804  1.00  0.00    -0.204 F 
ATOM     33  C   UNL     1     -43.065  42.628  27.779  1.00  0.00    -0.035 A 
ATOM     34  H   UNL     1     -41.973  41.999  29.529  1.00  0.00     0.062 H 
ATOM     35  H   UNL     1     -42.642  43.628  27.829  1.00  0.00     0.065 H 
BRANCH  31  36
ATOM     36  N   UNL     1     -44.390  43.223  25.812  1.00  0.00    -0.298 N 
ATOM     37  C   UNL     1     -45.619  43.866  25.779  1.00  0.00     0.012 A 
ATOM     38  C   UNL     1     -43.661  43.654  24.706  1.00  0.00     0.150 A 
ATOM     39  C   UNL     1     -45.640  44.748  24.723  1.00  0.00    -0.031 A 
ATOM     40  H   UNL     1     -46.363  43.692  26.545  1.00  0.00     0.082 H 
ATOM     41  C   UNL     1     -44.411  44.614  24.032  1.00  0.00     0.061 A 
ATOM     42  N   UNL     1     -42.459  43.194  24.304  1.00  0.00    -0.218 NA
ATOM     43  H   UNL     1     -46.456  45.414  24.472  1.00  0.00     0.065 H 
ATOM     44  C   UNL     1     -43.839  45.186  22.887  1.00  0.00     0.136 A 
ATOM     45  C   UNL     1     -42.012  43.815  23.203  1.00  0.00     0.120 A 
ATOM     46  N   UNL     1     -42.625  44.772  22.485  1.00  0.00    -0.219 NA
ATOM     47  H   UNL     1     -41.036  43.503  22.846  1.00  0.00     0.106 H 
BRANCH  44  48
ATOM     48  N   UNL     1     -44.470  46.149  22.112  1.00  0.00    -0.383 N 
ATOM     49  H   UNL     1     -45.376  45.883  21.755  1.00  0.00     0.158 HD
ATOM     50  H   UNL     1     -43.819  46.543  21.440  1.00  0.00     0.158 HD
ENDBRANCH  44  48
ENDBRANCH  31  36
ENDBRANCH   1  26
TORSDOF 7
ENDMDL
MODEL 7
REMARK VINA RESULT:      -9.1      2.330     10.463
REMARK SMILES CNc1ccc2ccc(OCc3cccc(-n4ccc5c(N)ncnc54)c3F)cc2n1
REMARK SMILES IDX 11 1 10 4 9 5 3 6 4 7 31 8 5 9 30 11 6 12 29 14 7 15 8 17
REMARK SMILES IDX 2 20 1 22 12 26 13 27 27 28 14 29 16 31 28 32 15 33 17 36
REMARK SMILES IDX 18 37 26 38 19 39 20 41 25 42 21 44 24 45 23 46 22 48
REMARK H PARENT 11 2 11 3 4 10 5 13 29 16 7 18 8 19 2 21 1 23 1 24 1 25 13 30
REMARK H PARENT 14 34 15 35 18 40 19 43 24 47 22 49 22 50
REMARK Flexibility Score: inf
ROOT
ATOM      1  C   UNL     1     -48.818  35.594  27.094  1.00  0.00     0.116 C 
ATOM      2  H   UNL     1     -48.754  36.535  26.532  1.00  0.00     0.076 H 
ATOM      3  H   UNL     1     -49.862  35.262  27.171  1.00  0.00     0.076 H 
ENDROOT
BRANCH   1   4
ATOM      4  O   UNL     1     -48.276  35.792  28.401  1.00  0.00    -0.489 OA
BRANCH   4   5
ATOM      5  C   UNL     1     -47.222  36.657  28.517  1.00  0.00     0.122 A 
ATOM      6  C   UNL     1     -45.277  40.556  26.586  1.00  0.00     0.126 A 
ATOM      7  C   UNL     1     -44.241  40.553  27.512  1.00  0.00    -0.019 A 
ATOM      8  N   UNL     1     -46.251  39.624  26.612  1.00  0.00    -0.231 NA
ATOM      9  C   UNL     1     -44.193  39.553  28.480  1.00  0.00    -0.049 A 
ATOM     10  H   UNL     1     -43.483  41.328  27.493  1.00  0.00     0.066 H 
ATOM     11  C   UNL     1     -46.212  38.655  27.545  1.00  0.00     0.076 A 
ATOM     12  C   UNL     1     -45.191  38.577  28.509  1.00  0.00     0.001 A 
ATOM     13  H   UNL     1     -43.384  39.551  29.205  1.00  0.00     0.063 H 
ATOM     14  C   UNL     1     -47.209  37.689  27.572  1.00  0.00     0.007 A 
ATOM     15  C   UNL     1     -45.192  37.546  29.463  1.00  0.00    -0.049 A 
ATOM     16  H   UNL     1     -48.005  37.745  26.832  1.00  0.00     0.069 H 
ATOM     17  C   UNL     1     -46.207  36.588  29.466  1.00  0.00    -0.019 A 
ATOM     18  H   UNL     1     -44.405  37.486  30.212  1.00  0.00     0.063 H 
ATOM     19  H   UNL     1     -46.173  35.810  30.221  1.00  0.00     0.066 H 
BRANCH   6  20
ATOM     20  N   UNL     1     -45.306  41.596  25.637  1.00  0.00    -0.373 N 
ATOM     21  H   UNL     1     -45.445  41.194  24.715  1.00  0.00     0.161 HD
BRANCH  20  22
ATOM     22  C   UNL     1     -46.279  42.637  25.927  1.00  0.00     0.005 C 
ATOM     23  H   UNL     1     -47.060  42.280  26.607  1.00  0.00     0.045 H 
ATOM     24  H   UNL     1     -45.801  43.528  26.347  1.00  0.00     0.045 H 
ATOM     25  H   UNL     1     -46.766  42.937  24.993  1.00  0.00     0.045 H 
ENDBRANCH  20  22
ENDBRANCH   6  20
ENDBRANCH   4   5
ENDBRANCH   1   4
BRANCH   1  26
ATOM     26  C   UNL     1     -48.049  34.533  26.339  1.00  0.00     0.027 A 
ATOM     27  C   UNL     1     -46.691  34.661  26.023  1.00  0.00    -0.053 A 
ATOM     28  C   UNL     1     -48.719  33.350  25.990  1.00  0.00     0.153 A 
ATOM     29  C   UNL     1     -46.021  33.628  25.368  1.00  0.00    -0.060 A 
ATOM     30  H   UNL     1     -46.142  35.562  26.291  1.00  0.00     0.063 H 
ATOM     31  C   UNL     1     -48.063  32.317  25.310  1.00  0.00     0.083 A 
ATOM     32  F   UNL     1     -49.976  33.204  26.434  1.00  0.00    -0.204 F 
ATOM     33  C   UNL     1     -46.698  32.459  25.016  1.00  0.00    -0.035 A 
ATOM     34  H   UNL     1     -44.966  33.740  25.124  1.00  0.00     0.062 H 
ATOM     35  H   UNL     1     -46.146  31.694  24.477  1.00  0.00     0.065 H 
BRANCH  31  36
ATOM     36  N   UNL     1     -48.745  31.124  24.928  1.00  0.00    -0.298 N 
ATOM     37  C   UNL     1     -48.661  29.918  25.609  1.00  0.00     0.012 A 
ATOM     38  C   UNL     1     -49.566  30.924  23.821  1.00  0.00     0.150 A 
ATOM     39  C   UNL     1     -49.475  28.994  24.995  1.00  0.00    -0.031 A 
ATOM     40  H   UNL     1     -48.075  29.825  26.514  1.00  0.00     0.082 H 
ATOM     41  C   UNL     1     -50.043  29.617  23.857  1.00  0.00     0.061 A 
ATOM     42  N   UNL     1     -49.822  31.811  22.837  1.00  0.00    -0.218 NA
ATOM     43  H   UNL     1     -49.639  27.977  25.326  1.00  0.00     0.065 H 
ATOM     44  C   UNL     1     -50.906  29.222  22.825  1.00  0.00     0.136 A 
ATOM     45  C   UNL     1     -50.658  31.324  21.910  1.00  0.00     0.120 A 
ATOM     46  N   UNL     1     -51.207  30.098  21.851  1.00  0.00    -0.219 NA
ATOM     47  H   UNL     1     -50.921  32.002  21.105  1.00  0.00     0.106 H 
BRANCH  44  48
ATOM     48  N   UNL     1     -51.455  27.951  22.727  1.00  0.00    -0.383 N 
ATOM     49  H   UNL     1     -51.398  27.396  23.569  1.00  0.00     0.158 HD
ATOM     50  H   UNL     1     -51.152  27.501  21.870  1.00  0.00     0.158 HD
ENDBRANCH  44  48
ENDBRANCH  31  36
ENDBRANCH   1  26
TORSDOF 7
ENDMDL
