MODEL 1
REMARK VINA RESULT:      -8.9      0.000      0.000
REMARK SMILES CC(C)c1nc(NCCN(C)C)c2ccc(OCc3cncc(-n4ccc5c(N)ncnc54)c3)cc2n1
REMARK SMILES IDX 4 1 5 2 6 3 13 4 14 5 15 6 16 7 35 8 36 9 37 10 2 14 1 16
REMARK SMILES IDX 3 20 7 24 8 26 9 29 10 32 11 33 12 37 17 41 18 42 19 45
REMARK SMILES IDX 20 46 34 47 21 48 23 50 22 52 24 54 25 55 33 56 26 57 27 59
REMARK SMILES IDX 32 60 28 62 31 63 30 64 29 66
REMARK H PARENT 14 11 15 12 35 13 2 15 1 17 1 18 1 19 3 21 3 22 3 23 7 25 8 27
REMARK H PARENT 8 28 9 30 9 31 11 34 11 35 11 36 12 38 12 39 12 40 18 43 18 44
REMARK H PARENT 20 49 34 51 22 53 25 58 26 61 31 65 29 67 29 68
REMARK Flexibility Score: inf
ROOT
ATOM      1  C   UNL     1     -50.309  30.693  23.891  1.00  0.00     0.133 A 
ATOM      2  N   UNL     1     -49.398  29.910  23.294  1.00  0.00    -0.215 NA
ATOM      3  C   UNL     1     -48.103  30.232  23.438  1.00  0.00     0.137 A 
ATOM      4  C   UNL     1     -47.698  31.366  24.165  1.00  0.00     0.043 A 
ATOM      5  C   UNL     1     -46.359  31.797  24.324  1.00  0.00    -0.045 A 
ATOM      6  C   UNL     1     -46.064  32.934  25.072  1.00  0.00    -0.019 A 
ATOM      7  C   UNL     1     -47.088  33.660  25.672  1.00  0.00     0.122 A 
ATOM      8  C   UNL     1     -48.408  33.241  25.497  1.00  0.00     0.007 A 
ATOM      9  C   UNL     1     -48.729  32.109  24.753  1.00  0.00     0.080 A 
ATOM     10  N   UNL     1     -50.016  31.778  24.627  1.00  0.00    -0.232 NA
ATOM     11  H   UNL     1     -45.546  31.253  23.850  1.00  0.00     0.063 H 
ATOM     12  H   UNL     1     -45.031  33.256  25.183  1.00  0.00     0.066 H 
ATOM     13  H   UNL     1     -49.239  33.795  25.922  1.00  0.00     0.069 H 
ENDROOT
BRANCH   1  14
ATOM     14  C   UNL     1     -51.764  30.320  23.715  1.00  0.00     0.013 C 
ATOM     15  H   UNL     1     -52.332  30.759  24.546  1.00  0.00     0.038 H 
BRANCH  14  16
ATOM     16  C   UNL     1     -51.946  28.805  23.773  1.00  0.00    -0.056 C 
ATOM     17  H   UNL     1     -50.998  28.288  23.956  1.00  0.00     0.024 H 
ATOM     18  H   UNL     1     -52.637  28.524  24.577  1.00  0.00     0.024 H 
ATOM     19  H   UNL     1     -52.358  28.428  22.831  1.00  0.00     0.024 H 
ENDBRANCH  14  16
BRANCH  14  20
ATOM     20  C   UNL     1     -52.322  30.894  22.414  1.00  0.00    -0.056 C 
ATOM     21  H   UNL     1     -51.689  31.705  22.040  1.00  0.00     0.024 H 
ATOM     22  H   UNL     1     -53.328  31.298  22.570  1.00  0.00     0.024 H 
ATOM     23  H   UNL     1     -52.386  30.133  21.628  1.00  0.00     0.024 H 
ENDBRANCH  14  20
ENDBRANCH   1  14
BRANCH   3  24
ATOM     24  N   UNL     1     -47.123  29.419  22.823  1.00  0.00    -0.368 N 
ATOM     25  H   UNL     1     -46.363  30.023  22.519  1.00  0.00     0.162 HD
BRANCH  24  26
ATOM     26  C   UNL     1     -46.608  28.306  23.632  1.00  0.00     0.029 C 
ATOM     27  H   UNL     1     -45.944  27.718  22.986  1.00  0.00     0.050 H 
ATOM     28  H   UNL     1     -45.984  28.674  24.455  1.00  0.00     0.050 H 
BRANCH  26  29
ATOM     29  C   UNL     1     -47.744  27.379  24.122  1.00  0.00     0.015 C 
ATOM     30  H   UNL     1     -48.724  27.766  23.818  1.00  0.00     0.045 H 
ATOM     31  H   UNL     1     -47.619  26.421  23.597  1.00  0.00     0.045 H 
BRANCH  29  32
ATOM     32  N   UNL     1     -47.721  27.124  25.581  1.00  0.00    -0.308 NA
BRANCH  32  33
ATOM     33  C   UNL     1     -48.961  27.577  26.217  1.00  0.00    -0.014 C 
ATOM     34  H   UNL     1     -48.805  27.877  27.259  1.00  0.00     0.039 H 
ATOM     35  H   UNL     1     -49.379  28.433  25.674  1.00  0.00     0.039 H 
ATOM     36  H   UNL     1     -49.729  26.799  26.189  1.00  0.00     0.039 H 
ENDBRANCH  32  33
BRANCH  32  37
ATOM     37  C   UNL     1     -47.539  25.691  25.827  1.00  0.00    -0.014 C 
ATOM     38  H   UNL     1     -46.502  25.394  25.628  1.00  0.00     0.039 H 
ATOM     39  H   UNL     1     -48.166  25.100  25.150  1.00  0.00     0.039 H 
ATOM     40  H   UNL     1     -47.786  25.413  26.858  1.00  0.00     0.039 H 
ENDBRANCH  32  37
ENDBRANCH  29  32
ENDBRANCH  26  29
ENDBRANCH  24  26
ENDBRANCH   3  24
BRANCH   7  41
ATOM     41  O   UNL     1     -46.672  34.760  26.369  1.00  0.00    -0.489 OA
BRANCH  41  42
ATOM     42  C   UNL     1     -47.225  34.999  27.668  1.00  0.00     0.115 C 
ATOM     43  H   UNL     1     -47.062  34.081  28.245  1.00  0.00     0.076 H 
ATOM     44  H   UNL     1     -48.312  35.134  27.611  1.00  0.00     0.076 H 
BRANCH  42  45
ATOM     45  C   UNL     1     -46.549  36.122  28.409  1.00  0.00     0.010 A 
ATOM     46  C   UNL     1     -46.412  36.056  29.789  1.00  0.00     0.034 A 
ATOM     47  C   UNL     1     -45.988  37.231  27.759  1.00  0.00    -0.028 A 
ATOM     48  N   UNL     1     -45.798  36.998  30.530  1.00  0.00    -0.262 NA
ATOM     49  H   UNL     1     -46.805  35.218  30.361  1.00  0.00     0.084 H 
ATOM     50  C   UNL     1     -45.344  38.239  28.492  1.00  0.00     0.066 A 
ATOM     51  H   UNL     1     -46.061  37.269  26.677  1.00  0.00     0.065 H 
ATOM     52  C   UNL     1     -45.281  38.067  29.869  1.00  0.00     0.051 A 
ATOM     53  H   UNL     1     -44.824  38.784  30.542  1.00  0.00     0.086 H 
BRANCH  50  54
ATOM     54  N   UNL     1     -44.788  39.388  27.843  1.00  0.00    -0.300 N 
ATOM     55  C   UNL     1     -45.197  39.886  26.611  1.00  0.00     0.012 A 
ATOM     56  C   UNL     1     -43.759  40.220  28.296  1.00  0.00     0.150 A 
ATOM     57  C   UNL     1     -44.456  41.000  26.292  1.00  0.00    -0.031 A 
ATOM     58  H   UNL     1     -45.998  39.427  26.049  1.00  0.00     0.082 H 
ATOM     59  C   UNL     1     -43.547  41.220  27.351  1.00  0.00     0.061 A 
ATOM     60  N   UNL     1     -43.059  40.091  29.441  1.00  0.00    -0.218 NA
ATOM     61  H   UNL     1     -44.559  41.587  25.389  1.00  0.00     0.065 H 
ATOM     62  C   UNL     1     -42.543  42.162  27.623  1.00  0.00     0.136 A 
ATOM     63  C   UNL     1     -42.126  41.042  29.592  1.00  0.00     0.120 A 
ATOM     64  N   UNL     1     -41.840  42.059  28.763  1.00  0.00    -0.219 NA
ATOM     65  H   UNL     1     -41.530  40.986  30.497  1.00  0.00     0.106 H 
BRANCH  62  66
ATOM     66  N   UNL     1     -42.235  43.221  26.781  1.00  0.00    -0.383 N 
ATOM     67  H   UNL     1     -42.940  43.944  26.729  1.00  0.00     0.158 HD
ATOM     68  H   UNL     1     -41.283  43.533  26.937  1.00  0.00     0.158 HD
ENDBRANCH  62  66
ENDBRANCH  50  54
ENDBRANCH  42  45
ENDBRANCH  41  42
ENDBRANCH   7  41
TORSDOF 14
ENDMDL
MODEL 2
REMARK VINA RESULT:      -8.8      2.123     12.207
REMARK SMILES CC(C)c1nc(NCCN(C)C)c2ccc(OCc3cncc(-n4ccc5c(N)ncnc54)c3)cc2n1
REMARK SMILES IDX 4 1 5 2 6 3 13 4 14 5 15 6 16 7 35 8 36 9 37 10 2 14 1 16
REMARK SMILES IDX 3 20 7 24 8 26 9 29 10 32 11 33 12 37 17 41 18 42 19 45
REMARK SMILES IDX 20 46 34 47 21 48 23 50 22 52 24 54 25 55 33 56 26 57 27 59
REMARK SMILES IDX 32 60 28 62 31 63 30 64 29 66
REMARK H PARENT 14 11 15 12 35 13 2 15 1 17 1 18 1 19 3 21 3 22 3 23 7 25 8 27
REMARK H PARENT 8 28 9 30 9 31 11 34 11 35 11 36 12 38 12 39 12 40 18 43 18 44
REMARK H PARENT 20 49 34 51 22 53 25 58 26 61 31 65 29 67 29 68
REMARK Flexibility Score: inf
ROOT
ATOM      1  C   UNL     1     -43.567  40.831  28.189  1.00  0.00     0.133 A 
ATOM      2  N   UNL     1     -44.310  41.567  27.350  1.00  0.00    -0.215 NA
ATOM      3  C   UNL     1     -45.347  40.969  26.740  1.00  0.00     0.137 A 
ATOM      4  C   UNL     1     -45.641  39.608  26.944  1.00  0.00     0.043 A 
ATOM      5  C   UNL     1     -46.684  38.897  26.306  1.00  0.00    -0.045 A 
ATOM      6  C   UNL     1     -46.896  37.548  26.583  1.00  0.00    -0.019 A 
ATOM      7  C   UNL     1     -46.079  36.887  27.494  1.00  0.00     0.122 A 
ATOM      8  C   UNL     1     -45.040  37.589  28.106  1.00  0.00     0.007 A 
ATOM      9  C   UNL     1     -44.808  38.936  27.845  1.00  0.00     0.080 A 
ATOM     10  N   UNL     1     -43.789  39.535  28.466  1.00  0.00    -0.232 NA
ATOM     11  H   UNL     1     -47.324  39.391  25.578  1.00  0.00     0.063 H 
ATOM     12  H   UNL     1     -47.700  37.012  26.082  1.00  0.00     0.066 H 
ATOM     13  H   UNL     1     -44.360  37.104  28.800  1.00  0.00     0.069 H 
ENDROOT
BRANCH   1  14
ATOM     14  C   UNL     1     -42.401  41.517  28.864  1.00  0.00     0.013 C 
ATOM     15  H   UNL     1     -42.758  42.467  29.281  1.00  0.00     0.038 H 
BRANCH  14  16
ATOM     16  C   UNL     1     -41.301  41.835  27.853  1.00  0.00    -0.056 C 
ATOM     17  H   UNL     1     -41.187  42.915  27.704  1.00  0.00     0.024 H 
ATOM     18  H   UNL     1     -40.335  41.443  28.189  1.00  0.00     0.024 H 
ATOM     19  H   UNL     1     -41.526  41.384  26.881  1.00  0.00     0.024 H 
ENDBRANCH  14  16
BRANCH  14  20
ATOM     20  C   UNL     1     -41.863  40.674  30.018  1.00  0.00    -0.056 C 
ATOM     21  H   UNL     1     -40.821  40.386  29.840  1.00  0.00     0.024 H 
ATOM     22  H   UNL     1     -42.450  39.757  30.134  1.00  0.00     0.024 H 
ATOM     23  H   UNL     1     -41.900  41.217  30.970  1.00  0.00     0.024 H 
ENDBRANCH  14  20
ENDBRANCH   1  14
BRANCH   3  24
ATOM     24  N   UNL     1     -46.149  41.725  25.855  1.00  0.00    -0.368 N 
ATOM     25  H   UNL     1     -47.122  41.569  26.107  1.00  0.00     0.162 HD
BRANCH  24  26
ATOM     26  C   UNL     1     -45.855  43.163  25.785  1.00  0.00     0.029 C 
ATOM     27  H   UNL     1     -46.815  43.684  25.687  1.00  0.00     0.050 H 
ATOM     28  H   UNL     1     -45.411  43.518  26.723  1.00  0.00     0.050 H 
BRANCH  26  29
ATOM     29  C   UNL     1     -44.991  43.513  24.552  1.00  0.00     0.015 C 
ATOM     30  H   UNL     1     -44.646  42.604  24.045  1.00  0.00     0.045 H 
ATOM     31  H   UNL     1     -45.652  44.027  23.840  1.00  0.00     0.045 H 
BRANCH  29  32
ATOM     32  N   UNL     1     -43.845  44.399  24.857  1.00  0.00    -0.308 NA
BRANCH  32  33
ATOM     33  C   UNL     1     -43.993  45.022  26.174  1.00  0.00    -0.014 C 
ATOM     34  H   UNL     1     -44.573  44.400  26.865  1.00  0.00     0.039 H 
ATOM     35  H   UNL     1     -43.010  45.205  26.624  1.00  0.00     0.039 H 
ATOM     36  H   UNL     1     -44.475  46.001  26.099  1.00  0.00     0.039 H 
ENDBRANCH  32  33
BRANCH  32  37
ATOM     37  C   UNL     1     -42.601  43.625  24.818  1.00  0.00    -0.014 C 
ATOM     38  H   UNL     1     -42.781  42.589  25.126  1.00  0.00     0.039 H 
ATOM     39  H   UNL     1     -41.869  44.035  25.524  1.00  0.00     0.039 H 
ATOM     40  H   UNL     1     -42.149  43.616  23.819  1.00  0.00     0.039 H 
ENDBRANCH  32  37
ENDBRANCH  29  32
ENDBRANCH  26  29
ENDBRANCH  24  26
ENDBRANCH   3  24
BRANCH   7  41
ATOM     41  O   UNL     1     -46.380  35.565  27.672  1.00  0.00    -0.489 OA
BRANCH  41  42
ATOM     42  C   UNL     1     -46.123  34.653  26.599  1.00  0.00     0.115 C 
ATOM     43  H   UNL     1     -45.384  33.936  26.976  1.00  0.00     0.076 H 
ATOM     44  H   UNL     1     -45.646  35.166  25.755  1.00  0.00     0.076 H 
BRANCH  42  45
ATOM     45  C   UNL     1     -47.337  33.867  26.177  1.00  0.00     0.010 A 
ATOM     46  C   UNL     1     -48.580  34.176  26.710  1.00  0.00     0.034 A 
ATOM     47  C   UNL     1     -47.285  32.852  25.210  1.00  0.00    -0.028 A 
ATOM     48  N   UNL     1     -49.722  33.546  26.370  1.00  0.00    -0.262 NA
ATOM     49  H   UNL     1     -48.703  34.962  27.450  1.00  0.00     0.084 H 
ATOM     50  C   UNL     1     -48.449  32.167  24.830  1.00  0.00     0.066 A 
ATOM     51  H   UNL     1     -46.321  32.632  24.764  1.00  0.00     0.065 H 
ATOM     52  C   UNL     1     -49.632  32.557  25.443  1.00  0.00     0.051 A 
ATOM     53  H   UNL     1     -50.591  32.092  25.245  1.00  0.00     0.086 H 
BRANCH  50  54
ATOM     54  N   UNL     1     -48.405  31.113  23.861  1.00  0.00    -0.300 N 
ATOM     55  C   UNL     1     -47.578  29.997  23.930  1.00  0.00     0.012 A 
ATOM     56  C   UNL     1     -49.159  30.987  22.690  1.00  0.00     0.150 A 
ATOM     57  C   UNL     1     -47.800  29.187  22.842  1.00  0.00    -0.031 A 
ATOM     58  H   UNL     1     -46.898  29.844  24.755  1.00  0.00     0.082 H 
ATOM     59  C   UNL     1     -48.799  29.803  22.053  1.00  0.00     0.061 A 
ATOM     60  N   UNL     1     -50.075  31.859  22.221  1.00  0.00    -0.218 NA
ATOM     61  H   UNL     1     -47.293  28.254  22.636  1.00  0.00     0.065 H 
ATOM     62  C   UNL     1     -49.449  29.495  20.848  1.00  0.00     0.136 A 
ATOM     63  C   UNL     1     -50.625  31.463  21.063  1.00  0.00     0.120 A 
ATOM     64  N   UNL     1     -50.372  30.343  20.367  1.00  0.00    -0.219 NA
ATOM     65  H   UNL     1     -51.369  32.129  20.637  1.00  0.00     0.106 H 
BRANCH  62  66
ATOM     66  N   UNL     1     -49.203  28.342  20.116  1.00  0.00    -0.383 N 
ATOM     67  H   UNL     1     -48.388  28.381  19.519  1.00  0.00     0.158 HD
ATOM     68  H   UNL     1     -49.289  27.523  20.706  1.00  0.00     0.158 HD
ENDBRANCH  62  66
ENDBRANCH  50  54
ENDBRANCH  42  45
ENDBRANCH  41  42
ENDBRANCH   7  41
TORSDOF 14
ENDMDL
MODEL 3
REMARK VINA RESULT:      -8.8      2.353     11.899
REMARK SMILES CC(C)c1nc(NCCN(C)C)c2ccc(OCc3cncc(-n4ccc5c(N)ncnc54)c3)cc2n1
REMARK SMILES IDX 4 1 5 2 6 3 13 4 14 5 15 6 16 7 35 8 36 9 37 10 2 14 1 16
REMARK SMILES IDX 3 20 7 24 8 26 9 29 10 32 11 33 12 37 17 41 18 42 19 45
REMARK SMILES IDX 20 46 34 47 21 48 23 50 22 52 24 54 25 55 33 56 26 57 27 59
REMARK SMILES IDX 32 60 28 62 31 63 30 64 29 66
REMARK H PARENT 14 11 15 12 35 13 2 15 1 17 1 18 1 19 3 21 3 22 3 23 7 25 8 27
REMARK H PARENT 8 28 9 30 9 31 11 34 11 35 11 36 12 38 12 39 12 40 18 43 18 44
REMARK H PARENT 20 49 34 51 22 53 25 58 26 61 31 65 29 67 29 68
REMARK Flexibility Score: inf
ROOT
ATOM      1  C   UNL     1     -43.174  40.898  28.183  1.00  0.00     0.133 A 
ATOM      2  N   UNL     1     -43.465  41.482  27.011  1.00  0.00    -0.215 NA
ATOM      3  C   UNL     1     -44.551  41.052  26.349  1.00  0.00     0.137 A 
ATOM      4  C   UNL     1     -45.352  40.006  26.841  1.00  0.00     0.043 A 
ATOM      5  C   UNL     1     -46.483  39.467  26.182  1.00  0.00    -0.045 A 
ATOM      6  C   UNL     1     -47.215  38.432  26.760  1.00  0.00    -0.019 A 
ATOM      7  C   UNL     1     -46.839  37.918  27.996  1.00  0.00     0.122 A 
ATOM      8  C   UNL     1     -45.712  38.441  28.633  1.00  0.00     0.007 A 
ATOM      9  C   UNL     1     -44.964  39.473  28.076  1.00  0.00     0.080 A 
ATOM     10  N   UNL     1     -43.895  39.914  28.744  1.00  0.00    -0.232 NA
ATOM     11  H   UNL     1     -46.785  39.844  25.207  1.00  0.00     0.063 H 
ATOM     12  H   UNL     1     -48.080  38.025  26.240  1.00  0.00     0.066 H 
ATOM     13  H   UNL     1     -45.366  38.048  29.584  1.00  0.00     0.069 H 
ENDROOT
BRANCH   1  14
ATOM     14  C   UNL     1     -41.945  41.390  28.914  1.00  0.00     0.013 C 
ATOM     15  H   UNL     1     -41.803  40.763  29.804  1.00  0.00     0.038 H 
BRANCH  14  16
ATOM     16  C   UNL     1     -42.134  42.831  29.386  1.00  0.00    -0.056 C 
ATOM     17  H   UNL     1     -41.381  43.117  30.128  1.00  0.00     0.024 H 
ATOM     18  H   UNL     1     -42.056  43.530  28.546  1.00  0.00     0.024 H 
ATOM     19  H   UNL     1     -43.121  42.962  29.841  1.00  0.00     0.024 H 
ENDBRANCH  14  16
BRANCH  14  20
ATOM     20  C   UNL     1     -40.698  41.253  28.043  1.00  0.00    -0.056 C 
ATOM     21  H   UNL     1     -40.777  40.384  27.381  1.00  0.00     0.024 H 
ATOM     22  H   UNL     1     -39.805  41.123  28.663  1.00  0.00     0.024 H 
ATOM     23  H   UNL     1     -40.543  42.137  27.414  1.00  0.00     0.024 H 
ENDBRANCH  14  20
ENDBRANCH   1  14
BRANCH   3  24
ATOM     24  N   UNL     1     -44.883  41.655  25.114  1.00  0.00    -0.368 N 
ATOM     25  H   UNL     1     -45.879  41.857  25.124  1.00  0.00     0.162 HD
BRANCH  24  26
ATOM     26  C   UNL     1     -44.113  42.853  24.753  1.00  0.00     0.029 C 
ATOM     27  H   UNL     1     -44.259  43.585  25.558  1.00  0.00     0.050 H 
ATOM     28  H   UNL     1     -43.038  42.637  24.731  1.00  0.00     0.050 H 
BRANCH  26  29
ATOM     29  C   UNL     1     -44.617  43.484  23.436  1.00  0.00     0.015 C 
ATOM     30  H   UNL     1     -44.161  42.995  22.567  1.00  0.00     0.045 H 
ATOM     31  H   UNL     1     -45.693  43.272  23.374  1.00  0.00     0.045 H 
BRANCH  29  32
ATOM     32  N   UNL     1     -44.420  44.950  23.361  1.00  0.00    -0.308 NA
BRANCH  32  33
ATOM     33  C   UNL     1     -44.131  45.514  24.683  1.00  0.00    -0.014 C 
ATOM     34  H   UNL     1     -43.774  44.754  25.388  1.00  0.00     0.039 H 
ATOM     35  H   UNL     1     -43.366  46.296  24.607  1.00  0.00     0.039 H 
ATOM     36  H   UNL     1     -45.014  45.998  25.110  1.00  0.00     0.039 H 
ENDBRANCH  32  33
BRANCH  32  37
ATOM     37  C   UNL     1     -43.315  45.253  22.448  1.00  0.00    -0.014 C 
ATOM     38  H   UNL     1     -42.399  45.472  23.009  1.00  0.00     0.039 H 
ATOM     39  H   UNL     1     -43.537  46.149  21.856  1.00  0.00     0.039 H 
ATOM     40  H   UNL     1     -43.108  44.427  21.758  1.00  0.00     0.039 H 
ENDBRANCH  32  37
ENDBRANCH  29  32
ENDBRANCH  26  29
ENDBRANCH  24  26
ENDBRANCH   3  24
BRANCH   7  41
ATOM     41  O   UNL     1     -47.629  36.899  28.452  1.00  0.00    -0.489 OA
BRANCH  41  42
ATOM     42  C   UNL     1     -48.405  36.158  27.505  1.00  0.00     0.115 C 
ATOM     43  H   UNL     1     -48.430  36.761  26.589  1.00  0.00     0.076 H 
ATOM     44  H   UNL     1     -49.446  36.066  27.838  1.00  0.00     0.076 H 
BRANCH  42  45
ATOM     45  C   UNL     1     -47.801  34.825  27.148  1.00  0.00     0.010 A 
ATOM     46  C   UNL     1     -46.726  34.335  27.877  1.00  0.00     0.034 A 
ATOM     47  C   UNL     1     -48.314  34.008  26.129  1.00  0.00    -0.028 A 
ATOM     48  N   UNL     1     -46.142  33.143  27.647  1.00  0.00    -0.262 NA
ATOM     49  H   UNL     1     -46.287  34.902  28.694  1.00  0.00     0.084 H 
ATOM     50  C   UNL     1     -47.733  32.761  25.852  1.00  0.00     0.066 A 
ATOM     51  H   UNL     1     -49.176  34.371  25.580  1.00  0.00     0.065 H 
ATOM     52  C   UNL     1     -46.654  32.385  26.642  1.00  0.00     0.051 A 
ATOM     53  H   UNL     1     -46.113  31.455  26.513  1.00  0.00     0.086 H 
BRANCH  50  54
ATOM     54  N   UNL     1     -48.232  31.929  24.799  1.00  0.00    -0.300 N 
ATOM     55  C   UNL     1     -49.516  31.402  24.738  1.00  0.00     0.012 A 
ATOM     56  C   UNL     1     -47.558  31.492  23.654  1.00  0.00     0.150 A 
ATOM     57  C   UNL     1     -49.658  30.656  23.591  1.00  0.00    -0.031 A 
ATOM     58  H   UNL     1     -50.251  31.602  25.504  1.00  0.00     0.082 H 
ATOM     59  C   UNL     1     -48.427  30.709  22.898  1.00  0.00     0.061 A 
ATOM     60  N   UNL     1     -46.278  31.753  23.319  1.00  0.00    -0.218 NA
ATOM     61  H   UNL     1     -50.552  30.128  23.289  1.00  0.00     0.065 H 
ATOM     62  C   UNL     1     -47.933  30.171  21.700  1.00  0.00     0.136 A 
ATOM     63  C   UNL     1     -45.917  31.184  22.160  1.00  0.00     0.120 A 
ATOM     64  N   UNL     1     -46.664  30.426  21.342  1.00  0.00    -0.219 NA
ATOM     65  H   UNL     1     -44.893  31.359  21.842  1.00  0.00     0.106 H 
BRANCH  62  66
ATOM     66  N   UNL     1     -48.690  29.388  20.840  1.00  0.00    -0.383 N 
ATOM     67  H   UNL     1     -49.531  29.828  20.492  1.00  0.00     0.158 HD
ATOM     68  H   UNL     1     -48.096  28.945  20.149  1.00  0.00     0.158 HD
ENDBRANCH  62  66
ENDBRANCH  50  54
ENDBRANCH  42  45
ENDBRANCH  41  42
ENDBRANCH   7  41
TORSDOF 14
ENDMDL
MODEL 4
REMARK VINA RESULT:      -8.7      1.697      2.421
REMARK SMILES CC(C)c1nc(NCCN(C)C)c2ccc(OCc3cncc(-n4ccc5c(N)ncnc54)c3)cc2n1
REMARK SMILES IDX 4 1 5 2 6 3 13 4 14 5 15 6 16 7 35 8 36 9 37 10 2 14 1 16
REMARK SMILES IDX 3 20 7 24 8 26 9 29 10 32 11 33 12 37 17 41 18 42 19 45
REMARK SMILES IDX 20 46 34 47 21 48 23 50 22 52 24 54 25 55 33 56 26 57 27 59
REMARK SMILES IDX 32 60 28 62 31 63 30 64 29 66
REMARK H PARENT 14 11 15 12 35 13 2 15 1 17 1 18 1 19 3 21 3 22 3 23 7 25 8 27
REMARK H PARENT 8 28 9 30 9 31 11 34 11 35 11 36 12 38 12 39 12 40 18 43 18 44
REMARK H PARENT 20 49 34 51 22 53 25 58 26 61 31 65 29 67 29 68
REMARK Flexibility Score: inf
ROOT
ATOM      1  C   UNL     1     -48.458  30.324  21.828  1.00  0.00     0.133 A 
ATOM      2  N   UNL     1     -49.305  29.602  22.575  1.00  0.00    -0.215 NA
ATOM      3  C   UNL     1     -49.342  29.847  23.895  1.00  0.00     0.137 A 
ATOM      4  C   UNL     1     -48.507  30.806  24.494  1.00  0.00     0.043 A 
ATOM      5  C   UNL     1     -48.454  31.089  25.880  1.00  0.00    -0.045 A 
ATOM      6  C   UNL     1     -47.593  32.067  26.372  1.00  0.00    -0.019 A 
ATOM      7  C   UNL     1     -46.773  32.777  25.501  1.00  0.00     0.122 A 
ATOM      8  C   UNL     1     -46.815  32.481  24.138  1.00  0.00     0.007 A 
ATOM      9  C   UNL     1     -47.667  31.508  23.622  1.00  0.00     0.080 A 
ATOM     10  N   UNL     1     -47.643  31.279  22.307  1.00  0.00    -0.232 NA
ATOM     11  H   UNL     1     -49.076  30.535  26.579  1.00  0.00     0.063 H 
ATOM     12  H   UNL     1     -47.560  32.271  27.440  1.00  0.00     0.066 H 
ATOM     13  H   UNL     1     -46.170  32.989  23.428  1.00  0.00     0.069 H 
ENDROOT
BRANCH   1  14
ATOM     14  C   UNL     1     -48.424  30.034  20.344  1.00  0.00     0.013 C 
ATOM     15  H   UNL     1     -47.515  29.455  20.130  1.00  0.00     0.038 H 
BRANCH  14  16
ATOM     16  C   UNL     1     -48.353  31.330  19.539  1.00  0.00    -0.056 C 
ATOM     17  H   UNL     1     -48.521  31.154  18.471  1.00  0.00     0.024 H 
ATOM     18  H   UNL     1     -49.109  32.045  19.881  1.00  0.00     0.024 H 
ATOM     19  H   UNL     1     -47.371  31.801  19.650  1.00  0.00     0.024 H 
ENDBRANCH  14  16
BRANCH  14  20
ATOM     20  C   UNL     1     -49.624  29.187  19.924  1.00  0.00    -0.056 C 
ATOM     21  H   UNL     1     -50.520  29.807  19.813  1.00  0.00     0.024 H 
ATOM     22  H   UNL     1     -49.837  28.419  20.675  1.00  0.00     0.024 H 
ATOM     23  H   UNL     1     -49.450  28.681  18.968  1.00  0.00     0.024 H 
ENDBRANCH  14  20
ENDBRANCH   1  14
BRANCH   3  24
ATOM     24  N   UNL     1     -50.232  29.104  24.704  1.00  0.00    -0.368 N 
ATOM     25  H   UNL     1     -51.154  29.150  24.277  1.00  0.00     0.162 HD
BRANCH  24  26
ATOM     26  C   UNL     1     -49.852  27.709  24.968  1.00  0.00     0.029 C 
ATOM     27  H   UNL     1     -50.197  27.467  25.982  1.00  0.00     0.050 H 
ATOM     28  H   UNL     1     -50.381  27.024  24.296  1.00  0.00     0.050 H 
BRANCH  26  29
ATOM     29  C   UNL     1     -48.320  27.514  24.925  1.00  0.00     0.015 C 
ATOM     30  H   UNL     1     -47.925  27.726  23.925  1.00  0.00     0.045 H 
ATOM     31  H   UNL     1     -47.885  28.273  25.591  1.00  0.00     0.045 H 
BRANCH  29  32
ATOM     32  N   UNL     1     -47.874  26.176  25.380  1.00  0.00    -0.308 NA
BRANCH  32  33
ATOM     33  C   UNL     1     -46.412  26.090  25.419  1.00  0.00    -0.014 C 
ATOM     34  H   UNL     1     -45.939  26.735  24.670  1.00  0.00     0.039 H 
ATOM     35  H   UNL     1     -46.038  26.384  26.407  1.00  0.00     0.039 H 
ATOM     36  H   UNL     1     -46.070  25.063  25.261  1.00  0.00     0.039 H 
ENDBRANCH  32  33
BRANCH  32  37
ATOM     37  C   UNL     1     -48.417  25.904  26.714  1.00  0.00    -0.014 C 
ATOM     38  H   UNL     1     -47.633  25.524  27.379  1.00  0.00     0.039 H 
ATOM     39  H   UNL     1     -49.186  25.125  26.666  1.00  0.00     0.039 H 
ATOM     40  H   UNL     1     -48.858  26.796  27.173  1.00  0.00     0.039 H 
ENDBRANCH  32  37
ENDBRANCH  29  32
ENDBRANCH  26  29
ENDBRANCH  24  26
ENDBRANCH   3  24
BRANCH   7  41
ATOM     41  O   UNL     1     -45.966  33.700  26.106  1.00  0.00    -0.489 OA
BRANCH  41  42
ATOM     42  C   UNL     1     -46.288  34.127  27.434  1.00  0.00     0.115 C 
ATOM     43  H   UNL     1     -45.361  34.050  28.014  1.00  0.00     0.076 H 
ATOM     44  H   UNL     1     -47.000  33.438  27.905  1.00  0.00     0.076 H 
BRANCH  42  45
ATOM     45  C   UNL     1     -46.746  35.560  27.508  1.00  0.00     0.010 A 
ATOM     46  C   UNL     1     -48.090  35.847  27.700  1.00  0.00     0.034 A 
ATOM     47  C   UNL     1     -45.859  36.644  27.447  1.00  0.00    -0.028 A 
ATOM     48  N   UNL     1     -48.585  37.095  27.806  1.00  0.00    -0.262 NA
ATOM     49  H   UNL     1     -48.836  35.059  27.776  1.00  0.00     0.084 H 
ATOM     50  C   UNL     1     -46.331  37.961  27.548  1.00  0.00     0.066 A 
ATOM     51  H   UNL     1     -44.802  36.423  27.333  1.00  0.00     0.065 H 
ATOM     52  C   UNL     1     -47.699  38.123  27.726  1.00  0.00     0.051 A 
ATOM     53  H   UNL     1     -48.184  39.089  27.800  1.00  0.00     0.086 H 
BRANCH  50  54
ATOM     54  N   UNL     1     -45.438  39.078  27.463  1.00  0.00    -0.300 N 
ATOM     55  C   UNL     1     -45.411  40.002  26.425  1.00  0.00     0.012 A 
ATOM     56  C   UNL     1     -44.448  39.460  28.373  1.00  0.00     0.150 A 
ATOM     57  C   UNL     1     -44.437  40.943  26.667  1.00  0.00    -0.031 A 
ATOM     58  H   UNL     1     -46.093  39.941  25.590  1.00  0.00     0.082 H 
ATOM     59  C   UNL     1     -43.825  40.610  27.897  1.00  0.00     0.061 A 
ATOM     60  N   UNL     1     -44.116  38.830  29.519  1.00  0.00    -0.218 NA
ATOM     61  H   UNL     1     -44.193  41.777  26.023  1.00  0.00     0.065 H 
ATOM     62  C   UNL     1     -42.792  41.154  28.676  1.00  0.00     0.136 A 
ATOM     63  C   UNL     1     -43.115  39.436  30.174  1.00  0.00     0.120 A 
ATOM     64  N   UNL     1     -42.451  40.549  29.825  1.00  0.00    -0.219 NA
ATOM     65  H   UNL     1     -42.804  38.969  31.105  1.00  0.00     0.106 H 
BRANCH  62  66
ATOM     66  N   UNL     1     -42.096  42.305  28.333  1.00  0.00    -0.383 N 
ATOM     67  H   UNL     1     -41.955  42.959  29.091  1.00  0.00     0.158 HD
ATOM     68  H   UNL     1     -41.279  42.074  27.780  1.00  0.00     0.158 HD
ENDBRANCH  62  66
ENDBRANCH  50  54
ENDBRANCH  42  45
ENDBRANCH  41  42
ENDBRANCH   7  41
TORSDOF 14
ENDMDL
MODEL 5
REMARK VINA RESULT:      -8.5      1.780      3.036
REMARK SMILES CC(C)c1nc(NCCN(C)C)c2ccc(OCc3cncc(-n4ccc5c(N)ncnc54)c3)cc2n1
REMARK SMILES IDX 4 1 5 2 6 3 13 4 14 5 15 6 16 7 35 8 36 9 37 10 2 14 1 16
REMARK SMILES IDX 3 20 7 24 8 26 9 29 10 32 11 33 12 37 17 41 18 42 19 45
REMARK SMILES IDX 20 46 34 47 21 48 23 50 22 52 24 54 25 55 33 56 26 57 27 59
REMARK SMILES IDX 32 60 28 62 31 63 30 64 29 66
REMARK H PARENT 14 11 15 12 35 13 2 15 1 17 1 18 1 19 3 21 3 22 3 23 7 25 8 27
REMARK H PARENT 8 28 9 30 9 31 11 34 11 35 11 36 12 38 12 39 12 40 18 43 18 44
REMARK H PARENT 20 49 34 51 22 53 25 58 26 61 31 65 29 67 29 68
REMARK Flexibility Score: inf
ROOT
ATOM      1  C   UNL     1     -46.813  30.851  22.739  1.00  0.00     0.133 A 
ATOM      2  N   UNL     1     -47.960  30.240  23.071  1.00  0.00    -0.215 NA
ATOM      3  C   UNL     1     -48.655  30.732  24.109  1.00  0.00     0.137 A 
ATOM      4  C   UNL     1     -48.195  31.833  24.853  1.00  0.00     0.043 A 
ATOM      5  C   UNL     1     -48.844  32.380  25.985  1.00  0.00    -0.045 A 
ATOM      6  C   UNL     1     -48.307  33.480  26.649  1.00  0.00    -0.019 A 
ATOM      7  C   UNL     1     -47.121  34.053  26.202  1.00  0.00     0.122 A 
ATOM      8  C   UNL     1     -46.475  33.499  25.096  1.00  0.00     0.007 A 
ATOM      9  C   UNL     1     -46.991  32.399  24.417  1.00  0.00     0.080 A 
ATOM     10  N   UNL     1     -46.310  31.923  23.372  1.00  0.00    -0.232 NA
ATOM     11  H   UNL     1     -49.764  31.936  26.360  1.00  0.00     0.063 H 
ATOM     12  H   UNL     1     -48.815  33.887  27.521  1.00  0.00     0.066 H 
ATOM     13  H   UNL     1     -45.532  33.896  24.733  1.00  0.00     0.069 H 
ENDROOT
BRANCH   1  14
ATOM     14  C   UNL     1     -46.040  30.282  21.570  1.00  0.00     0.013 C 
ATOM     15  H   UNL     1     -46.689  29.571  21.044  1.00  0.00     0.038 H 
BRANCH  14  16
ATOM     16  C   UNL     1     -44.808  29.520  22.054  1.00  0.00    -0.056 C 
ATOM     17  H   UNL     1     -43.902  30.133  21.994  1.00  0.00     0.024 H 
ATOM     18  H   UNL     1     -44.927  29.205  23.097  1.00  0.00     0.024 H 
ATOM     19  H   UNL     1     -44.646  28.622  21.449  1.00  0.00     0.024 H 
ENDBRANCH  14  16
BRANCH  14  20
ATOM     20  C   UNL     1     -45.656  31.382  20.582  1.00  0.00    -0.056 C 
ATOM     21  H   UNL     1     -46.211  31.276  19.644  1.00  0.00     0.024 H 
ATOM     22  H   UNL     1     -44.587  31.335  20.347  1.00  0.00     0.024 H 
ATOM     23  H   UNL     1     -45.867  32.380  20.982  1.00  0.00     0.024 H 
ENDBRANCH  14  20
ENDBRANCH   1  14
BRANCH   3  24
ATOM     24  N   UNL     1     -49.870  30.109  24.475  1.00  0.00    -0.368 N 
ATOM     25  H   UNL     1     -50.565  30.343  23.770  1.00  0.00     0.162 HD
BRANCH  24  26
ATOM     26  C   UNL     1     -49.814  28.656  24.686  1.00  0.00     0.029 C 
ATOM     27  H   UNL     1     -50.829  28.327  24.941  1.00  0.00     0.050 H 
ATOM     28  H   UNL     1     -49.551  28.135  23.758  1.00  0.00     0.050 H 
BRANCH  26  29
ATOM     29  C   UNL     1     -48.880  28.282  25.859  1.00  0.00     0.015 C 
ATOM     30  H   UNL     1     -47.884  28.719  25.722  1.00  0.00     0.045 H 
ATOM     31  H   UNL     1     -49.299  28.753  26.759  1.00  0.00     0.045 H 
BRANCH  29  32
ATOM     32  N   UNL     1     -48.773  26.824  26.096  1.00  0.00    -0.308 NA
BRANCH  32  33
ATOM     33  C   UNL     1     -49.894  26.104  25.486  1.00  0.00    -0.014 C 
ATOM     34  H   UNL     1     -50.844  26.636  25.611  1.00  0.00     0.039 H 
ATOM     35  H   UNL     1     -49.720  25.964  24.413  1.00  0.00     0.039 H 
ATOM     36  H   UNL     1     -49.998  25.100  25.908  1.00  0.00     0.039 H 
ENDBRANCH  32  33
BRANCH  32  37
ATOM     37  C   UNL     1     -47.511  26.326  25.542  1.00  0.00    -0.014 C 
ATOM     38  H   UNL     1     -47.522  25.231  25.481  1.00  0.00     0.039 H 
ATOM     39  H   UNL     1     -46.671  26.591  26.194  1.00  0.00     0.039 H 
ATOM     40  H   UNL     1     -47.311  26.726  24.541  1.00  0.00     0.039 H 
ENDBRANCH  32  37
ENDBRANCH  29  32
ENDBRANCH  26  29
ENDBRANCH  24  26
ENDBRANCH   3  24
BRANCH   7  41
ATOM     41  O   UNL     1     -46.691  35.119  26.943  1.00  0.00    -0.489 OA
BRANCH  41  42
ATOM     42  C   UNL     1     -47.186  36.423  26.621  1.00  0.00     0.115 C 
ATOM     43  H   UNL     1     -48.196  36.480  27.043  1.00  0.00     0.076 H 
ATOM     44  H   UNL     1     -47.301  36.541  25.536  1.00  0.00     0.076 H 
BRANCH  42  45
ATOM     45  C   UNL     1     -46.380  37.538  27.234  1.00  0.00     0.010 A 
ATOM     46  C   UNL     1     -45.660  37.312  28.399  1.00  0.00     0.034 A 
ATOM     47  C   UNL     1     -46.271  38.807  26.646  1.00  0.00    -0.028 A 
ATOM     48  N   UNL     1     -44.891  38.240  29.000  1.00  0.00    -0.262 NA
ATOM     49  H   UNL     1     -45.679  36.348  28.902  1.00  0.00     0.084 H 
ATOM     50  C   UNL     1     -45.485  39.805  27.241  1.00  0.00     0.066 A 
ATOM     51  H   UNL     1     -46.803  38.977  25.716  1.00  0.00     0.065 H 
ATOM     52  C   UNL     1     -44.822  39.463  28.413  1.00  0.00     0.051 A 
ATOM     53  H   UNL     1     -44.200  40.153  28.972  1.00  0.00     0.086 H 
BRANCH  50  54
ATOM     54  N   UNL     1     -45.385  41.112  26.664  1.00  0.00    -0.300 N 
ATOM     55  C   UNL     1     -46.460  41.879  26.230  1.00  0.00     0.012 A 
ATOM     56  C   UNL     1     -44.229  41.863  26.428  1.00  0.00     0.150 A 
ATOM     57  C   UNL     1     -46.005  43.080  25.738  1.00  0.00    -0.031 A 
ATOM     58  H   UNL     1     -47.479  41.529  26.314  1.00  0.00     0.082 H 
ATOM     59  C   UNL     1     -44.597  43.080  25.860  1.00  0.00     0.061 A 
ATOM     60  N   UNL     1     -42.957  41.492  26.680  1.00  0.00    -0.218 NA
ATOM     61  H   UNL     1     -46.623  43.868  25.330  1.00  0.00     0.065 H 
ATOM     62  C   UNL     1     -43.569  43.982  25.545  1.00  0.00     0.136 A 
ATOM     63  C   UNL     1     -42.063  42.429  26.334  1.00  0.00     0.120 A 
ATOM     64  N   UNL     1     -42.296  43.637  25.797  1.00  0.00    -0.219 NA
ATOM     65  H   UNL     1     -41.021  42.182  26.513  1.00  0.00     0.106 H 
BRANCH  62  66
ATOM     66  N   UNL     1     -43.790  45.236  24.993  1.00  0.00    -0.383 N 
ATOM     67  H   UNL     1     -43.048  45.576  24.397  1.00  0.00     0.158 HD
ATOM     68  H   UNL     1     -44.730  45.298  24.620  1.00  0.00     0.158 HD
ENDBRANCH  62  66
ENDBRANCH  50  54
ENDBRANCH  42  45
ENDBRANCH  41  42
ENDBRANCH   7  41
TORSDOF 14
ENDMDL
MODEL 6
REMARK VINA RESULT:      -8.3      2.499     11.878
REMARK SMILES CC(C)c1nc(NCCN(C)C)c2ccc(OCc3cncc(-n4ccc5c(N)ncnc54)c3)cc2n1
REMARK SMILES IDX 4 1 5 2 6 3 13 4 14 5 15 6 16 7 35 8 36 9 37 10 2 14 1 16
REMARK SMILES IDX 3 20 7 24 8 26 9 29 10 32 11 33 12 37 17 41 18 42 19 45
REMARK SMILES IDX 20 46 34 47 21 48 23 50 22 52 24 54 25 55 33 56 26 57 27 59
REMARK SMILES IDX 32 60 28 62 31 63 30 64 29 66
REMARK H PARENT 14 11 15 12 35 13 2 15 1 17 1 18 1 19 3 21 3 22 3 23 7 25 8 27
REMARK H PARENT 8 28 9 30 9 31 11 34 11 35 11 36 12 38 12 39 12 40 18 43 18 44
REMARK H PARENT 20 49 34 51 22 53 25 58 26 61 31 65 29 67 29 68
REMARK Flexibility Score: inf
ROOT
ATOM      1  C   UNL     1     -48.128  39.909  27.972  1.00  0.00     0.133 A 
ATOM      2  N   UNL     1     -46.816  40.179  27.910  1.00  0.00    -0.215 NA
ATOM      3  C   UNL     1     -45.971  39.150  27.735  1.00  0.00     0.137 A 
ATOM      4  C   UNL     1     -46.429  37.823  27.645  1.00  0.00     0.043 A 
ATOM      5  C   UNL     1     -45.601  36.684  27.506  1.00  0.00    -0.045 A 
ATOM      6  C   UNL     1     -46.156  35.410  27.419  1.00  0.00    -0.019 A 
ATOM      7  C   UNL     1     -47.537  35.246  27.467  1.00  0.00     0.122 A 
ATOM      8  C   UNL     1     -48.348  36.371  27.622  1.00  0.00     0.007 A 
ATOM      9  C   UNL     1     -47.817  37.655  27.713  1.00  0.00     0.080 A 
ATOM     10  N   UNL     1     -48.659  38.679  27.868  1.00  0.00    -0.232 NA
ATOM     11  H   UNL     1     -44.518  36.789  27.482  1.00  0.00     0.063 H 
ATOM     12  H   UNL     1     -45.508  34.542  27.316  1.00  0.00     0.066 H 
ATOM     13  H   UNL     1     -49.428  36.285  27.695  1.00  0.00     0.069 H 
ENDROOT
BRANCH   1  14
ATOM     14  C   UNL     1     -49.067  41.077  28.174  1.00  0.00     0.013 C 
ATOM     15  H   UNL     1     -48.566  41.810  28.821  1.00  0.00     0.038 H 
BRANCH  14  16
ATOM     16  C   UNL     1     -50.346  40.630  28.879  1.00  0.00    -0.056 C 
ATOM     17  H   UNL     1     -50.846  41.465  29.380  1.00  0.00     0.024 H 
ATOM     18  H   UNL     1     -51.055  40.197  28.165  1.00  0.00     0.024 H 
ATOM     19  H   UNL     1     -50.125  39.869  29.635  1.00  0.00     0.024 H 
ENDBRANCH  14  16
BRANCH  14  20
ATOM     20  C   UNL     1     -49.379  41.765  26.847  1.00  0.00    -0.056 C 
ATOM     21  H   UNL     1     -48.464  42.139  26.375  1.00  0.00     0.024 H 
ATOM     22  H   UNL     1     -50.050  42.616  27.001  1.00  0.00     0.024 H 
ATOM     23  H   UNL     1     -49.863  41.081  26.139  1.00  0.00     0.024 H 
ENDBRANCH  14  20
ENDBRANCH   1  14
BRANCH   3  24
ATOM     24  N   UNL     1     -44.583  39.409  27.660  1.00  0.00    -0.368 N 
ATOM     25  H   UNL     1     -44.241  39.024  26.784  1.00  0.00     0.162 HD
BRANCH  24  26
ATOM     26  C   UNL     1     -44.181  40.816  27.801  1.00  0.00     0.029 C 
ATOM     27  H   UNL     1     -45.062  41.428  27.570  1.00  0.00     0.050 H 
ATOM     28  H   UNL     1     -43.916  41.046  28.840  1.00  0.00     0.050 H 
BRANCH  26  29
ATOM     29  C   UNL     1     -43.061  41.195  26.806  1.00  0.00     0.015 C 
ATOM     30  H   UNL     1     -42.136  41.453  27.337  1.00  0.00     0.045 H 
ATOM     31  H   UNL     1     -42.835  40.290  26.224  1.00  0.00     0.045 H 
BRANCH  29  32
ATOM     32  N   UNL     1     -43.435  42.278  25.869  1.00  0.00    -0.308 NA
BRANCH  32  33
ATOM     33  C   UNL     1     -44.868  42.245  25.565  1.00  0.00    -0.014 C 
ATOM     34  H   UNL     1     -45.302  41.251  25.726  1.00  0.00     0.039 H 
ATOM     35  H   UNL     1     -45.409  42.960  26.195  1.00  0.00     0.039 H 
ATOM     36  H   UNL     1     -45.062  42.547  24.532  1.00  0.00     0.039 H 
ENDBRANCH  32  33
BRANCH  32  37
ATOM     37  C   UNL     1     -43.088  43.577  26.453  1.00  0.00    -0.014 C 
ATOM     38  H   UNL     1     -42.036  43.818  26.261  1.00  0.00     0.039 H 
ATOM     39  H   UNL     1     -43.206  43.554  27.542  1.00  0.00     0.039 H 
ATOM     40  H   UNL     1     -43.707  44.389  26.056  1.00  0.00     0.039 H 
ENDBRANCH  32  37
ENDBRANCH  29  32
ENDBRANCH  26  29
ENDBRANCH  24  26
ENDBRANCH   3  24
BRANCH   7  41
ATOM     41  O   UNL     1     -47.958  33.948  27.383  1.00  0.00    -0.489 OA
BRANCH  41  42
ATOM     42  C   UNL     1     -48.772  33.562  26.270  1.00  0.00     0.115 C 
ATOM     43  H   UNL     1     -48.962  34.478  25.697  1.00  0.00     0.076 H 
ATOM     44  H   UNL     1     -49.753  33.204  26.607  1.00  0.00     0.076 H 
BRANCH  42  45
ATOM     45  C   UNL     1     -48.096  32.585  25.344  1.00  0.00     0.010 A 
ATOM     46  C   UNL     1     -46.764  32.767  24.999  1.00  0.00     0.034 A 
ATOM     47  C   UNL     1     -48.741  31.444  24.843  1.00  0.00    -0.028 A 
ATOM     48  N   UNL     1     -46.073  31.930  24.202  1.00  0.00    -0.262 NA
ATOM     49  H   UNL     1     -46.193  33.617  25.363  1.00  0.00     0.084 H 
ATOM     50  C   UNL     1     -48.060  30.548  24.005  1.00  0.00     0.066 A 
ATOM     51  H   UNL     1     -49.771  31.278  25.139  1.00  0.00     0.065 H 
ATOM     52  C   UNL     1     -46.733  30.844  23.721  1.00  0.00     0.051 A 
ATOM     53  H   UNL     1     -46.109  30.238  23.074  1.00  0.00     0.086 H 
BRANCH  50  54
ATOM     54  N   UNL     1     -48.714  29.392  23.469  1.00  0.00    -0.300 N 
ATOM     55  C   UNL     1     -49.098  28.278  24.205  1.00  0.00     0.012 A 
ATOM     56  C   UNL     1     -49.092  29.154  22.144  1.00  0.00     0.150 A 
ATOM     57  C   UNL     1     -49.703  27.361  23.377  1.00  0.00    -0.031 A 
ATOM     58  H   UNL     1     -48.931  28.214  25.270  1.00  0.00     0.082 H 
ATOM     59  C   UNL     1     -49.706  27.907  22.073  1.00  0.00     0.061 A 
ATOM     60  N   UNL     1     -48.893  29.968  21.086  1.00  0.00    -0.218 NA
ATOM     61  H   UNL     1     -50.096  26.400  23.681  1.00  0.00     0.065 H 
ATOM     62  C   UNL     1     -50.159  27.481  20.815  1.00  0.00     0.136 A 
ATOM     63  C   UNL     1     -49.361  29.455  19.939  1.00  0.00     0.120 A 
ATOM     64  N   UNL     1     -49.980  28.279  19.750  1.00  0.00    -0.219 NA
ATOM     65  H   UNL     1     -49.225  30.068  19.053  1.00  0.00     0.106 H 
BRANCH  62  66
ATOM     66  N   UNL     1     -50.803  26.271  20.600  1.00  0.00    -0.383 N 
ATOM     67  H   UNL     1     -51.788  26.265  20.830  1.00  0.00     0.158 HD
ATOM     68  H   UNL     1     -50.551  25.891  19.695  1.00  0.00     0.158 HD
ENDBRANCH  62  66
ENDBRANCH  50  54
ENDBRANCH  42  45
ENDBRANCH  41  42
ENDBRANCH   7  41
TORSDOF 14
ENDMDL
MODEL 7
REMARK VINA RESULT:      -8.2      2.058      3.654
REMARK SMILES CC(C)c1nc(NCCN(C)C)c2ccc(OCc3cncc(-n4ccc5c(N)ncnc54)c3)cc2n1
REMARK SMILES IDX 4 1 5 2 6 3 13 4 14 5 15 6 16 7 35 8 36 9 37 10 2 14 1 16
REMARK SMILES IDX 3 20 7 24 8 26 9 29 10 32 11 33 12 37 17 41 18 42 19 45
REMARK SMILES IDX 20 46 34 47 21 48 23 50 22 52 24 54 25 55 33 56 26 57 27 59
REMARK SMILES IDX 32 60 28 62 31 63 30 64 29 66
REMARK H PARENT 14 11 15 12 35 13 2 15 1 17 1 18 1 19 3 21 3 22 3 23 7 25 8 27
REMARK H PARENT 8 28 9 30 9 31 11 34 11 35 11 36 12 38 12 39 12 40 18 43 18 44
REMARK H PARENT 20 49 34 51 22 53 25 58 26 61 31 65 29 67 29 68
REMARK Flexibility Score: inf
ROOT
ATOM      1  C   UNL     1     -46.443  31.209  23.265  1.00  0.00     0.133 A 
ATOM      2  N   UNL     1     -47.605  30.559  23.424  1.00  0.00    -0.215 NA
ATOM      3  C   UNL     1     -48.502  31.078  24.278  1.00  0.00     0.137 A 
ATOM      4  C   UNL     1     -48.236  32.248  25.010  1.00  0.00     0.043 A 
ATOM      5  C   UNL     1     -49.109  32.831  25.960  1.00  0.00    -0.045 A 
ATOM      6  C   UNL     1     -48.752  33.999  26.629  1.00  0.00    -0.019 A 
ATOM      7  C   UNL     1     -47.528  34.607  26.367  1.00  0.00     0.122 A 
ATOM      8  C   UNL     1     -46.664  34.018  25.443  1.00  0.00     0.007 A 
ATOM      9  C   UNL     1     -46.997  32.850  24.762  1.00  0.00     0.080 A 
ATOM     10  N   UNL     1     -46.113  32.346  23.899  1.00  0.00    -0.232 NA
ATOM     11  H   UNL     1     -50.063  32.363  26.191  1.00  0.00     0.063 H 
ATOM     12  H   UNL     1     -49.431  34.434  27.360  1.00  0.00     0.066 H 
ATOM     13  H   UNL     1     -45.687  34.442  25.231  1.00  0.00     0.069 H 
ENDROOT
BRANCH   1  14
ATOM     14  C   UNL     1     -45.441  30.609  22.304  1.00  0.00     0.013 C 
ATOM     15  H   UNL     1     -44.449  31.008  22.551  1.00  0.00     0.038 H 
BRANCH  14  16
ATOM     16  C   UNL     1     -45.761  31.013  20.865  1.00  0.00    -0.056 C 
ATOM     17  H   UNL     1     -45.174  31.881  20.548  1.00  0.00     0.024 H 
ATOM     18  H   UNL     1     -45.543  30.193  20.172  1.00  0.00     0.024 H 
ATOM     19  H   UNL     1     -46.820  31.268  20.762  1.00  0.00     0.024 H 
ENDBRANCH  14  16
BRANCH  14  20
ATOM     20  C   UNL     1     -45.382  29.090  22.451  1.00  0.00    -0.056 C 
ATOM     21  H   UNL     1     -45.905  28.764  23.357  1.00  0.00     0.024 H 
ATOM     22  H   UNL     1     -44.344  28.748  22.520  1.00  0.00     0.024 H 
ATOM     23  H   UNL     1     -45.846  28.581  21.598  1.00  0.00     0.024 H 
ENDBRANCH  14  20
ENDBRANCH   1  14
BRANCH   3  24
ATOM     24  N   UNL     1     -49.738  30.415  24.459  1.00  0.00    -0.368 N 
ATOM     25  H   UNL     1     -50.277  30.521  23.603  1.00  0.00     0.162 HD
BRANCH  24  26
ATOM     26  C   UNL     1     -49.660  29.001  24.851  1.00  0.00     0.029 C 
ATOM     27  H   UNL     1     -48.652  28.650  24.596  1.00  0.00     0.050 H 
ATOM     28  H   UNL     1     -49.755  28.889  25.937  1.00  0.00     0.050 H 
BRANCH  26  29
ATOM     29  C   UNL     1     -50.679  28.134  24.076  1.00  0.00     0.015 C 
ATOM     30  H   UNL     1     -50.551  27.071  24.315  1.00  0.00     0.045 H 
ATOM     31  H   UNL     1     -51.676  28.411  24.446  1.00  0.00     0.045 H 
BRANCH  29  32
ATOM     32  N   UNL     1     -50.645  28.338  22.610  1.00  0.00    -0.308 NA
BRANCH  32  33
ATOM     33  C   UNL     1     -49.481  27.682  22.010  1.00  0.00    -0.014 C 
ATOM     34  H   UNL     1     -49.189  26.776  22.554  1.00  0.00     0.039 H 
ATOM     35  H   UNL     1     -49.692  27.402  20.971  1.00  0.00     0.039 H 
ATOM     36  H   UNL     1     -48.621  28.357  21.970  1.00  0.00     0.039 H 
ENDBRANCH  32  33
BRANCH  32  37
ATOM     37  C   UNL     1     -51.871  27.805  22.010  1.00  0.00    -0.014 C 
ATOM     38  H   UNL     1     -52.756  28.252  22.479  1.00  0.00     0.039 H 
ATOM     39  H   UNL     1     -51.945  26.725  22.176  1.00  0.00     0.039 H 
ATOM     40  H   UNL     1     -51.921  27.992  20.931  1.00  0.00     0.039 H 
ENDBRANCH  32  37
ENDBRANCH  29  32
ENDBRANCH  26  29
ENDBRANCH  24  26
ENDBRANCH   3  24
BRANCH   7  41
ATOM     41  O   UNL     1     -47.289  35.740  27.094  1.00  0.00    -0.489 OA
BRANCH  41  42
ATOM     42  C   UNL     1     -46.521  35.633  28.297  1.00  0.00     0.115 C 
ATOM     43  H   UNL     1     -45.759  34.868  28.108  1.00  0.00     0.076 H 
ATOM     44  H   UNL     1     -47.136  35.253  29.122  1.00  0.00     0.076 H 
BRANCH  42  45
ATOM     45  C   UNL     1     -45.800  36.904  28.662  1.00  0.00     0.010 A 
ATOM     46  C   UNL     1     -45.185  37.019  29.901  1.00  0.00     0.034 A 
ATOM     47  C   UNL     1     -45.668  37.983  27.775  1.00  0.00    -0.028 A 
ATOM     48  N   UNL     1     -44.495  38.105  30.300  1.00  0.00    -0.262 NA
ATOM     49  H   UNL     1     -45.227  36.217  30.634  1.00  0.00     0.084 H 
ATOM     50  C   UNL     1     -44.963  39.136  28.152  1.00  0.00     0.066 A 
ATOM     51  H   UNL     1     -46.117  37.884  26.793  1.00  0.00     0.065 H 
ATOM     52  C   UNL     1     -44.401  39.138  29.423  1.00  0.00     0.051 A 
ATOM     53  H   UNL     1     -43.849  39.976  29.832  1.00  0.00     0.086 H 
BRANCH  50  54
ATOM     54  N   UNL     1     -44.841  40.253  27.265  1.00  0.00    -0.300 N 
ATOM     55  C   UNL     1     -43.664  40.655  26.643  1.00  0.00     0.012 A 
ATOM     56  C   UNL     1     -45.842  41.137  26.850  1.00  0.00     0.150 A 
ATOM     57  C   UNL     1     -43.909  41.757  25.857  1.00  0.00    -0.031 A 
ATOM     58  H   UNL     1     -42.735  40.125  26.787  1.00  0.00     0.082 H 
ATOM     59  C   UNL     1     -45.282  42.068  25.979  1.00  0.00     0.061 A 
ATOM     60  N   UNL     1     -47.137  41.128  27.227  1.00  0.00    -0.218 NA
ATOM     61  H   UNL     1     -43.173  42.282  25.262  1.00  0.00     0.065 H 
ATOM     62  C   UNL     1     -46.133  43.051  25.451  1.00  0.00     0.136 A 
ATOM     63  C   UNL     1     -47.851  42.114  26.664  1.00  0.00     0.120 A 
ATOM     64  N   UNL     1     -47.428  43.054  25.804  1.00  0.00    -0.219 NA
ATOM     65  H   UNL     1     -48.902  42.155  26.935  1.00  0.00     0.106 H 
BRANCH  62  66
ATOM     66  N   UNL     1     -45.716  44.028  24.559  1.00  0.00    -0.383 N 
ATOM     67  H   UNL     1     -46.461  44.503  24.066  1.00  0.00     0.158 HD
ATOM     68  H   UNL     1     -45.011  44.619  24.985  1.00  0.00     0.158 HD
ENDBRANCH  62  66
ENDBRANCH  50  54
ENDBRANCH  42  45
ENDBRANCH  41  42
ENDBRANCH   7  41
TORSDOF 14
ENDMDL
