MODEL 1
REMARK VINA RESULT:     -10.5      0.000      0.000
REMARK SMILES Nc1ccnc2cc(OC[C@H]3O[C@@H](n4cc(Br)c5c(N)ncnc54)[C@@H](F)[C@@H]3O)ccc12
REMARK SMILES IDX 10 1 9 4 8 5 2 6 3 7 31 8 4 9 6 11 30 12 5 13 7 15 29 16
REMARK SMILES IDX 1 20 11 23 12 24 27 25 13 27 25 28 26 31 28 33 14 35 15 36
REMARK SMILES IDX 24 37 16 38 18 40 23 41 17 42 19 43 22 44 21 45 20 47
REMARK H PARENT 10 2 10 3 3 10 4 14 30 17 7 18 29 19 1 21 1 22 11 26 27 29
REMARK H PARENT 13 30 25 32 28 34 15 39 22 46 20 48 20 49
REMARK Flexibility Score: inf
ROOT
ATOM      1  C   UNL     1     -45.716  35.031  27.721  1.00  0.00     0.117 C 
ATOM      2  H   UNL     1     -44.649  34.874  27.528  1.00  0.00     0.073 H 
ATOM      3  H   UNL     1     -46.080  34.105  28.181  1.00  0.00     0.073 H 
ENDROOT
BRANCH   1   4
ATOM      4  O   UNL     1     -46.459  35.156  26.508  1.00  0.00    -0.491 OA
BRANCH   4   5
ATOM      5  C   UNL     1     -47.122  34.080  25.997  1.00  0.00     0.121 A 
ATOM      6  C   UNL     1     -48.612  30.517  24.254  1.00  0.00     0.042 A 
ATOM      7  C   UNL     1     -47.795  29.863  23.335  1.00  0.00    -0.020 A 
ATOM      8  C   UNL     1     -48.162  31.726  24.840  1.00  0.00     0.023 A 
ATOM      9  C   UNL     1     -46.529  30.359  23.109  1.00  0.00     0.030 A 
ATOM     10  H   UNL     1     -48.134  28.967  22.828  1.00  0.00     0.066 H 
ATOM     11  C   UNL     1     -46.849  32.145  24.532  1.00  0.00     0.076 A 
ATOM     12  C   UNL     1     -48.939  32.525  25.711  1.00  0.00    -0.047 A 
ATOM     13  N   UNL     1     -46.044  31.472  23.694  1.00  0.00    -0.256 NA
ATOM     14  H   UNL     1     -45.849  29.860  22.425  1.00  0.00     0.084 H 
ATOM     15  C   UNL     1     -46.362  33.305  25.117  1.00  0.00     0.007 A 
ATOM     16  C   UNL     1     -48.422  33.694  26.279  1.00  0.00    -0.019 A 
ATOM     17  H   UNL     1     -49.954  32.241  25.969  1.00  0.00     0.063 H 
ATOM     18  H   UNL     1     -45.344  33.613  24.885  1.00  0.00     0.069 H 
ATOM     19  H   UNL     1     -49.060  34.255  26.954  1.00  0.00     0.066 H 
BRANCH   6  20
ATOM     20  N   UNL     1     -49.941  30.049  24.387  1.00  0.00    -0.398 N 
ATOM     21  H   UNL     1     -50.575  30.531  23.757  1.00  0.00     0.156 HD
ATOM     22  H   UNL     1     -49.981  29.046  24.209  1.00  0.00     0.156 HD
ENDBRANCH   6  20
ENDBRANCH   4   5
ENDBRANCH   1   4
BRANCH   1  23
ATOM     23  C   UNL     1     -45.958  36.171  28.718  1.00  0.00     0.123 C 
ATOM     24  O   UNL     1     -44.828  37.061  28.806  1.00  0.00    -0.345 OA
ATOM     25  C   UNL     1     -47.170  37.050  28.429  1.00  0.00     0.119 C 
ATOM     26  H   UNL     1     -46.058  35.710  29.711  1.00  0.00     0.067 H 
ATOM     27  C   UNL     1     -45.332  38.343  29.250  1.00  0.00     0.169 C 
ATOM     28  C   UNL     1     -46.856  38.272  29.269  1.00  0.00     0.173 C 
ATOM     29  H   UNL     1     -47.267  37.312  27.373  1.00  0.00     0.066 H 
ATOM     30  H   UNL     1     -44.985  38.467  30.284  1.00  0.00     0.088 H 
ATOM     31  F   UNL     1     -47.472  39.376  28.796  1.00  0.00    -0.239 F 
ATOM     32  H   UNL     1     -47.214  38.125  30.296  1.00  0.00     0.074 H 
BRANCH  25  33
ATOM     33  O   UNL     1     -48.380  36.421  28.846  1.00  0.00    -0.387 OA
ATOM     34  H   UNL     1     -49.073  37.107  28.809  1.00  0.00     0.211 HD
ENDBRANCH  25  33
BRANCH  27  35
ATOM     35  N   UNL     1     -44.686  39.384  28.472  1.00  0.00    -0.302 N 
ATOM     36  C   UNL     1     -45.168  39.840  27.263  1.00  0.00     0.023 A 
ATOM     37  C   UNL     1     -43.572  40.111  28.817  1.00  0.00     0.148 A 
ATOM     38  C   UNL     1     -44.348  40.862  26.852  1.00  0.00     0.049 A 
ATOM     39  H   UNL     1     -46.052  39.411  26.808  1.00  0.00     0.083 H 
ATOM     40  C   UNL     1     -43.334  41.054  27.820  1.00  0.00     0.075 A 
ATOM     41  N   UNL     1     -42.841  39.941  29.929  1.00  0.00    -0.218 NA
ATOM     42  Br  UNL     1     -44.553  41.846  25.267  1.00  0.00    -0.048 Br
ATOM     43  C   UNL     1     -42.233  41.903  28.007  1.00  0.00     0.137 A 
ATOM     44  C   UNL     1     -41.817  40.808  29.997  1.00  0.00     0.120 A 
ATOM     45  N   UNL     1     -41.473  41.755  29.108  1.00  0.00    -0.219 NA
ATOM     46  H   UNL     1     -41.189  40.738  30.881  1.00  0.00     0.106 H 
BRANCH  43  47
ATOM     47  N   UNL     1     -41.854  42.898  27.119  1.00  0.00    -0.383 N 
ATOM     48  H   UNL     1     -41.784  42.534  26.175  1.00  0.00     0.158 HD
ATOM     49  H   UNL     1     -42.324  43.786  27.236  1.00  0.00     0.158 HD
ENDBRANCH  43  47
ENDBRANCH  27  35
ENDBRANCH   1  23
TORSDOF 7
ENDMDL
MODEL 2
REMARK VINA RESULT:      -9.4      3.452     10.454
REMARK SMILES Nc1ccnc2cc(OC[C@H]3O[C@@H](n4cc(Br)c5c(N)ncnc54)[C@@H](F)[C@@H]3O)ccc12
REMARK SMILES IDX 10 1 9 4 8 5 2 6 3 7 31 8 4 9 6 11 30 12 5 13 7 15 29 16
REMARK SMILES IDX 1 20 11 23 12 24 27 25 13 27 25 28 26 31 28 33 14 35 15 36
REMARK SMILES IDX 24 37 16 38 18 40 23 41 17 42 19 43 22 44 21 45 20 47
REMARK H PARENT 10 2 10 3 3 10 4 14 30 17 7 18 29 19 1 21 1 22 11 26 27 29
REMARK H PARENT 13 30 25 32 28 34 15 39 22 46 20 48 20 49
REMARK Flexibility Score: inf
ROOT
ATOM      1  C   UNL     1     -48.585  35.111  26.830  1.00  0.00     0.117 C 
ATOM      2  H   UNL     1     -48.246  35.770  26.023  1.00  0.00     0.073 H 
ATOM      3  H   UNL     1     -49.664  34.983  26.683  1.00  0.00     0.073 H 
ENDROOT
BRANCH   1   4
ATOM      4  O   UNL     1     -48.460  35.734  28.108  1.00  0.00    -0.491 OA
BRANCH   4   5
ATOM      5  C   UNL     1     -47.407  36.559  28.368  1.00  0.00     0.121 A 
ATOM      6  C   UNL     1     -44.377  39.499  28.735  1.00  0.00     0.042 A 
ATOM      7  C   UNL     1     -44.179  40.353  27.654  1.00  0.00    -0.020 A 
ATOM      8  C   UNL     1     -45.363  38.485  28.643  1.00  0.00     0.023 A 
ATOM      9  C   UNL     1     -45.026  40.252  26.571  1.00  0.00     0.030 A 
ATOM     10  H   UNL     1     -43.396  41.102  27.673  1.00  0.00     0.066 H 
ATOM     11  C   UNL     1     -46.169  38.469  27.484  1.00  0.00     0.076 A 
ATOM     12  C   UNL     1     -45.588  37.502  29.635  1.00  0.00    -0.047 A 
ATOM     13  N   UNL     1     -46.014  39.339  26.473  1.00  0.00    -0.256 NA
ATOM     14  H   UNL     1     -44.927  40.921  25.721  1.00  0.00     0.084 H 
ATOM     15  C   UNL     1     -47.168  37.513  27.375  1.00  0.00     0.007 A 
ATOM     16  C   UNL     1     -46.599  36.546  29.494  1.00  0.00    -0.019 A 
ATOM     17  H   UNL     1     -44.988  37.476  30.539  1.00  0.00     0.063 H 
ATOM     18  H   UNL     1     -47.794  37.517  26.485  1.00  0.00     0.069 H 
ATOM     19  H   UNL     1     -46.736  35.829  30.297  1.00  0.00     0.066 H 
BRANCH   6  20
ATOM     20  N   UNL     1     -43.430  39.553  29.786  1.00  0.00    -0.398 N 
ATOM     21  H   UNL     1     -42.559  39.097  29.532  1.00  0.00     0.156 HD
ATOM     22  H   UNL     1     -43.245  40.522  30.043  1.00  0.00     0.156 HD
ENDBRANCH   6  20
ENDBRANCH   4   5
ENDBRANCH   1   4
BRANCH   1  23
ATOM     23  C   UNL     1     -47.938  33.722  26.750  1.00  0.00     0.123 C 
ATOM     24  O   UNL     1     -48.920  32.675  26.629  1.00  0.00    -0.345 OA
ATOM     25  C   UNL     1     -46.957  33.521  25.600  1.00  0.00     0.119 C 
ATOM     26  H   UNL     1     -47.430  33.552  27.710  1.00  0.00     0.067 H 
ATOM     27  C   UNL     1     -48.269  31.556  25.981  1.00  0.00     0.169 C 
ATOM     28  C   UNL     1     -46.879  32.008  25.540  1.00  0.00     0.173 C 
ATOM     29  H   UNL     1     -47.315  33.935  24.655  1.00  0.00     0.066 H 
ATOM     30  H   UNL     1     -48.145  30.785  26.753  1.00  0.00     0.088 H 
ATOM     31  F   UNL     1     -46.515  31.574  24.314  1.00  0.00    -0.239 F 
ATOM     32  H   UNL     1     -46.122  31.641  26.243  1.00  0.00     0.074 H 
BRANCH  25  33
ATOM     33  O   UNL     1     -45.688  34.102  25.891  1.00  0.00    -0.387 OA
ATOM     34  H   UNL     1     -45.325  33.603  26.648  1.00  0.00     0.211 HD
ENDBRANCH  25  33
BRANCH  27  35
ATOM     35  N   UNL     1     -49.177  31.006  24.993  1.00  0.00    -0.302 N 
ATOM     36  C   UNL     1     -50.007  31.779  24.208  1.00  0.00     0.023 A 
ATOM     37  C   UNL     1     -49.318  29.687  24.635  1.00  0.00     0.148 A 
ATOM     38  C   UNL     1     -50.667  30.934  23.351  1.00  0.00     0.049 A 
ATOM     39  H   UNL     1     -50.046  32.856  24.316  1.00  0.00     0.083 H 
ATOM     40  C   UNL     1     -50.246  29.606  23.599  1.00  0.00     0.075 A 
ATOM     41  N   UNL     1     -48.666  28.653  25.188  1.00  0.00    -0.218 NA
ATOM     42  Br  UNL     1     -51.918  31.464  22.056  1.00  0.00    -0.048 Br
ATOM     43  C   UNL     1     -50.512  28.327  23.090  1.00  0.00     0.137 A 
ATOM     44  C   UNL     1     -49.003  27.482  24.620  1.00  0.00     0.120 A 
ATOM     45  N   UNL     1     -49.883  27.266  23.627  1.00  0.00    -0.219 NA
ATOM     46  H   UNL     1     -48.502  26.601  25.010  1.00  0.00     0.106 H 
BRANCH  43  47
ATOM     47  N   UNL     1     -51.403  28.066  22.060  1.00  0.00    -0.383 N 
ATOM     48  H   UNL     1     -52.130  27.427  22.364  1.00  0.00     0.158 HD
ATOM     49  H   UNL     1     -51.692  28.871  21.522  1.00  0.00     0.158 HD
ENDBRANCH  43  47
ENDBRANCH  27  35
ENDBRANCH   1  23
TORSDOF 7
ENDMDL
MODEL 3
REMARK VINA RESULT:      -9.1      2.208      2.990
REMARK SMILES Nc1ccnc2cc(OC[C@H]3O[C@@H](n4cc(Br)c5c(N)ncnc54)[C@@H](F)[C@@H]3O)ccc12
REMARK SMILES IDX 10 1 9 4 8 5 2 6 3 7 31 8 4 9 6 11 30 12 5 13 7 15 29 16
REMARK SMILES IDX 1 20 11 23 12 24 27 25 13 27 25 28 26 31 28 33 14 35 15 36
REMARK SMILES IDX 24 37 16 38 18 40 23 41 17 42 19 43 22 44 21 45 20 47
REMARK H PARENT 10 2 10 3 3 10 4 14 30 17 7 18 29 19 1 21 1 22 11 26 27 29
REMARK H PARENT 13 30 25 32 28 34 15 39 22 46 20 48 20 49
REMARK Flexibility Score: inf
ROOT
ATOM      1  C   UNL     1     -47.692  34.892  27.796  1.00  0.00     0.117 C 
ATOM      2  H   UNL     1     -47.611  33.921  28.298  1.00  0.00     0.073 H 
ATOM      3  H   UNL     1     -48.566  35.388  28.237  1.00  0.00     0.073 H 
ENDROOT
BRANCH   1   4
ATOM      4  O   UNL     1     -48.011  34.747  26.413  1.00  0.00    -0.491 OA
BRANCH   4   5
ATOM      5  C   UNL     1     -47.603  33.641  25.728  1.00  0.00     0.121 A 
ATOM      6  C   UNL     1     -46.942  30.046  23.584  1.00  0.00     0.042 A 
ATOM      7  C   UNL     1     -47.919  29.058  23.673  1.00  0.00    -0.020 A 
ATOM      8  C   UNL     1     -47.112  31.253  24.307  1.00  0.00     0.023 A 
ATOM      9  C   UNL     1     -49.072  29.334  24.377  1.00  0.00     0.030 A 
ATOM     10  H   UNL     1     -47.792  28.103  23.177  1.00  0.00     0.066 H 
ATOM     11  C   UNL     1     -48.330  31.426  25.000  1.00  0.00     0.076 A 
ATOM     12  C   UNL     1     -46.147  32.286  24.370  1.00  0.00    -0.047 A 
ATOM     13  N   UNL     1     -49.296  30.494  25.027  1.00  0.00    -0.256 NA
ATOM     14  H   UNL     1     -49.873  28.603  24.443  1.00  0.00     0.084 H 
ATOM     15  C   UNL     1     -48.546  32.611  25.689  1.00  0.00     0.007 A 
ATOM     16  C   UNL     1     -46.391  33.466  25.078  1.00  0.00    -0.019 A 
ATOM     17  H   UNL     1     -45.196  32.190  23.855  1.00  0.00     0.063 H 
ATOM     18  H   UNL     1     -49.493  32.743  26.208  1.00  0.00     0.069 H 
ATOM     19  H   UNL     1     -45.620  34.230  25.074  1.00  0.00     0.066 H 
BRANCH   6  20
ATOM     20  N   UNL     1     -45.727  29.699  22.947  1.00  0.00    -0.398 N 
ATOM     21  H   UNL     1     -45.490  28.723  23.094  1.00  0.00     0.156 HD
ATOM     22  H   UNL     1     -45.787  29.888  21.948  1.00  0.00     0.156 HD
ENDBRANCH   6  20
ENDBRANCH   4   5
ENDBRANCH   1   4
BRANCH   1  23
ATOM     23  C   UNL     1     -46.471  35.781  28.062  1.00  0.00     0.123 C 
ATOM     24  O   UNL     1     -46.312  36.797  27.052  1.00  0.00    -0.345 OA
ATOM     25  C   UNL     1     -46.467  36.508  29.402  1.00  0.00     0.119 C 
ATOM     26  H   UNL     1     -45.584  35.136  27.984  1.00  0.00     0.067 H 
ATOM     27  C   UNL     1     -45.578  37.887  27.660  1.00  0.00     0.169 C 
ATOM     28  C   UNL     1     -45.433  37.589  29.149  1.00  0.00     0.173 C 
ATOM     29  H   UNL     1     -47.437  36.943  29.656  1.00  0.00     0.066 H 
ATOM     30  H   UNL     1     -44.576  37.868  27.211  1.00  0.00     0.088 H 
ATOM     31  F   UNL     1     -45.620  38.657  29.953  1.00  0.00    -0.239 F 
ATOM     32  H   UNL     1     -44.428  37.204  29.361  1.00  0.00     0.074 H 
BRANCH  25  33
ATOM     33  O   UNL     1     -46.074  35.642  30.463  1.00  0.00    -0.387 OA
ATOM     34  H   UNL     1     -45.575  34.911  30.051  1.00  0.00     0.211 HD
ENDBRANCH  25  33
BRANCH  27  35
ATOM     35  N   UNL     1     -46.189  39.137  27.249  1.00  0.00    -0.302 N 
ATOM     36  C   UNL     1     -47.535  39.407  27.386  1.00  0.00     0.023 A 
ATOM     37  C   UNL     1     -45.557  40.244  26.736  1.00  0.00     0.148 A 
ATOM     38  C   UNL     1     -47.742  40.695  26.957  1.00  0.00     0.049 A 
ATOM     39  H   UNL     1     -48.222  38.671  27.784  1.00  0.00     0.083 H 
ATOM     40  C   UNL     1     -46.506  41.246  26.545  1.00  0.00     0.075 A 
ATOM     41  N   UNL     1     -44.246  40.342  26.469  1.00  0.00    -0.218 NA
ATOM     42  Br  UNL     1     -49.398  41.577  26.935  1.00  0.00    -0.048 Br
ATOM     43  C   UNL     1     -46.039  42.466  26.035  1.00  0.00     0.137 A 
ATOM     44  C   UNL     1     -43.918  41.552  25.986  1.00  0.00     0.120 A 
ATOM     45  N   UNL     1     -44.730  42.596  25.748  1.00  0.00    -0.219 NA
ATOM     46  H   UNL     1     -42.867  41.708  25.760  1.00  0.00     0.106 H 
BRANCH  43  47
ATOM     47  N   UNL     1     -46.843  43.569  25.787  1.00  0.00    -0.383 N 
ATOM     48  H   UNL     1     -46.912  43.749  24.792  1.00  0.00     0.158 HD
ATOM     49  H   UNL     1     -47.698  43.611  26.325  1.00  0.00     0.158 HD
ENDBRANCH  43  47
ENDBRANCH  27  35
ENDBRANCH   1  23
TORSDOF 7
ENDMDL
MODEL 4
REMARK VINA RESULT:      -9.1      3.405      5.260
REMARK SMILES Nc1ccnc2cc(OC[C@H]3O[C@@H](n4cc(Br)c5c(N)ncnc54)[C@@H](F)[C@@H]3O)ccc12
REMARK SMILES IDX 10 1 9 4 8 5 2 6 3 7 31 8 4 9 6 11 30 12 5 13 7 15 29 16
REMARK SMILES IDX 1 20 11 23 12 24 27 25 13 27 25 28 26 31 28 33 14 35 15 36
REMARK SMILES IDX 24 37 16 38 18 40 23 41 17 42 19 43 22 44 21 45 20 47
REMARK H PARENT 10 2 10 3 3 10 4 14 30 17 7 18 29 19 1 21 1 22 11 26 27 29
REMARK H PARENT 13 30 25 32 28 34 15 39 22 46 20 48 20 49
REMARK Flexibility Score: inf
ROOT
ATOM      1  C   UNL     1     -48.705  32.302  25.329  1.00  0.00     0.117 C 
ATOM      2  H   UNL     1     -49.087  31.690  26.153  1.00  0.00     0.073 H 
ATOM      3  H   UNL     1     -49.519  32.984  25.056  1.00  0.00     0.073 H 
ENDROOT
BRANCH   1   4
ATOM      4  O   UNL     1     -48.470  31.522  24.157  1.00  0.00    -0.491 OA
BRANCH   4   5
ATOM      5  C   UNL     1     -47.947  30.268  24.263  1.00  0.00     0.121 A 
ATOM      6  C   UNL     1     -46.842  26.229  24.913  1.00  0.00     0.042 A 
ATOM      7  C   UNL     1     -47.440  25.565  25.980  1.00  0.00    -0.020 A 
ATOM      8  C   UNL     1     -47.164  27.588  24.677  1.00  0.00     0.023 A 
ATOM      9  C   UNL     1     -48.410  26.224  26.706  1.00  0.00     0.030 A 
ATOM     10  H   UNL     1     -47.173  24.542  26.220  1.00  0.00     0.066 H 
ATOM     11  C   UNL     1     -48.167  28.166  25.486  1.00  0.00     0.076 A 
ATOM     12  C   UNL     1     -46.552  28.391  23.686  1.00  0.00    -0.047 A 
ATOM     13  N   UNL     1     -48.786  27.497  26.472  1.00  0.00    -0.256 NA
ATOM     14  H   UNL     1     -48.924  25.730  27.525  1.00  0.00     0.084 H 
ATOM     15  C   UNL     1     -48.534  29.484  25.260  1.00  0.00     0.007 A 
ATOM     16  C   UNL     1     -46.939  29.720  23.486  1.00  0.00    -0.019 A 
ATOM     17  H   UNL     1     -45.774  27.987  23.046  1.00  0.00     0.063 H 
ATOM     18  H   UNL     1     -49.318  29.917  25.878  1.00  0.00     0.069 H 
ATOM     19  H   UNL     1     -46.446  30.279  22.697  1.00  0.00     0.066 H 
BRANCH   6  20
ATOM     20  N   UNL     1     -45.777  25.568  24.254  1.00  0.00    -0.398 N 
ATOM     21  H   UNL     1     -45.117  26.226  23.851  1.00  0.00     0.156 HD
ATOM     22  H   UNL     1     -45.292  24.950  24.902  1.00  0.00     0.156 HD
ENDBRANCH   6  20
ENDBRANCH   4   5
ENDBRANCH   1   4
BRANCH   1  23
ATOM     23  C   UNL     1     -47.506  33.158  25.756  1.00  0.00     0.123 C 
ATOM     24  O   UNL     1     -47.742  34.564  25.541  1.00  0.00    -0.345 OA
ATOM     25  C   UNL     1     -47.083  33.016  27.213  1.00  0.00     0.119 C 
ATOM     26  H   UNL     1     -46.670  32.888  25.095  1.00  0.00     0.067 H 
ATOM     27  C   UNL     1     -46.895  35.282  26.469  1.00  0.00     0.169 C 
ATOM     28  C   UNL     1     -46.243  34.265  27.401  1.00  0.00     0.173 C 
ATOM     29  H   UNL     1     -47.928  33.002  27.905  1.00  0.00     0.066 H 
ATOM     30  H   UNL     1     -46.103  35.745  25.866  1.00  0.00     0.088 H 
ATOM     31  F   UNL     1     -46.195  34.645  28.696  1.00  0.00    -0.239 F 
ATOM     32  H   UNL     1     -45.210  34.074  27.088  1.00  0.00     0.074 H 
BRANCH  25  33
ATOM     33  O   UNL     1     -46.317  31.831  27.419  1.00  0.00    -0.387 OA
ATOM     34  H   UNL     1     -46.637  31.180  26.766  1.00  0.00     0.211 HD
ENDBRANCH  25  33
BRANCH  27  35
ATOM     35  N   UNL     1     -47.664  36.371  27.043  1.00  0.00    -0.302 N 
ATOM     36  C   UNL     1     -48.987  36.255  27.415  1.00  0.00     0.023 A 
ATOM     37  C   UNL     1     -47.214  37.629  27.364  1.00  0.00     0.148 A 
ATOM     38  C   UNL     1     -49.364  37.451  27.975  1.00  0.00     0.049 A 
ATOM     39  H   UNL     1     -49.539  35.336  27.263  1.00  0.00     0.083 H 
ATOM     40  C   UNL     1     -48.258  38.334  27.957  1.00  0.00     0.075 A 
ATOM     41  N   UNL     1     -45.975  38.096  27.144  1.00  0.00    -0.218 NA
ATOM     42  Br  UNL     1     -51.067  37.838  28.659  1.00  0.00    -0.048 Br
ATOM     43  C   UNL     1     -47.980  39.646  28.366  1.00  0.00     0.137 A 
ATOM     44  C   UNL     1     -45.829  39.359  27.576  1.00  0.00     0.120 A 
ATOM     45  N   UNL     1     -46.750  40.150  28.154  1.00  0.00    -0.219 NA
ATOM     46  H   UNL     1     -44.844  39.799  27.444  1.00  0.00     0.106 H 
BRANCH  43  47
ATOM     47  N   UNL     1     -48.900  40.487  28.975  1.00  0.00    -0.383 N 
ATOM     48  H   UNL     1     -49.101  41.289  28.388  1.00  0.00     0.158 HD
ATOM     49  H   UNL     1     -49.686  40.026  29.410  1.00  0.00     0.158 HD
ENDBRANCH  43  47
ENDBRANCH  27  35
ENDBRANCH   1  23
TORSDOF 7
ENDMDL
MODEL 5
REMARK VINA RESULT:      -8.9      1.423      2.071
REMARK SMILES Nc1ccnc2cc(OC[C@H]3O[C@@H](n4cc(Br)c5c(N)ncnc54)[C@@H](F)[C@@H]3O)ccc12
REMARK SMILES IDX 10 1 9 4 8 5 2 6 3 7 31 8 4 9 6 11 30 12 5 13 7 15 29 16
REMARK SMILES IDX 1 20 11 23 12 24 27 25 13 27 25 28 26 31 28 33 14 35 15 36
REMARK SMILES IDX 24 37 16 38 18 40 23 41 17 42 19 43 22 44 21 45 20 47
REMARK H PARENT 10 2 10 3 3 10 4 14 30 17 7 18 29 19 1 21 1 22 11 26 27 29
REMARK H PARENT 13 30 25 32 28 34 15 39 22 46 20 48 20 49
REMARK Flexibility Score: inf
ROOT
ATOM      1  C   UNL     1     -46.537  35.728  26.423  1.00  0.00     0.117 C 
ATOM      2  H   UNL     1     -47.544  35.853  26.009  1.00  0.00     0.073 H 
ATOM      3  H   UNL     1     -45.874  36.334  25.795  1.00  0.00     0.073 H 
ENDROOT
BRANCH   1   4
ATOM      4  O   UNL     1     -46.066  34.389  26.269  1.00  0.00    -0.491 OA
BRANCH   4   5
ATOM      5  C   UNL     1     -46.869  33.440  25.711  1.00  0.00     0.121 A 
ATOM      6  C   UNL     1     -48.832  30.210  23.794  1.00  0.00     0.042 A 
ATOM      7  C   UNL     1     -48.122  29.518  22.817  1.00  0.00    -0.020 A 
ATOM      8  C   UNL     1     -48.221  31.313  24.441  1.00  0.00     0.023 A 
ATOM      9  C   UNL     1     -46.807  29.863  22.590  1.00  0.00     0.030 A 
ATOM     10  H   UNL     1     -48.581  28.706  22.266  1.00  0.00     0.066 H 
ATOM     11  C   UNL     1     -46.872  31.582  24.125  1.00  0.00     0.076 A 
ATOM     12  C   UNL     1     -48.874  32.148  25.378  1.00  0.00    -0.047 A 
ATOM     13  N   UNL     1     -46.174  30.868  23.228  1.00  0.00    -0.256 NA
ATOM     14  H   UNL     1     -46.208  29.327  21.859  1.00  0.00     0.084 H 
ATOM     15  C   UNL     1     -46.230  32.632  24.766  1.00  0.00     0.007 A 
ATOM     16  C   UNL     1     -48.203  33.204  26.003  1.00  0.00    -0.019 A 
ATOM     17  H   UNL     1     -49.913  31.978  25.644  1.00  0.00     0.063 H 
ATOM     18  H   UNL     1     -45.186  32.824  24.528  1.00  0.00     0.069 H 
ATOM     19  H   UNL     1     -48.752  33.797  26.726  1.00  0.00     0.066 H 
BRANCH   6  20
ATOM     20  N   UNL     1     -50.208  29.906  23.933  1.00  0.00    -0.398 N 
ATOM     21  H   UNL     1     -50.398  28.927  23.741  1.00  0.00     0.156 HD
ATOM     22  H   UNL     1     -50.527  30.139  24.871  1.00  0.00     0.156 HD
ENDBRANCH   6  20
ENDBRANCH   4   5
ENDBRANCH   1   4
BRANCH   1  23
ATOM     23  C   UNL     1     -46.435  36.261  27.858  1.00  0.00     0.123 C 
ATOM     24  O   UNL     1     -45.144  36.845  28.126  1.00  0.00    -0.345 OA
ATOM     25  C   UNL     1     -47.467  37.316  28.241  1.00  0.00     0.119 C 
ATOM     26  H   UNL     1     -46.519  35.393  28.527  1.00  0.00     0.067 H 
ATOM     27  C   UNL     1     -45.327  37.803  29.195  1.00  0.00     0.169 C 
ATOM     28  C   UNL     1     -46.823  37.926  29.471  1.00  0.00     0.173 C 
ATOM     29  H   UNL     1     -47.621  38.067  27.463  1.00  0.00     0.066 H 
ATOM     30  H   UNL     1     -44.854  37.364  30.083  1.00  0.00     0.088 H 
ATOM     31  F   UNL     1     -47.249  39.189  29.684  1.00  0.00    -0.239 F 
ATOM     32  H   UNL     1     -47.092  37.347  30.363  1.00  0.00     0.074 H 
BRANCH  25  33
ATOM     33  O   UNL     1     -48.727  36.723  28.546  1.00  0.00    -0.387 OA
ATOM     34  H   UNL     1     -49.284  36.837  27.752  1.00  0.00     0.211 HD
ENDBRANCH  25  33
BRANCH  27  35
ATOM     35  N   UNL     1     -44.570  38.998  28.874  1.00  0.00    -0.302 N 
ATOM     36  C   UNL     1     -43.477  39.424  29.600  1.00  0.00     0.023 A 
ATOM     37  C   UNL     1     -44.759  39.842  27.806  1.00  0.00     0.148 A 
ATOM     38  C   UNL     1     -42.978  40.540  28.975  1.00  0.00     0.049 A 
ATOM     39  H   UNL     1     -43.143  38.894  30.483  1.00  0.00     0.083 H 
ATOM     40  C   UNL     1     -43.769  40.822  27.836  1.00  0.00     0.075 A 
ATOM     41  N   UNL     1     -45.730  39.734  26.887  1.00  0.00    -0.218 NA
ATOM     42  Br  UNL     1     -41.482  41.522  29.542  1.00  0.00    -0.048 Br
ATOM     43  C   UNL     1     -43.794  41.773  26.806  1.00  0.00     0.137 A 
ATOM     44  C   UNL     1     -45.651  40.698  25.954  1.00  0.00     0.120 A 
ATOM     45  N   UNL     1     -44.759  41.700  25.872  1.00  0.00    -0.219 NA
ATOM     46  H   UNL     1     -46.400  40.664  25.168  1.00  0.00     0.106 H 
BRANCH  43  47
ATOM     47  N   UNL     1     -42.885  42.813  26.682  1.00  0.00    -0.383 N 
ATOM     48  H   UNL     1     -42.470  42.822  25.757  1.00  0.00     0.158 HD
ATOM     49  H   UNL     1     -43.187  43.700  27.060  1.00  0.00     0.158 HD
ENDBRANCH  43  47
ENDBRANCH  27  35
ENDBRANCH   1  23
TORSDOF 7
ENDMDL
MODEL 6
REMARK VINA RESULT:      -8.8      1.658      2.545
REMARK SMILES Nc1ccnc2cc(OC[C@H]3O[C@@H](n4cc(Br)c5c(N)ncnc54)[C@@H](F)[C@@H]3O)ccc12
REMARK SMILES IDX 10 1 9 4 8 5 2 6 3 7 31 8 4 9 6 11 30 12 5 13 7 15 29 16
REMARK SMILES IDX 1 20 11 23 12 24 27 25 13 27 25 28 26 31 28 33 14 35 15 36
REMARK SMILES IDX 24 37 16 38 18 40 23 41 17 42 19 43 22 44 21 45 20 47
REMARK H PARENT 10 2 10 3 3 10 4 14 30 17 7 18 29 19 1 21 1 22 11 26 27 29
REMARK H PARENT 13 30 25 32 28 34 15 39 22 46 20 48 20 49
REMARK Flexibility Score: inf
ROOT
ATOM      1  C   UNL     1     -46.625  34.387  25.592  1.00  0.00     0.117 C 
ATOM      2  H   UNL     1     -47.375  34.661  24.843  1.00  0.00     0.073 H 
ATOM      3  H   UNL     1     -45.669  34.774  25.220  1.00  0.00     0.073 H 
ENDROOT
BRANCH   1   4
ATOM      4  O   UNL     1     -46.445  32.973  25.667  1.00  0.00    -0.491 OA
BRANCH   4   5
ATOM      5  C   UNL     1     -47.005  32.161  24.727  1.00  0.00     0.121 A 
ATOM      6  C   UNL     1     -49.270  29.974  21.890  1.00  0.00     0.042 A 
ATOM      7  C   UNL     1     -50.656  30.014  22.009  1.00  0.00    -0.020 A 
ATOM      8  C   UNL     1     -48.475  30.670  22.834  1.00  0.00     0.023 A 
ATOM      9  C   UNL     1     -51.211  30.820  22.980  1.00  0.00     0.030 A 
ATOM     10  H   UNL     1     -51.289  29.447  21.337  1.00  0.00     0.066 H 
ATOM     11  C   UNL     1     -49.150  31.460  23.791  1.00  0.00     0.076 A 
ATOM     12  C   UNL     1     -47.062  30.626  22.871  1.00  0.00    -0.047 A 
ATOM     13  N   UNL     1     -50.488  31.544  23.858  1.00  0.00    -0.256 NA
ATOM     14  H   UNL     1     -52.289  30.905  23.086  1.00  0.00     0.084 H 
ATOM     15  C   UNL     1     -48.402  32.185  24.708  1.00  0.00     0.007 A 
ATOM     16  C   UNL     1     -46.336  31.362  23.813  1.00  0.00    -0.019 A 
ATOM     17  H   UNL     1     -46.506  30.027  22.157  1.00  0.00     0.063 H 
ATOM     18  H   UNL     1     -48.929  32.802  25.432  1.00  0.00     0.069 H 
ATOM     19  H   UNL     1     -45.253  31.303  23.779  1.00  0.00     0.066 H 
BRANCH   6  20
ATOM     20  N   UNL     1     -48.726  29.059  20.957  1.00  0.00    -0.398 N 
ATOM     21  H   UNL     1     -48.987  29.293  20.004  1.00  0.00     0.156 HD
ATOM     22  H   UNL     1     -47.711  29.036  21.038  1.00  0.00     0.156 HD
ENDBRANCH   6  20
ENDBRANCH   4   5
ENDBRANCH   1   4
BRANCH   1  23
ATOM     23  C   UNL     1     -46.897  35.051  26.948  1.00  0.00     0.123 C 
ATOM     24  O   UNL     1     -45.767  35.816  27.412  1.00  0.00    -0.345 OA
ATOM     25  C   UNL     1     -48.095  35.993  26.989  1.00  0.00     0.119 C 
ATOM     26  H   UNL     1     -47.033  34.240  27.678  1.00  0.00     0.067 H 
ATOM     27  C   UNL     1     -46.281  36.831  28.306  1.00  0.00     0.169 C 
ATOM     28  C   UNL     1     -47.806  36.784  28.250  1.00  0.00     0.173 C 
ATOM     29  H   UNL     1     -48.154  36.648  26.118  1.00  0.00     0.066 H 
ATOM     30  H   UNL     1     -45.970  36.535  29.317  1.00  0.00     0.088 H 
ATOM     31  F   UNL     1     -48.401  37.996  28.228  1.00  0.00    -0.239 F 
ATOM     32  H   UNL     1     -48.200  36.254  29.126  1.00  0.00     0.074 H 
BRANCH  25  33
ATOM     33  O   UNL     1     -49.321  35.272  27.090  1.00  0.00    -0.387 OA
ATOM     34  H   UNL     1     -49.552  35.255  28.039  1.00  0.00     0.211 HD
ENDBRANCH  25  33
BRANCH  27  35
ATOM     35  N   UNL     1     -45.605  38.082  28.018  1.00  0.00    -0.302 N 
ATOM     36  C   UNL     1     -45.916  38.884  26.939  1.00  0.00     0.023 A 
ATOM     37  C   UNL     1     -44.628  38.693  28.767  1.00  0.00     0.148 A 
ATOM     38  C   UNL     1     -45.128  40.006  27.020  1.00  0.00     0.049 A 
ATOM     39  H   UNL     1     -46.673  38.597  26.221  1.00  0.00     0.083 H 
ATOM     40  C   UNL     1     -44.308  39.909  28.170  1.00  0.00     0.075 A 
ATOM     41  N   UNL     1     -44.081  38.199  29.889  1.00  0.00    -0.218 NA
ATOM     42  Br  UNL     1     -45.148  41.434  25.803  1.00  0.00    -0.048 Br
ATOM     43  C   UNL     1     -43.329  40.685  28.807  1.00  0.00     0.137 A 
ATOM     44  C   UNL     1     -43.159  39.028  30.407  1.00  0.00     0.120 A 
ATOM     45  N   UNL     1     -42.753  40.217  29.929  1.00  0.00    -0.219 NA
ATOM     46  H   UNL     1     -42.683  38.699  31.326  1.00  0.00     0.106 H 
BRANCH  43  47
ATOM     47  N   UNL     1     -42.893  41.920  28.352  1.00  0.00    -0.383 N 
ATOM     48  H   UNL     1     -41.933  41.868  28.028  1.00  0.00     0.158 HD
ATOM     49  H   UNL     1     -43.549  42.425  27.771  1.00  0.00     0.158 HD
ENDBRANCH  43  47
ENDBRANCH  27  35
ENDBRANCH   1  23
TORSDOF 7
ENDMDL
MODEL 7
REMARK VINA RESULT:      -8.7      2.232      3.225
REMARK SMILES Nc1ccnc2cc(OC[C@H]3O[C@@H](n4cc(Br)c5c(N)ncnc54)[C@@H](F)[C@@H]3O)ccc12
REMARK SMILES IDX 10 1 9 4 8 5 2 6 3 7 31 8 4 9 6 11 30 12 5 13 7 15 29 16
REMARK SMILES IDX 1 20 11 23 12 24 27 25 13 27 25 28 26 31 28 33 14 35 15 36
REMARK SMILES IDX 24 37 16 38 18 40 23 41 17 42 19 43 22 44 21 45 20 47
REMARK H PARENT 10 2 10 3 3 10 4 14 30 17 7 18 29 19 1 21 1 22 11 26 27 29
REMARK H PARENT 13 30 25 32 28 34 15 39 22 46 20 48 20 49
REMARK Flexibility Score: inf
ROOT
ATOM      1  C   UNL     1     -47.237  34.824  27.548  1.00  0.00     0.117 C 
ATOM      2  H   UNL     1     -47.363  33.906  28.131  1.00  0.00     0.073 H 
ATOM      3  H   UNL     1     -48.176  35.381  27.653  1.00  0.00     0.073 H 
ENDROOT
BRANCH   1   4
ATOM      4  O   UNL     1     -47.126  34.552  26.151  1.00  0.00    -0.491 OA
BRANCH   4   5
ATOM      5  C   UNL     1     -47.523  33.346  25.655  1.00  0.00     0.121 A 
ATOM      6  C   UNL     1     -48.156  29.524  23.938  1.00  0.00     0.042 A 
ATOM      7  C   UNL     1     -47.238  29.089  22.987  1.00  0.00    -0.020 A 
ATOM      8  C   UNL     1     -47.995  30.807  24.517  1.00  0.00     0.023 A 
ATOM      9  C   UNL     1     -46.139  29.879  22.722  1.00  0.00     0.030 A 
ATOM     10  H   UNL     1     -47.364  28.137  22.485  1.00  0.00     0.066 H 
ATOM     11  C   UNL     1     -46.837  31.535  24.168  1.00  0.00     0.076 A 
ATOM     12  C   UNL     1     -48.914  31.394  25.419  1.00  0.00    -0.047 A 
ATOM     13  N   UNL     1     -45.921  31.078  23.298  1.00  0.00    -0.256 NA
ATOM     14  H   UNL     1     -45.382  29.561  22.011  1.00  0.00     0.084 H 
ATOM     15  C   UNL     1     -46.628  32.779  24.744  1.00  0.00     0.007 A 
ATOM     16  C   UNL     1     -48.679  32.654  25.979  1.00  0.00    -0.019 A 
ATOM     17  H   UNL     1     -49.819  30.870  25.710  1.00  0.00     0.063 H 
ATOM     18  H   UNL     1     -45.726  33.327  24.480  1.00  0.00     0.069 H 
ATOM     19  H   UNL     1     -49.411  33.043  26.679  1.00  0.00     0.066 H 
BRANCH   6  20
ATOM     20  N   UNL     1     -49.326  28.746  24.112  1.00  0.00    -0.398 N 
ATOM     21  H   UNL     1     -50.150  29.326  24.236  1.00  0.00     0.156 HD
ATOM     22  H   UNL     1     -49.460  28.129  23.313  1.00  0.00     0.156 HD
ENDBRANCH   6  20
ENDBRANCH   4   5
ENDBRANCH   1   4
BRANCH   1  23
ATOM     23  C   UNL     1     -46.110  35.707  28.100  1.00  0.00     0.123 C 
ATOM     24  O   UNL     1     -45.781  36.786  27.203  1.00  0.00    -0.345 OA
ATOM     25  C   UNL     1     -46.383  36.349  29.455  1.00  0.00     0.119 C 
ATOM     26  H   UNL     1     -45.212  35.076  28.157  1.00  0.00     0.067 H 
ATOM     27  C   UNL     1     -45.203  37.842  28.005  1.00  0.00     0.169 C 
ATOM     28  C   UNL     1     -45.344  37.453  29.474  1.00  0.00     0.173 C 
ATOM     29  H   UNL     1     -47.393  36.757  29.540  1.00  0.00     0.066 H 
ATOM     30  H   UNL     1     -44.133  37.862  27.761  1.00  0.00     0.088 H 
ATOM     31  F   UNL     1     -45.706  38.467  30.288  1.00  0.00    -0.239 F 
ATOM     32  H   UNL     1     -44.391  37.066  29.855  1.00  0.00     0.074 H 
BRANCH  25  33
ATOM     33  O   UNL     1     -46.185  35.421  30.519  1.00  0.00    -0.387 OA
ATOM     34  H   UNL     1     -46.623  34.592  30.247  1.00  0.00     0.211 HD
ENDBRANCH  25  33
BRANCH  27  35
ATOM     35  N   UNL     1     -45.750  39.110  27.558  1.00  0.00    -0.302 N 
ATOM     36  C   UNL     1     -45.002  40.078  26.921  1.00  0.00     0.023 A 
ATOM     37  C   UNL     1     -47.059  39.523  27.628  1.00  0.00     0.148 A 
ATOM     38  C   UNL     1     -45.854  41.103  26.588  1.00  0.00     0.049 A 
ATOM     39  H   UNL     1     -43.941  39.951  26.749  1.00  0.00     0.083 H 
ATOM     40  C   UNL     1     -47.160  40.773  27.021  1.00  0.00     0.075 A 
ATOM     41  N   UNL     1     -48.067  38.835  28.184  1.00  0.00    -0.218 NA
ATOM     42  Br  UNL     1     -45.359  42.676  25.694  1.00  0.00    -0.048 Br
ATOM     43  C   UNL     1     -48.436  41.354  26.986  1.00  0.00     0.137 A 
ATOM     44  C   UNL     1     -49.236  39.490  28.090  1.00  0.00     0.120 A 
ATOM     45  N   UNL     1     -49.470  40.695  27.542  1.00  0.00    -0.219 NA
ATOM     46  H   UNL     1     -50.102  38.984  28.508  1.00  0.00     0.106 H 
BRANCH  43  47
ATOM     47  N   UNL     1     -48.718  42.588  26.420  1.00  0.00    -0.383 N 
ATOM     48  H   UNL     1     -49.613  42.937  26.741  1.00  0.00     0.158 HD
ATOM     49  H   UNL     1     -47.947  43.242  26.401  1.00  0.00     0.158 HD
ENDBRANCH  43  47
ENDBRANCH  27  35
ENDBRANCH   1  23
TORSDOF 7
ENDMDL
