MODEL 1
REMARK VINA RESULT:      -9.9      0.000      0.000
REMARK SMILES Nc1ccc2ccc(CO[C@H]3C[C@@H](n4ccc5c(N)ncnc54)[C@H](O)[C@@H]3O)cc2n1
REMARK SMILES IDX 10 1 9 2 8 5 2 6 3 7 30 8 4 9 29 11 5 12 28 14 6 15 7 17
REMARK SMILES IDX 1 20 11 23 12 24 26 25 13 27 24 30 27 34 14 36 15 37 23 38
REMARK SMILES IDX 16 39 17 41 22 42 18 44 21 45 20 46 19 48 25 51
REMARK H PARENT 9 3 9 4 3 10 4 13 28 16 6 18 7 19 1 21 1 22 11 26 12 28 12 29
REMARK H PARENT 26 31 13 32 24 33 27 35 15 40 16 43 21 47 19 49 19 50 25 52
REMARK Flexibility Score: inf
ROOT
ATOM      1  O   UNL     1     -48.820  29.652  25.670  1.00  0.00    -0.371 OA
ENDROOT
BRANCH   1   2
ATOM      2  C   UNL     1     -49.352  30.759  24.945  1.00  0.00     0.072 C 
ATOM      3  H   UNL     1     -50.405  30.903  25.213  1.00  0.00     0.062 H 
ATOM      4  H   UNL     1     -49.293  30.574  23.867  1.00  0.00     0.062 H 
BRANCH   2   5
ATOM      5  C   UNL     1     -48.563  31.988  25.312  1.00  0.00    -0.020 A 
ATOM      6  C   UNL     1     -48.403  36.182  27.557  1.00  0.00     0.124 A 
ATOM      7  C   UNL     1     -47.092  36.410  27.173  1.00  0.00    -0.019 A 
ATOM      8  N   UNL     1     -49.083  35.074  27.218  1.00  0.00    -0.231 NA
ATOM      9  C   UNL     1     -46.451  35.457  26.391  1.00  0.00    -0.049 A 
ATOM     10  H   UNL     1     -46.572  37.307  27.487  1.00  0.00     0.066 H 
ATOM     11  C   UNL     1     -48.464  34.146  26.464  1.00  0.00     0.073 A 
ATOM     12  C   UNL     1     -47.136  34.296  26.019  1.00  0.00     0.000 A 
ATOM     13  H   UNL     1     -45.422  35.621  26.084  1.00  0.00     0.063 H 
ATOM     14  C   UNL     1     -49.149  32.993  26.101  1.00  0.00    -0.030 A 
ATOM     15  C   UNL     1     -46.535  33.300  25.230  1.00  0.00    -0.052 A 
ATOM     16  H   UNL     1     -50.172  32.869  26.454  1.00  0.00     0.065 H 
ATOM     17  C   UNL     1     -47.246  32.154  24.879  1.00  0.00    -0.056 A 
ATOM     18  H   UNL     1     -45.509  33.414  24.889  1.00  0.00     0.063 H 
ATOM     19  H   UNL     1     -46.762  31.394  24.270  1.00  0.00     0.063 H 
BRANCH   6  20
ATOM     20  N   UNL     1     -49.075  37.103  28.355  1.00  0.00    -0.384 N 
ATOM     21  H   UNL     1     -50.080  37.006  28.271  1.00  0.00     0.158 HD
ATOM     22  H   UNL     1     -48.759  36.945  29.309  1.00  0.00     0.158 HD
ENDBRANCH   6  20
ENDBRANCH   2   5
ENDBRANCH   1   2
BRANCH   1  23
ATOM     23  C   UNL     1     -49.244  28.395  25.147  1.00  0.00     0.089 C 
ATOM     24  C   UNL     1     -49.297  28.462  23.616  1.00  0.00    -0.000 C 
ATOM     25  C   UNL     1     -48.165  27.344  25.410  1.00  0.00     0.108 C 
ATOM     26  H   UNL     1     -50.209  28.093  25.572  1.00  0.00     0.063 H 
ATOM     27  C   UNL     1     -47.857  28.162  23.145  1.00  0.00     0.066 C 
ATOM     28  H   UNL     1     -49.702  29.401  23.236  1.00  0.00     0.032 H 
ATOM     29  H   UNL     1     -49.952  27.658  23.252  1.00  0.00     0.032 H 
ATOM     30  C   UNL     1     -47.080  27.700  24.393  1.00  0.00     0.103 C 
ATOM     31  H   UNL     1     -47.779  27.365  26.433  1.00  0.00     0.066 H 
ATOM     32  H   UNL     1     -47.917  27.352  22.404  1.00  0.00     0.056 H 
ATOM     33  H   UNL     1     -46.438  28.496  24.791  1.00  0.00     0.065 H 
BRANCH  25  34
ATOM     34  O   UNL     1     -48.668  26.032  25.138  1.00  0.00    -0.388 OA
ATOM     35  H   UNL     1     -47.866  25.469  25.089  1.00  0.00     0.211 HD
ENDBRANCH  25  34
BRANCH  27  36
ATOM     36  N   UNL     1     -47.142  29.241  22.476  1.00  0.00    -0.326 N 
ATOM     37  C   UNL     1     -45.844  29.640  22.667  1.00  0.00     0.007 A 
ATOM     38  C   UNL     1     -47.696  29.975  21.449  1.00  0.00     0.145 A 
ATOM     39  C   UNL     1     -45.589  30.691  21.808  1.00  0.00    -0.031 A 
ATOM     40  H   UNL     1     -45.191  29.152  23.377  1.00  0.00     0.082 H 
ATOM     41  C   UNL     1     -46.758  30.909  21.030  1.00  0.00     0.061 A 
ATOM     42  N   UNL     1     -48.928  29.793  20.938  1.00  0.00    -0.218 NA
ATOM     43  H   UNL     1     -44.649  31.219  21.723  1.00  0.00     0.065 H 
ATOM     44  C   UNL     1     -47.147  31.770  19.996  1.00  0.00     0.136 A 
ATOM     45  C   UNL     1     -49.186  30.680  19.960  1.00  0.00     0.120 A 
ATOM     46  N   UNL     1     -48.383  31.647  19.475  1.00  0.00    -0.219 NA
ATOM     47  H   UNL     1     -50.168  30.610  19.501  1.00  0.00     0.106 H 
BRANCH  44  48
ATOM     48  N   UNL     1     -46.331  32.764  19.475  1.00  0.00    -0.383 N 
ATOM     49  H   UNL     1     -46.397  32.790  18.464  1.00  0.00     0.158 HD
ATOM     50  H   UNL     1     -46.378  33.651  19.955  1.00  0.00     0.158 HD
ENDBRANCH  44  48
ENDBRANCH  27  36
BRANCH  30  51
ATOM     51  O   UNL     1     -46.264  26.554  24.124  1.00  0.00    -0.388 OA
ATOM     52  H   UNL     1     -45.690  26.800  23.368  1.00  0.00     0.211 HD
ENDBRANCH  30  51
ENDBRANCH   1  23
TORSDOF 8
ENDMDL
MODEL 2
REMARK VINA RESULT:      -9.7      5.100     10.207
REMARK SMILES Nc1ccc2ccc(CO[C@H]3C[C@@H](n4ccc5c(N)ncnc54)[C@H](O)[C@@H]3O)cc2n1
REMARK SMILES IDX 10 1 9 2 8 5 2 6 3 7 30 8 4 9 29 11 5 12 28 14 6 15 7 17
REMARK SMILES IDX 1 20 11 23 12 24 26 25 13 27 24 30 27 34 14 36 15 37 23 38
REMARK SMILES IDX 16 39 17 41 22 42 18 44 21 45 20 46 19 48 25 51
REMARK H PARENT 9 3 9 4 3 10 4 13 28 16 6 18 7 19 1 21 1 22 11 26 12 28 12 29
REMARK H PARENT 26 31 13 32 24 33 27 35 15 40 16 43 21 47 19 49 19 50 25 52
REMARK Flexibility Score: inf
ROOT
ATOM      1  O   UNL     1     -45.630  36.234  27.132  1.00  0.00    -0.371 OA
ENDROOT
BRANCH   1   2
ATOM      2  C   UNL     1     -46.898  36.342  26.488  1.00  0.00     0.072 C 
ATOM      3  H   UNL     1     -46.799  36.943  25.577  1.00  0.00     0.062 H 
ATOM      4  H   UNL     1     -47.621  36.834  27.148  1.00  0.00     0.062 H 
BRANCH   2   5
ATOM      5  C   UNL     1     -47.369  34.957  26.133  1.00  0.00    -0.020 A 
ATOM      6  C   UNL     1     -46.568  30.871  23.826  1.00  0.00     0.124 A 
ATOM      7  C   UNL     1     -47.758  30.314  24.266  1.00  0.00    -0.019 A 
ATOM      8  N   UNL     1     -46.171  32.110  24.160  1.00  0.00    -0.231 NA
ATOM      9  C   UNL     1     -48.587  31.075  25.082  1.00  0.00    -0.049 A 
ATOM     10  H   UNL     1     -48.030  29.303  23.991  1.00  0.00     0.066 H 
ATOM     11  C   UNL     1     -46.969  32.848  24.954  1.00  0.00     0.073 A 
ATOM     12  C   UNL     1     -48.202  32.370  25.442  1.00  0.00     0.000 A 
ATOM     13  H   UNL     1     -49.522  30.651  25.437  1.00  0.00     0.063 H 
ATOM     14  C   UNL     1     -46.579  34.132  25.312  1.00  0.00    -0.030 A 
ATOM     15  C   UNL     1     -49.002  33.180  26.265  1.00  0.00    -0.052 A 
ATOM     16  H   UNL     1     -45.622  34.500  24.945  1.00  0.00     0.065 H 
ATOM     17  C   UNL     1     -48.587  34.466  26.607  1.00  0.00    -0.056 A 
ATOM     18  H   UNL     1     -49.951  32.810  26.644  1.00  0.00     0.063 H 
ATOM     19  H   UNL     1     -49.220  35.076  27.248  1.00  0.00     0.063 H 
BRANCH   6  20
ATOM     20  N   UNL     1     -45.701  30.137  23.021  1.00  0.00    -0.384 N 
ATOM     21  H   UNL     1     -46.035  30.080  22.067  1.00  0.00     0.158 HD
ATOM     22  H   UNL     1     -44.795  30.597  23.077  1.00  0.00     0.158 HD
ENDBRANCH   6  20
ENDBRANCH   2   5
ENDBRANCH   1   2
BRANCH   1  23
ATOM     23  C   UNL     1     -45.726  36.302  28.553  1.00  0.00     0.089 C 
ATOM     24  C   UNL     1     -44.644  37.240  29.101  1.00  0.00    -0.000 C 
ATOM     25  C   UNL     1     -47.025  37.011  28.942  1.00  0.00     0.108 C 
ATOM     26  H   UNL     1     -45.664  35.305  29.005  1.00  0.00     0.063 H 
ATOM     27  C   UNL     1     -45.244  38.659  29.001  1.00  0.00     0.066 C 
ATOM     28  H   UNL     1     -43.680  37.128  28.602  1.00  0.00     0.032 H 
ATOM     29  H   UNL     1     -44.485  37.008  30.163  1.00  0.00     0.032 H 
ATOM     30  C   UNL     1     -46.727  38.477  28.626  1.00  0.00     0.103 C 
ATOM     31  H   UNL     1     -47.898  36.650  28.389  1.00  0.00     0.066 H 
ATOM     32  H   UNL     1     -45.149  39.126  29.991  1.00  0.00     0.056 H 
ATOM     33  H   UNL     1     -46.907  38.676  27.561  1.00  0.00     0.065 H 
BRANCH  25  34
ATOM     34  O   UNL     1     -47.277  36.861  30.342  1.00  0.00    -0.388 OA
ATOM     35  H   UNL     1     -47.197  35.896  30.502  1.00  0.00     0.211 HD
ENDBRANCH  25  34
BRANCH  27  36
ATOM     36  N   UNL     1     -44.601  39.585  28.078  1.00  0.00    -0.326 N 
ATOM     37  C   UNL     1     -44.995  39.925  26.809  1.00  0.00     0.007 A 
ATOM     38  C   UNL     1     -43.500  40.338  28.427  1.00  0.00     0.145 A 
ATOM     39  C   UNL     1     -44.095  40.847  26.314  1.00  0.00    -0.031 A 
ATOM     40  H   UNL     1     -45.883  39.509  26.353  1.00  0.00     0.082 H 
ATOM     41  C   UNL     1     -43.143  41.115  27.334  1.00  0.00     0.061 A 
ATOM     42  N   UNL     1     -42.898  40.325  29.631  1.00  0.00    -0.218 NA
ATOM     43  H   UNL     1     -44.139  41.306  25.336  1.00  0.00     0.065 H 
ATOM     44  C   UNL     1     -42.023  41.943  27.490  1.00  0.00     0.136 A 
ATOM     45  C   UNL     1     -41.837  41.152  29.655  1.00  0.00     0.120 A 
ATOM     46  N   UNL     1     -41.369  41.939  28.667  1.00  0.00    -0.219 NA
ATOM     47  H   UNL     1     -41.285  41.191  30.590  1.00  0.00     0.106 H 
BRANCH  44  48
ATOM     48  N   UNL     1     -41.533  42.769  26.489  1.00  0.00    -0.383 N 
ATOM     49  H   UNL     1     -40.686  42.384  26.087  1.00  0.00     0.158 HD
ATOM     50  H   UNL     1     -42.226  43.114  25.841  1.00  0.00     0.158 HD
ENDBRANCH  44  48
ENDBRANCH  27  36
BRANCH  30  51
ATOM     51  O   UNL     1     -47.585  39.328  29.396  1.00  0.00    -0.388 OA
ATOM     52  H   UNL     1     -48.421  39.402  28.888  1.00  0.00     0.211 HD
ENDBRANCH  30  51
ENDBRANCH   1  23
TORSDOF 8
ENDMDL
MODEL 3
REMARK VINA RESULT:      -9.5      2.610      4.810
REMARK SMILES Nc1ccc2ccc(CO[C@H]3C[C@@H](n4ccc5c(N)ncnc54)[C@H](O)[C@@H]3O)cc2n1
REMARK SMILES IDX 10 1 9 2 8 5 2 6 3 7 30 8 4 9 29 11 5 12 28 14 6 15 7 17
REMARK SMILES IDX 1 20 11 23 12 24 26 25 13 27 24 30 27 34 14 36 15 37 23 38
REMARK SMILES IDX 16 39 17 41 22 42 18 44 21 45 20 46 19 48 25 51
REMARK H PARENT 9 3 9 4 3 10 4 13 28 16 6 18 7 19 1 21 1 22 11 26 12 28 12 29
REMARK H PARENT 26 31 13 32 24 33 27 35 15 40 16 43 21 47 19 49 19 50 25 52
REMARK Flexibility Score: inf
ROOT
ATOM      1  O   UNL     1     -48.356  31.712  23.741  1.00  0.00    -0.371 OA
ENDROOT
BRANCH   1   2
ATOM      2  C   UNL     1     -48.199  31.656  25.158  1.00  0.00     0.072 C 
ATOM      3  H   UNL     1     -47.370  30.985  25.410  1.00  0.00     0.062 H 
ATOM      4  H   UNL     1     -49.110  31.271  25.628  1.00  0.00     0.062 H 
BRANCH   2   5
ATOM      5  C   UNL     1     -47.897  33.044  25.656  1.00  0.00    -0.020 A 
ATOM      6  C   UNL     1     -49.375  36.928  27.976  1.00  0.00     0.124 A 
ATOM      7  C   UNL     1     -48.166  37.579  27.789  1.00  0.00    -0.019 A 
ATOM      8  N   UNL     1     -49.616  35.687  27.523  1.00  0.00    -0.231 NA
ATOM      9  C   UNL     1     -47.159  36.924  27.091  1.00  0.00    -0.049 A 
ATOM     10  H   UNL     1     -48.005  38.572  28.191  1.00  0.00     0.066 H 
ATOM     11  C   UNL     1     -48.642  35.048  26.849  1.00  0.00     0.073 A 
ATOM     12  C   UNL     1     -47.384  35.633  26.602  1.00  0.00     0.000 A 
ATOM     13  H   UNL     1     -46.205  37.421  26.938  1.00  0.00     0.063 H 
ATOM     14  C   UNL     1     -48.870  33.764  26.371  1.00  0.00    -0.030 A 
ATOM     15  C   UNL     1     -46.399  34.927  25.891  1.00  0.00    -0.052 A 
ATOM     16  H   UNL     1     -49.837  33.305  26.570  1.00  0.00     0.065 H 
ATOM     17  C   UNL     1     -46.656  33.641  25.420  1.00  0.00    -0.056 A 
ATOM     18  H   UNL     1     -45.428  35.378  25.704  1.00  0.00     0.063 H 
ATOM     19  H   UNL     1     -45.880  33.110  24.874  1.00  0.00     0.063 H 
BRANCH   6  20
ATOM     20  N   UNL     1     -50.404  37.542  28.685  1.00  0.00    -0.384 N 
ATOM     21  H   UNL     1     -50.515  37.136  29.607  1.00  0.00     0.158 HD
ATOM     22  H   UNL     1     -50.173  38.531  28.734  1.00  0.00     0.158 HD
ENDBRANCH   6  20
ENDBRANCH   2   5
ENDBRANCH   1   2
BRANCH   1  23
ATOM     23  C   UNL     1     -47.290  31.074  23.041  1.00  0.00     0.089 C 
ATOM     24  C   UNL     1     -47.095  29.652  23.580  1.00  0.00    -0.000 C 
ATOM     25  C   UNL     1     -47.705  30.838  21.588  1.00  0.00     0.108 C 
ATOM     26  H   UNL     1     -46.366  31.661  23.104  1.00  0.00     0.063 H 
ATOM     27  C   UNL     1     -48.110  28.781  22.811  1.00  0.00     0.066 C 
ATOM     28  H   UNL     1     -47.183  29.584  24.666  1.00  0.00     0.032 H 
ATOM     29  H   UNL     1     -46.083  29.314  23.318  1.00  0.00     0.032 H 
ATOM     30  C   UNL     1     -48.688  29.671  21.694  1.00  0.00     0.103 C 
ATOM     31  H   UNL     1     -48.168  31.712  21.122  1.00  0.00     0.066 H 
ATOM     32  H   UNL     1     -47.557  27.933  22.383  1.00  0.00     0.056 H 
ATOM     33  H   UNL     1     -49.689  30.044  21.946  1.00  0.00     0.065 H 
BRANCH  25  34
ATOM     34  O   UNL     1     -46.574  30.446  20.803  1.00  0.00    -0.388 OA
ATOM     35  H   UNL     1     -46.875  29.642  20.329  1.00  0.00     0.211 HD
ENDBRANCH  25  34
BRANCH  27  36
ATOM     36  N   UNL     1     -49.189  28.181  23.586  1.00  0.00    -0.326 N 
ATOM     37  C   UNL     1     -50.540  28.351  23.425  1.00  0.00     0.007 A 
ATOM     38  C   UNL     1     -48.964  27.249  24.577  1.00  0.00     0.145 A 
ATOM     39  C   UNL     1     -51.183  27.580  24.373  1.00  0.00    -0.031 A 
ATOM     40  H   UNL     1     -50.952  28.986  22.653  1.00  0.00     0.082 H 
ATOM     41  C   UNL     1     -50.191  26.877  25.107  1.00  0.00     0.061 A 
ATOM     42  N   UNL     1     -47.757  26.778  24.942  1.00  0.00    -0.218 NA
ATOM     43  H   UNL     1     -52.255  27.503  24.498  1.00  0.00     0.065 H 
ATOM     44  C   UNL     1     -50.167  25.943  26.151  1.00  0.00     0.136 A 
ATOM     45  C   UNL     1     -47.863  25.896  25.953  1.00  0.00     0.120 A 
ATOM     46  N   UNL     1     -48.980  25.467  26.573  1.00  0.00    -0.219 NA
ATOM     47  H   UNL     1     -46.930  25.476  26.318  1.00  0.00     0.106 H 
BRANCH  44  48
ATOM     48  N   UNL     1     -51.305  25.479  26.794  1.00  0.00    -0.383 N 
ATOM     49  H   UNL     1     -51.159  24.542  27.153  1.00  0.00     0.158 HD
ATOM     50  H   UNL     1     -51.743  26.140  27.419  1.00  0.00     0.158 HD
ENDBRANCH  44  48
ENDBRANCH  27  36
BRANCH  30  51
ATOM     51  O   UNL     1     -48.764  28.981  20.441  1.00  0.00    -0.388 OA
ATOM     52  H   UNL     1     -49.721  28.868  20.252  1.00  0.00     0.211 HD
ENDBRANCH  30  51
ENDBRANCH   1  23
TORSDOF 8
ENDMDL
MODEL 4
REMARK VINA RESULT:      -9.2      4.673      9.685
REMARK SMILES Nc1ccc2ccc(CO[C@H]3C[C@@H](n4ccc5c(N)ncnc54)[C@H](O)[C@@H]3O)cc2n1
REMARK SMILES IDX 10 1 9 2 8 5 2 6 3 7 30 8 4 9 29 11 5 12 28 14 6 15 7 17
REMARK SMILES IDX 1 20 11 23 12 24 26 25 13 27 24 30 27 34 14 36 15 37 23 38
REMARK SMILES IDX 16 39 17 41 22 42 18 44 21 45 20 46 19 48 25 51
REMARK H PARENT 9 3 9 4 3 10 4 13 28 16 6 18 7 19 1 21 1 22 11 26 12 28 12 29
REMARK H PARENT 26 31 13 32 24 33 27 35 15 40 16 43 21 47 19 49 19 50 25 52
REMARK Flexibility Score: inf
ROOT
ATOM      1  O   UNL     1     -47.077  35.975  27.250  1.00  0.00    -0.371 OA
ENDROOT
BRANCH   1   2
ATOM      2  C   UNL     1     -48.181  35.071  27.224  1.00  0.00     0.072 C 
ATOM      3  H   UNL     1     -49.085  35.602  26.905  1.00  0.00     0.062 H 
ATOM      4  H   UNL     1     -48.358  34.656  28.222  1.00  0.00     0.062 H 
BRANCH   2   5
ATOM      5  C   UNL     1     -47.868  33.971  26.245  1.00  0.00    -0.020 A 
ATOM      6  C   UNL     1     -49.309  30.059  23.949  1.00  0.00     0.124 A 
ATOM      7  C   UNL     1     -48.101  29.926  23.283  1.00  0.00    -0.019 A 
ATOM      8  N   UNL     1     -49.562  31.053  24.815  1.00  0.00    -0.231 NA
ATOM      9  C   UNL     1     -47.099  30.856  23.531  1.00  0.00    -0.049 A 
ATOM     10  H   UNL     1     -47.945  29.121  22.575  1.00  0.00     0.066 H 
ATOM     11  C   UNL     1     -48.596  31.959  25.054  1.00  0.00     0.073 A 
ATOM     12  C   UNL     1     -47.333  31.900  24.432  1.00  0.00     0.000 A 
ATOM     13  H   UNL     1     -46.147  30.767  23.015  1.00  0.00     0.063 H 
ATOM     14  C   UNL     1     -48.836  32.995  25.947  1.00  0.00    -0.030 A 
ATOM     15  C   UNL     1     -46.354  32.867  24.717  1.00  0.00    -0.052 A 
ATOM     16  H   UNL     1     -49.815  33.050  26.421  1.00  0.00     0.065 H 
ATOM     17  C   UNL     1     -46.622  33.895  25.620  1.00  0.00    -0.056 A 
ATOM     18  H   UNL     1     -45.381  32.823  24.235  1.00  0.00     0.063 H 
ATOM     19  H   UNL     1     -45.852  34.636  25.824  1.00  0.00     0.063 H 
BRANCH   6  20
ATOM     20  N   UNL     1     -50.345  29.158  23.716  1.00  0.00    -0.384 N 
ATOM     21  H   UNL     1     -51.208  29.463  24.150  1.00  0.00     0.158 HD
ATOM     22  H   UNL     1     -50.438  29.078  22.706  1.00  0.00     0.158 HD
ENDBRANCH   6  20
ENDBRANCH   2   5
ENDBRANCH   1   2
BRANCH   1  23
ATOM     23  C   UNL     1     -46.164  35.699  28.310  1.00  0.00     0.089 C 
ATOM     24  C   UNL     1     -44.880  36.513  28.112  1.00  0.00    -0.000 C 
ATOM     25  C   UNL     1     -46.725  36.252  29.621  1.00  0.00     0.108 C 
ATOM     26  H   UNL     1     -45.955  34.625  28.385  1.00  0.00     0.063 H 
ATOM     27  C   UNL     1     -45.172  37.894  28.736  1.00  0.00     0.066 C 
ATOM     28  H   UNL     1     -44.548  36.555  27.073  1.00  0.00     0.032 H 
ATOM     29  H   UNL     1     -44.073  36.039  28.688  1.00  0.00     0.032 H 
ATOM     30  C   UNL     1     -46.516  37.760  29.479  1.00  0.00     0.103 C 
ATOM     31  H   UNL     1     -47.778  36.006  29.781  1.00  0.00     0.066 H 
ATOM     32  H   UNL     1     -44.359  38.114  29.442  1.00  0.00     0.056 H 
ATOM     33  H   UNL     1     -47.343  38.202  28.909  1.00  0.00     0.065 H 
BRANCH  25  34
ATOM     34  O   UNL     1     -45.968  35.764  30.734  1.00  0.00    -0.388 OA
ATOM     35  H   UNL     1     -46.607  35.757  31.478  1.00  0.00     0.211 HD
ENDBRANCH  25  34
BRANCH  27  36
ATOM     36  N   UNL     1     -45.210  39.035  27.829  1.00  0.00    -0.326 N 
ATOM     37  C   UNL     1     -46.130  39.306  26.850  1.00  0.00     0.007 A 
ATOM     38  C   UNL     1     -44.316  40.081  27.914  1.00  0.00     0.145 A 
ATOM     39  C   UNL     1     -45.778  40.499  26.251  1.00  0.00    -0.031 A 
ATOM     40  H   UNL     1     -46.970  38.654  26.654  1.00  0.00     0.082 H 
ATOM     41  C   UNL     1     -44.629  40.998  26.920  1.00  0.00     0.061 A 
ATOM     42  N   UNL     1     -43.328  40.190  28.821  1.00  0.00    -0.218 NA
ATOM     43  H   UNL     1     -46.314  40.978  25.442  1.00  0.00     0.065 H 
ATOM     44  C   UNL     1     -43.812  42.133  26.832  1.00  0.00     0.136 A 
ATOM     45  C   UNL     1     -42.613  41.313  28.632  1.00  0.00     0.120 A 
ATOM     46  N   UNL     1     -42.790  42.269  27.699  1.00  0.00    -0.219 NA
ATOM     47  H   UNL     1     -41.784  41.472  29.317  1.00  0.00     0.106 H 
BRANCH  44  48
ATOM     48  N   UNL     1     -43.986  43.135  25.888  1.00  0.00    -0.383 N 
ATOM     49  H   UNL     1     -43.301  43.051  25.145  1.00  0.00     0.158 HD
ATOM     50  H   UNL     1     -44.942  43.296  25.606  1.00  0.00     0.158 HD
ENDBRANCH  44  48
ENDBRANCH  27  36
BRANCH  30  51
ATOM     51  O   UNL     1     -46.479  38.374  30.772  1.00  0.00    -0.388 OA
ATOM     52  H   UNL     1     -45.589  38.181  31.139  1.00  0.00     0.211 HD
ENDBRANCH  30  51
ENDBRANCH   1  23
TORSDOF 8
ENDMDL
MODEL 5
REMARK VINA RESULT:      -8.8      4.595      7.184
REMARK SMILES Nc1ccc2ccc(CO[C@H]3C[C@@H](n4ccc5c(N)ncnc54)[C@H](O)[C@@H]3O)cc2n1
REMARK SMILES IDX 10 1 9 2 8 5 2 6 3 7 30 8 4 9 29 11 5 12 28 14 6 15 7 17
REMARK SMILES IDX 1 20 11 23 12 24 26 25 13 27 24 30 27 34 14 36 15 37 23 38
REMARK SMILES IDX 16 39 17 41 22 42 18 44 21 45 20 46 19 48 25 51
REMARK H PARENT 9 3 9 4 3 10 4 13 28 16 6 18 7 19 1 21 1 22 11 26 12 28 12 29
REMARK H PARENT 26 31 13 32 24 33 27 35 15 40 16 43 21 47 19 49 19 50 25 52
REMARK Flexibility Score: inf
ROOT
ATOM      1  O   UNL     1     -46.446  36.723  26.677  1.00  0.00    -0.371 OA
ENDROOT
BRANCH   1   2
ATOM      2  C   UNL     1     -46.733  38.108  26.490  1.00  0.00     0.072 C 
ATOM      3  H   UNL     1     -47.694  38.352  26.957  1.00  0.00     0.062 H 
ATOM      4  H   UNL     1     -46.798  38.344  25.422  1.00  0.00     0.062 H 
BRANCH   2   5
ATOM      5  C   UNL     1     -45.636  38.911  27.138  1.00  0.00    -0.020 A 
ATOM      6  C   UNL     1     -42.460  42.440  26.807  1.00  0.00     0.124 A 
ATOM      7  C   UNL     1     -41.997  42.232  28.096  1.00  0.00    -0.019 A 
ATOM      8  N   UNL     1     -43.443  41.711  26.255  1.00  0.00    -0.231 NA
ATOM      9  C   UNL     1     -42.566  41.213  28.850  1.00  0.00    -0.049 A 
ATOM     10  H   UNL     1     -41.217  42.858  28.511  1.00  0.00     0.066 H 
ATOM     11  C   UNL     1     -43.999  40.725  26.984  1.00  0.00     0.073 A 
ATOM     12  C   UNL     1     -43.587  40.433  28.299  1.00  0.00     0.000 A 
ATOM     13  H   UNL     1     -42.215  41.038  29.864  1.00  0.00     0.063 H 
ATOM     14  C   UNL     1     -45.017  39.957  26.432  1.00  0.00    -0.030 A 
ATOM     15  C   UNL     1     -44.197  39.392  29.020  1.00  0.00    -0.052 A 
ATOM     16  H   UNL     1     -45.345  40.189  25.420  1.00  0.00     0.065 H 
ATOM     17  C   UNL     1     -45.214  38.635  28.440  1.00  0.00    -0.056 A 
ATOM     18  H   UNL     1     -43.881  39.168  30.036  1.00  0.00     0.063 H 
ATOM     19  H   UNL     1     -45.675  37.836  29.016  1.00  0.00     0.063 H 
BRANCH   6  20
ATOM     20  N   UNL     1     -41.929  43.462  26.024  1.00  0.00    -0.384 N 
ATOM     21  H   UNL     1     -40.940  43.590  26.199  1.00  0.00     0.158 HD
ATOM     22  H   UNL     1     -42.112  43.209  25.055  1.00  0.00     0.158 HD
ENDBRANCH   6  20
ENDBRANCH   2   5
ENDBRANCH   1   2
BRANCH   1  23
ATOM     23  C   UNL     1     -47.115  36.169  27.808  1.00  0.00     0.089 C 
ATOM     24  C   UNL     1     -48.065  35.056  27.354  1.00  0.00    -0.000 C 
ATOM     25  C   UNL     1     -46.104  35.425  28.682  1.00  0.00     0.108 C 
ATOM     26  H   UNL     1     -47.642  36.944  28.377  1.00  0.00     0.063 H 
ATOM     27  C   UNL     1     -47.192  33.787  27.259  1.00  0.00     0.066 C 
ATOM     28  H   UNL     1     -48.605  35.294  26.435  1.00  0.00     0.032 H 
ATOM     29  H   UNL     1     -48.819  34.897  28.137  1.00  0.00     0.032 H 
ATOM     30  C   UNL     1     -45.831  34.149  27.885  1.00  0.00     0.103 C 
ATOM     31  H   UNL     1     -45.185  35.991  28.861  1.00  0.00     0.066 H 
ATOM     32  H   UNL     1     -47.691  33.001  27.844  1.00  0.00     0.056 H 
ATOM     33  H   UNL     1     -45.067  34.339  27.120  1.00  0.00     0.065 H 
BRANCH  25  34
ATOM     34  O   UNL     1     -46.688  35.089  29.945  1.00  0.00    -0.388 OA
ATOM     35  H   UNL     1     -45.957  34.669  30.446  1.00  0.00     0.211 HD
ENDBRANCH  25  34
BRANCH  27  36
ATOM     36  N   UNL     1     -47.000  33.213  25.934  1.00  0.00    -0.326 N 
ATOM     37  C   UNL     1     -46.197  33.673  24.921  1.00  0.00     0.007 A 
ATOM     38  C   UNL     1     -47.573  32.019  25.550  1.00  0.00     0.145 A 
ATOM     39  C   UNL     1     -46.318  32.807  23.853  1.00  0.00    -0.031 A 
ATOM     40  H   UNL     1     -45.592  34.562  25.028  1.00  0.00     0.082 H 
ATOM     41  C   UNL     1     -47.188  31.754  24.243  1.00  0.00     0.061 A 
ATOM     42  N   UNL     1     -48.354  31.245  26.327  1.00  0.00    -0.218 NA
ATOM     43  H   UNL     1     -45.805  32.903  22.905  1.00  0.00     0.065 H 
ATOM     44  C   UNL     1     -47.691  30.581  23.665  1.00  0.00     0.136 A 
ATOM     45  C   UNL     1     -48.778  30.156  25.662  1.00  0.00     0.120 A 
ATOM     46  N   UNL     1     -48.503  29.791  24.394  1.00  0.00    -0.219 NA
ATOM     47  H   UNL     1     -49.426  29.482  26.215  1.00  0.00     0.106 H 
BRANCH  44  48
ATOM     48  N   UNL     1     -47.410  30.183  22.366  1.00  0.00    -0.383 N 
ATOM     49  H   UNL     1     -48.000  30.673  21.704  1.00  0.00     0.158 HD
ATOM     50  H   UNL     1     -46.428  30.123  22.140  1.00  0.00     0.158 HD
ENDBRANCH  44  48
ENDBRANCH  27  36
BRANCH  30  51
ATOM     51  O   UNL     1     -45.350  33.120  28.758  1.00  0.00    -0.388 OA
ATOM     52  H   UNL     1     -44.614  33.520  29.269  1.00  0.00     0.211 HD
ENDBRANCH  30  51
ENDBRANCH   1  23
TORSDOF 8
ENDMDL
MODEL 6
REMARK VINA RESULT:      -8.8      2.490      4.433
REMARK SMILES Nc1ccc2ccc(CO[C@H]3C[C@@H](n4ccc5c(N)ncnc54)[C@H](O)[C@@H]3O)cc2n1
REMARK SMILES IDX 10 1 9 2 8 5 2 6 3 7 30 8 4 9 29 11 5 12 28 14 6 15 7 17
REMARK SMILES IDX 1 20 11 23 12 24 26 25 13 27 24 30 27 34 14 36 15 37 23 38
REMARK SMILES IDX 16 39 17 41 22 42 18 44 21 45 20 46 19 48 25 51
REMARK H PARENT 9 3 9 4 3 10 4 13 28 16 6 18 7 19 1 21 1 22 11 26 12 28 12 29
REMARK H PARENT 26 31 13 32 24 33 27 35 15 40 16 43 21 47 19 49 19 50 25 52
REMARK Flexibility Score: inf
ROOT
ATOM      1  O   UNL     1     -47.773  31.178  25.044  1.00  0.00    -0.371 OA
ENDROOT
BRANCH   1   2
ATOM      2  C   UNL     1     -48.746  32.052  25.614  1.00  0.00     0.072 C 
ATOM      3  H   UNL     1     -49.207  31.574  26.486  1.00  0.00     0.062 H 
ATOM      4  H   UNL     1     -49.534  32.274  24.886  1.00  0.00     0.062 H 
BRANCH   2   5
ATOM      5  C   UNL     1     -48.052  33.319  26.038  1.00  0.00    -0.020 A 
ATOM      6  C   UNL     1     -48.371  37.682  27.916  1.00  0.00     0.124 A 
ATOM      7  C   UNL     1     -47.008  37.901  27.803  1.00  0.00    -0.019 A 
ATOM      8  N   UNL     1     -48.964  36.539  27.532  1.00  0.00    -0.231 NA
ATOM      9  C   UNL     1     -46.217  36.898  27.256  1.00  0.00    -0.049 A 
ATOM     10  H   UNL     1     -46.567  38.828  28.145  1.00  0.00     0.066 H 
ATOM     11  C   UNL     1     -48.200  35.565  27.005  1.00  0.00     0.073 A 
ATOM     12  C   UNL     1     -46.807  35.700  26.842  1.00  0.00     0.000 A 
ATOM     13  H   UNL     1     -45.145  37.055  27.163  1.00  0.00     0.063 H 
ATOM     14  C   UNL     1     -48.792  34.375  26.600  1.00  0.00    -0.030 A 
ATOM     15  C   UNL     1     -46.052  34.655  26.284  1.00  0.00    -0.052 A 
ATOM     16  H   UNL     1     -49.867  34.263  26.736  1.00  0.00     0.065 H 
ATOM     17  C   UNL     1     -46.672  33.473  25.884  1.00  0.00    -0.056 A 
ATOM     18  H   UNL     1     -44.977  34.758  26.161  1.00  0.00     0.063 H 
ATOM     19  H   UNL     1     -46.070  32.674  25.457  1.00  0.00     0.063 H 
BRANCH   6  20
ATOM     20  N   UNL     1     -49.198  38.653  28.475  1.00  0.00    -0.384 N 
ATOM     21  H   UNL     1     -49.449  38.425  29.429  1.00  0.00     0.158 HD
ATOM     22  H   UNL     1     -48.690  39.533  28.418  1.00  0.00     0.158 HD
ENDBRANCH   6  20
ENDBRANCH   2   5
ENDBRANCH   1   2
BRANCH   1  23
ATOM     23  C   UNL     1     -47.596  31.389  23.645  1.00  0.00     0.089 C 
ATOM     24  C   UNL     1     -46.505  30.451  23.114  1.00  0.00    -0.000 C 
ATOM     25  C   UNL     1     -48.846  30.922  22.898  1.00  0.00     0.108 C 
ATOM     26  H   UNL     1     -47.367  32.439  23.427  1.00  0.00     0.063 H 
ATOM     27  C   UNL     1     -47.224  29.118  22.814  1.00  0.00     0.066 C 
ATOM     28  H   UNL     1     -45.651  30.353  23.787  1.00  0.00     0.032 H 
ATOM     29  H   UNL     1     -46.124  30.857  22.168  1.00  0.00     0.032 H 
ATOM     30  C   UNL     1     -48.733  29.398  22.952  1.00  0.00     0.103 C 
ATOM     31  H   UNL     1     -49.778  31.272  23.351  1.00  0.00     0.066 H 
ATOM     32  H   UNL     1     -46.976  28.837  21.781  1.00  0.00     0.056 H 
ATOM     33  H   UNL     1     -49.132  29.025  23.904  1.00  0.00     0.065 H 
BRANCH  25  34
ATOM     34  O   UNL     1     -48.807  31.360  21.536  1.00  0.00    -0.388 OA
ATOM     35  H   UNL     1     -49.748  31.382  21.261  1.00  0.00     0.211 HD
ENDBRANCH  25  34
BRANCH  27  36
ATOM     36  N   UNL     1     -46.849  27.966  23.624  1.00  0.00    -0.326 N 
ATOM     37  C   UNL     1     -45.670  27.267  23.604  1.00  0.00     0.007 A 
ATOM     38  C   UNL     1     -47.654  27.469  24.627  1.00  0.00     0.145 A 
ATOM     39  C   UNL     1     -45.751  26.264  24.550  1.00  0.00    -0.031 A 
ATOM     40  H   UNL     1     -44.857  27.530  22.941  1.00  0.00     0.082 H 
ATOM     41  C   UNL     1     -47.006  26.386  25.204  1.00  0.00     0.061 A 
ATOM     42  N   UNL     1     -48.851  27.970  24.985  1.00  0.00    -0.218 NA
ATOM     43  H   UNL     1     -44.974  25.545  24.771  1.00  0.00     0.065 H 
ATOM     44  C   UNL     1     -47.682  25.728  26.240  1.00  0.00     0.136 A 
ATOM     45  C   UNL     1     -49.401  27.254  25.982  1.00  0.00     0.120 A 
ATOM     46  N   UNL     1     -48.898  26.174  26.612  1.00  0.00    -0.219 NA
ATOM     47  H   UNL     1     -50.378  27.585  26.323  1.00  0.00     0.106 H 
BRANCH  44  48
ATOM     48  N   UNL     1     -47.176  24.623  26.910  1.00  0.00    -0.383 N 
ATOM     49  H   UNL     1     -47.515  24.594  27.864  1.00  0.00     0.158 HD
ATOM     50  H   UNL     1     -47.208  23.758  26.391  1.00  0.00     0.158 HD
ENDBRANCH  44  48
ENDBRANCH  27  36
BRANCH  30  51
ATOM     51  O   UNL     1     -49.489  28.813  21.885  1.00  0.00    -0.388 OA
ATOM     52  H   UNL     1     -50.433  28.960  22.108  1.00  0.00     0.211 HD
ENDBRANCH  30  51
ENDBRANCH   1  23
TORSDOF 8
ENDMDL
MODEL 7
REMARK VINA RESULT:      -8.6      8.397     10.745
REMARK SMILES Nc1ccc2ccc(CO[C@H]3C[C@@H](n4ccc5c(N)ncnc54)[C@H](O)[C@@H]3O)cc2n1
REMARK SMILES IDX 10 1 9 2 8 5 2 6 3 7 30 8 4 9 29 11 5 12 28 14 6 15 7 17
REMARK SMILES IDX 1 20 11 23 12 24 26 25 13 27 24 30 27 34 14 36 15 37 23 38
REMARK SMILES IDX 16 39 17 41 22 42 18 44 21 45 20 46 19 48 25 51
REMARK H PARENT 9 3 9 4 3 10 4 13 28 16 6 18 7 19 1 21 1 22 11 26 12 28 12 29
REMARK H PARENT 26 31 13 32 24 33 27 35 15 40 16 43 21 47 19 49 19 50 25 52
REMARK Flexibility Score: inf
ROOT
ATOM      1  O   UNL     1     -47.678  37.308  27.770  1.00  0.00    -0.371 OA
ENDROOT
BRANCH   1   2
ATOM      2  C   UNL     1     -49.044  37.025  28.065  1.00  0.00     0.072 C 
ATOM      3  H   UNL     1     -49.114  36.498  29.023  1.00  0.00     0.062 H 
ATOM      4  H   UNL     1     -49.478  36.385  27.287  1.00  0.00     0.062 H 
BRANCH   2   5
ATOM      5  C   UNL     1     -49.791  38.329  28.148  1.00  0.00    -0.020 A 
ATOM      6  C   UNL     1     -49.635  43.083  28.336  1.00  0.00     0.124 A 
ATOM      7  C   UNL     1     -51.015  43.191  28.390  1.00  0.00    -0.019 A 
ATOM      8  N   UNL     1     -48.995  41.905  28.259  1.00  0.00    -0.231 NA
ATOM      9  C   UNL     1     -51.774  42.027  28.377  1.00  0.00    -0.049 A 
ATOM     10  H   UNL     1     -51.493  44.162  28.429  1.00  0.00     0.066 H 
ATOM     11  C   UNL     1     -49.727  40.776  28.242  1.00  0.00     0.073 A 
ATOM     12  C   UNL     1     -51.134  40.786  28.304  1.00  0.00     0.000 A 
ATOM     13  H   UNL     1     -52.858  42.096  28.417  1.00  0.00     0.063 H 
ATOM     14  C   UNL     1     -49.086  39.546  28.164  1.00  0.00    -0.030 A 
ATOM     15  C   UNL     1     -51.855  39.580  28.287  1.00  0.00    -0.052 A 
ATOM     16  H   UNL     1     -47.998  39.536  28.105  1.00  0.00     0.065 H 
ATOM     17  C   UNL     1     -51.186  38.359  28.210  1.00  0.00    -0.056 A 
ATOM     18  H   UNL     1     -52.941  39.588  28.330  1.00  0.00     0.063 H 
ATOM     19  H   UNL     1     -51.762  37.437  28.195  1.00  0.00     0.063 H 
BRANCH   6  20
ATOM     20  N   UNL     1     -48.838  44.225  28.328  1.00  0.00    -0.384 N 
ATOM     21  H   UNL     1     -47.895  44.019  28.023  1.00  0.00     0.158 HD
ATOM     22  H   UNL     1     -49.296  44.894  27.715  1.00  0.00     0.158 HD
ENDBRANCH   6  20
ENDBRANCH   2   5
ENDBRANCH   1   2
BRANCH   1  23
ATOM     23  C   UNL     1     -46.776  36.426  28.435  1.00  0.00     0.089 C 
ATOM     24  C   UNL     1     -45.340  36.715  27.982  1.00  0.00    -0.000 C 
ATOM     25  C   UNL     1     -46.741  36.764  29.926  1.00  0.00     0.108 C 
ATOM     26  H   UNL     1     -47.049  35.377  28.268  1.00  0.00     0.063 H 
ATOM     27  C   UNL     1     -44.854  37.874  28.879  1.00  0.00     0.066 C 
ATOM     28  H   UNL     1     -45.254  36.914  26.912  1.00  0.00     0.032 H 
ATOM     29  H   UNL     1     -44.721  35.832  28.195  1.00  0.00     0.032 H 
ATOM     30  C   UNL     1     -45.926  38.057  29.970  1.00  0.00     0.103 C 
ATOM     31  H   UNL     1     -47.735  36.900  30.363  1.00  0.00     0.066 H 
ATOM     32  H   UNL     1     -43.897  37.565  29.323  1.00  0.00     0.056 H 
ATOM     33  H   UNL     1     -46.576  38.918  29.764  1.00  0.00     0.065 H 
BRANCH  25  34
ATOM     34  O   UNL     1     -46.058  35.739  30.655  1.00  0.00    -0.388 OA
ATOM     35  H   UNL     1     -45.332  35.459  30.058  1.00  0.00     0.211 HD
ENDBRANCH  25  34
BRANCH  27  36
ATOM     36  N   UNL     1     -44.579  39.146  28.224  1.00  0.00    -0.326 N 
ATOM     37  C   UNL     1     -45.221  39.697  27.144  1.00  0.00     0.007 A 
ATOM     38  C   UNL     1     -43.639  40.037  28.696  1.00  0.00     0.145 A 
ATOM     39  C   UNL     1     -44.634  40.919  26.876  1.00  0.00    -0.031 A 
ATOM     40  H   UNL     1     -46.048  39.203  26.654  1.00  0.00     0.082 H 
ATOM     41  C   UNL     1     -43.630  41.142  27.857  1.00  0.00     0.061 A 
ATOM     42  N   UNL     1     -42.881  39.860  29.794  1.00  0.00    -0.218 NA
ATOM     43  H   UNL     1     -44.924  41.594  26.082  1.00  0.00     0.065 H 
ATOM     44  C   UNL     1     -42.717  42.159  28.164  1.00  0.00     0.136 A 
ATOM     45  C   UNL     1     -42.043  40.896  29.981  1.00  0.00     0.120 A 
ATOM     46  N   UNL     1     -41.914  42.012  29.236  1.00  0.00    -0.219 NA
ATOM     47  H   UNL     1     -41.385  40.827  30.842  1.00  0.00     0.106 H 
BRANCH  44  48
ATOM     48  N   UNL     1     -42.578  43.320  27.418  1.00  0.00    -0.383 N 
ATOM     49  H   UNL     1     -41.738  43.821  27.685  1.00  0.00     0.158 HD
ATOM     50  H   UNL     1     -42.746  43.214  26.428  1.00  0.00     0.158 HD
ENDBRANCH  44  48
ENDBRANCH  27  36
BRANCH  30  51
ATOM     51  O   UNL     1     -45.348  38.227  31.269  1.00  0.00    -0.388 OA
ATOM     52  H   UNL     1     -46.024  37.919  31.910  1.00  0.00     0.211 HD
ENDBRANCH  30  51
ENDBRANCH   1  23
TORSDOF 8
ENDMDL
