MODEL 1
REMARK VINA RESULT:     -11.1      0.000      0.000
REMARK SMILES O=C(NCc1ccc2cc(CNCC34CC(C3)C4)[nH]c2c1)c1cc(=O)n2ccccc2n1
REMARK SMILES IDX 5 1 6 2 7 3 8 4 9 5 10 6 19 7 20 8 21 9 4 15 3 18 1 19 2 20
REMARK SMILES IDX 22 22 23 23 32 24 24 25 31 27 25 28 26 29 30 30 27 31 29 32
REMARK SMILES IDX 28 34 11 38 12 41 13 43 14 46 15 47 17 48 18 49 16 50
REMARK H PARENT 6 10 7 11 9 12 19 13 21 14 4 16 4 17 3 21 23 26 30 33 27 35
REMARK H PARENT 29 36 28 37 11 39 11 40 12 42 13 44 13 45 15 51 15 52 17 53
REMARK H PARENT 17 54 18 55 18 56 16 57
REMARK Flexibility Score: inf
ROOT
ATOM      1  C   UNL     1     -47.930  34.749  26.576  1.00  0.00    -0.027 A 
ATOM      2  C   UNL     1     -46.668  34.656  25.972  1.00  0.00    -0.057 A 
ATOM      3  C   UNL     1     -46.325  33.559  25.171  1.00  0.00    -0.052 A 
ATOM      4  C   UNL     1     -47.266  32.532  24.973  1.00  0.00    -0.000 A 
ATOM      5  C   UNL     1     -47.258  31.312  24.245  1.00  0.00    -0.032 A 
ATOM      6  C   UNL     1     -48.484  30.697  24.419  1.00  0.00     0.030 A 
ATOM      7  N   UNL     1     -49.230  31.514  25.234  1.00  0.00    -0.357 N 
ATOM      8  C   UNL     1     -48.514  32.637  25.584  1.00  0.00     0.046 A 
ATOM      9  C   UNL     1     -48.873  33.724  26.392  1.00  0.00    -0.033 A 
ATOM     10  H   UNL     1     -45.932  35.444  26.128  1.00  0.00     0.063 H 
ATOM     11  H   UNL     1     -45.344  33.503  24.712  1.00  0.00     0.063 H 
ATOM     12  H   UNL     1     -46.440  30.914  23.658  1.00  0.00     0.065 H 
ATOM     13  H   UNL     1     -50.172  31.323  25.542  1.00  0.00     0.166 HD
ATOM     14  H   UNL     1     -49.852  33.771  26.859  1.00  0.00     0.065 H 
ENDROOT
BRANCH   1  15
ATOM     15  C   UNL     1     -48.254  35.933  27.452  1.00  0.00     0.043 C 
ATOM     16  H   UNL     1     -49.197  36.393  27.134  1.00  0.00     0.054 H 
ATOM     17  H   UNL     1     -48.385  35.614  28.492  1.00  0.00     0.054 H 
BRANCH  15  18
ATOM     18  N   UNL     1     -47.182  36.894  27.431  1.00  0.00    -0.347 N 
ATOM     19  O   UNL     1     -46.603  36.719  29.650  1.00  0.00    -0.268 OA
ATOM     20  C   UNL     1     -46.489  37.261  28.558  1.00  0.00     0.270 C 
ATOM     21  H   UNL     1     -47.073  37.501  26.624  1.00  0.00     0.164 HD
BRANCH  20  22
ATOM     22  C   UNL     1     -45.565  38.430  28.308  1.00  0.00     0.136 A 
ATOM     23  C   UNL     1     -45.781  39.127  27.190  1.00  0.00     0.035 A 
ATOM     24  N   UNL     1     -44.572  38.699  29.223  1.00  0.00    -0.225 NA
ATOM     25  C   UNL     1     -44.903  40.268  26.902  1.00  0.00     0.258 A 
ATOM     26  H   UNL     1     -46.564  38.904  26.477  1.00  0.00     0.071 H 
ATOM     27  C   UNL     1     -43.794  39.704  28.960  1.00  0.00     0.140 A 
ATOM     28  O   UNL     1     -45.098  40.920  25.878  1.00  0.00    -0.269 OA
ATOM     29  N   UNL     1     -43.906  40.513  27.835  1.00  0.00    -0.268 N 
ATOM     30  C   UNL     1     -42.700  40.029  29.919  1.00  0.00    -0.019 A 
ATOM     31  C   UNL     1     -43.032  41.575  27.628  1.00  0.00     0.014 A 
ATOM     32  C   UNL     1     -41.883  41.061  29.676  1.00  0.00    -0.057 A 
ATOM     33  H   UNL     1     -42.603  39.403  30.797  1.00  0.00     0.066 H 
ATOM     34  C   UNL     1     -42.052  41.862  28.494  1.00  0.00    -0.045 A 
ATOM     35  H   UNL     1     -43.177  42.166  26.728  1.00  0.00     0.082 H 
ATOM     36  H   UNL     1     -41.081  41.312  30.362  1.00  0.00     0.062 H 
ATOM     37  H   UNL     1     -41.375  42.692  28.322  1.00  0.00     0.064 H 
ENDBRANCH  20  22
ENDBRANCH  15  18
ENDBRANCH   1  15
BRANCH   6  38
ATOM     38  C   UNL     1     -49.015  29.415  23.882  1.00  0.00     0.036 C 
ATOM     39  H   UNL     1     -49.916  29.572  23.276  1.00  0.00     0.049 H 
ATOM     40  H   UNL     1     -48.259  28.995  23.205  1.00  0.00     0.049 H 
BRANCH  38  41
ATOM     41  N   UNL     1     -49.265  28.444  24.943  1.00  0.00    -0.311 NA
ATOM     42  H   UNL     1     -48.712  28.706  25.757  1.00  0.00     0.123 HD
BRANCH  41  43
ATOM     43  C   UNL     1     -48.918  27.078  24.551  1.00  0.00     0.001 C 
ATOM     44  H   UNL     1     -49.816  26.458  24.469  1.00  0.00     0.043 H 
ATOM     45  H   UNL     1     -48.428  27.082  23.570  1.00  0.00     0.043 H 
BRANCH  43  46
ATOM     46  C   UNL     1     -48.010  26.481  25.566  1.00  0.00    -0.016 C 
ATOM     47  C   UNL     1     -46.464  26.190  25.411  1.00  0.00    -0.043 C 
ATOM     48  C   UNL     1     -47.615  26.998  27.008  1.00  0.00    -0.043 C 
ATOM     49  C   UNL     1     -48.057  25.056  26.248  1.00  0.00    -0.043 C 
ATOM     50  C   UNL     1     -46.763  25.690  26.864  1.00  0.00    -0.040 C 
ATOM     51  H   UNL     1     -45.804  27.058  25.311  1.00  0.00     0.028 H 
ATOM     52  H   UNL     1     -46.174  25.432  24.676  1.00  0.00     0.028 H 
ATOM     53  H   UNL     1     -48.402  26.995  27.770  1.00  0.00     0.028 H 
ATOM     54  H   UNL     1     -47.066  27.944  27.062  1.00  0.00     0.028 H 
ATOM     55  H   UNL     1     -47.921  24.188  25.594  1.00  0.00     0.028 H 
ATOM     56  H   UNL     1     -48.888  24.862  26.935  1.00  0.00     0.028 H 
ATOM     57  H   UNL     1     -46.078  25.256  27.577  1.00  0.00     0.030 H 
ENDBRANCH  43  46
ENDBRANCH  41  43
ENDBRANCH  38  41
ENDBRANCH   6  38
TORSDOF 7
ENDMDL
MODEL 2
REMARK VINA RESULT:     -10.2      3.053     11.330
REMARK SMILES O=C(NCc1ccc2cc(CNCC34CC(C3)C4)[nH]c2c1)c1cc(=O)n2ccccc2n1
REMARK SMILES IDX 5 1 6 2 7 3 8 4 9 5 10 6 19 7 20 8 21 9 4 15 3 18 1 19 2 20
REMARK SMILES IDX 22 22 23 23 32 24 24 25 31 27 25 28 26 29 30 30 27 31 29 32
REMARK SMILES IDX 28 34 11 38 12 41 13 43 14 46 15 47 17 48 18 49 16 50
REMARK H PARENT 6 10 7 11 9 12 19 13 21 14 4 16 4 17 3 21 23 26 30 33 27 35
REMARK H PARENT 29 36 28 37 11 39 11 40 12 42 13 44 13 45 15 51 15 52 17 53
REMARK H PARENT 17 54 18 55 18 56 16 57
REMARK Flexibility Score: inf
ROOT
ATOM      1  C   UNL     1     -46.657  33.451  25.495  1.00  0.00    -0.027 A 
ATOM      2  C   UNL     1     -48.013  33.723  25.727  1.00  0.00    -0.057 A 
ATOM      3  C   UNL     1     -48.417  34.550  26.782  1.00  0.00    -0.052 A 
ATOM      4  C   UNL     1     -47.443  35.113  27.627  1.00  0.00    -0.000 A 
ATOM      5  C   UNL     1     -47.493  35.970  28.759  1.00  0.00    -0.032 A 
ATOM      6  C   UNL     1     -46.199  36.193  29.189  1.00  0.00     0.030 A 
ATOM      7  N   UNL     1     -45.370  35.492  28.347  1.00  0.00    -0.357 N 
ATOM      8  C   UNL     1     -46.100  34.828  27.388  1.00  0.00     0.046 A 
ATOM      9  C   UNL     1     -45.677  34.001  26.339  1.00  0.00    -0.033 A 
ATOM     10  H   UNL     1     -48.773  33.285  25.081  1.00  0.00     0.063 H 
ATOM     11  H   UNL     1     -49.471  34.750  26.947  1.00  0.00     0.063 H 
ATOM     12  H   UNL     1     -48.382  36.379  29.222  1.00  0.00     0.065 H 
ATOM     13  H   UNL     1     -44.364  35.460  28.417  1.00  0.00     0.166 HD
ATOM     14  H   UNL     1     -44.623  33.793  26.185  1.00  0.00     0.065 H 
ENDROOT
BRANCH   1  15
ATOM     15  C   UNL     1     -46.260  32.536  24.364  1.00  0.00     0.043 C 
ATOM     16  H   UNL     1     -46.591  32.953  23.406  1.00  0.00     0.054 H 
ATOM     17  H   UNL     1     -45.170  32.438  24.316  1.00  0.00     0.054 H 
BRANCH  15  18
ATOM     18  N   UNL     1     -46.799  31.215  24.561  1.00  0.00    -0.347 N 
ATOM     19  O   UNL     1     -48.016  31.113  22.612  1.00  0.00    -0.268 OA
ATOM     20  C   UNL     1     -47.696  30.640  23.695  1.00  0.00     0.270 C 
ATOM     21  H   UNL     1     -46.713  30.773  25.471  1.00  0.00     0.164 HD
BRANCH  20  22
ATOM     22  C   UNL     1     -48.265  29.348  24.233  1.00  0.00     0.136 A 
ATOM     23  C   UNL     1     -49.593  29.225  24.196  1.00  0.00     0.035 A 
ATOM     24  N   UNL     1     -47.401  28.397  24.727  1.00  0.00    -0.225 NA
ATOM     25  C   UNL     1     -50.192  27.989  24.716  1.00  0.00     0.258 A 
ATOM     26  H   UNL     1     -50.263  29.982  23.808  1.00  0.00     0.071 H 
ATOM     27  C   UNL     1     -47.935  27.309  25.192  1.00  0.00     0.140 A 
ATOM     28  O   UNL     1     -51.415  27.864  24.679  1.00  0.00    -0.269 OA
ATOM     29  N   UNL     1     -49.301  27.050  25.214  1.00  0.00    -0.268 N 
ATOM     30  C   UNL     1     -47.039  26.252  25.742  1.00  0.00    -0.019 A 
ATOM     31  C   UNL     1     -49.794  25.855  25.727  1.00  0.00     0.014 A 
ATOM     32  C   UNL     1     -47.561  25.119  26.227  1.00  0.00    -0.057 A 
ATOM     33  H   UNL     1     -45.974  26.446  25.732  1.00  0.00     0.066 H 
ATOM     34  C   UNL     1     -48.984  24.911  26.220  1.00  0.00    -0.045 A 
ATOM     35  H   UNL     1     -50.873  25.719  25.713  1.00  0.00     0.082 H 
ATOM     36  H   UNL     1     -46.925  24.339  26.632  1.00  0.00     0.062 H 
ATOM     37  H   UNL     1     -49.379  23.982  26.619  1.00  0.00     0.064 H 
ENDBRANCH  20  22
ENDBRANCH  15  18
ENDBRANCH   1  15
BRANCH   6  38
ATOM     38  C   UNL     1     -45.675  37.012  30.316  1.00  0.00     0.036 C 
ATOM     39  H   UNL     1     -46.154  36.746  31.267  1.00  0.00     0.049 H 
ATOM     40  H   UNL     1     -44.609  36.780  30.434  1.00  0.00     0.049 H 
BRANCH  38  41
ATOM     41  N   UNL     1     -45.804  38.443  30.053  1.00  0.00    -0.311 NA
ATOM     42  H   UNL     1     -46.781  38.647  29.851  1.00  0.00     0.123 HD
BRANCH  41  43
ATOM     43  C   UNL     1     -44.982  38.884  28.926  1.00  0.00     0.001 C 
ATOM     44  H   UNL     1     -44.298  39.682  29.234  1.00  0.00     0.043 H 
ATOM     45  H   UNL     1     -44.374  38.051  28.555  1.00  0.00     0.043 H 
BRANCH  43  46
ATOM     46  C   UNL     1     -45.858  39.394  27.838  1.00  0.00    -0.016 C 
ATOM     47  C   UNL     1     -46.412  38.583  26.599  1.00  0.00    -0.043 C 
ATOM     48  C   UNL     1     -47.318  39.997  27.904  1.00  0.00    -0.043 C 
ATOM     49  C   UNL     1     -45.590  40.537  26.779  1.00  0.00    -0.043 C 
ATOM     50  C   UNL     1     -47.009  40.011  26.368  1.00  0.00    -0.040 C 
ATOM     51  H   UNL     1     -47.122  37.777  26.812  1.00  0.00     0.028 H 
ATOM     52  H   UNL     1     -45.675  38.229  25.869  1.00  0.00     0.028 H 
ATOM     53  H   UNL     1     -47.432  40.970  28.395  1.00  0.00     0.028 H 
ATOM     54  H   UNL     1     -48.116  39.328  28.243  1.00  0.00     0.028 H 
ATOM     55  H   UNL     1     -44.775  40.372  26.066  1.00  0.00     0.028 H 
ATOM     56  H   UNL     1     -45.533  41.562  27.160  1.00  0.00     0.028 H 
ATOM     57  H   UNL     1     -47.641  40.350  25.561  1.00  0.00     0.030 H 
ENDBRANCH  43  46
ENDBRANCH  41  43
ENDBRANCH  38  41
ENDBRANCH   6  38
TORSDOF 7
ENDMDL
MODEL 3
REMARK VINA RESULT:     -10.0      1.597      2.324
REMARK SMILES O=C(NCc1ccc2cc(CNCC34CC(C3)C4)[nH]c2c1)c1cc(=O)n2ccccc2n1
REMARK SMILES IDX 5 1 6 2 7 3 8 4 9 5 10 6 19 7 20 8 21 9 4 15 3 18 1 19 2 20
REMARK SMILES IDX 22 22 23 23 32 24 24 25 31 27 25 28 26 29 30 30 27 31 29 32
REMARK SMILES IDX 28 34 11 38 12 41 13 43 14 46 15 47 17 48 18 49 16 50
REMARK H PARENT 6 10 7 11 9 12 19 13 21 14 4 16 4 17 3 21 23 26 30 33 27 35
REMARK H PARENT 29 36 28 37 11 39 11 40 12 42 13 44 13 45 15 51 15 52 17 53
REMARK H PARENT 17 54 18 55 18 56 16 57
REMARK Flexibility Score: inf
ROOT
ATOM      1  C   UNL     1     -46.868  34.967  27.636  1.00  0.00    -0.027 A 
ATOM      2  C   UNL     1     -48.228  35.012  27.299  1.00  0.00    -0.057 A 
ATOM      3  C   UNL     1     -48.770  34.142  26.344  1.00  0.00    -0.052 A 
ATOM      4  C   UNL     1     -47.930  33.208  25.711  1.00  0.00    -0.000 A 
ATOM      5  C   UNL     1     -48.134  32.205  24.725  1.00  0.00    -0.032 A 
ATOM      6  C   UNL     1     -46.922  31.585  24.483  1.00  0.00     0.030 A 
ATOM      7  N   UNL     1     -45.993  32.190  25.294  1.00  0.00    -0.357 N 
ATOM      8  C   UNL     1     -46.579  33.178  26.052  1.00  0.00     0.046 A 
ATOM      9  C   UNL     1     -46.019  34.043  27.002  1.00  0.00    -0.033 A 
ATOM     10  H   UNL     1     -48.883  35.738  27.780  1.00  0.00     0.063 H 
ATOM     11  H   UNL     1     -49.825  34.192  26.096  1.00  0.00     0.063 H 
ATOM     12  H   UNL     1     -49.068  31.961  24.234  1.00  0.00     0.065 H 
ATOM     13  H   UNL     1     -45.013  31.951  25.333  1.00  0.00     0.166 HD
ATOM     14  H   UNL     1     -44.961  33.999  27.240  1.00  0.00     0.065 H 
ENDROOT
BRANCH   1  15
ATOM     15  C   UNL     1     -46.315  35.936  28.651  1.00  0.00     0.043 C 
ATOM     16  H   UNL     1     -47.056  36.126  29.435  1.00  0.00     0.054 H 
ATOM     17  H   UNL     1     -45.429  35.515  29.137  1.00  0.00     0.054 H 
BRANCH  15  18
ATOM     18  N   UNL     1     -45.912  37.164  28.017  1.00  0.00    -0.347 N 
ATOM     19  O   UNL     1     -44.635  37.971  29.752  1.00  0.00    -0.268 OA
ATOM     20  C   UNL     1     -45.158  38.118  28.654  1.00  0.00     0.270 C 
ATOM     21  H   UNL     1     -46.378  37.461  27.165  1.00  0.00     0.164 HD
BRANCH  20  22
ATOM     22  C   UNL     1     -45.050  39.394  27.853  1.00  0.00     0.136 A 
ATOM     23  C   UNL     1     -46.168  39.818  27.261  1.00  0.00     0.035 A 
ATOM     24  N   UNL     1     -43.830  40.028  27.774  1.00  0.00    -0.225 NA
ATOM     25  C   UNL     1     -46.110  41.051  26.466  1.00  0.00     0.258 A 
ATOM     26  H   UNL     1     -47.122  39.310  27.328  1.00  0.00     0.071 H 
ATOM     27  C   UNL     1     -43.782  41.113  27.064  1.00  0.00     0.140 A 
ATOM     28  O   UNL     1     -47.137  41.453  25.922  1.00  0.00    -0.269 OA
ATOM     29  N   UNL     1     -44.868  41.666  26.396  1.00  0.00    -0.268 N 
ATOM     30  C   UNL     1     -42.481  41.831  26.945  1.00  0.00    -0.019 A 
ATOM     31  C   UNL     1     -44.733  42.836  25.657  1.00  0.00     0.014 A 
ATOM     32  C   UNL     1     -42.399  42.953  26.221  1.00  0.00    -0.057 A 
ATOM     33  H   UNL     1     -41.627  41.407  27.460  1.00  0.00     0.066 H 
ATOM     34  C   UNL     1     -43.562  43.475  25.555  1.00  0.00    -0.045 A 
ATOM     35  H   UNL     1     -45.624  43.213  25.160  1.00  0.00     0.082 H 
ATOM     36  H   UNL     1     -41.461  43.489  26.123  1.00  0.00     0.062 H 
ATOM     37  H   UNL     1     -43.468  44.387  24.974  1.00  0.00     0.064 H 
ENDBRANCH  20  22
ENDBRANCH  15  18
ENDBRANCH   1  15
BRANCH   6  38
ATOM     38  C   UNL     1     -46.566  30.473  23.561  1.00  0.00     0.036 C 
ATOM     39  H   UNL     1     -47.133  30.526  22.623  1.00  0.00     0.049 H 
ATOM     40  H   UNL     1     -45.509  30.588  23.287  1.00  0.00     0.049 H 
BRANCH  38  41
ATOM     41  N   UNL     1     -46.732  29.168  24.195  1.00  0.00    -0.311 NA
ATOM     42  H   UNL     1     -46.300  28.464  23.600  1.00  0.00     0.123 HD
BRANCH  41  43
ATOM     43  C   UNL     1     -48.138  28.818  24.402  1.00  0.00     0.001 C 
ATOM     44  H   UNL     1     -48.665  29.623  24.925  1.00  0.00     0.043 H 
ATOM     45  H   UNL     1     -48.635  28.669  23.437  1.00  0.00     0.043 H 
BRANCH  43  46
ATOM     46  C   UNL     1     -48.229  27.575  25.213  1.00  0.00    -0.016 C 
ATOM     47  C   UNL     1     -48.491  27.466  26.768  1.00  0.00    -0.043 C 
ATOM     48  C   UNL     1     -49.242  26.365  25.111  1.00  0.00    -0.043 C 
ATOM     49  C   UNL     1     -47.143  26.456  25.470  1.00  0.00    -0.043 C 
ATOM     50  C   UNL     1     -48.353  25.968  26.338  1.00  0.00    -0.040 C 
ATOM     51  H   UNL     1     -49.473  27.790  27.129  1.00  0.00     0.028 H 
ATOM     52  H   UNL     1     -47.715  27.866  27.430  1.00  0.00     0.028 H 
ATOM     53  H   UNL     1     -49.168  25.730  24.221  1.00  0.00     0.028 H 
ATOM     54  H   UNL     1     -50.296  26.582  25.311  1.00  0.00     0.028 H 
ATOM     55  H   UNL     1     -46.237  26.758  26.007  1.00  0.00     0.028 H 
ATOM     56  H   UNL     1     -46.862  25.831  24.615  1.00  0.00     0.028 H 
ATOM     57  H   UNL     1     -48.421  25.085  26.956  1.00  0.00     0.030 H 
ENDBRANCH  43  46
ENDBRANCH  41  43
ENDBRANCH  38  41
ENDBRANCH   6  38
TORSDOF 7
ENDMDL
MODEL 4
REMARK VINA RESULT:     -10.0      1.550      1.960
REMARK SMILES O=C(NCc1ccc2cc(CNCC34CC(C3)C4)[nH]c2c1)c1cc(=O)n2ccccc2n1
REMARK SMILES IDX 5 1 6 2 7 3 8 4 9 5 10 6 19 7 20 8 21 9 4 15 3 18 1 19 2 20
REMARK SMILES IDX 22 22 23 23 32 24 24 25 31 27 25 28 26 29 30 30 27 31 29 32
REMARK SMILES IDX 28 34 11 38 12 41 13 43 14 46 15 47 17 48 18 49 16 50
REMARK H PARENT 6 10 7 11 9 12 19 13 21 14 4 16 4 17 3 21 23 26 30 33 27 35
REMARK H PARENT 29 36 28 37 11 39 11 40 12 42 13 44 13 45 15 51 15 52 17 53
REMARK H PARENT 17 54 18 55 18 56 16 57
REMARK Flexibility Score: inf
ROOT
ATOM      1  C   UNL     1     -47.887  35.916  27.118  1.00  0.00    -0.027 A 
ATOM      2  C   UNL     1     -46.542  35.794  26.742  1.00  0.00    -0.057 A 
ATOM      3  C   UNL     1     -46.067  34.640  26.106  1.00  0.00    -0.052 A 
ATOM      4  C   UNL     1     -46.958  33.585  25.841  1.00  0.00    -0.000 A 
ATOM      5  C   UNL     1     -46.825  32.308  25.232  1.00  0.00    -0.032 A 
ATOM      6  C   UNL     1     -48.060  31.689  25.252  1.00  0.00     0.030 A 
ATOM      7  N   UNL     1     -48.935  32.557  25.859  1.00  0.00    -0.357 N 
ATOM      8  C   UNL     1     -48.291  33.718  26.226  1.00  0.00     0.046 A 
ATOM      9  C   UNL     1     -48.783  34.862  26.867  1.00  0.00    -0.033 A 
ATOM     10  H   UNL     1     -45.844  36.605  26.950  1.00  0.00     0.063 H 
ATOM     11  H   UNL     1     -45.022  34.563  25.822  1.00  0.00     0.063 H 
ATOM     12  H   UNL     1     -45.919  31.877  24.825  1.00  0.00     0.065 H 
ATOM     13  H   UNL     1     -49.914  32.377  26.022  1.00  0.00     0.166 HD
ATOM     14  H   UNL     1     -49.826  34.931  27.160  1.00  0.00     0.065 H 
ENDROOT
BRANCH   1  15
ATOM     15  C   UNL     1     -48.357  37.163  27.824  1.00  0.00     0.043 C 
ATOM     16  H   UNL     1     -49.343  37.460  27.450  1.00  0.00     0.054 H 
ATOM     17  H   UNL     1     -48.461  36.977  28.899  1.00  0.00     0.054 H 
BRANCH  15  18
ATOM     18  N   UNL     1     -47.404  38.230  27.665  1.00  0.00    -0.347 N 
ATOM     19  O   UNL     1     -48.901  39.970  27.816  1.00  0.00    -0.268 OA
ATOM     20  C   UNL     1     -47.770  39.552  27.603  1.00  0.00     0.270 C 
ATOM     21  H   UNL     1     -46.462  38.014  27.355  1.00  0.00     0.164 HD
BRANCH  20  22
ATOM     22  C   UNL     1     -46.616  40.450  27.223  1.00  0.00     0.136 A 
ATOM     23  C   UNL     1     -46.880  41.413  26.339  1.00  0.00     0.035 A 
ATOM     24  N   UNL     1     -45.383  40.222  27.794  1.00  0.00    -0.225 NA
ATOM     25  C   UNL     1     -45.787  42.306  25.935  1.00  0.00     0.258 A 
ATOM     26  H   UNL     1     -47.853  41.580  25.895  1.00  0.00     0.071 H 
ATOM     27  C   UNL     1     -44.418  41.010  27.428  1.00  0.00     0.140 A 
ATOM     28  O   UNL     1     -46.022  43.201  25.125  1.00  0.00    -0.269 OA
ATOM     29  N   UNL     1     -44.554  42.051  26.517  1.00  0.00    -0.268 N 
ATOM     30  C   UNL     1     -43.064  40.798  28.014  1.00  0.00    -0.019 A 
ATOM     31  C   UNL     1     -43.468  42.852  26.181  1.00  0.00     0.014 A 
ATOM     32  C   UNL     1     -42.049  41.594  27.658  1.00  0.00    -0.057 A 
ATOM     33  H   UNL     1     -42.947  39.987  28.723  1.00  0.00     0.066 H 
ATOM     34  C   UNL     1     -42.255  42.657  26.712  1.00  0.00    -0.045 A 
ATOM     35  H   UNL     1     -43.646  43.649  25.463  1.00  0.00     0.082 H 
ATOM     36  H   UNL     1     -41.057  41.455  28.074  1.00  0.00     0.062 H 
ATOM     37  H   UNL     1     -41.414  43.288  26.441  1.00  0.00     0.064 H 
ENDBRANCH  20  22
ENDBRANCH  15  18
ENDBRANCH   1  15
BRANCH   6  38
ATOM     38  C   UNL     1     -48.490  30.357  24.745  1.00  0.00     0.036 C 
ATOM     39  H   UNL     1     -49.466  30.409  24.245  1.00  0.00     0.049 H 
ATOM     40  H   UNL     1     -47.770  30.040  23.979  1.00  0.00     0.049 H 
BRANCH  38  41
ATOM     41  N   UNL     1     -48.501  29.351  25.804  1.00  0.00    -0.311 NA
ATOM     42  H   UNL     1     -47.540  29.174  26.089  1.00  0.00     0.123 HD
BRANCH  41  43
ATOM     43  C   UNL     1     -49.112  28.092  25.377  1.00  0.00     0.001 C 
ATOM     44  H   UNL     1     -50.112  27.981  25.808  1.00  0.00     0.043 H 
ATOM     45  H   UNL     1     -49.218  28.076  24.286  1.00  0.00     0.043 H 
BRANCH  43  46
ATOM     46  C   UNL     1     -48.266  26.951  25.818  1.00  0.00    -0.016 C 
ATOM     47  C   UNL     1     -47.479  26.817  27.182  1.00  0.00    -0.043 C 
ATOM     48  C   UNL     1     -48.648  25.436  26.063  1.00  0.00    -0.043 C 
ATOM     49  C   UNL     1     -46.948  26.364  25.173  1.00  0.00    -0.043 C 
ATOM     50  C   UNL     1     -47.131  25.477  26.452  1.00  0.00    -0.040 C 
ATOM     51  H   UNL     1     -48.080  26.743  28.096  1.00  0.00     0.028 H 
ATOM     52  H   UNL     1     -46.656  27.519  27.350  1.00  0.00     0.028 H 
ATOM     53  H   UNL     1     -48.917  24.843  25.182  1.00  0.00     0.028 H 
ATOM     54  H   UNL     1     -49.361  25.228  26.868  1.00  0.00     0.028 H 
ATOM     55  H   UNL     1     -46.073  27.023  25.147  1.00  0.00     0.028 H 
ATOM     56  H   UNL     1     -47.050  25.863  24.205  1.00  0.00     0.028 H 
ATOM     57  H   UNL     1     -46.507  24.668  26.801  1.00  0.00     0.030 H 
ENDBRANCH  43  46
ENDBRANCH  41  43
ENDBRANCH  38  41
ENDBRANCH   6  38
TORSDOF 7
ENDMDL
MODEL 5
REMARK VINA RESULT:     -10.0      2.717     11.711
REMARK SMILES O=C(NCc1ccc2cc(CNCC34CC(C3)C4)[nH]c2c1)c1cc(=O)n2ccccc2n1
REMARK SMILES IDX 5 1 6 2 7 3 8 4 9 5 10 6 19 7 20 8 21 9 4 15 3 18 1 19 2 20
REMARK SMILES IDX 22 22 23 23 32 24 24 25 31 27 25 28 26 29 30 30 27 31 29 32
REMARK SMILES IDX 28 34 11 38 12 41 13 43 14 46 15 47 17 48 18 49 16 50
REMARK H PARENT 6 10 7 11 9 12 19 13 21 14 4 16 4 17 3 21 23 26 30 33 27 35
REMARK H PARENT 29 36 28 37 11 39 11 40 12 42 13 44 13 45 15 51 15 52 17 53
REMARK H PARENT 17 54 18 55 18 56 16 57
REMARK Flexibility Score: inf
ROOT
ATOM      1  C   UNL     1     -48.432  34.082  26.385  1.00  0.00    -0.027 A 
ATOM      2  C   UNL     1     -47.074  33.848  26.129  1.00  0.00    -0.057 A 
ATOM      3  C   UNL     1     -46.108  34.832  26.373  1.00  0.00    -0.052 A 
ATOM      4  C   UNL     1     -46.511  36.079  26.883  1.00  0.00    -0.000 A 
ATOM      5  C   UNL     1     -45.823  37.271  27.238  1.00  0.00    -0.032 A 
ATOM      6  C   UNL     1     -46.754  38.189  27.688  1.00  0.00     0.030 A 
ATOM      7  N   UNL     1     -47.984  37.583  27.611  1.00  0.00    -0.357 N 
ATOM      8  C   UNL     1     -47.865  36.300  27.127  1.00  0.00     0.046 A 
ATOM      9  C   UNL     1     -48.846  35.329  26.885  1.00  0.00    -0.033 A 
ATOM     10  H   UNL     1     -46.755  32.886  25.727  1.00  0.00     0.063 H 
ATOM     11  H   UNL     1     -45.061  34.632  26.169  1.00  0.00     0.063 H 
ATOM     12  H   UNL     1     -44.757  37.448  27.167  1.00  0.00     0.065 H 
ATOM     13  H   UNL     1     -48.860  38.013  27.869  1.00  0.00     0.166 HD
ATOM     14  H   UNL     1     -49.894  35.535  27.079  1.00  0.00     0.065 H 
ENDROOT
BRANCH   1  15
ATOM     15  C   UNL     1     -49.447  33.008  26.085  1.00  0.00     0.043 C 
ATOM     16  H   UNL     1     -50.158  32.917  26.914  1.00  0.00     0.054 H 
ATOM     17  H   UNL     1     -50.024  33.266  25.190  1.00  0.00     0.054 H 
BRANCH  15  18
ATOM     18  N   UNL     1     -48.797  31.749  25.827  1.00  0.00    -0.347 N 
ATOM     19  O   UNL     1     -49.909  31.253  23.875  1.00  0.00    -0.268 OA
ATOM     20  C   UNL     1     -49.138  30.938  24.773  1.00  0.00     0.270 C 
ATOM     21  H   UNL     1     -48.236  31.319  26.556  1.00  0.00     0.164 HD
BRANCH  20  22
ATOM     22  C   UNL     1     -48.461  29.589  24.844  1.00  0.00     0.136 A 
ATOM     23  C   UNL     1     -47.452  29.387  23.996  1.00  0.00     0.035 A 
ATOM     24  N   UNL     1     -48.919  28.664  25.755  1.00  0.00    -0.225 NA
ATOM     25  C   UNL     1     -46.768  28.088  24.024  1.00  0.00     0.258 A 
ATOM     26  H   UNL     1     -47.102  30.122  23.281  1.00  0.00     0.071 H 
ATOM     27  C   UNL     1     -48.317  27.515  25.772  1.00  0.00     0.140 A 
ATOM     28  O   UNL     1     -45.832  27.895  23.250  1.00  0.00    -0.269 OA
ATOM     29  N   UNL     1     -47.253  27.171  24.945  1.00  0.00    -0.268 N 
ATOM     30  C   UNL     1     -48.782  26.479  26.738  1.00  0.00    -0.019 A 
ATOM     31  C   UNL     1     -46.659  25.917  25.028  1.00  0.00     0.014 A 
ATOM     32  C   UNL     1     -48.179  25.285  26.780  1.00  0.00    -0.057 A 
ATOM     33  H   UNL     1     -49.612  26.736  27.385  1.00  0.00     0.066 H 
ATOM     34  C   UNL     1     -47.082  24.992  25.898  1.00  0.00    -0.045 A 
ATOM     35  H   UNL     1     -45.832  25.716  24.352  1.00  0.00     0.082 H 
ATOM     36  H   UNL     1     -48.504  24.519  27.475  1.00  0.00     0.062 H 
ATOM     37  H   UNL     1     -46.611  24.015  25.954  1.00  0.00     0.064 H 
ENDBRANCH  20  22
ENDBRANCH  15  18
ENDBRANCH   1  15
BRANCH   6  38
ATOM     38  C   UNL     1     -46.584  39.580  28.187  1.00  0.00     0.036 C 
ATOM     39  H   UNL     1     -46.964  40.318  27.469  1.00  0.00     0.049 H 
ATOM     40  H   UNL     1     -47.197  39.690  29.091  1.00  0.00     0.049 H 
BRANCH  38  41
ATOM     41  N   UNL     1     -45.196  39.865  28.540  1.00  0.00    -0.311 NA
ATOM     42  H   UNL     1     -45.190  40.494  29.341  1.00  0.00     0.123 HD
BRANCH  41  43
ATOM     43  C   UNL     1     -44.452  40.484  27.443  1.00  0.00     0.001 C 
ATOM     44  H   UNL     1     -44.192  39.740  26.683  1.00  0.00     0.043 H 
ATOM     45  H   UNL     1     -45.066  41.252  26.958  1.00  0.00     0.043 H 
BRANCH  43  46
ATOM     46  C   UNL     1     -43.202  41.095  27.968  1.00  0.00    -0.016 C 
ATOM     47  C   UNL     1     -42.959  42.614  28.328  1.00  0.00    -0.043 C 
ATOM     48  C   UNL     1     -42.414  40.807  29.309  1.00  0.00    -0.043 C 
ATOM     49  C   UNL     1     -41.766  41.177  27.312  1.00  0.00    -0.043 C 
ATOM     50  C   UNL     1     -41.576  41.960  28.656  1.00  0.00    -0.040 C 
ATOM     51  H   UNL     1     -43.529  43.021  29.171  1.00  0.00     0.028 H 
ATOM     52  H   UNL     1     -42.986  43.330  27.499  1.00  0.00     0.028 H 
ATOM     53  H   UNL     1     -41.925  39.831  29.398  1.00  0.00     0.028 H 
ATOM     54  H   UNL     1     -42.930  41.039  30.247  1.00  0.00     0.028 H 
ATOM     55  H   UNL     1     -41.677  41.754  26.385  1.00  0.00     0.028 H 
ATOM     56  H   UNL     1     -41.215  40.236  27.204  1.00  0.00     0.028 H 
ATOM     57  H   UNL     1     -40.684  42.435  29.034  1.00  0.00     0.030 H 
ENDBRANCH  43  46
ENDBRANCH  41  43
ENDBRANCH  38  41
ENDBRANCH   6  38
TORSDOF 7
ENDMDL
MODEL 6
REMARK VINA RESULT:      -9.9      1.867      2.832
REMARK SMILES O=C(NCc1ccc2cc(CNCC34CC(C3)C4)[nH]c2c1)c1cc(=O)n2ccccc2n1
REMARK SMILES IDX 5 1 6 2 7 3 8 4 9 5 10 6 19 7 20 8 21 9 4 15 3 18 1 19 2 20
REMARK SMILES IDX 22 22 23 23 32 24 24 25 31 27 25 28 26 29 30 30 27 31 29 32
REMARK SMILES IDX 28 34 11 38 12 41 13 43 14 46 15 47 17 48 18 49 16 50
REMARK H PARENT 6 10 7 11 9 12 19 13 21 14 4 16 4 17 3 21 23 26 30 33 27 35
REMARK H PARENT 29 36 28 37 11 39 11 40 12 42 13 44 13 45 15 51 15 52 17 53
REMARK H PARENT 17 54 18 55 18 56 16 57
REMARK Flexibility Score: inf
ROOT
ATOM      1  C   UNL     1     -47.229  36.460  27.608  1.00  0.00    -0.027 A 
ATOM      2  C   UNL     1     -45.956  35.874  27.617  1.00  0.00    -0.057 A 
ATOM      3  C   UNL     1     -45.753  34.569  27.152  1.00  0.00    -0.052 A 
ATOM      4  C   UNL     1     -46.851  33.833  26.669  1.00  0.00    -0.000 A 
ATOM      5  C   UNL     1     -47.007  32.524  26.139  1.00  0.00    -0.032 A 
ATOM      6  C   UNL     1     -48.342  32.340  25.829  1.00  0.00     0.030 A 
ATOM      7  N   UNL     1     -48.994  33.502  26.161  1.00  0.00    -0.357 N 
ATOM      8  C   UNL     1     -48.112  34.427  26.672  1.00  0.00     0.046 A 
ATOM      9  C   UNL     1     -48.334  35.730  27.137  1.00  0.00    -0.033 A 
ATOM     10  H   UNL     1     -45.102  36.436  27.996  1.00  0.00     0.063 H 
ATOM     11  H   UNL     1     -44.761  34.131  27.166  1.00  0.00     0.063 H 
ATOM     12  H   UNL     1     -46.228  31.784  26.002  1.00  0.00     0.065 H 
ATOM     13  H   UNL     1     -49.985  33.664  26.051  1.00  0.00     0.166 HD
ATOM     14  H   UNL     1     -49.330  36.161  27.132  1.00  0.00     0.065 H 
ENDROOT
BRANCH   1  15
ATOM     15  C   UNL     1     -47.413  37.860  28.140  1.00  0.00     0.043 C 
ATOM     16  H   UNL     1     -48.397  38.247  27.854  1.00  0.00     0.054 H 
ATOM     17  H   UNL     1     -47.369  37.861  29.234  1.00  0.00     0.054 H 
BRANCH  15  18
ATOM     18  N   UNL     1     -46.364  38.727  27.669  1.00  0.00    -0.347 N 
ATOM     19  O   UNL     1     -44.987  38.524  29.500  1.00  0.00    -0.268 OA
ATOM     20  C   UNL     1     -45.264  39.044  28.427  1.00  0.00     0.270 C 
ATOM     21  H   UNL     1     -46.531  39.315  26.858  1.00  0.00     0.164 HD
BRANCH  20  22
ATOM     22  C   UNL     1     -44.425  40.129  27.794  1.00  0.00     0.136 A 
ATOM     23  C   UNL     1     -43.367  40.544  28.494  1.00  0.00     0.035 A 
ATOM     24  N   UNL     1     -44.797  40.623  26.564  1.00  0.00    -0.225 NA
ATOM     25  C   UNL     1     -42.526  41.602  27.921  1.00  0.00     0.258 A 
ATOM     26  H   UNL     1     -43.086  40.150  29.462  1.00  0.00     0.071 H 
ATOM     27  C   UNL     1     -44.054  41.564  26.065  1.00  0.00     0.140 A 
ATOM     28  O   UNL     1     -41.545  41.986  28.555  1.00  0.00    -0.269 OA
ATOM     29  N   UNL     1     -42.926  42.088  26.685  1.00  0.00    -0.268 N 
ATOM     30  C   UNL     1     -44.421  42.133  24.737  1.00  0.00    -0.019 A 
ATOM     31  C   UNL     1     -42.181  43.095  26.080  1.00  0.00     0.014 A 
ATOM     32  C   UNL     1     -43.674  43.103  24.196  1.00  0.00    -0.057 A 
ATOM     33  H   UNL     1     -45.300  41.734  24.248  1.00  0.00     0.066 H 
ATOM     34  C   UNL     1     -42.516  43.602  24.888  1.00  0.00    -0.045 A 
ATOM     35  H   UNL     1     -41.310  43.458  26.621  1.00  0.00     0.082 H 
ATOM     36  H   UNL     1     -43.925  43.530  23.232  1.00  0.00     0.062 H 
ATOM     37  H   UNL     1     -41.928  44.389  24.426  1.00  0.00     0.064 H 
ENDBRANCH  20  22
ENDBRANCH  15  18
ENDBRANCH   1  15
BRANCH   6  38
ATOM     38  C   UNL     1     -49.052  31.171  25.244  1.00  0.00     0.036 C 
ATOM     39  H   UNL     1     -50.116  31.167  25.511  1.00  0.00     0.049 H 
ATOM     40  H   UNL     1     -49.012  31.265  24.151  1.00  0.00     0.049 H 
BRANCH  38  41
ATOM     41  N   UNL     1     -48.419  29.909  25.616  1.00  0.00    -0.311 NA
ATOM     42  H   UNL     1     -47.484  29.887  25.213  1.00  0.00     0.123 HD
BRANCH  41  43
ATOM     43  C   UNL     1     -49.168  28.743  25.146  1.00  0.00     0.001 C 
ATOM     44  H   UNL     1     -50.190  28.756  25.538  1.00  0.00     0.043 H 
ATOM     45  H   UNL     1     -49.232  28.753  24.052  1.00  0.00     0.043 H 
BRANCH  43  46
ATOM     46  C   UNL     1     -48.493  27.498  25.601  1.00  0.00    -0.016 C 
ATOM     47  C   UNL     1     -49.074  26.029  25.566  1.00  0.00    -0.043 C 
ATOM     48  C   UNL     1     -47.158  26.820  25.091  1.00  0.00    -0.043 C 
ATOM     49  C   UNL     1     -47.976  27.099  27.040  1.00  0.00    -0.043 C 
ATOM     50  C   UNL     1     -47.655  25.821  26.191  1.00  0.00    -0.040 C 
ATOM     51  H   UNL     1     -49.251  25.589  24.579  1.00  0.00     0.028 H 
ATOM     52  H   UNL     1     -49.935  25.822  26.211  1.00  0.00     0.028 H 
ATOM     53  H   UNL     1     -46.222  27.353  25.294  1.00  0.00     0.028 H 
ATOM     54  H   UNL     1     -47.149  26.457  24.058  1.00  0.00     0.028 H 
ATOM     55  H   UNL     1     -48.731  26.995  27.827  1.00  0.00     0.028 H 
ATOM     56  H   UNL     1     -47.121  27.659  27.434  1.00  0.00     0.028 H 
ATOM     57  H   UNL     1     -47.195  24.900  26.515  1.00  0.00     0.030 H 
ENDBRANCH  43  46
ENDBRANCH  41  43
ENDBRANCH  38  41
ENDBRANCH   6  38
TORSDOF 7
ENDMDL
MODEL 7
REMARK VINA RESULT:      -9.7      2.798      4.993
REMARK SMILES O=C(NCc1ccc2cc(CNCC34CC(C3)C4)[nH]c2c1)c1cc(=O)n2ccccc2n1
REMARK SMILES IDX 5 1 6 2 7 3 8 4 9 5 10 6 19 7 20 8 21 9 4 15 3 18 1 19 2 20
REMARK SMILES IDX 22 22 23 23 32 24 24 25 31 27 25 28 26 29 30 30 27 31 29 32
REMARK SMILES IDX 28 34 11 38 12 41 13 43 14 46 15 47 17 48 18 49 16 50
REMARK H PARENT 6 10 7 11 9 12 19 13 21 14 4 16 4 17 3 21 23 26 30 33 27 35
REMARK H PARENT 29 36 28 37 11 39 11 40 12 42 13 44 13 45 15 51 15 52 17 53
REMARK H PARENT 17 54 18 55 18 56 16 57
REMARK Flexibility Score: inf
ROOT
ATOM      1  C   UNL     1     -45.545  37.823  28.334  1.00  0.00    -0.027 A 
ATOM      2  C   UNL     1     -46.755  38.194  27.732  1.00  0.00    -0.057 A 
ATOM      3  C   UNL     1     -47.551  37.254  27.064  1.00  0.00    -0.052 A 
ATOM      4  C   UNL     1     -47.124  35.915  26.996  1.00  0.00    -0.000 A 
ATOM      5  C   UNL     1     -47.663  34.735  26.418  1.00  0.00    -0.032 A 
ATOM      6  C   UNL     1     -46.789  33.694  26.669  1.00  0.00     0.030 A 
ATOM      7  N   UNL     1     -45.737  34.216  27.381  1.00  0.00    -0.357 N 
ATOM      8  C   UNL     1     -45.916  35.564  27.595  1.00  0.00     0.046 A 
ATOM      9  C   UNL     1     -45.105  36.490  28.264  1.00  0.00    -0.033 A 
ATOM     10  H   UNL     1     -47.088  39.230  27.774  1.00  0.00     0.063 H 
ATOM     11  H   UNL     1     -48.485  37.559  26.603  1.00  0.00     0.063 H 
ATOM     12  H   UNL     1     -48.591  34.650  25.866  1.00  0.00     0.065 H 
ATOM     13  H   UNL     1     -44.937  33.692  27.704  1.00  0.00     0.166 HD
ATOM     14  H   UNL     1     -44.166  36.185  28.714  1.00  0.00     0.065 H 
ENDROOT
BRANCH   1  15
ATOM     15  C   UNL     1     -44.701  38.867  29.023  1.00  0.00     0.043 C 
ATOM     16  H   UNL     1     -45.221  39.249  29.910  1.00  0.00     0.054 H 
ATOM     17  H   UNL     1     -43.756  38.430  29.365  1.00  0.00     0.054 H 
BRANCH  15  18
ATOM     18  N   UNL     1     -44.375  39.939  28.119  1.00  0.00    -0.347 N 
ATOM     19  O   UNL     1     -42.545  40.729  29.267  1.00  0.00    -0.268 OA
ATOM     20  C   UNL     1     -43.359  40.831  28.357  1.00  0.00     0.270 C 
ATOM     21  H   UNL     1     -45.042  40.205  27.401  1.00  0.00     0.164 HD
BRANCH  20  22
ATOM     22  C   UNL     1     -43.358  41.976  27.372  1.00  0.00     0.136 A 
ATOM     23  C   UNL     1     -42.236  42.155  26.672  1.00  0.00     0.035 A 
ATOM     24  N   UNL     1     -44.486  42.757  27.261  1.00  0.00    -0.225 NA
ATOM     25  C   UNL     1     -42.186  43.260  25.707  1.00  0.00     0.258 A 
ATOM     26  H   UNL     1     -41.353  41.535  26.770  1.00  0.00     0.071 H 
ATOM     27  C   UNL     1     -44.435  43.737  26.412  1.00  0.00     0.140 A 
ATOM     28  O   UNL     1     -41.159  43.429  25.053  1.00  0.00    -0.269 OA
ATOM     29  N   UNL     1     -43.333  44.036  25.620  1.00  0.00    -0.268 N 
ATOM     30  C   UNL     1     -45.632  44.614  26.261  1.00  0.00    -0.019 A 
ATOM     31  C   UNL     1     -43.360  45.105  24.730  1.00  0.00     0.014 A 
ATOM     32  C   UNL     1     -45.610  45.632  25.393  1.00  0.00    -0.057 A 
ATOM     33  H   UNL     1     -46.495  44.391  26.876  1.00  0.00     0.066 H 
ATOM     34  C   UNL     1     -44.438  45.888  24.600  1.00  0.00    -0.045 A 
ATOM     35  H   UNL     1     -42.463  45.281  24.142  1.00  0.00     0.082 H 
ATOM     36  H   UNL     1     -46.471  46.281  25.270  1.00  0.00     0.062 H 
ATOM     37  H   UNL     1     -44.448  46.720  23.904  1.00  0.00     0.064 H 
ENDBRANCH  20  22
ENDBRANCH  15  18
ENDBRANCH   1  15
BRANCH   6  38
ATOM     38  C   UNL     1     -46.861  32.253  26.302  1.00  0.00     0.036 C 
ATOM     39  H   UNL     1     -46.720  31.605  27.177  1.00  0.00     0.049 H 
ATOM     40  H   UNL     1     -47.873  32.050  25.931  1.00  0.00     0.049 H 
BRANCH  38  41
ATOM     41  N   UNL     1     -45.911  31.914  25.246  1.00  0.00    -0.311 NA
ATOM     42  H   UNL     1     -45.038  32.404  25.428  1.00  0.00     0.123 HD
BRANCH  41  43
ATOM     43  C   UNL     1     -46.394  32.281  23.915  1.00  0.00     0.001 C 
ATOM     44  H   UNL     1     -47.195  33.025  23.985  1.00  0.00     0.043 H 
ATOM     45  H   UNL     1     -45.581  32.725  23.329  1.00  0.00     0.043 H 
BRANCH  43  46
ATOM     46  C   UNL     1     -46.916  31.074  23.221  1.00  0.00    -0.016 C 
ATOM     47  C   UNL     1     -46.421  30.475  21.844  1.00  0.00    -0.043 C 
ATOM     48  C   UNL     1     -46.953  29.565  23.692  1.00  0.00    -0.043 C 
ATOM     49  C   UNL     1     -48.363  30.782  22.656  1.00  0.00    -0.043 C 
ATOM     50  C   UNL     1     -47.568  29.492  22.253  1.00  0.00    -0.040 C 
ATOM     51  H   UNL     1     -45.404  30.068  21.818  1.00  0.00     0.028 H 
ATOM     52  H   UNL     1     -46.586  31.086  20.950  1.00  0.00     0.028 H 
ATOM     53  H   UNL     1     -47.618  29.322  24.528  1.00  0.00     0.028 H 
ATOM     54  H   UNL     1     -45.988  29.069  23.845  1.00  0.00     0.028 H 
ATOM     55  H   UNL     1     -48.715  31.422  21.840  1.00  0.00     0.028 H 
ATOM     56  H   UNL     1     -49.167  30.659  23.389  1.00  0.00     0.028 H 
ATOM     57  H   UNL     1     -47.926  28.623  21.721  1.00  0.00     0.030 H 
ENDBRANCH  43  46
ENDBRANCH  41  43
ENDBRANCH  38  41
ENDBRANCH   6  38
TORSDOF 7
ENDMDL
