MODEL 1
REMARK VINA RESULT:     -11.1      0.000      0.000
REMARK SMILES Cn1ccc(-c2cn(-c3cncc(COc4ccc5ccc(N6CC(=O)C6)nc5c4)c3)c3ncnc(N)c23)n1
REMARK SMILES IDX 9 1 10 2 11 3 12 4 13 5 31 6 8 10 6 11 7 12 38 13 32 15
REMARK SMILES IDX 36 16 33 17 35 18 34 19 5 21 2 22 3 23 39 24 4 25 1 28 37 32
REMARK SMILES IDX 14 35 15 38 16 39 17 40 30 41 18 42 29 44 19 46 28 48 20 49
REMARK SMILES IDX 22 50 21 51 23 54 24 55 27 56 25 57 26 62
REMARK H PARENT 10 7 12 8 31 9 7 14 34 20 3 26 4 27 1 29 1 30 1 31 37 33 37 34
REMARK H PARENT 14 36 14 37 17 43 30 45 18 47 20 52 21 53 24 58 24 59 27 60
REMARK H PARENT 27 61
REMARK Flexibility Score: inf
ROOT
ATOM      1  C   UNL     1     -45.736  38.429  28.084  1.00  0.00     0.066 A 
ATOM      2  C   UNL     1     -45.411  37.882  29.323  1.00  0.00     0.051 A 
ATOM      3  N   UNL     1     -45.942  36.739  29.822  1.00  0.00    -0.262 NA
ATOM      4  C   UNL     1     -46.840  36.096  29.050  1.00  0.00     0.034 A 
ATOM      5  C   UNL     1     -47.233  36.532  27.792  1.00  0.00     0.010 A 
ATOM      6  C   UNL     1     -46.675  37.730  27.319  1.00  0.00    -0.028 A 
ATOM      7  H   UNL     1     -44.713  38.346  30.011  1.00  0.00     0.086 H 
ATOM      8  H   UNL     1     -47.245  35.187  29.488  1.00  0.00     0.084 H 
ATOM      9  H   UNL     1     -46.979  38.070  26.334  1.00  0.00     0.065 H 
ENDROOT
BRANCH   1  10
ATOM     10  N   UNL     1     -45.126  39.645  27.634  1.00  0.00    -0.299 N 
ATOM     11  C   UNL     1     -44.755  41.504  26.403  1.00  0.00     0.033 A 
ATOM     12  C   UNL     1     -45.547  40.382  26.539  1.00  0.00     0.021 A 
ATOM     13  C   UNL     1     -43.771  41.458  27.429  1.00  0.00     0.071 A 
ATOM     14  H   UNL     1     -46.409  40.092  25.959  1.00  0.00     0.083 H 
ATOM     15  C   UNL     1     -44.030  40.313  28.184  1.00  0.00     0.150 A 
ATOM     16  C   UNL     1     -42.669  42.240  27.829  1.00  0.00     0.137 A 
ATOM     17  N   UNL     1     -43.309  39.914  29.253  1.00  0.00    -0.218 NA
ATOM     18  N   UNL     1     -41.960  41.875  28.913  1.00  0.00    -0.219 NA
ATOM     19  C   UNL     1     -42.307  40.750  29.549  1.00  0.00     0.120 A 
ATOM     20  H   UNL     1     -41.700  40.483  30.408  1.00  0.00     0.106 H 
BRANCH  11  21
ATOM     21  C   UNL     1     -44.921  42.555  25.394  1.00  0.00     0.095 A 
ATOM     22  N   UNL     1     -44.592  43.813  23.726  1.00  0.00    -0.275 N 
ATOM     23  C   UNL     1     -45.735  44.293  24.291  1.00  0.00     0.025 A 
ATOM     24  N   UNL     1     -44.070  42.759  24.381  1.00  0.00    -0.173 NA
ATOM     25  C   UNL     1     -45.977  43.495  25.385  1.00  0.00    -0.016 A 
ATOM     26  H   UNL     1     -46.271  45.138  23.881  1.00  0.00     0.084 H 
ATOM     27  H   UNL     1     -46.807  43.580  26.073  1.00  0.00     0.066 H 
BRANCH  22  28
ATOM     28  C   UNL     1     -43.930  44.316  22.546  1.00  0.00     0.030 C 
ATOM     29  H   UNL     1     -43.362  43.498  22.096  1.00  0.00     0.048 H 
ATOM     30  H   UNL     1     -43.256  45.131  22.826  1.00  0.00     0.048 H 
ATOM     31  H   UNL     1     -44.692  44.683  21.854  1.00  0.00     0.048 H 
ENDBRANCH  22  28
ENDBRANCH  11  21
BRANCH  16  32
ATOM     32  N   UNL     1     -42.249  43.386  27.172  1.00  0.00    -0.383 N 
ATOM     33  H   UNL     1     -41.690  43.179  26.338  1.00  0.00     0.158 HD
ATOM     34  H   UNL     1     -43.003  44.049  27.061  1.00  0.00     0.158 HD
ENDBRANCH  16  32
ENDBRANCH   1  10
BRANCH   5  35
ATOM     35  C   UNL     1     -48.262  35.761  27.008  1.00  0.00     0.115 C 
ATOM     36  H   UNL     1     -47.973  35.810  25.951  1.00  0.00     0.076 H 
ATOM     37  H   UNL     1     -49.260  36.212  27.068  1.00  0.00     0.076 H 
BRANCH  35  38
ATOM     38  O   UNL     1     -48.311  34.374  27.350  1.00  0.00    -0.489 OA
BRANCH  38  39
ATOM     39  C   UNL     1     -47.952  33.447  26.411  1.00  0.00     0.122 A 
ATOM     40  C   UNL     1     -46.790  33.761  25.707  1.00  0.00    -0.019 A 
ATOM     41  C   UNL     1     -48.620  32.255  26.124  1.00  0.00     0.007 A 
ATOM     42  C   UNL     1     -46.308  32.899  24.725  1.00  0.00    -0.049 A 
ATOM     43  H   UNL     1     -46.257  34.683  25.927  1.00  0.00     0.066 H 
ATOM     44  C   UNL     1     -48.162  31.377  25.148  1.00  0.00     0.076 A 
ATOM     45  H   UNL     1     -49.519  31.964  26.656  1.00  0.00     0.069 H 
ATOM     46  C   UNL     1     -46.991  31.708  24.443  1.00  0.00     0.001 A 
ATOM     47  H   UNL     1     -45.400  33.163  24.187  1.00  0.00     0.063 H 
ATOM     48  N   UNL     1     -48.847  30.245  24.911  1.00  0.00    -0.231 NA
ATOM     49  C   UNL     1     -46.544  30.816  23.465  1.00  0.00    -0.049 A 
ATOM     50  C   UNL     1     -48.403  29.382  23.970  1.00  0.00     0.130 A 
ATOM     51  C   UNL     1     -47.258  29.645  23.227  1.00  0.00    -0.019 A 
ATOM     52  H   UNL     1     -45.648  31.023  22.886  1.00  0.00     0.063 H 
ATOM     53  H   UNL     1     -46.920  28.958  22.460  1.00  0.00     0.066 H 
BRANCH  50  54
ATOM     54  N   UNL     1     -49.144  28.212  23.744  1.00  0.00    -0.342 N 
ATOM     55  C   UNL     1     -49.551  27.730  22.442  1.00  0.00     0.080 C 
ATOM     56  C   UNL     1     -50.327  27.771  24.442  1.00  0.00     0.080 C 
ATOM     57  C   UNL     1     -50.706  27.015  23.159  1.00  0.00     0.171 C 
ATOM     58  H   UNL     1     -48.812  27.070  21.985  1.00  0.00     0.058 H 
ATOM     59  H   UNL     1     -49.877  28.518  21.758  1.00  0.00     0.058 H 
ATOM     60  H   UNL     1     -50.100  27.136  25.300  1.00  0.00     0.058 H 
ATOM     61  H   UNL     1     -51.015  28.578  24.700  1.00  0.00     0.058 H 
ATOM     62  O   UNL     1     -51.564  26.216  22.850  1.00  0.00    -0.296 OA
ENDBRANCH  50  54
ENDBRANCH  38  39
ENDBRANCH  35  38
ENDBRANCH   5  35
TORSDOF 8
ENDMDL
MODEL 2
REMARK VINA RESULT:     -10.8      2.810     12.844
REMARK SMILES Cn1ccc(-c2cn(-c3cncc(COc4ccc5ccc(N6CC(=O)C6)nc5c4)c3)c3ncnc(N)c23)n1
REMARK SMILES IDX 9 1 10 2 11 3 12 4 13 5 31 6 8 10 6 11 7 12 38 13 32 15
REMARK SMILES IDX 36 16 33 17 35 18 34 19 5 21 2 22 3 23 39 24 4 25 1 28 37 32
REMARK SMILES IDX 14 35 15 38 16 39 17 40 30 41 18 42 29 44 19 46 28 48 20 49
REMARK SMILES IDX 22 50 21 51 23 54 24 55 27 56 25 57 26 62
REMARK H PARENT 10 7 12 8 31 9 7 14 34 20 3 26 4 27 1 29 1 30 1 31 37 33 37 34
REMARK H PARENT 14 36 14 37 17 43 30 45 18 47 20 52 21 53 24 58 24 59 27 60
REMARK H PARENT 27 61
REMARK Flexibility Score: inf
ROOT
ATOM      1  C   UNL     1     -47.922  32.444  25.359  1.00  0.00     0.066 A 
ATOM      2  C   UNL     1     -46.700  32.851  24.829  1.00  0.00     0.051 A 
ATOM      3  N   UNL     1     -46.095  34.032  25.109  1.00  0.00    -0.262 NA
ATOM      4  C   UNL     1     -46.732  34.855  25.966  1.00  0.00     0.034 A 
ATOM      5  C   UNL     1     -47.945  34.555  26.570  1.00  0.00     0.010 A 
ATOM      6  C   UNL     1     -48.548  33.332  26.240  1.00  0.00    -0.028 A 
ATOM      7  H   UNL     1     -46.134  32.256  24.121  1.00  0.00     0.086 H 
ATOM      8  H   UNL     1     -46.217  35.792  26.159  1.00  0.00     0.084 H 
ATOM      9  H   UNL     1     -49.495  33.095  26.715  1.00  0.00     0.065 H 
ENDROOT
BRANCH   1  10
ATOM     10  N   UNL     1     -48.490  31.176  25.008  1.00  0.00    -0.299 N 
ATOM     11  C   UNL     1     -48.980  28.971  25.102  1.00  0.00     0.033 A 
ATOM     12  C   UNL     1     -48.261  29.992  25.689  1.00  0.00     0.021 A 
ATOM     13  C   UNL     1     -49.663  29.522  23.982  1.00  0.00     0.071 A 
ATOM     14  H   UNL     1     -47.644  29.958  26.575  1.00  0.00     0.083 H 
ATOM     15  C   UNL     1     -49.359  30.884  23.955  1.00  0.00     0.150 A 
ATOM     16  C   UNL     1     -50.510  29.046  22.962  1.00  0.00     0.137 A 
ATOM     17  N   UNL     1     -49.817  31.758  23.034  1.00  0.00    -0.218 NA
ATOM     18  N   UNL     1     -51.002  29.909  22.056  1.00  0.00    -0.219 NA
ATOM     19  C   UNL     1     -50.630  31.193  22.135  1.00  0.00     0.120 A 
ATOM     20  H   UNL     1     -51.037  31.853  21.376  1.00  0.00     0.106 H 
BRANCH  11  21
ATOM     21  C   UNL     1     -49.037  27.582  25.568  1.00  0.00     0.095 A 
ATOM     22  N   UNL     1     -48.465  25.643  26.188  1.00  0.00    -0.275 N 
ATOM     23  C   UNL     1     -49.827  25.613  26.200  1.00  0.00     0.025 A 
ATOM     24  N   UNL     1     -47.955  26.827  25.800  1.00  0.00    -0.173 NA
ATOM     25  C   UNL     1     -50.233  26.864  25.798  1.00  0.00    -0.016 A 
ATOM     26  H   UNL     1     -50.383  24.732  26.489  1.00  0.00     0.084 H 
ATOM     27  H   UNL     1     -51.252  27.208  25.693  1.00  0.00     0.066 H 
BRANCH  22  28
ATOM     28  C   UNL     1     -47.570  24.565  26.538  1.00  0.00     0.030 C 
ATOM     29  H   UNL     1     -46.562  24.973  26.636  1.00  0.00     0.048 H 
ATOM     30  H   UNL     1     -47.592  23.805  25.753  1.00  0.00     0.048 H 
ATOM     31  H   UNL     1     -47.905  24.134  27.485  1.00  0.00     0.048 H 
ENDBRANCH  22  28
ENDBRANCH  11  21
BRANCH  16  32
ATOM     32  N   UNL     1     -50.883  27.718  22.817  1.00  0.00    -0.383 N 
ATOM     33  H   UNL     1     -51.006  27.243  23.716  1.00  0.00     0.158 HD
ATOM     34  H   UNL     1     -51.626  27.612  22.141  1.00  0.00     0.158 HD
ENDBRANCH  16  32
ENDBRANCH   1  10
BRANCH   5  35
ATOM     35  C   UNL     1     -48.597  35.547  27.498  1.00  0.00     0.115 C 
ATOM     36  H   UNL     1     -48.205  35.360  28.505  1.00  0.00     0.076 H 
ATOM     37  H   UNL     1     -49.683  35.407  27.566  1.00  0.00     0.076 H 
BRANCH  35  38
ATOM     38  O   UNL     1     -48.278  36.906  27.187  1.00  0.00    -0.489 OA
BRANCH  38  39
ATOM     39  C   UNL     1     -47.190  37.483  27.779  1.00  0.00     0.122 A 
ATOM     40  C   UNL     1     -46.810  36.894  28.984  1.00  0.00    -0.019 A 
ATOM     41  C   UNL     1     -46.451  38.561  27.286  1.00  0.00     0.007 A 
ATOM     42  C   UNL     1     -45.713  37.381  29.691  1.00  0.00    -0.049 A 
ATOM     43  H   UNL     1     -47.373  36.050  29.375  1.00  0.00     0.066 H 
ATOM     44  C   UNL     1     -45.352  39.068  27.970  1.00  0.00     0.076 A 
ATOM     45  H   UNL     1     -46.701  39.040  26.346  1.00  0.00     0.069 H 
ATOM     46  C   UNL     1     -44.983  38.467  29.187  1.00  0.00     0.001 A 
ATOM     47  H   UNL     1     -45.434  36.908  30.629  1.00  0.00     0.063 H 
ATOM     48  N   UNL     1     -44.679  40.110  27.451  1.00  0.00    -0.231 NA
ATOM     49  C   UNL     1     -43.877  38.988  29.862  1.00  0.00    -0.049 A 
ATOM     50  C   UNL     1     -43.605  40.602  28.106  1.00  0.00     0.130 A 
ATOM     51  C   UNL     1     -43.185  40.065  29.317  1.00  0.00    -0.019 A 
ATOM     52  H   UNL     1     -43.549  38.567  30.809  1.00  0.00     0.063 H 
ATOM     53  H   UNL     1     -42.334  40.479  29.846  1.00  0.00     0.066 H 
BRANCH  50  54
ATOM     54  N   UNL     1     -42.928  41.692  27.539  1.00  0.00    -0.342 N 
ATOM     55  C   UNL     1     -43.497  42.609  26.575  1.00  0.00     0.080 C 
ATOM     56  C   UNL     1     -41.593  41.711  26.990  1.00  0.00     0.080 C 
ATOM     57  C   UNL     1     -42.060  42.873  26.099  1.00  0.00     0.171 C 
ATOM     58  H   UNL     1     -43.992  43.461  27.043  1.00  0.00     0.058 H 
ATOM     59  H   UNL     1     -44.128  42.128  25.823  1.00  0.00     0.058 H 
ATOM     60  H   UNL     1     -40.835  41.974  27.729  1.00  0.00     0.058 H 
ATOM     61  H   UNL     1     -41.330  40.807  26.437  1.00  0.00     0.058 H 
ATOM     62  O   UNL     1     -41.522  43.645  25.336  1.00  0.00    -0.296 OA
ENDBRANCH  50  54
ENDBRANCH  38  39
ENDBRANCH  35  38
ENDBRANCH   5  35
TORSDOF 8
ENDMDL
MODEL 3
REMARK VINA RESULT:     -10.7      1.584      2.468
REMARK SMILES Cn1ccc(-c2cn(-c3cncc(COc4ccc5ccc(N6CC(=O)C6)nc5c4)c3)c3ncnc(N)c23)n1
REMARK SMILES IDX 9 1 10 2 11 3 12 4 13 5 31 6 8 10 6 11 7 12 38 13 32 15
REMARK SMILES IDX 36 16 33 17 35 18 34 19 5 21 2 22 3 23 39 24 4 25 1 28 37 32
REMARK SMILES IDX 14 35 15 38 16 39 17 40 30 41 18 42 29 44 19 46 28 48 20 49
REMARK SMILES IDX 22 50 21 51 23 54 24 55 27 56 25 57 26 62
REMARK H PARENT 10 7 12 8 31 9 7 14 34 20 3 26 4 27 1 29 1 30 1 31 37 33 37 34
REMARK H PARENT 14 36 14 37 17 43 30 45 18 47 20 52 21 53 24 58 24 59 27 60
REMARK H PARENT 27 61
REMARK Flexibility Score: inf
ROOT
ATOM      1  C   UNL     1     -46.076  38.381  27.382  1.00  0.00     0.066 A 
ATOM      2  C   UNL     1     -45.300  37.909  28.439  1.00  0.00     0.051 A 
ATOM      3  N   UNL     1     -45.411  36.672  28.981  1.00  0.00    -0.262 NA
ATOM      4  C   UNL     1     -46.335  35.851  28.444  1.00  0.00     0.034 A 
ATOM      5  C   UNL     1     -47.156  36.200  27.381  1.00  0.00     0.010 A 
ATOM      6  C   UNL     1     -47.025  37.497  26.860  1.00  0.00    -0.028 A 
ATOM      7  H   UNL     1     -44.548  38.511  28.938  1.00  0.00     0.086 H 
ATOM      8  H   UNL     1     -46.395  34.871  28.910  1.00  0.00     0.084 H 
ATOM      9  H   UNL     1     -47.664  37.770  26.026  1.00  0.00     0.065 H 
ENDROOT
BRANCH   1  10
ATOM     10  N   UNL     1     -45.892  39.707  26.871  1.00  0.00    -0.299 N 
ATOM     11  C   UNL     1     -44.871  41.513  25.974  1.00  0.00     0.033 A 
ATOM     12  C   UNL     1     -44.687  40.220  26.419  1.00  0.00     0.021 A 
ATOM     13  C   UNL     1     -46.238  41.846  26.185  1.00  0.00     0.071 A 
ATOM     14  H   UNL     1     -43.790  39.621  26.396  1.00  0.00     0.083 H 
ATOM     15  C   UNL     1     -46.849  40.713  26.722  1.00  0.00     0.150 A 
ATOM     16  C   UNL     1     -47.058  42.976  25.997  1.00  0.00     0.137 A 
ATOM     17  N   UNL     1     -48.152  40.629  27.065  1.00  0.00    -0.218 NA
ATOM     18  N   UNL     1     -48.366  42.899  26.302  1.00  0.00    -0.219 NA
ATOM     19  C   UNL     1     -48.832  41.754  26.817  1.00  0.00     0.120 A 
ATOM     20  H   UNL     1     -49.888  41.739  27.063  1.00  0.00     0.106 H 
BRANCH  11  21
ATOM     21  C   UNL     1     -43.841  42.370  25.376  1.00  0.00     0.095 A 
ATOM     22  N   UNL     1     -42.743  43.525  23.986  1.00  0.00    -0.275 N 
ATOM     23  C   UNL     1     -41.999  43.570  25.127  1.00  0.00     0.025 A 
ATOM     24  N   UNL     1     -43.868  42.794  24.107  1.00  0.00    -0.173 NA
ATOM     25  C   UNL     1     -42.687  42.824  26.055  1.00  0.00    -0.016 A 
ATOM     26  H   UNL     1     -41.067  44.117  25.187  1.00  0.00     0.084 H 
ATOM     27  H   UNL     1     -42.395  42.642  27.079  1.00  0.00     0.066 H 
BRANCH  22  28
ATOM     28  C   UNL     1     -42.440  44.160  22.726  1.00  0.00     0.030 C 
ATOM     29  H   UNL     1     -41.919  45.099  22.931  1.00  0.00     0.048 H 
ATOM     30  H   UNL     1     -43.370  44.358  22.186  1.00  0.00     0.048 H 
ATOM     31  H   UNL     1     -41.806  43.487  22.145  1.00  0.00     0.048 H 
ENDBRANCH  22  28
ENDBRANCH  11  21
BRANCH  16  32
ATOM     32  N   UNL     1     -46.608  44.193  25.511  1.00  0.00    -0.383 N 
ATOM     33  H   UNL     1     -46.634  44.934  26.218  1.00  0.00     0.158 HD
ATOM     34  H   UNL     1     -45.747  44.091  24.991  1.00  0.00     0.158 HD
ENDBRANCH  16  32
ENDBRANCH   1  10
BRANCH   5  35
ATOM     35  C   UNL     1     -48.180  35.226  26.860  1.00  0.00     0.115 C 
ATOM     36  H   UNL     1     -48.166  35.290  25.765  1.00  0.00     0.076 H 
ATOM     37  H   UNL     1     -49.202  35.488  27.164  1.00  0.00     0.076 H 
BRANCH  35  38
ATOM     38  O   UNL     1     -47.885  33.866  27.189  1.00  0.00    -0.489 OA
BRANCH  38  39
ATOM     39  C   UNL     1     -47.632  32.981  26.179  1.00  0.00     0.122 A 
ATOM     40  C   UNL     1     -46.490  33.269  25.433  1.00  0.00    -0.019 A 
ATOM     41  C   UNL     1     -48.387  31.850  25.858  1.00  0.00     0.007 A 
ATOM     42  C   UNL     1     -46.112  32.443  24.376  1.00  0.00    -0.049 A 
ATOM     43  H   UNL     1     -45.890  34.142  25.678  1.00  0.00     0.066 H 
ATOM     44  C   UNL     1     -48.034  31.009  24.809  1.00  0.00     0.076 A 
ATOM     45  H   UNL     1     -49.274  31.580  26.420  1.00  0.00     0.069 H 
ATOM     46  C   UNL     1     -46.881  31.314  24.061  1.00  0.00     0.001 A 
ATOM     47  H   UNL     1     -45.218  32.686  23.807  1.00  0.00     0.063 H 
ATOM     48  N   UNL     1     -48.799  29.936  24.542  1.00  0.00    -0.231 NA
ATOM     49  C   UNL     1     -46.541  30.460  23.010  1.00  0.00    -0.049 A 
ATOM     50  C   UNL     1     -48.458  29.110  23.529  1.00  0.00     0.130 A 
ATOM     51  C   UNL     1     -47.337  29.351  22.742  1.00  0.00    -0.019 A 
ATOM     52  H   UNL     1     -45.665  30.650  22.397  1.00  0.00     0.063 H 
ATOM     53  H   UNL     1     -47.082  28.694  21.919  1.00  0.00     0.066 H 
BRANCH  50  54
ATOM     54  N   UNL     1     -49.280  28.002  23.274  1.00  0.00    -0.342 N 
ATOM     55  C   UNL     1     -50.040  27.797  22.060  1.00  0.00     0.080 C 
ATOM     56  C   UNL     1     -50.251  27.405  24.159  1.00  0.00     0.080 C 
ATOM     57  C   UNL     1     -50.991  26.929  22.899  1.00  0.00     0.171 C 
ATOM     58  H   UNL     1     -49.477  27.260  21.295  1.00  0.00     0.058 H 
ATOM     59  H   UNL     1     -50.503  28.706  21.668  1.00  0.00     0.058 H 
ATOM     60  H   UNL     1     -49.830  26.608  24.774  1.00  0.00     0.058 H 
ATOM     61  H   UNL     1     -50.811  28.129  24.754  1.00  0.00     0.058 H 
ATOM     62  O   UNL     1     -51.932  26.200  22.674  1.00  0.00    -0.296 OA
ENDBRANCH  50  54
ENDBRANCH  38  39
ENDBRANCH  35  38
ENDBRANCH   5  35
TORSDOF 8
ENDMDL
MODEL 4
REMARK VINA RESULT:     -10.7      2.911     12.693
REMARK SMILES Cn1ccc(-c2cn(-c3cncc(COc4ccc5ccc(N6CC(=O)C6)nc5c4)c3)c3ncnc(N)c23)n1
REMARK SMILES IDX 9 1 10 2 11 3 12 4 13 5 31 6 8 10 6 11 7 12 38 13 32 15
REMARK SMILES IDX 36 16 33 17 35 18 34 19 5 21 2 22 3 23 39 24 4 25 1 28 37 32
REMARK SMILES IDX 14 35 15 38 16 39 17 40 30 41 18 42 29 44 19 46 28 48 20 49
REMARK SMILES IDX 22 50 21 51 23 54 24 55 27 56 25 57 26 62
REMARK H PARENT 10 7 12 8 31 9 7 14 34 20 3 26 4 27 1 29 1 30 1 31 37 33 37 34
REMARK H PARENT 14 36 14 37 17 43 30 45 18 47 20 52 21 53 24 58 24 59 27 60
REMARK H PARENT 27 61
REMARK Flexibility Score: inf
ROOT
ATOM      1  C   UNL     1     -48.219  33.300  26.181  1.00  0.00     0.066 A 
ATOM      2  C   UNL     1     -49.461  33.867  26.461  1.00  0.00     0.051 A 
ATOM      3  N   UNL     1     -49.639  35.064  27.071  1.00  0.00    -0.262 NA
ATOM      4  C   UNL     1     -48.528  35.743  27.419  1.00  0.00     0.034 A 
ATOM      5  C   UNL     1     -47.237  35.290  27.180  1.00  0.00     0.010 A 
ATOM      6  C   UNL     1     -47.094  34.037  26.564  1.00  0.00    -0.028 A 
ATOM      7  H   UNL     1     -50.401  33.379  26.230  1.00  0.00     0.086 H 
ATOM      8  H   UNL     1     -48.714  36.695  27.909  1.00  0.00     0.084 H 
ATOM      9  H   UNL     1     -46.086  33.684  26.373  1.00  0.00     0.065 H 
ENDROOT
BRANCH   1  10
ATOM     10  N   UNL     1     -48.123  32.026  25.532  1.00  0.00    -0.299 N 
ATOM     11  C   UNL     1     -48.519  29.852  25.053  1.00  0.00     0.033 A 
ATOM     12  C   UNL     1     -48.831  30.894  25.902  1.00  0.00     0.021 A 
ATOM     13  C   UNL     1     -47.547  30.331  24.131  1.00  0.00     0.071 A 
ATOM     14  H   UNL     1     -49.547  30.914  26.710  1.00  0.00     0.083 H 
ATOM     15  C   UNL     1     -47.332  31.676  24.436  1.00  0.00     0.150 A 
ATOM     16  C   UNL     1     -46.799  29.800  23.062  1.00  0.00     0.137 A 
ATOM     17  N   UNL     1     -46.472  32.486  23.783  1.00  0.00    -0.218 NA
ATOM     18  N   UNL     1     -45.963  30.602  22.379  1.00  0.00    -0.219 NA
ATOM     19  C   UNL     1     -45.841  31.875  22.775  1.00  0.00     0.120 A 
ATOM     20  H   UNL     1     -45.144  32.484  22.207  1.00  0.00     0.106 H 
BRANCH  11  21
ATOM     21  C   UNL     1     -49.104  28.508  25.092  1.00  0.00     0.095 A 
ATOM     22  N   UNL     1     -49.422  26.464  25.533  1.00  0.00    -0.275 N 
ATOM     23  C   UNL     1     -50.436  26.789  24.682  1.00  0.00     0.025 A 
ATOM     24  N   UNL     1     -48.590  27.490  25.795  1.00  0.00    -0.173 NA
ATOM     25  C   UNL     1     -50.256  28.117  24.373  1.00  0.00    -0.016 A 
ATOM     26  H   UNL     1     -51.184  26.071  24.375  1.00  0.00     0.084 H 
ATOM     27  H   UNL     1     -50.878  28.716  23.723  1.00  0.00     0.066 H 
BRANCH  22  28
ATOM     28  C   UNL     1     -49.179  25.179  26.143  1.00  0.00     0.030 C 
ATOM     29  H   UNL     1     -49.606  24.406  25.499  1.00  0.00     0.048 H 
ATOM     30  H   UNL     1     -49.651  25.149  27.128  1.00  0.00     0.048 H 
ATOM     31  H   UNL     1     -48.099  25.044  26.241  1.00  0.00     0.048 H 
ENDBRANCH  22  28
ENDBRANCH  11  21
BRANCH  16  32
ATOM     32  N   UNL     1     -46.861  28.478  22.650  1.00  0.00    -0.383 N 
ATOM     33  H   UNL     1     -47.573  28.322  21.930  1.00  0.00     0.158 HD
ATOM     34  H   UNL     1     -45.941  28.101  22.470  1.00  0.00     0.158 HD
ENDBRANCH  16  32
ENDBRANCH   1  10
BRANCH   5  35
ATOM     35  C   UNL     1     -46.052  36.105  27.626  1.00  0.00     0.115 C 
ATOM     36  H   UNL     1     -45.492  36.389  26.726  1.00  0.00     0.076 H 
ATOM     37  H   UNL     1     -45.354  35.528  28.245  1.00  0.00     0.076 H 
BRANCH  35  38
ATOM     38  O   UNL     1     -46.417  37.325  28.277  1.00  0.00    -0.489 OA
BRANCH  38  39
ATOM     39  C   UNL     1     -45.449  38.256  28.529  1.00  0.00     0.122 A 
ATOM     40  C   UNL     1     -44.620  37.948  29.607  1.00  0.00    -0.019 A 
ATOM     41  C   UNL     1     -45.226  39.435  27.815  1.00  0.00     0.007 A 
ATOM     42  C   UNL     1     -43.587  38.809  29.970  1.00  0.00    -0.049 A 
ATOM     43  H   UNL     1     -44.780  37.029  30.166  1.00  0.00     0.066 H 
ATOM     44  C   UNL     1     -44.203  40.314  28.156  1.00  0.00     0.076 A 
ATOM     45  H   UNL     1     -45.836  39.708  26.961  1.00  0.00     0.069 H 
ATOM     46  C   UNL     1     -43.377  39.992  29.248  1.00  0.00     0.001 A 
ATOM     47  H   UNL     1     -42.953  38.550  30.814  1.00  0.00     0.063 H 
ATOM     48  N   UNL     1     -44.036  41.437  27.435  1.00  0.00    -0.231 NA
ATOM     49  C   UNL     1     -42.355  40.885  29.577  1.00  0.00    -0.049 A 
ATOM     50  C   UNL     1     -43.039  42.291  27.755  1.00  0.00     0.130 A 
ATOM     51  C   UNL     1     -42.187  42.044  28.825  1.00  0.00    -0.019 A 
ATOM     52  H   UNL     1     -41.690  40.690  30.414  1.00  0.00     0.063 H 
ATOM     53  H   UNL     1     -41.402  42.744  29.087  1.00  0.00     0.066 H 
BRANCH  50  54
ATOM     54  N   UNL     1     -42.894  43.455  26.986  1.00  0.00    -0.342 N 
ATOM     55  C   UNL     1     -43.923  44.455  26.797  1.00  0.00     0.080 C 
ATOM     56  C   UNL     1     -42.330  43.571  25.662  1.00  0.00     0.080 C 
ATOM     57  C   UNL     1     -43.220  44.810  25.476  1.00  0.00     0.171 C 
ATOM     58  H   UNL     1     -43.897  45.236  27.558  1.00  0.00     0.058 H 
ATOM     59  H   UNL     1     -44.925  44.041  26.665  1.00  0.00     0.058 H 
ATOM     60  H   UNL     1     -41.258  43.773  25.675  1.00  0.00     0.058 H 
ATOM     61  H   UNL     1     -42.583  42.741  25.000  1.00  0.00     0.058 H 
ATOM     62  O   UNL     1     -43.329  45.676  24.636  1.00  0.00    -0.296 OA
ENDBRANCH  50  54
ENDBRANCH  38  39
ENDBRANCH  35  38
ENDBRANCH   5  35
TORSDOF 8
ENDMDL
MODEL 5
REMARK VINA RESULT:     -10.6      2.042      2.569
REMARK SMILES Cn1ccc(-c2cn(-c3cncc(COc4ccc5ccc(N6CC(=O)C6)nc5c4)c3)c3ncnc(N)c23)n1
REMARK SMILES IDX 9 1 10 2 11 3 12 4 13 5 31 6 8 10 6 11 7 12 38 13 32 15
REMARK SMILES IDX 36 16 33 17 35 18 34 19 5 21 2 22 3 23 39 24 4 25 1 28 37 32
REMARK SMILES IDX 14 35 15 38 16 39 17 40 30 41 18 42 29 44 19 46 28 48 20 49
REMARK SMILES IDX 22 50 21 51 23 54 24 55 27 56 25 57 26 62
REMARK H PARENT 10 7 12 8 31 9 7 14 34 20 3 26 4 27 1 29 1 30 1 31 37 33 37 34
REMARK H PARENT 14 36 14 37 17 43 30 45 18 47 20 52 21 53 24 58 24 59 27 60
REMARK H PARENT 27 61
REMARK Flexibility Score: inf
ROOT
ATOM      1  C   UNL     1     -46.947  38.133  27.409  1.00  0.00     0.066 A 
ATOM      2  C   UNL     1     -48.208  38.379  27.949  1.00  0.00     0.051 A 
ATOM      3  N   UNL     1     -49.227  37.486  27.963  1.00  0.00    -0.262 NA
ATOM      4  C   UNL     1     -48.984  36.276  27.418  1.00  0.00     0.034 A 
ATOM      5  C   UNL     1     -47.766  35.907  26.865  1.00  0.00     0.010 A 
ATOM      6  C   UNL     1     -46.742  36.867  26.852  1.00  0.00    -0.028 A 
ATOM      7  H   UNL     1     -48.488  39.330  28.388  1.00  0.00     0.086 H 
ATOM      8  H   UNL     1     -49.828  35.591  27.445  1.00  0.00     0.084 H 
ATOM      9  H   UNL     1     -45.789  36.577  26.423  1.00  0.00     0.065 H 
ENDROOT
BRANCH   1  10
ATOM     10  N   UNL     1     -45.926  39.138  27.437  1.00  0.00    -0.299 N 
ATOM     11  C   UNL     1     -44.719  40.953  26.840  1.00  0.00     0.033 A 
ATOM     12  C   UNL     1     -45.786  40.148  26.500  1.00  0.00     0.021 A 
ATOM     13  C   UNL     1     -44.135  40.411  28.018  1.00  0.00     0.071 A 
ATOM     14  H   UNL     1     -46.482  40.262  25.681  1.00  0.00     0.083 H 
ATOM     15  C   UNL     1     -44.906  39.304  28.376  1.00  0.00     0.150 A 
ATOM     16  C   UNL     1     -43.035  40.706  28.847  1.00  0.00     0.137 A 
ATOM     17  N   UNL     1     -44.671  38.514  29.445  1.00  0.00    -0.218 NA
ATOM     18  N   UNL     1     -42.806  39.949  29.935  1.00  0.00    -0.219 NA
ATOM     19  C   UNL     1     -43.617  38.909  30.166  1.00  0.00     0.120 A 
ATOM     20  H   UNL     1     -43.389  38.315  31.046  1.00  0.00     0.106 H 
BRANCH  11  21
ATOM     21  C   UNL     1     -44.286  42.156  26.121  1.00  0.00     0.095 A 
ATOM     22  N   UNL     1     -43.488  43.437  24.639  1.00  0.00    -0.275 N 
ATOM     23  C   UNL     1     -43.841  44.274  25.655  1.00  0.00     0.025 A 
ATOM     24  N   UNL     1     -43.741  42.140  24.898  1.00  0.00    -0.173 NA
ATOM     25  C   UNL     1     -44.364  43.469  26.641  1.00  0.00    -0.016 A 
ATOM     26  H   UNL     1     -43.698  45.344  25.597  1.00  0.00     0.084 H 
ATOM     27  H   UNL     1     -44.752  43.791  27.596  1.00  0.00     0.066 H 
BRANCH  22  28
ATOM     28  C   UNL     1     -42.896  43.807  23.376  1.00  0.00     0.030 C 
ATOM     29  H   UNL     1     -41.977  43.231  23.245  1.00  0.00     0.048 H 
ATOM     30  H   UNL     1     -42.670  44.877  23.380  1.00  0.00     0.048 H 
ATOM     31  H   UNL     1     -43.611  43.579  22.581  1.00  0.00     0.048 H 
ENDBRANCH  22  28
ENDBRANCH  11  21
BRANCH  16  32
ATOM     32  N   UNL     1     -42.145  41.744  28.618  1.00  0.00    -0.383 N 
ATOM     33  H   UNL     1     -42.257  42.161  27.689  1.00  0.00     0.158 HD
ATOM     34  H   UNL     1     -42.106  42.381  29.402  1.00  0.00     0.158 HD
ENDBRANCH  16  32
ENDBRANCH   1  10
BRANCH   5  35
ATOM     35  C   UNL     1     -47.592  34.540  26.256  1.00  0.00     0.115 C 
ATOM     36  H   UNL     1     -46.576  34.201  26.495  1.00  0.00     0.076 H 
ATOM     37  H   UNL     1     -47.654  34.557  25.161  1.00  0.00     0.076 H 
BRANCH  35  38
ATOM     38  O   UNL     1     -48.483  33.562  26.799  1.00  0.00    -0.489 OA
BRANCH  38  39
ATOM     39  C   UNL     1     -48.796  32.463  26.049  1.00  0.00     0.122 A 
ATOM     40  C   UNL     1     -49.582  32.734  24.930  1.00  0.00    -0.019 A 
ATOM     41  C   UNL     1     -48.398  31.148  26.298  1.00  0.00     0.007 A 
ATOM     42  C   UNL     1     -49.969  31.705  24.075  1.00  0.00    -0.049 A 
ATOM     43  H   UNL     1     -49.893  33.755  24.722  1.00  0.00     0.066 H 
ATOM     44  C   UNL     1     -48.770  30.100  25.463  1.00  0.00     0.076 A 
ATOM     45  H   UNL     1     -47.775  30.892  27.148  1.00  0.00     0.069 H 
ATOM     46  C   UNL     1     -49.566  30.388  24.339  1.00  0.00     0.001 A 
ATOM     47  H   UNL     1     -50.583  31.937  23.208  1.00  0.00     0.063 H 
ATOM     48  N   UNL     1     -48.360  28.853  25.752  1.00  0.00    -0.231 NA
ATOM     49  C   UNL     1     -49.932  29.325  23.510  1.00  0.00    -0.049 A 
ATOM     50  C   UNL     1     -48.711  27.831  24.940  1.00  0.00     0.130 A 
ATOM     51  C   UNL     1     -49.502  28.037  23.815  1.00  0.00    -0.019 A 
ATOM     52  H   UNL     1     -50.550  29.488  22.631  1.00  0.00     0.063 H 
ATOM     53  H   UNL     1     -49.796  27.209  23.180  1.00  0.00     0.066 H 
BRANCH  50  54
ATOM     54  N   UNL     1     -48.271  26.542  25.272  1.00  0.00    -0.342 N 
ATOM     55  C   UNL     1     -48.897  25.680  26.252  1.00  0.00     0.080 C 
ATOM     56  C   UNL     1     -46.919  26.116  25.544  1.00  0.00     0.080 C 
ATOM     57  C   UNL     1     -47.527  25.003  26.412  1.00  0.00     0.171 C 
ATOM     58  H   UNL     1     -49.677  25.050  25.822  1.00  0.00     0.058 H 
ATOM     59  H   UNL     1     -49.238  26.202  27.149  1.00  0.00     0.058 H 
ATOM     60  H   UNL     1     -46.396  25.769  24.651  1.00  0.00     0.058 H 
ATOM     61  H   UNL     1     -46.331  26.844  26.106  1.00  0.00     0.058 H 
ATOM     62  O   UNL     1     -47.099  24.027  26.989  1.00  0.00    -0.296 OA
ENDBRANCH  50  54
ENDBRANCH  38  39
ENDBRANCH  35  38
ENDBRANCH   5  35
TORSDOF 8
ENDMDL
MODEL 6
REMARK VINA RESULT:     -10.2      2.766     12.950
REMARK SMILES Cn1ccc(-c2cn(-c3cncc(COc4ccc5ccc(N6CC(=O)C6)nc5c4)c3)c3ncnc(N)c23)n1
REMARK SMILES IDX 9 1 10 2 11 3 12 4 13 5 31 6 8 10 6 11 7 12 38 13 32 15
REMARK SMILES IDX 36 16 33 17 35 18 34 19 5 21 2 22 3 23 39 24 4 25 1 28 37 32
REMARK SMILES IDX 14 35 15 38 16 39 17 40 30 41 18 42 29 44 19 46 28 48 20 49
REMARK SMILES IDX 22 50 21 51 23 54 24 55 27 56 25 57 26 62
REMARK H PARENT 10 7 12 8 31 9 7 14 34 20 3 26 4 27 1 29 1 30 1 31 37 33 37 34
REMARK H PARENT 14 36 14 37 17 43 30 45 18 47 20 52 21 53 24 58 24 59 27 60
REMARK H PARENT 27 61
REMARK Flexibility Score: inf
ROOT
ATOM      1  C   UNL     1     -47.756  32.082  25.142  1.00  0.00     0.066 A 
ATOM      2  C   UNL     1     -46.446  32.445  24.837  1.00  0.00     0.051 A 
ATOM      3  N   UNL     1     -45.869  33.618  25.197  1.00  0.00    -0.262 NA
ATOM      4  C   UNL     1     -46.628  34.478  25.905  1.00  0.00     0.034 A 
ATOM      5  C   UNL     1     -47.939  34.224  26.283  1.00  0.00     0.010 A 
ATOM      6  C   UNL     1     -48.507  33.007  25.875  1.00  0.00    -0.028 A 
ATOM      7  H   UNL     1     -45.778  31.818  24.257  1.00  0.00     0.086 H 
ATOM      8  H   UNL     1     -46.130  35.407  26.170  1.00  0.00     0.084 H 
ATOM      9  H   UNL     1     -49.530  32.806  26.173  1.00  0.00     0.065 H 
ENDROOT
BRANCH   1  10
ATOM     10  N   UNL     1     -48.286  30.819  24.721  1.00  0.00    -0.299 N 
ATOM     11  C   UNL     1     -49.175  28.744  24.840  1.00  0.00     0.033 A 
ATOM     12  C   UNL     1     -48.696  29.809  25.575  1.00  0.00     0.021 A 
ATOM     13  C   UNL     1     -49.030  29.077  23.465  1.00  0.00     0.071 A 
ATOM     14  H   UNL     1     -48.669  29.929  26.648  1.00  0.00     0.083 H 
ATOM     15  C   UNL     1     -48.496  30.366  23.417  1.00  0.00     0.150 A 
ATOM     16  C   UNL     1     -49.275  28.451  22.227  1.00  0.00     0.137 A 
ATOM     17  N   UNL     1     -48.208  31.039  22.283  1.00  0.00    -0.218 NA
ATOM     18  N   UNL     1     -49.026  29.121  21.087  1.00  0.00    -0.219 NA
ATOM     19  C   UNL     1     -48.508  30.352  21.176  1.00  0.00     0.120 A 
ATOM     20  H   UNL     1     -48.306  30.851  20.234  1.00  0.00     0.106 H 
BRANCH  11  21
ATOM     21  C   UNL     1     -49.746  27.509  25.388  1.00  0.00     0.095 A 
ATOM     22  N   UNL     1     -51.086  26.128  26.266  1.00  0.00    -0.275 N 
ATOM     23  C   UNL     1     -49.937  25.418  26.087  1.00  0.00     0.025 A 
ATOM     24  N   UNL     1     -50.997  27.408  25.856  1.00  0.00    -0.173 NA
ATOM     25  C   UNL     1     -49.039  26.292  25.518  1.00  0.00    -0.016 A 
ATOM     26  H   UNL     1     -49.852  24.377  26.368  1.00  0.00     0.084 H 
ATOM     27  H   UNL     1     -48.021  26.072  25.232  1.00  0.00     0.066 H 
BRANCH  22  28
ATOM     28  C   UNL     1     -52.324  25.647  26.829  1.00  0.00     0.030 C 
ATOM     29  H   UNL     1     -52.781  24.957  26.116  1.00  0.00     0.048 H 
ATOM     30  H   UNL     1     -52.993  26.492  27.013  1.00  0.00     0.048 H 
ATOM     31  H   UNL     1     -52.100  25.137  27.769  1.00  0.00     0.048 H 
ENDBRANCH  22  28
ENDBRANCH  11  21
BRANCH  16  32
ATOM     32  N   UNL     1     -49.767  27.162  22.091  1.00  0.00    -0.383 N 
ATOM     33  H   UNL     1     -50.104  26.967  21.143  1.00  0.00     0.158 HD
ATOM     34  H   UNL     1     -49.144  26.480  22.501  1.00  0.00     0.158 HD
ENDBRANCH  16  32
ENDBRANCH   1  10
BRANCH   5  35
ATOM     35  C   UNL     1     -48.721  35.255  27.055  1.00  0.00     0.115 C 
ATOM     36  H   UNL     1     -49.404  34.716  27.723  1.00  0.00     0.076 H 
ATOM     37  H   UNL     1     -49.357  35.871  26.407  1.00  0.00     0.076 H 
BRANCH  35  38
ATOM     38  O   UNL     1     -47.901  36.077  27.890  1.00  0.00    -0.489 OA
BRANCH  38  39
ATOM     39  C   UNL     1     -47.785  37.407  27.601  1.00  0.00     0.122 A 
ATOM     40  C   UNL     1     -48.932  38.156  27.863  1.00  0.00    -0.019 A 
ATOM     41  C   UNL     1     -46.652  38.052  27.099  1.00  0.00     0.007 A 
ATOM     42  C   UNL     1     -48.949  39.527  27.619  1.00  0.00    -0.049 A 
ATOM     43  H   UNL     1     -49.818  37.667  28.261  1.00  0.00     0.066 H 
ATOM     44  C   UNL     1     -46.641  39.419  26.845  1.00  0.00     0.076 A 
ATOM     45  H   UNL     1     -45.734  37.512  26.894  1.00  0.00     0.069 H 
ATOM     46  C   UNL     1     -47.807  40.161  27.110  1.00  0.00     0.001 A 
ATOM     47  H   UNL     1     -49.854  40.093  27.829  1.00  0.00     0.063 H 
ATOM     48  N   UNL     1     -45.523  39.987  26.359  1.00  0.00    -0.231 NA
ATOM     49  C   UNL     1     -47.779  41.533  26.849  1.00  0.00    -0.049 A 
ATOM     50  C   UNL     1     -45.502  41.316  26.118  1.00  0.00     0.130 A 
ATOM     51  C   UNL     1     -46.617  42.113  26.348  1.00  0.00    -0.019 A 
ATOM     52  H   UNL     1     -48.651  42.154  27.030  1.00  0.00     0.063 H 
ATOM     53  H   UNL     1     -46.598  43.175  26.133  1.00  0.00     0.066 H 
BRANCH  50  54
ATOM     54  N   UNL     1     -44.322  41.876  25.606  1.00  0.00    -0.342 N 
ATOM     55  C   UNL     1     -43.241  42.404  26.410  1.00  0.00     0.080 C 
ATOM     56  C   UNL     1     -44.195  42.838  24.538  1.00  0.00     0.080 C 
ATOM     57  C   UNL     1     -42.887  43.289  25.205  1.00  0.00     0.171 C 
ATOM     58  H   UNL     1     -42.495  41.649  26.664  1.00  0.00     0.058 H 
ATOM     59  H   UNL     1     -43.572  42.965  27.287  1.00  0.00     0.058 H 
ATOM     60  H   UNL     1     -44.075  42.370  23.559  1.00  0.00     0.058 H 
ATOM     61  H   UNL     1     -44.976  43.600  24.534  1.00  0.00     0.058 H 
ATOM     62  O   UNL     1     -41.981  44.039  24.910  1.00  0.00    -0.296 OA
ENDBRANCH  50  54
ENDBRANCH  38  39
ENDBRANCH  35  38
ENDBRANCH   5  35
TORSDOF 8
ENDMDL
MODEL 7
REMARK VINA RESULT:     -10.0      2.286      3.289
REMARK SMILES Cn1ccc(-c2cn(-c3cncc(COc4ccc5ccc(N6CC(=O)C6)nc5c4)c3)c3ncnc(N)c23)n1
REMARK SMILES IDX 9 1 10 2 11 3 12 4 13 5 31 6 8 10 6 11 7 12 38 13 32 15
REMARK SMILES IDX 36 16 33 17 35 18 34 19 5 21 2 22 3 23 39 24 4 25 1 28 37 32
REMARK SMILES IDX 14 35 15 38 16 39 17 40 30 41 18 42 29 44 19 46 28 48 20 49
REMARK SMILES IDX 22 50 21 51 23 54 24 55 27 56 25 57 26 62
REMARK H PARENT 10 7 12 8 31 9 7 14 34 20 3 26 4 27 1 29 1 30 1 31 37 33 37 34
REMARK H PARENT 14 36 14 37 17 43 30 45 18 47 20 52 21 53 24 58 24 59 27 60
REMARK H PARENT 27 61
REMARK Flexibility Score: inf
ROOT
ATOM      1  C   UNL     1     -46.533  38.129  27.410  1.00  0.00     0.066 A 
ATOM      2  C   UNL     1     -46.438  37.792  28.759  1.00  0.00     0.051 A 
ATOM      3  N   UNL     1     -46.680  36.557  29.262  1.00  0.00    -0.262 NA
ATOM      4  C   UNL     1     -47.029  35.598  28.382  1.00  0.00     0.034 A 
ATOM      5  C   UNL     1     -47.141  35.806  27.014  1.00  0.00     0.010 A 
ATOM      6  C   UNL     1     -46.902  37.103  26.534  1.00  0.00    -0.028 A 
ATOM      7  H   UNL     1     -46.181  38.508  29.532  1.00  0.00     0.086 H 
ATOM      8  H   UNL     1     -47.218  34.624  28.826  1.00  0.00     0.084 H 
ATOM      9  H   UNL     1     -46.986  37.266  25.465  1.00  0.00     0.065 H 
ENDROOT
BRANCH   1  10
ATOM     10  N   UNL     1     -46.259  39.463  26.965  1.00  0.00    -0.299 N 
ATOM     11  C   UNL     1     -45.108  41.246  26.186  1.00  0.00     0.033 A 
ATOM     12  C   UNL     1     -45.012  39.927  26.580  1.00  0.00     0.021 A 
ATOM     13  C   UNL     1     -46.463  41.645  26.362  1.00  0.00     0.071 A 
ATOM     14  H   UNL     1     -44.147  39.281  26.562  1.00  0.00     0.083 H 
ATOM     15  C   UNL     1     -47.154  40.525  26.827  1.00  0.00     0.150 A 
ATOM     16  C   UNL     1     -47.214  42.825  26.195  1.00  0.00     0.137 A 
ATOM     17  N   UNL     1     -48.472  40.500  27.119  1.00  0.00    -0.218 NA
ATOM     18  N   UNL     1     -48.535  42.808  26.450  1.00  0.00    -0.219 NA
ATOM     19  C   UNL     1     -49.080  41.670  26.897  1.00  0.00     0.120 A 
ATOM     20  H   UNL     1     -50.145  41.703  27.104  1.00  0.00     0.106 H 
BRANCH  11  21
ATOM     21  C   UNL     1     -44.012  42.069  25.663  1.00  0.00     0.095 A 
ATOM     22  N   UNL     1     -42.802  43.220  24.366  1.00  0.00    -0.275 N 
ATOM     23  C   UNL     1     -42.099  43.174  25.532  1.00  0.00     0.025 A 
ATOM     24  N   UNL     1     -43.969  42.549  24.414  1.00  0.00    -0.173 NA
ATOM     25  C   UNL     1     -42.861  42.427  26.401  1.00  0.00    -0.016 A 
ATOM     26  H   UNL     1     -41.143  43.664  25.649  1.00  0.00     0.084 H 
ATOM     27  H   UNL     1     -42.617  42.185  27.425  1.00  0.00     0.066 H 
BRANCH  22  28
ATOM     28  C   UNL     1     -42.419  43.892  23.148  1.00  0.00     0.030 C 
ATOM     29  H   UNL     1     -42.325  43.144  22.357  1.00  0.00     0.048 H 
ATOM     30  H   UNL     1     -41.464  44.402  23.298  1.00  0.00     0.048 H 
ATOM     31  H   UNL     1     -43.196  44.620  22.898  1.00  0.00     0.048 H 
ENDBRANCH  22  28
ENDBRANCH  11  21
BRANCH  16  32
ATOM     32  N   UNL     1     -46.680  44.035  25.780  1.00  0.00    -0.383 N 
ATOM     33  H   UNL     1     -47.398  44.750  25.627  1.00  0.00     0.158 HD
ATOM     34  H   UNL     1     -45.883  44.303  26.341  1.00  0.00     0.158 HD
ENDBRANCH  16  32
ENDBRANCH   1  10
BRANCH   5  35
ATOM     35  C   UNL     1     -47.562  34.680  26.106  1.00  0.00     0.115 C 
ATOM     36  H   UNL     1     -46.648  34.229  25.698  1.00  0.00     0.076 H 
ATOM     37  H   UNL     1     -48.137  35.030  25.240  1.00  0.00     0.076 H 
BRANCH  35  38
ATOM     38  O   UNL     1     -48.258  33.634  26.789  1.00  0.00    -0.489 OA
BRANCH  38  39
ATOM     39  C   UNL     1     -48.655  32.533  26.083  1.00  0.00     0.122 A 
ATOM     40  C   UNL     1     -49.542  32.804  25.042  1.00  0.00    -0.019 A 
ATOM     41  C   UNL     1     -48.249  31.215  26.304  1.00  0.00     0.007 A 
ATOM     42  C   UNL     1     -50.022  31.773  24.239  1.00  0.00    -0.049 A 
ATOM     43  H   UNL     1     -49.860  33.828  24.856  1.00  0.00     0.066 H 
ATOM     44  C   UNL     1     -48.713  30.165  25.519  1.00  0.00     0.076 A 
ATOM     45  H   UNL     1     -47.550  30.959  27.093  1.00  0.00     0.069 H 
ATOM     46  C   UNL     1     -49.611  30.454  24.474  1.00  0.00     0.001 A 
ATOM     47  H   UNL     1     -50.714  32.006  23.433  1.00  0.00     0.063 H 
ATOM     48  N   UNL     1     -48.291  28.915  25.778  1.00  0.00    -0.231 NA
ATOM     49  C   UNL     1     -50.067  29.388  23.695  1.00  0.00    -0.049 A 
ATOM     50  C   UNL     1     -48.731  27.892  25.014  1.00  0.00     0.130 A 
ATOM     51  C   UNL     1     -49.625  28.098  23.969  1.00  0.00    -0.019 A 
ATOM     52  H   UNL     1     -50.765  29.552  22.879  1.00  0.00     0.063 H 
ATOM     53  H   UNL     1     -49.988  27.268  23.373  1.00  0.00     0.066 H 
BRANCH  50  54
ATOM     54  N   UNL     1     -48.275  26.599  25.314  1.00  0.00    -0.342 N 
ATOM     55  C   UNL     1     -48.938  25.675  26.210  1.00  0.00     0.080 C 
ATOM     56  C   UNL     1     -46.932  26.196  25.654  1.00  0.00     0.080 C 
ATOM     57  C   UNL     1     -47.562  25.028  26.427  1.00  0.00     0.171 C 
ATOM     58  H   UNL     1     -49.670  25.046  25.702  1.00  0.00     0.058 H 
ATOM     59  H   UNL     1     -49.351  26.145  27.106  1.00  0.00     0.058 H 
ATOM     60  H   UNL     1     -46.343  25.907  24.782  1.00  0.00     0.058 H 
ATOM     61  H   UNL     1     -46.402  26.912  26.286  1.00  0.00     0.058 H 
ATOM     62  O   UNL     1     -47.143  24.037  26.985  1.00  0.00    -0.296 OA
ENDBRANCH  50  54
ENDBRANCH  38  39
ENDBRANCH  35  38
ENDBRANCH   5  35
TORSDOF 8
ENDMDL
