MODEL 1
REMARK VINA RESULT:     -11.9      0.000      0.000
REMARK SMILES O=C(NCc1ccc2cc(CN3CCC(F)CC3)[nH]c2c1)c1cc(=O)n2ccccc2n1
REMARK SMILES IDX 5 1 6 2 7 3 8 4 9 5 10 6 19 7 20 8 21 9 4 15 3 18 1 19 2 20
REMARK SMILES IDX 22 22 23 23 32 24 24 25 31 27 25 28 26 29 30 30 27 31 29 32
REMARK SMILES IDX 28 34 11 38 12 41 13 42 18 43 14 44 17 47 15 50 16 55
REMARK H PARENT 6 10 7 11 9 12 19 13 21 14 4 16 4 17 3 21 23 26 30 33 27 35
REMARK H PARENT 29 36 28 37 11 39 11 40 13 45 13 46 18 48 18 49 14 51 14 52
REMARK H PARENT 17 53 17 54 15 56
REMARK Flexibility Score: inf
ROOT
ATOM      1  C   UNL     1     -47.997  34.623  26.452  1.00  0.00    -0.027 A 
ATOM      2  C   UNL     1     -46.751  34.605  25.814  1.00  0.00    -0.057 A 
ATOM      3  C   UNL     1     -46.331  33.489  25.078  1.00  0.00    -0.052 A 
ATOM      4  C   UNL     1     -47.172  32.367  24.985  1.00  0.00    -0.000 A 
ATOM      5  C   UNL     1     -47.069  31.103  24.345  1.00  0.00    -0.032 A 
ATOM      6  C   UNL     1     -48.230  30.394  24.596  1.00  0.00     0.030 A 
ATOM      7  N   UNL     1     -49.018  31.189  25.396  1.00  0.00    -0.357 N 
ATOM      8  C   UNL     1     -48.404  32.397  25.636  1.00  0.00     0.046 A 
ATOM      9  C   UNL     1     -48.841  33.501  26.377  1.00  0.00    -0.033 A 
ATOM     10  H   UNL     1     -46.088  35.466  25.883  1.00  0.00     0.063 H 
ATOM     11  H   UNL     1     -45.362  33.494  24.584  1.00  0.00     0.063 H 
ATOM     12  H   UNL     1     -46.233  30.749  23.756  1.00  0.00     0.065 H 
ATOM     13  H   UNL     1     -49.928  30.933  25.751  1.00  0.00     0.166 HD
ATOM     14  H   UNL     1     -49.803  33.493  26.882  1.00  0.00     0.065 H 
ENDROOT
BRANCH   1  15
ATOM     15  C   UNL     1     -48.416  35.820  27.264  1.00  0.00     0.043 C 
ATOM     16  H   UNL     1     -48.730  35.517  28.270  1.00  0.00     0.054 H 
ATOM     17  H   UNL     1     -49.275  36.323  26.805  1.00  0.00     0.054 H 
BRANCH  15  18
ATOM     18  N   UNL     1     -47.341  36.769  27.369  1.00  0.00    -0.347 N 
ATOM     19  O   UNL     1     -46.817  36.293  29.553  1.00  0.00    -0.268 OA
ATOM     20  C   UNL     1     -46.651  36.960  28.539  1.00  0.00     0.270 C 
ATOM     21  H   UNL     1     -47.177  37.438  26.624  1.00  0.00     0.164 HD
BRANCH  20  22
ATOM     22  C   UNL     1     -45.664  38.099  28.448  1.00  0.00     0.136 A 
ATOM     23  C   UNL     1     -44.824  38.241  29.475  1.00  0.00     0.035 A 
ATOM     24  N   UNL     1     -45.690  38.909  27.336  1.00  0.00    -0.225 NA
ATOM     25  C   UNL     1     -43.846  39.336  29.428  1.00  0.00     0.258 A 
ATOM     26  H   UNL     1     -44.814  37.597  30.345  1.00  0.00     0.071 H 
ATOM     27  C   UNL     1     -44.825  39.876  27.299  1.00  0.00     0.140 A 
ATOM     28  O   UNL     1     -43.067  39.474  30.368  1.00  0.00    -0.269 OA
ATOM     29  N   UNL     1     -43.892  40.137  28.296  1.00  0.00    -0.268 N 
ATOM     30  C   UNL     1     -44.816  40.779  26.111  1.00  0.00    -0.019 A 
ATOM     31  C   UNL     1     -42.998  41.196  28.180  1.00  0.00     0.014 A 
ATOM     32  C   UNL     1     -43.935  41.785  26.045  1.00  0.00    -0.057 A 
ATOM     33  H   UNL     1     -45.538  40.583  25.330  1.00  0.00     0.066 H 
ATOM     34  C   UNL     1     -42.995  42.004  27.111  1.00  0.00    -0.045 A 
ATOM     35  H   UNL     1     -42.297  41.343  28.997  1.00  0.00     0.082 H 
ATOM     36  H   UNL     1     -43.913  42.453  25.190  1.00  0.00     0.062 H 
ATOM     37  H   UNL     1     -42.293  42.827  27.031  1.00  0.00     0.064 H 
ENDBRANCH  20  22
ENDBRANCH  15  18
ENDBRANCH   1  15
BRANCH   6  38
ATOM     38  C   UNL     1     -48.650  29.021  24.185  1.00  0.00     0.038 C 
ATOM     39  H   UNL     1     -48.333  28.829  23.151  1.00  0.00     0.050 H 
ATOM     40  H   UNL     1     -49.748  28.983  24.154  1.00  0.00     0.050 H 
BRANCH  38  41
ATOM     41  N   UNL     1     -48.161  27.941  25.045  1.00  0.00    -0.297 NA
ATOM     42  C   UNL     1     -49.216  27.193  25.734  1.00  0.00     0.001 C 
ATOM     43  C   UNL     1     -47.165  27.077  24.420  1.00  0.00     0.001 C 
ATOM     44  C   UNL     1     -48.716  25.887  26.358  1.00  0.00    -0.009 C 
ATOM     45  H   UNL     1     -50.050  26.940  25.069  1.00  0.00     0.043 H 
ATOM     46  H   UNL     1     -49.624  27.831  26.527  1.00  0.00     0.043 H 
ATOM     47  C   UNL     1     -46.392  26.303  25.492  1.00  0.00    -0.009 C 
ATOM     48  H   UNL     1     -47.639  26.370  23.726  1.00  0.00     0.043 H 
ATOM     49  H   UNL     1     -46.441  27.660  23.836  1.00  0.00     0.043 H 
ATOM     50  C   UNL     1     -47.245  25.992  26.715  1.00  0.00     0.103 C 
ATOM     51  H   UNL     1     -49.307  25.635  27.245  1.00  0.00     0.031 H 
ATOM     52  H   UNL     1     -48.854  25.056  25.654  1.00  0.00     0.031 H 
ATOM     53  H   UNL     1     -45.995  25.378  25.059  1.00  0.00     0.031 H 
ATOM     54  H   UNL     1     -45.521  26.886  25.817  1.00  0.00     0.031 H 
ATOM     55  F   UNL     1     -46.831  24.810  27.250  1.00  0.00    -0.247 F 
ATOM     56  H   UNL     1     -47.101  26.760  27.484  1.00  0.00     0.066 H 
ENDBRANCH  38  41
ENDBRANCH   6  38
TORSDOF 5
ENDMDL
MODEL 2
REMARK VINA RESULT:     -11.3      1.550      2.046
REMARK SMILES O=C(NCc1ccc2cc(CN3CCC(F)CC3)[nH]c2c1)c1cc(=O)n2ccccc2n1
REMARK SMILES IDX 5 1 6 2 7 3 8 4 9 5 10 6 19 7 20 8 21 9 4 15 3 18 1 19 2 20
REMARK SMILES IDX 22 22 23 23 32 24 24 25 31 27 25 28 26 29 30 30 27 31 29 32
REMARK SMILES IDX 28 34 11 38 12 41 13 42 18 43 14 44 17 47 15 50 16 55
REMARK H PARENT 6 10 7 11 9 12 19 13 21 14 4 16 4 17 3 21 23 26 30 33 27 35
REMARK H PARENT 29 36 28 37 11 39 11 40 13 45 13 46 18 48 18 49 14 51 14 52
REMARK H PARENT 17 53 17 54 15 56
REMARK Flexibility Score: inf
ROOT
ATOM      1  C   UNL     1     -47.763  35.136  26.822  1.00  0.00    -0.027 A 
ATOM      2  C   UNL     1     -46.477  35.004  26.285  1.00  0.00    -0.057 A 
ATOM      3  C   UNL     1     -46.129  33.895  25.502  1.00  0.00    -0.052 A 
ATOM      4  C   UNL     1     -47.086  32.894  25.260  1.00  0.00    -0.000 A 
ATOM      5  C   UNL     1     -47.078  31.671  24.537  1.00  0.00    -0.032 A 
ATOM      6  C   UNL     1     -48.332  31.097  24.642  1.00  0.00     0.030 A 
ATOM      7  N   UNL     1     -49.087  31.930  25.435  1.00  0.00    -0.357 N 
ATOM      8  C   UNL     1     -48.357  33.035  25.812  1.00  0.00     0.046 A 
ATOM      9  C   UNL     1     -48.724  34.134  26.597  1.00  0.00    -0.033 A 
ATOM     10  H   UNL     1     -45.726  35.770  26.470  1.00  0.00     0.063 H 
ATOM     11  H   UNL     1     -45.128  33.811  25.088  1.00  0.00     0.063 H 
ATOM     12  H   UNL     1     -46.242  31.255  23.991  1.00  0.00     0.065 H 
ATOM     13  H   UNL     1     -50.049  31.767  25.697  1.00  0.00     0.166 HD
ATOM     14  H   UNL     1     -49.720  34.213  27.023  1.00  0.00     0.065 H 
ENDROOT
BRANCH   1  15
ATOM     15  C   UNL     1     -48.107  36.320  27.686  1.00  0.00     0.043 C 
ATOM     16  H   UNL     1     -48.329  36.002  28.712  1.00  0.00     0.054 H 
ATOM     17  H   UNL     1     -49.003  36.829  27.314  1.00  0.00     0.054 H 
BRANCH  15  18
ATOM     18  N   UNL     1     -47.026  37.269  27.707  1.00  0.00    -0.347 N 
ATOM     19  O   UNL     1     -48.354  39.139  27.797  1.00  0.00    -0.268 OA
ATOM     20  C   UNL     1     -47.246  38.622  27.715  1.00  0.00     0.270 C 
ATOM     21  H   UNL     1     -46.072  36.959  27.549  1.00  0.00     0.164 HD
BRANCH  20  22
ATOM     22  C   UNL     1     -45.968  39.416  27.597  1.00  0.00     0.136 A 
ATOM     23  C   UNL     1     -45.803  40.115  26.472  1.00  0.00     0.035 A 
ATOM     24  N   UNL     1     -45.063  39.370  28.633  1.00  0.00    -0.225 NA
ATOM     25  C   UNL     1     -44.573  40.902  26.316  1.00  0.00     0.258 A 
ATOM     26  H   UNL     1     -46.522  40.143  25.664  1.00  0.00     0.071 H 
ATOM     27  C   UNL     1     -43.977  40.066  28.490  1.00  0.00     0.140 A 
ATOM     28  O   UNL     1     -44.413  41.552  25.284  1.00  0.00    -0.269 OA
ATOM     29  N   UNL     1     -43.678  40.840  27.374  1.00  0.00    -0.268 N 
ATOM     30  C   UNL     1     -42.969  40.047  29.589  1.00  0.00    -0.019 A 
ATOM     31  C   UNL     1     -42.490  41.558  27.299  1.00  0.00     0.014 A 
ATOM     32  C   UNL     1     -41.838  40.756  29.471  1.00  0.00    -0.057 A 
ATOM     33  H   UNL     1     -43.192  39.448  30.462  1.00  0.00     0.066 H 
ATOM     34  C   UNL     1     -41.588  41.537  28.289  1.00  0.00    -0.045 A 
ATOM     35  H   UNL     1     -42.321  42.141  26.398  1.00  0.00     0.082 H 
ATOM     36  H   UNL     1     -41.093  40.754  30.259  1.00  0.00     0.062 H 
ATOM     37  H   UNL     1     -40.664  42.101  28.220  1.00  0.00     0.064 H 
ENDBRANCH  20  22
ENDBRANCH  15  18
ENDBRANCH   1  15
BRANCH   6  38
ATOM     38  C   UNL     1     -48.874  29.817  24.098  1.00  0.00     0.038 C 
ATOM     39  H   UNL     1     -48.744  29.792  23.007  1.00  0.00     0.050 H 
ATOM     40  H   UNL     1     -49.962  29.800  24.252  1.00  0.00     0.050 H 
BRANCH  38  41
ATOM     41  N   UNL     1     -48.294  28.603  24.677  1.00  0.00    -0.297 NA
ATOM     42  C   UNL     1     -49.256  27.754  25.385  1.00  0.00     0.001 C 
ATOM     43  C   UNL     1     -47.432  27.853  23.769  1.00  0.00     0.001 C 
ATOM     44  C   UNL     1     -48.708  26.357  25.696  1.00  0.00    -0.009 C 
ATOM     45  H   UNL     1     -50.188  27.621  24.824  1.00  0.00     0.043 H 
ATOM     46  H   UNL     1     -49.519  28.248  26.328  1.00  0.00     0.043 H 
ATOM     47  C   UNL     1     -46.530  26.904  24.564  1.00  0.00    -0.009 C 
ATOM     48  H   UNL     1     -48.028  27.278  23.048  1.00  0.00     0.043 H 
ATOM     49  H   UNL     1     -46.787  28.524  23.188  1.00  0.00     0.043 H 
ATOM     50  C   UNL     1     -47.198  26.392  25.834  1.00  0.00     0.103 C 
ATOM     51  H   UNL     1     -49.166  25.960  26.609  1.00  0.00     0.031 H 
ATOM     52  H   UNL     1     -48.977  25.660  24.892  1.00  0.00     0.031 H 
ATOM     53  H   UNL     1     -46.232  26.065  23.925  1.00  0.00     0.031 H 
ATOM     54  H   UNL     1     -45.602  27.418  24.843  1.00  0.00     0.031 H 
ATOM     55  F   UNL     1     -46.745  25.134  26.092  1.00  0.00    -0.247 F 
ATOM     56  H   UNL     1     -46.914  27.017  26.690  1.00  0.00     0.066 H 
ENDBRANCH  38  41
ENDBRANCH   6  38
TORSDOF 5
ENDMDL
MODEL 3
REMARK VINA RESULT:     -10.4      2.668      3.670
REMARK SMILES O=C(NCc1ccc2cc(CN3CCC(F)CC3)[nH]c2c1)c1cc(=O)n2ccccc2n1
REMARK SMILES IDX 5 1 6 2 7 3 8 4 9 5 10 6 19 7 20 8 21 9 4 15 3 18 1 19 2 20
REMARK SMILES IDX 22 22 23 23 32 24 24 25 31 27 25 28 26 29 30 30 27 31 29 32
REMARK SMILES IDX 28 34 11 38 12 41 13 42 18 43 14 44 17 47 15 50 16 55
REMARK H PARENT 6 10 7 11 9 12 19 13 21 14 4 16 4 17 3 21 23 26 30 33 27 35
REMARK H PARENT 29 36 28 37 11 39 11 40 13 45 13 46 18 48 18 49 14 51 14 52
REMARK H PARENT 17 53 17 54 15 56
REMARK Flexibility Score: inf
ROOT
ATOM      1  C   UNL     1     -46.615  35.780  28.438  1.00  0.00    -0.027 A 
ATOM      2  C   UNL     1     -47.955  35.934  28.063  1.00  0.00    -0.057 A 
ATOM      3  C   UNL     1     -48.515  35.154  27.043  1.00  0.00    -0.052 A 
ATOM      4  C   UNL     1     -47.715  34.207  26.379  1.00  0.00    -0.000 A 
ATOM      5  C   UNL     1     -47.945  33.278  25.329  1.00  0.00    -0.032 A 
ATOM      6  C   UNL     1     -46.770  32.590  25.094  1.00  0.00     0.030 A 
ATOM      7  N   UNL     1     -45.828  33.102  25.956  1.00  0.00    -0.357 N 
ATOM      8  C   UNL     1     -46.380  34.076  26.756  1.00  0.00     0.046 A 
ATOM      9  C   UNL     1     -45.802  34.846  27.772  1.00  0.00    -0.033 A 
ATOM     10  H   UNL     1     -48.583  36.667  28.566  1.00  0.00     0.063 H 
ATOM     11  H   UNL     1     -49.559  35.282  26.768  1.00  0.00     0.063 H 
ATOM     12  H   UNL     1     -48.878  33.125  24.803  1.00  0.00     0.065 H 
ATOM     13  H   UNL     1     -44.866  32.799  26.010  1.00  0.00     0.166 HD
ATOM     14  H   UNL     1     -44.755  34.728  28.038  1.00  0.00     0.065 H 
ENDROOT
BRANCH   1  15
ATOM     15  C   UNL     1     -46.024  36.650  29.516  1.00  0.00     0.043 C 
ATOM     16  H   UNL     1     -45.356  36.067  30.162  1.00  0.00     0.054 H 
ATOM     17  H   UNL     1     -46.808  37.059  30.163  1.00  0.00     0.054 H 
BRANCH  15  18
ATOM     18  N   UNL     1     -45.292  37.748  28.944  1.00  0.00    -0.347 N 
ATOM     19  O   UNL     1     -44.157  38.301  30.861  1.00  0.00    -0.268 OA
ATOM     20  C   UNL     1     -44.441  38.522  29.689  1.00  0.00     0.270 C 
ATOM     21  H   UNL     1     -45.516  38.078  28.010  1.00  0.00     0.164 HD
BRANCH  20  22
ATOM     22  C   UNL     1     -43.894  39.693  28.910  1.00  0.00     0.136 A 
ATOM     23  C   UNL     1     -42.869  40.347  29.461  1.00  0.00     0.035 A 
ATOM     24  N   UNL     1     -44.475  40.015  27.706  1.00  0.00    -0.225 NA
ATOM     25  C   UNL     1     -42.305  41.494  28.737  1.00  0.00     0.258 A 
ATOM     26  H   UNL     1     -42.421  40.085  30.411  1.00  0.00     0.071 H 
ATOM     27  C   UNL     1     -43.975  41.030  27.069  1.00  0.00     0.140 A 
ATOM     28  O   UNL     1     -41.359  42.101  29.234  1.00  0.00    -0.269 OA
ATOM     29  N   UNL     1     -42.908  41.797  27.524  1.00  0.00    -0.268 N 
ATOM     30  C   UNL     1     -44.571  41.414  25.757  1.00  0.00    -0.019 A 
ATOM     31  C   UNL     1     -42.430  42.871  26.781  1.00  0.00     0.014 A 
ATOM     32  C   UNL     1     -44.077  42.456  25.078  1.00  0.00    -0.057 A 
ATOM     33  H   UNL     1     -45.402  40.823  25.395  1.00  0.00     0.066 H 
ATOM     34  C   UNL     1     -42.971  43.211  25.604  1.00  0.00    -0.045 A 
ATOM     35  H   UNL     1     -41.594  43.427  27.196  1.00  0.00     0.082 H 
ATOM     36  H   UNL     1     -44.498  42.751  24.122  1.00  0.00     0.062 H 
ATOM     37  H   UNL     1     -42.590  44.050  25.032  1.00  0.00     0.064 H 
ENDBRANCH  20  22
ENDBRANCH  15  18
ENDBRANCH   1  15
BRANCH   6  38
ATOM     38  C   UNL     1     -46.439  31.521  24.104  1.00  0.00     0.038 C 
ATOM     39  H   UNL     1     -45.963  30.675  24.617  1.00  0.00     0.050 H 
ATOM     40  H   UNL     1     -45.670  31.902  23.418  1.00  0.00     0.050 H 
BRANCH  38  41
ATOM     41  N   UNL     1     -47.574  31.030  23.321  1.00  0.00    -0.297 NA
ATOM     42  C   UNL     1     -47.240  30.657  21.944  1.00  0.00     0.001 C 
ATOM     43  C   UNL     1     -48.388  30.028  24.001  1.00  0.00     0.001 C 
ATOM     44  C   UNL     1     -48.348  29.854  21.254  1.00  0.00    -0.009 C 
ATOM     45  H   UNL     1     -46.321  30.064  21.883  1.00  0.00     0.043 H 
ATOM     46  H   UNL     1     -47.064  31.577  21.374  1.00  0.00     0.043 H 
ATOM     47  C   UNL     1     -49.761  29.923  23.333  1.00  0.00    -0.009 C 
ATOM     48  H   UNL     1     -47.896  29.046  23.986  1.00  0.00     0.043 H 
ATOM     49  H   UNL     1     -48.545  30.290  25.055  1.00  0.00     0.043 H 
ATOM     50  C   UNL     1     -49.705  30.203  21.836  1.00  0.00     0.103 C 
ATOM     51  H   UNL     1     -48.337  30.036  20.174  1.00  0.00     0.031 H 
ATOM     52  H   UNL     1     -48.169  28.779  21.383  1.00  0.00     0.031 H 
ATOM     53  H   UNL     1     -50.183  28.929  23.518  1.00  0.00     0.031 H 
ATOM     54  H   UNL     1     -50.456  30.638  23.792  1.00  0.00     0.031 H 
ATOM     55  F   UNL     1     -50.661  29.460  21.213  1.00  0.00    -0.247 F 
ATOM     56  H   UNL     1     -49.938  31.256  21.638  1.00  0.00     0.066 H 
ENDBRANCH  38  41
ENDBRANCH   6  38
TORSDOF 5
ENDMDL
MODEL 4
REMARK VINA RESULT:     -10.3      4.309     11.545
REMARK SMILES O=C(NCc1ccc2cc(CN3CCC(F)CC3)[nH]c2c1)c1cc(=O)n2ccccc2n1
REMARK SMILES IDX 5 1 6 2 7 3 8 4 9 5 10 6 19 7 20 8 21 9 4 15 3 18 1 19 2 20
REMARK SMILES IDX 22 22 23 23 32 24 24 25 31 27 25 28 26 29 30 30 27 31 29 32
REMARK SMILES IDX 28 34 11 38 12 41 13 42 18 43 14 44 17 47 15 50 16 55
REMARK H PARENT 6 10 7 11 9 12 19 13 21 14 4 16 4 17 3 21 23 26 30 33 27 35
REMARK H PARENT 29 36 28 37 11 39 11 40 13 45 13 46 18 48 18 49 14 51 14 52
REMARK H PARENT 17 53 17 54 15 56
REMARK Flexibility Score: inf
ROOT
ATOM      1  C   UNL     1     -48.295  33.976  26.325  1.00  0.00    -0.027 A 
ATOM      2  C   UNL     1     -46.925  33.724  26.174  1.00  0.00    -0.057 A 
ATOM      3  C   UNL     1     -45.968  34.664  26.579  1.00  0.00    -0.052 A 
ATOM      4  C   UNL     1     -46.390  35.883  27.138  1.00  0.00    -0.000 A 
ATOM      5  C   UNL     1     -45.715  37.028  27.639  1.00  0.00    -0.032 A 
ATOM      6  C   UNL     1     -46.664  37.932  28.079  1.00  0.00     0.030 A 
ATOM      7  N   UNL     1     -47.895  37.372  27.828  1.00  0.00    -0.357 N 
ATOM      8  C   UNL     1     -47.756  36.123  27.270  1.00  0.00     0.046 A 
ATOM      9  C   UNL     1     -48.728  35.198  26.870  1.00  0.00    -0.033 A 
ATOM     10  H   UNL     1     -46.587  32.786  25.738  1.00  0.00     0.063 H 
ATOM     11  H   UNL     1     -44.909  34.450  26.460  1.00  0.00     0.063 H 
ATOM     12  H   UNL     1     -44.643  37.174  27.679  1.00  0.00     0.065 H 
ATOM     13  H   UNL     1     -48.783  37.807  28.036  1.00  0.00     0.166 HD
ATOM     14  H   UNL     1     -49.787  35.416  26.976  1.00  0.00     0.065 H 
ENDROOT
BRANCH   1  15
ATOM     15  C   UNL     1     -49.309  32.967  25.855  1.00  0.00     0.043 C 
ATOM     16  H   UNL     1     -49.738  33.267  24.891  1.00  0.00     0.054 H 
ATOM     17  H   UNL     1     -50.143  32.892  26.561  1.00  0.00     0.054 H 
BRANCH  15  18
ATOM     18  N   UNL     1     -48.711  31.665  25.724  1.00  0.00    -0.347 N 
ATOM     19  O   UNL     1     -49.231  31.388  23.506  1.00  0.00    -0.268 OA
ATOM     20  C   UNL     1     -48.764  30.955  24.552  1.00  0.00     0.270 C 
ATOM     21  H   UNL     1     -48.379  31.172  26.547  1.00  0.00     0.164 HD
BRANCH  20  22
ATOM     22  C   UNL     1     -48.192  29.565  24.693  1.00  0.00     0.136 A 
ATOM     23  C   UNL     1     -47.176  29.256  23.886  1.00  0.00     0.035 A 
ATOM     24  N   UNL     1     -48.743  28.714  25.623  1.00  0.00    -0.225 NA
ATOM     25  C   UNL     1     -46.588  27.914  23.989  1.00  0.00     0.258 A 
ATOM     26  H   UNL     1     -46.751  29.934  23.157  1.00  0.00     0.071 H 
ATOM     27  C   UNL     1     -48.223  27.529  25.710  1.00  0.00     0.140 A 
ATOM     28  O   UNL     1     -45.650  27.620  23.251  1.00  0.00    -0.269 OA
ATOM     29  N   UNL     1     -47.161  27.076  24.934  1.00  0.00    -0.268 N 
ATOM     30  C   UNL     1     -48.787  26.573  26.707  1.00  0.00    -0.019 A 
ATOM     31  C   UNL     1     -46.660  25.788  25.090  1.00  0.00     0.014 A 
ATOM     32  C   UNL     1     -48.270  25.343  26.820  1.00  0.00    -0.057 A 
ATOM     33  H   UNL     1     -49.613  26.917  27.316  1.00  0.00     0.066 H 
ATOM     34  C   UNL     1     -47.172  24.935  25.986  1.00  0.00    -0.045 A 
ATOM     35  H   UNL     1     -45.830  25.500  24.451  1.00  0.00     0.082 H 
ATOM     36  H   UNL     1     -48.668  24.634  27.538  1.00  0.00     0.062 H 
ATOM     37  H   UNL     1     -46.773  23.932  26.099  1.00  0.00     0.064 H 
ENDBRANCH  20  22
ENDBRANCH  15  18
ENDBRANCH   1  15
BRANCH   6  38
ATOM     38  C   UNL     1     -46.520  39.293  28.677  1.00  0.00     0.038 C 
ATOM     39  H   UNL     1     -46.063  39.215  29.673  1.00  0.00     0.050 H 
ATOM     40  H   UNL     1     -47.522  39.706  28.859  1.00  0.00     0.050 H 
BRANCH  38  41
ATOM     41  N   UNL     1     -45.753  40.246  27.871  1.00  0.00    -0.297 NA
ATOM     42  C   UNL     1     -44.300  40.067  27.948  1.00  0.00     0.001 C 
ATOM     43  C   UNL     1     -46.235  40.405  26.503  1.00  0.00     0.001 C 
ATOM     44  C   UNL     1     -43.542  40.844  26.867  1.00  0.00    -0.009 C 
ATOM     45  H   UNL     1     -44.003  39.016  27.864  1.00  0.00     0.043 H 
ATOM     46  H   UNL     1     -43.966  40.414  28.933  1.00  0.00     0.043 H 
ATOM     47  C   UNL     1     -45.699  41.708  25.905  1.00  0.00    -0.009 C 
ATOM     48  H   UNL     1     -45.927  39.558  25.877  1.00  0.00     0.043 H 
ATOM     49  H   UNL     1     -47.332  40.444  26.469  1.00  0.00     0.043 H 
ATOM     50  C   UNL     1     -44.322  42.075  26.445  1.00  0.00     0.103 C 
ATOM     51  H   UNL     1     -42.547  41.127  27.226  1.00  0.00     0.031 H 
ATOM     52  H   UNL     1     -43.379  40.206  25.990  1.00  0.00     0.031 H 
ATOM     53  H   UNL     1     -45.669  41.623  24.812  1.00  0.00     0.031 H 
ATOM     54  H   UNL     1     -46.388  42.532  26.126  1.00  0.00     0.031 H 
ATOM     55  F   UNL     1     -43.629  42.730  25.473  1.00  0.00    -0.247 F 
ATOM     56  H   UNL     1     -44.418  42.766  27.291  1.00  0.00     0.066 H 
ENDBRANCH  38  41
ENDBRANCH   6  38
TORSDOF 5
ENDMDL
MODEL 5
REMARK VINA RESULT:     -10.3      1.748      2.364
REMARK SMILES O=C(NCc1ccc2cc(CN3CCC(F)CC3)[nH]c2c1)c1cc(=O)n2ccccc2n1
REMARK SMILES IDX 5 1 6 2 7 3 8 4 9 5 10 6 19 7 20 8 21 9 4 15 3 18 1 19 2 20
REMARK SMILES IDX 22 22 23 23 32 24 24 25 31 27 25 28 26 29 30 30 27 31 29 32
REMARK SMILES IDX 28 34 11 38 12 41 13 42 18 43 14 44 17 47 15 50 16 55
REMARK H PARENT 6 10 7 11 9 12 19 13 21 14 4 16 4 17 3 21 23 26 30 33 27 35
REMARK H PARENT 29 36 28 37 11 39 11 40 13 45 13 46 18 48 18 49 14 51 14 52
REMARK H PARENT 17 53 17 54 15 56
REMARK Flexibility Score: inf
ROOT
ATOM      1  C   UNL     1     -46.537  34.598  27.524  1.00  0.00    -0.027 A 
ATOM      2  C   UNL     1     -47.857  35.036  27.365  1.00  0.00    -0.057 A 
ATOM      3  C   UNL     1     -48.767  34.321  26.576  1.00  0.00    -0.052 A 
ATOM      4  C   UNL     1     -48.345  33.148  25.926  1.00  0.00    -0.000 A 
ATOM      5  C   UNL     1     -48.979  32.205  25.073  1.00  0.00    -0.032 A 
ATOM      6  C   UNL     1     -48.055  31.231  24.741  1.00  0.00     0.030 A 
ATOM      7  N   UNL     1     -46.872  31.579  25.349  1.00  0.00    -0.357 N 
ATOM      8  C   UNL     1     -47.024  32.732  26.085  1.00  0.00     0.046 A 
ATOM      9  C   UNL     1     -46.100  33.433  26.868  1.00  0.00    -0.033 A 
ATOM     10  H   UNL     1     -48.194  35.946  27.859  1.00  0.00     0.063 H 
ATOM     11  H   UNL     1     -49.790  34.672  26.467  1.00  0.00     0.063 H 
ATOM     12  H   UNL     1     -50.008  32.233  24.740  1.00  0.00     0.065 H 
ATOM     13  H   UNL     1     -46.009  31.058  25.280  1.00  0.00     0.166 HD
ATOM     14  H   UNL     1     -45.073  33.090  26.967  1.00  0.00     0.065 H 
ENDROOT
BRANCH   1  15
ATOM     15  C   UNL     1     -45.566  35.398  28.352  1.00  0.00     0.043 C 
ATOM     16  H   UNL     1     -44.577  34.923  28.358  1.00  0.00     0.054 H 
ATOM     17  H   UNL     1     -45.894  35.453  29.396  1.00  0.00     0.054 H 
BRANCH  15  18
ATOM     18  N   UNL     1     -45.445  36.738  27.846  1.00  0.00    -0.347 N 
ATOM     19  O   UNL     1     -46.113  37.782  29.778  1.00  0.00    -0.268 OA
ATOM     20  C   UNL     1     -45.779  37.833  28.600  1.00  0.00     0.270 C 
ATOM     21  H   UNL     1     -45.267  36.896  26.859  1.00  0.00     0.164 HD
BRANCH  20  22
ATOM     22  C   UNL     1     -45.702  39.120  27.815  1.00  0.00     0.136 A 
ATOM     23  C   UNL     1     -46.855  39.597  27.340  1.00  0.00     0.035 A 
ATOM     24  N   UNL     1     -44.474  39.713  27.635  1.00  0.00    -0.225 NA
ATOM     25  C   UNL     1     -46.827  40.847  26.571  1.00  0.00     0.258 A 
ATOM     26  H   UNL     1     -47.816  39.121  27.488  1.00  0.00     0.071 H 
ATOM     27  C   UNL     1     -44.453  40.817  26.954  1.00  0.00     0.140 A 
ATOM     28  O   UNL     1     -47.884  41.296  26.131  1.00  0.00    -0.269 OA
ATOM     29  N   UNL     1     -45.577  41.425  26.405  1.00  0.00    -0.268 N 
ATOM     30  C   UNL     1     -43.143  41.496  26.735  1.00  0.00    -0.019 A 
ATOM     31  C   UNL     1     -45.469  42.611  25.686  1.00  0.00     0.014 A 
ATOM     32  C   UNL     1     -43.090  42.637  26.036  1.00  0.00    -0.057 A 
ATOM     33  H   UNL     1     -42.263  41.031  27.159  1.00  0.00     0.066 H 
ATOM     34  C   UNL     1     -44.290  43.215  25.493  1.00  0.00    -0.045 A 
ATOM     35  H   UNL     1     -46.388  43.031  25.285  1.00  0.00     0.082 H 
ATOM     36  H   UNL     1     -42.146  43.145  25.866  1.00  0.00     0.062 H 
ATOM     37  H   UNL     1     -44.217  44.140  24.930  1.00  0.00     0.064 H 
ENDBRANCH  20  22
ENDBRANCH  15  18
ENDBRANCH   1  15
BRANCH   6  38
ATOM     38  C   UNL     1     -48.172  30.023  23.870  1.00  0.00     0.038 C 
ATOM     39  H   UNL     1     -47.510  30.127  23.000  1.00  0.00     0.050 H 
ATOM     40  H   UNL     1     -49.186  29.989  23.449  1.00  0.00     0.050 H 
BRANCH  38  41
ATOM     41  N   UNL     1     -47.891  28.751  24.538  1.00  0.00    -0.297 NA
ATOM     42  C   UNL     1     -49.077  28.076  25.074  1.00  0.00     0.001 C 
ATOM     43  C   UNL     1     -47.017  27.855  23.787  1.00  0.00     0.001 C 
ATOM     44  C   UNL     1     -48.811  26.621  25.471  1.00  0.00    -0.009 C 
ATOM     45  H   UNL     1     -49.912  28.074  24.364  1.00  0.00     0.043 H 
ATOM     46  H   UNL     1     -49.413  28.629  25.959  1.00  0.00     0.043 H 
ATOM     47  C   UNL     1     -46.418  26.800  24.720  1.00  0.00    -0.009 C 
ATOM     48  H   UNL     1     -47.567  27.360  22.975  1.00  0.00     0.043 H 
ATOM     49  H   UNL     1     -46.188  28.404  23.322  1.00  0.00     0.043 H 
ATOM     50  C   UNL     1     -47.358  26.428  25.860  1.00  0.00     0.103 C 
ATOM     51  H   UNL     1     -49.469  26.322  26.294  1.00  0.00     0.031 H 
ATOM     52  H   UNL     1     -49.048  25.953  24.633  1.00  0.00     0.031 H 
ATOM     53  H   UNL     1     -46.151  25.909  24.140  1.00  0.00     0.031 H 
ATOM     54  H   UNL     1     -45.480  27.172  25.152  1.00  0.00     0.031 H 
ATOM     55  F   UNL     1     -47.154  25.122  26.190  1.00  0.00    -0.247 F 
ATOM     56  H   UNL     1     -47.126  27.023  26.751  1.00  0.00     0.066 H 
ENDBRANCH  38  41
ENDBRANCH   6  38
TORSDOF 5
ENDMDL
MODEL 6
REMARK VINA RESULT:     -10.0      4.361     11.712
REMARK SMILES O=C(NCc1ccc2cc(CN3CCC(F)CC3)[nH]c2c1)c1cc(=O)n2ccccc2n1
REMARK SMILES IDX 5 1 6 2 7 3 8 4 9 5 10 6 19 7 20 8 21 9 4 15 3 18 1 19 2 20
REMARK SMILES IDX 22 22 23 23 32 24 24 25 31 27 25 28 26 29 30 30 27 31 29 32
REMARK SMILES IDX 28 34 11 38 12 41 13 42 18 43 14 44 17 47 15 50 16 55
REMARK H PARENT 6 10 7 11 9 12 19 13 21 14 4 16 4 17 3 21 23 26 30 33 27 35
REMARK H PARENT 29 36 28 37 11 39 11 40 13 45 13 46 18 48 18 49 14 51 14 52
REMARK H PARENT 17 53 17 54 15 56
REMARK Flexibility Score: inf
ROOT
ATOM      1  C   UNL     1     -46.989  33.481  25.324  1.00  0.00    -0.027 A 
ATOM      2  C   UNL     1     -48.315  33.415  25.769  1.00  0.00    -0.057 A 
ATOM      3  C   UNL     1     -48.823  34.358  26.672  1.00  0.00    -0.052 A 
ATOM      4  C   UNL     1     -47.985  35.383  27.144  1.00  0.00    -0.000 A 
ATOM      5  C   UNL     1     -48.160  36.472  28.040  1.00  0.00    -0.032 A 
ATOM      6  C   UNL     1     -46.968  37.167  28.117  1.00  0.00     0.030 A 
ATOM      7  N   UNL     1     -46.068  36.506  27.312  1.00  0.00    -0.357 N 
ATOM      8  C   UNL     1     -46.665  35.428  26.700  1.00  0.00     0.046 A 
ATOM      9  C   UNL     1     -46.138  34.494  25.800  1.00  0.00    -0.033 A 
ATOM     10  H   UNL     1     -48.972  32.623  25.414  1.00  0.00     0.063 H 
ATOM     11  H   UNL     1     -49.856  34.295  27.003  1.00  0.00     0.063 H 
ATOM     12  H   UNL     1     -49.069  36.726  28.570  1.00  0.00     0.065 H 
ATOM     13  H   UNL     1     -45.105  36.778  27.174  1.00  0.00     0.166 HD
ATOM     14  H   UNL     1     -45.102  34.548  25.478  1.00  0.00     0.065 H 
ENDROOT
BRANCH   1  15
ATOM     15  C   UNL     1     -46.454  32.440  24.377  1.00  0.00     0.043 C 
ATOM     16  H   UNL     1     -45.359  32.390  24.432  1.00  0.00     0.054 H 
ATOM     17  H   UNL     1     -46.705  32.687  23.339  1.00  0.00     0.054 H 
BRANCH  15  18
ATOM     18  N   UNL     1     -47.003  31.145  24.677  1.00  0.00    -0.347 N 
ATOM     19  O   UNL     1     -47.349  30.523  22.495  1.00  0.00    -0.268 OA
ATOM     20  C   UNL     1     -47.454  30.301  23.695  1.00  0.00     0.270 C 
ATOM     21  H   UNL     1     -47.222  30.894  25.636  1.00  0.00     0.164 HD
BRANCH  20  22
ATOM     22  C   UNL     1     -48.112  29.063  24.255  1.00  0.00     0.136 A 
ATOM     23  C   UNL     1     -49.439  28.990  24.140  1.00  0.00     0.035 A 
ATOM     24  N   UNL     1     -47.321  28.103  24.844  1.00  0.00    -0.225 NA
ATOM     25  C   UNL     1     -50.120  27.803  24.671  1.00  0.00     0.258 A 
ATOM     26  H   UNL     1     -50.051  29.753  23.676  1.00  0.00     0.071 H 
ATOM     27  C   UNL     1     -47.926  27.055  25.313  1.00  0.00     0.140 A 
ATOM     28  O   UNL     1     -51.343  27.726  24.568  1.00  0.00    -0.269 OA
ATOM     29  N   UNL     1     -49.301  26.850  25.258  1.00  0.00    -0.268 N 
ATOM     30  C   UNL     1     -47.108  25.987  25.957  1.00  0.00    -0.019 A 
ATOM     31  C   UNL     1     -49.873  25.697  25.785  1.00  0.00     0.014 A 
ATOM     32  C   UNL     1     -47.705  24.895  26.451  1.00  0.00    -0.057 A 
ATOM     33  H   UNL     1     -46.038  26.138  26.004  1.00  0.00     0.066 H 
ATOM     34  C   UNL     1     -49.133  24.742  26.364  1.00  0.00    -0.045 A 
ATOM     35  H   UNL     1     -50.953  25.602  25.709  1.00  0.00     0.082 H 
ATOM     36  H   UNL     1     -47.127  24.108  26.924  1.00  0.00     0.062 H 
ATOM     37  H   UNL     1     -49.590  23.847  26.772  1.00  0.00     0.064 H 
ENDBRANCH  20  22
ENDBRANCH  15  18
ENDBRANCH   1  15
BRANCH   6  38
ATOM     38  C   UNL     1     -46.583  38.373  28.909  1.00  0.00     0.038 C 
ATOM     39  H   UNL     1     -45.826  38.100  29.657  1.00  0.00     0.050 H 
ATOM     40  H   UNL     1     -47.451  38.702  29.496  1.00  0.00     0.050 H 
BRANCH  38  41
ATOM     41  N   UNL     1     -46.089  39.502  28.117  1.00  0.00    -0.297 NA
ATOM     42  C   UNL     1     -44.629  39.573  28.014  1.00  0.00     0.001 C 
ATOM     43  C   UNL     1     -46.760  39.677  26.833  1.00  0.00     0.001 C 
ATOM     44  C   UNL     1     -44.151  40.549  26.934  1.00  0.00    -0.009 C 
ATOM     45  H   UNL     1     -44.177  38.598  27.797  1.00  0.00     0.043 H 
ATOM     46  H   UNL     1     -44.234  39.898  28.984  1.00  0.00     0.043 H 
ATOM     47  C   UNL     1     -46.523  41.094  26.305  1.00  0.00    -0.009 C 
ATOM     48  H   UNL     1     -46.398  38.945  26.098  1.00  0.00     0.043 H 
ATOM     49  H   UNL     1     -47.843  39.528  26.925  1.00  0.00     0.043 H 
ATOM     50  C   UNL     1     -45.168  41.653  26.720  1.00  0.00     0.103 C 
ATOM     51  H   UNL     1     -43.178  40.973  27.205  1.00  0.00     0.031 H 
ATOM     52  H   UNL     1     -43.997  40.016  25.987  1.00  0.00     0.031 H 
ATOM     53  H   UNL     1     -46.617  41.098  25.213  1.00  0.00     0.031 H 
ATOM     54  H   UNL     1     -47.304  41.768  26.679  1.00  0.00     0.031 H 
ATOM     55  F   UNL     1     -44.719  42.490  25.744  1.00  0.00    -0.247 F 
ATOM     56  H   UNL     1     -45.268  42.251  27.634  1.00  0.00     0.066 H 
ENDBRANCH  38  41
ENDBRANCH   6  38
TORSDOF 5
ENDMDL
MODEL 7
REMARK VINA RESULT:     -10.0      3.006      4.942
REMARK SMILES O=C(NCc1ccc2cc(CN3CCC(F)CC3)[nH]c2c1)c1cc(=O)n2ccccc2n1
REMARK SMILES IDX 5 1 6 2 7 3 8 4 9 5 10 6 19 7 20 8 21 9 4 15 3 18 1 19 2 20
REMARK SMILES IDX 22 22 23 23 32 24 24 25 31 27 25 28 26 29 30 30 27 31 29 32
REMARK SMILES IDX 28 34 11 38 12 41 13 42 18 43 14 44 17 47 15 50 16 55
REMARK H PARENT 6 10 7 11 9 12 19 13 21 14 4 16 4 17 3 21 23 26 30 33 27 35
REMARK H PARENT 29 36 28 37 11 39 11 40 13 45 13 46 18 48 18 49 14 51 14 52
REMARK H PARENT 17 53 17 54 15 56
REMARK Flexibility Score: inf
ROOT
ATOM      1  C   UNL     1     -45.722  37.619  28.262  1.00  0.00    -0.027 A 
ATOM      2  C   UNL     1     -46.996  37.941  27.777  1.00  0.00    -0.057 A 
ATOM      3  C   UNL     1     -47.792  36.981  27.139  1.00  0.00    -0.052 A 
ATOM      4  C   UNL     1     -47.300  35.674  26.978  1.00  0.00    -0.000 A 
ATOM      5  C   UNL     1     -47.818  34.486  26.396  1.00  0.00    -0.032 A 
ATOM      6  C   UNL     1     -46.875  33.485  26.538  1.00  0.00     0.030 A 
ATOM      7  N   UNL     1     -45.788  34.048  27.167  1.00  0.00    -0.357 N 
ATOM      8  C   UNL     1     -46.026  35.373  27.456  1.00  0.00     0.046 A 
ATOM      9  C   UNL     1     -45.215  36.318  28.094  1.00  0.00    -0.033 A 
ATOM     10  H   UNL     1     -47.385  38.952  27.892  1.00  0.00     0.063 H 
ATOM     11  H   UNL     1     -48.780  37.246  26.773  1.00  0.00     0.063 H 
ATOM     12  H   UNL     1     -48.786  34.373  25.924  1.00  0.00     0.065 H 
ATOM     13  H   UNL     1     -44.935  33.560  27.400  1.00  0.00     0.166 HD
ATOM     14  H   UNL     1     -44.222  36.058  28.449  1.00  0.00     0.065 H 
ENDROOT
BRANCH   1  15
ATOM     15  C   UNL     1     -44.870  38.674  28.917  1.00  0.00     0.043 C 
ATOM     16  H   UNL     1     -43.930  38.243  29.282  1.00  0.00     0.054 H 
ATOM     17  H   UNL     1     -45.378  39.103  29.788  1.00  0.00     0.054 H 
BRANCH  15  18
ATOM     18  N   UNL     1     -44.577  39.739  27.995  1.00  0.00    -0.347 N 
ATOM     19  O   UNL     1     -42.839  40.627  29.205  1.00  0.00    -0.268 OA
ATOM     20  C   UNL     1     -43.600  40.667  28.245  1.00  0.00     0.270 C 
ATOM     21  H   UNL     1     -45.200  39.924  27.216  1.00  0.00     0.164 HD
BRANCH  20  22
ATOM     22  C   UNL     1     -43.567  41.764  27.207  1.00  0.00     0.136 A 
ATOM     23  C   UNL     1     -42.366  42.091  26.725  1.00  0.00     0.035 A 
ATOM     24  N   UNL     1     -44.751  42.352  26.830  1.00  0.00    -0.225 NA
ATOM     25  C   UNL     1     -42.288  43.152  25.713  1.00  0.00     0.258 A 
ATOM     26  H   UNL     1     -41.440  41.620  27.031  1.00  0.00     0.071 H 
ATOM     27  C   UNL     1     -44.678  43.291  25.936  1.00  0.00     0.140 A 
ATOM     28  O   UNL     1     -41.186  43.459  25.262  1.00  0.00    -0.269 OA
ATOM     29  N   UNL     1     -43.496  43.728  25.349  1.00  0.00    -0.268 N 
ATOM     30  C   UNL     1     -45.938  43.956  25.495  1.00  0.00    -0.019 A 
ATOM     31  C   UNL     1     -43.503  44.742  24.396  1.00  0.00     0.014 A 
ATOM     32  C   UNL     1     -45.894  44.927  24.574  1.00  0.00    -0.057 A 
ATOM     33  H   UNL     1     -46.863  43.622  25.946  1.00  0.00     0.066 H 
ATOM     34  C   UNL     1     -44.637  45.336  24.005  1.00  0.00    -0.045 A 
ATOM     35  H   UNL     1     -42.543  45.035  23.980  1.00  0.00     0.082 H 
ATOM     36  H   UNL     1     -46.800  45.423  24.241  1.00  0.00     0.062 H 
ATOM     37  H   UNL     1     -44.631  46.125  23.261  1.00  0.00     0.064 H 
ENDBRANCH  20  22
ENDBRANCH  15  18
ENDBRANCH   1  15
BRANCH   6  38
ATOM     38  C   UNL     1     -46.884  32.057  26.103  1.00  0.00     0.038 C 
ATOM     39  H   UNL     1     -47.161  31.413  26.949  1.00  0.00     0.050 H 
ATOM     40  H   UNL     1     -45.858  31.759  25.847  1.00  0.00     0.050 H 
BRANCH  38  41
ATOM     41  N   UNL     1     -47.762  31.762  24.968  1.00  0.00    -0.297 NA
ATOM     42  C   UNL     1     -47.064  31.257  23.782  1.00  0.00     0.001 C 
ATOM     43  C   UNL     1     -48.946  30.980  25.309  1.00  0.00     0.001 C 
ATOM     44  C   UNL     1     -48.013  30.656  22.740  1.00  0.00    -0.009 C 
ATOM     45  H   UNL     1     -46.322  30.489  24.029  1.00  0.00     0.043 H 
ATOM     46  H   UNL     1     -46.519  32.091  23.326  1.00  0.00     0.043 H 
ATOM     47  C   UNL     1     -50.001  31.118  24.208  1.00  0.00    -0.009 C 
ATOM     48  H   UNL     1     -48.692  29.921  25.445  1.00  0.00     0.043 H 
ATOM     49  H   UNL     1     -49.394  31.325  26.250  1.00  0.00     0.043 H 
ATOM     50  C   UNL     1     -49.383  31.300  22.827  1.00  0.00     0.103 C 
ATOM     51  H   UNL     1     -47.599  30.775  21.732  1.00  0.00     0.031 H 
ATOM     52  H   UNL     1     -48.114  29.576  22.902  1.00  0.00     0.031 H 
ATOM     53  H   UNL     1     -50.656  30.239  24.218  1.00  0.00     0.031 H 
ATOM     54  H   UNL     1     -50.647  31.980  24.414  1.00  0.00     0.031 H 
ATOM     55  F   UNL     1     -50.203  30.732  21.900  1.00  0.00    -0.247 F 
ATOM     56  H   UNL     1     -49.312  32.366  22.581  1.00  0.00     0.066 H 
ENDBRANCH  38  41
ENDBRANCH   6  38
TORSDOF 5
ENDMDL
