MODEL 1
REMARK VINA RESULT:     -10.9      0.000      0.000
REMARK SMILES CNc1ccc2ccc(OCc3cncc(-n4cc(C5CCCC5)c5cncnc54)c3)cc2n1
REMARK SMILES IDX 11 1 10 4 9 5 3 6 4 7 34 8 5 9 33 11 6 12 32 14 7 15 8 17
REMARK SMILES IDX 2 20 1 22 12 26 13 27 31 28 14 29 16 31 15 33 17 35 18 36
REMARK SMILES IDX 30 37 19 38 25 40 29 41 26 42 28 43 27 44 20 47 21 48 24 49
REMARK SMILES IDX 22 51 23 54
REMARK H PARENT 11 2 11 3 4 10 5 13 32 16 7 18 8 19 2 21 1 23 1 24 1 25 13 30
REMARK H PARENT 31 32 15 34 18 39 26 45 28 46 20 50 21 52 21 53 24 55 24 56
REMARK H PARENT 22 57 22 58 23 59 23 60
REMARK Flexibility Score: inf
ROOT
ATOM      1  C   UNL     1     -45.906  35.163  27.683  1.00  0.00     0.115 C 
ATOM      2  H   UNL     1     -45.383  34.475  28.359  1.00  0.00     0.076 H 
ATOM      3  H   UNL     1     -45.156  35.461  26.941  1.00  0.00     0.076 H 
ENDROOT
BRANCH   1   4
ATOM      4  O   UNL     1     -46.333  36.273  28.476  1.00  0.00    -0.489 OA
BRANCH   4   5
ATOM      5  C   UNL     1     -45.538  37.382  28.547  1.00  0.00     0.122 A 
ATOM      6  C   UNL     1     -43.606  41.406  26.892  1.00  0.00     0.126 A 
ATOM      7  C   UNL     1     -42.906  41.614  28.075  1.00  0.00    -0.019 A 
ATOM      8  N   UNL     1     -44.390  40.323  26.717  1.00  0.00    -0.231 NA
ATOM      9  C   UNL     1     -43.038  40.702  29.118  1.00  0.00    -0.049 A 
ATOM     10  H   UNL     1     -42.254  42.474  28.184  1.00  0.00     0.066 H 
ATOM     11  C   UNL     1     -44.523  39.437  27.721  1.00  0.00     0.076 A 
ATOM     12  C   UNL     1     -43.864  39.588  28.955  1.00  0.00     0.001 A 
ATOM     13  H   UNL     1     -42.494  40.866  30.044  1.00  0.00     0.063 H 
ATOM     14  C   UNL     1     -45.344  38.330  27.540  1.00  0.00     0.007 A 
ATOM     15  C   UNL     1     -44.040  38.638  29.972  1.00  0.00    -0.049 A 
ATOM     16  H   UNL     1     -45.826  38.244  26.574  1.00  0.00     0.069 H 
ATOM     17  C   UNL     1     -44.876  37.543  29.764  1.00  0.00    -0.019 A 
ATOM     18  H   UNL     1     -43.534  38.746  30.929  1.00  0.00     0.063 H 
ATOM     19  H   UNL     1     -45.016  36.811  30.557  1.00  0.00     0.066 H 
BRANCH   6  20
ATOM     20  N   UNL     1     -43.434  42.338  25.853  1.00  0.00    -0.373 N 
ATOM     21  H   UNL     1     -43.506  41.854  24.963  1.00  0.00     0.161 HD
BRANCH  20  22
ATOM     22  C   UNL     1     -42.208  43.114  25.945  1.00  0.00     0.005 C 
ATOM     23  H   UNL     1     -41.337  42.472  26.119  1.00  0.00     0.045 H 
ATOM     24  H   UNL     1     -42.048  43.640  24.999  1.00  0.00     0.045 H 
ATOM     25  H   UNL     1     -42.270  43.872  26.734  1.00  0.00     0.045 H 
ENDBRANCH  20  22
ENDBRANCH   6  20
ENDBRANCH   4   5
ENDBRANCH   1   4
BRANCH   1  26
ATOM     26  C   UNL     1     -47.067  34.419  27.081  1.00  0.00     0.010 A 
ATOM     27  C   UNL     1     -48.351  34.942  27.138  1.00  0.00     0.034 A 
ATOM     28  C   UNL     1     -46.903  33.175  26.455  1.00  0.00    -0.028 A 
ATOM     29  N   UNL     1     -49.439  34.322  26.635  1.00  0.00    -0.262 NA
ATOM     30  H   UNL     1     -48.548  35.905  27.603  1.00  0.00     0.084 H 
ATOM     31  C   UNL     1     -48.004  32.509  25.898  1.00  0.00     0.066 A 
ATOM     32  H   UNL     1     -45.907  32.746  26.427  1.00  0.00     0.065 H 
ATOM     33  C   UNL     1     -49.244  33.125  26.026  1.00  0.00     0.051 A 
ATOM     34  H   UNL     1     -50.159  32.712  25.620  1.00  0.00     0.086 H 
BRANCH  31  35
ATOM     35  N   UNL     1     -47.844  31.262  25.215  1.00  0.00    -0.299 N 
ATOM     36  C   UNL     1     -48.346  30.045  25.653  1.00  0.00     0.015 A 
ATOM     37  C   UNL     1     -47.170  31.018  24.019  1.00  0.00     0.148 A 
ATOM     38  C   UNL     1     -47.997  29.034  24.776  1.00  0.00    -0.016 A 
ATOM     39  H   UNL     1     -48.892  29.965  26.582  1.00  0.00     0.083 H 
ATOM     40  C   UNL     1     -47.257  29.658  23.734  1.00  0.00     0.041 A 
ATOM     41  N   UNL     1     -46.555  31.931  23.238  1.00  0.00    -0.218 NA
ATOM     42  C   UNL     1     -46.639  29.224  22.560  1.00  0.00     0.040 A 
ATOM     43  C   UNL     1     -46.002  31.396  22.140  1.00  0.00     0.117 A 
ATOM     44  N   UNL     1     -46.006  30.107  21.761  1.00  0.00    -0.244 NA
ATOM     45  H   UNL     1     -46.636  28.190  22.234  1.00  0.00     0.085 H 
ATOM     46  H   UNL     1     -45.490  32.087  21.477  1.00  0.00     0.106 H 
BRANCH  38  47
ATOM     47  C   UNL     1     -48.332  27.573  24.899  1.00  0.00    -0.014 C 
ATOM     48  C   UNL     1     -47.091  26.661  24.923  1.00  0.00    -0.046 C 
ATOM     49  C   UNL     1     -49.111  27.250  26.186  1.00  0.00    -0.046 C 
ATOM     50  H   UNL     1     -48.943  27.280  24.036  1.00  0.00     0.035 H 
ATOM     51  C   UNL     1     -47.032  26.091  26.334  1.00  0.00    -0.053 C 
ATOM     52  H   UNL     1     -47.238  25.837  24.212  1.00  0.00     0.027 H 
ATOM     53  H   UNL     1     -46.158  27.162  24.647  1.00  0.00     0.027 H 
ATOM     54  C   UNL     1     -48.494  25.964  26.719  1.00  0.00    -0.053 C 
ATOM     55  H   UNL     1     -50.182  27.129  25.992  1.00  0.00     0.027 H 
ATOM     56  H   UNL     1     -49.008  28.043  26.938  1.00  0.00     0.027 H 
ATOM     57  H   UNL     1     -46.506  25.133  26.373  1.00  0.00     0.027 H 
ATOM     58  H   UNL     1     -46.520  26.790  27.005  1.00  0.00     0.027 H 
ATOM     59  H   UNL     1     -48.944  25.095  26.223  1.00  0.00     0.027 H 
ATOM     60  H   UNL     1     -48.634  25.852  27.798  1.00  0.00     0.027 H 
ENDBRANCH  38  47
ENDBRANCH  31  35
ENDBRANCH   1  26
TORSDOF 7
ENDMDL
MODEL 2
REMARK VINA RESULT:     -10.6      1.902      2.680
REMARK SMILES CNc1ccc2ccc(OCc3cncc(-n4cc(C5CCCC5)c5cncnc54)c3)cc2n1
REMARK SMILES IDX 11 1 10 4 9 5 3 6 4 7 34 8 5 9 33 11 6 12 32 14 7 15 8 17
REMARK SMILES IDX 2 20 1 22 12 26 13 27 31 28 14 29 16 31 15 33 17 35 18 36
REMARK SMILES IDX 30 37 19 38 25 40 29 41 26 42 28 43 27 44 20 47 21 48 24 49
REMARK SMILES IDX 22 51 23 54
REMARK H PARENT 11 2 11 3 4 10 5 13 32 16 7 18 8 19 2 21 1 23 1 24 1 25 13 30
REMARK H PARENT 31 32 15 34 18 39 26 45 28 46 20 50 21 52 21 53 24 55 24 56
REMARK H PARENT 22 57 22 58 23 59 23 60
REMARK Flexibility Score: inf
ROOT
ATOM      1  C   UNL     1     -48.694  35.102  26.979  1.00  0.00     0.115 C 
ATOM      2  H   UNL     1     -48.713  36.025  26.387  1.00  0.00     0.076 H 
ATOM      3  H   UNL     1     -49.745  34.882  27.199  1.00  0.00     0.076 H 
ENDROOT
BRANCH   1   4
ATOM      4  O   UNL     1     -47.955  35.391  28.168  1.00  0.00    -0.489 OA
BRANCH   4   5
ATOM      5  C   UNL     1     -47.075  36.437  28.164  1.00  0.00     0.122 A 
ATOM      6  C   UNL     1     -45.239  40.510  26.522  1.00  0.00     0.126 A 
ATOM      7  C   UNL     1     -44.275  40.537  27.524  1.00  0.00    -0.019 A 
ATOM      8  N   UNL     1     -46.129  39.502  26.426  1.00  0.00    -0.231 NA
ATOM      9  C   UNL     1     -44.244  39.517  28.471  1.00  0.00    -0.049 A 
ATOM     10  H   UNL     1     -43.546  41.339  27.566  1.00  0.00     0.066 H 
ATOM     11  C   UNL     1     -46.106  38.513  27.338  1.00  0.00     0.076 A 
ATOM     12  C   UNL     1     -45.175  38.480  28.392  1.00  0.00     0.001 A 
ATOM     13  H   UNL     1     -43.493  39.539  29.256  1.00  0.00     0.063 H 
ATOM     14  C   UNL     1     -47.035  37.484  27.242  1.00  0.00     0.007 A 
ATOM     15  C   UNL     1     -45.195  37.427  29.321  1.00  0.00    -0.049 A 
ATOM     16  H   UNL     1     -47.728  37.540  26.411  1.00  0.00     0.069 H 
ATOM     17  C   UNL     1     -46.145  36.414  29.202  1.00  0.00    -0.019 A 
ATOM     18  H   UNL     1     -44.480  37.392  30.138  1.00  0.00     0.063 H 
ATOM     19  H   UNL     1     -46.163  35.603  29.927  1.00  0.00     0.066 H 
BRANCH   6  20
ATOM     20  N   UNL     1     -45.228  41.548  25.572  1.00  0.00    -0.373 N 
ATOM     21  H   UNL     1     -44.266  41.831  25.408  1.00  0.00     0.161 HD
BRANCH  20  22
ATOM     22  C   UNL     1     -46.071  42.680  25.917  1.00  0.00     0.005 C 
ATOM     23  H   UNL     1     -45.476  43.537  26.254  1.00  0.00     0.045 H 
ATOM     24  H   UNL     1     -46.627  42.994  25.028  1.00  0.00     0.045 H 
ATOM     25  H   UNL     1     -46.806  42.417  26.685  1.00  0.00     0.045 H 
ENDBRANCH  20  22
ENDBRANCH   6  20
ENDBRANCH   4   5
ENDBRANCH   1   4
BRANCH   1  26
ATOM     26  C   UNL     1     -48.030  34.039  26.146  1.00  0.00     0.010 A 
ATOM     27  C   UNL     1     -46.781  34.256  25.582  1.00  0.00     0.034 A 
ATOM     28  C   UNL     1     -48.645  32.803  25.899  1.00  0.00    -0.028 A 
ATOM     29  N   UNL     1     -46.136  33.356  24.812  1.00  0.00    -0.262 NA
ATOM     30  H   UNL     1     -46.246  35.190  25.739  1.00  0.00     0.084 H 
ATOM     31  C   UNL     1     -47.997  31.831  25.123  1.00  0.00     0.066 A 
ATOM     32  H   UNL     1     -49.632  32.633  26.314  1.00  0.00     0.065 H 
ATOM     33  C   UNL     1     -46.753  32.165  24.601  1.00  0.00     0.051 A 
ATOM     34  H   UNL     1     -46.156  31.488  24.003  1.00  0.00     0.086 H 
BRANCH  31  35
ATOM     35  N   UNL     1     -48.591  30.548  24.902  1.00  0.00    -0.299 N 
ATOM     36  C   UNL     1     -47.988  29.332  25.187  1.00  0.00     0.015 A 
ATOM     37  C   UNL     1     -49.847  30.263  24.366  1.00  0.00     0.148 A 
ATOM     38  C   UNL     1     -48.819  28.284  24.835  1.00  0.00    -0.016 A 
ATOM     39  H   UNL     1     -46.986  29.284  25.592  1.00  0.00     0.083 H 
ATOM     40  C   UNL     1     -50.004  28.880  24.321  1.00  0.00     0.041 A 
ATOM     41  N   UNL     1     -50.781  31.157  23.977  1.00  0.00    -0.218 NA
ATOM     42  C   UNL     1     -51.213  28.403  23.814  1.00  0.00     0.040 A 
ATOM     43  C   UNL     1     -51.898  30.580  23.512  1.00  0.00     0.117 A 
ATOM     44  N   UNL     1     -52.165  29.268  23.407  1.00  0.00    -0.244 NA
ATOM     45  H   UNL     1     -51.450  27.349  23.727  1.00  0.00     0.085 H 
ATOM     46  H   UNL     1     -52.683  31.255  23.181  1.00  0.00     0.106 H 
BRANCH  38  47
ATOM     47  C   UNL     1     -48.529  26.814  24.967  1.00  0.00    -0.014 C 
ATOM     48  C   UNL     1     -47.026  26.494  25.080  1.00  0.00    -0.046 C 
ATOM     49  C   UNL     1     -49.182  26.191  26.214  1.00  0.00    -0.046 C 
ATOM     50  H   UNL     1     -48.912  26.301  24.077  1.00  0.00     0.035 H 
ATOM     51  C   UNL     1     -46.824  25.991  26.503  1.00  0.00    -0.053 C 
ATOM     52  H   UNL     1     -46.778  25.688  24.379  1.00  0.00     0.027 H 
ATOM     53  H   UNL     1     -46.368  27.337  24.848  1.00  0.00     0.027 H 
ATOM     54  C   UNL     1     -48.124  25.271  26.806  1.00  0.00    -0.053 C 
ATOM     55  H   UNL     1     -50.095  25.641  25.960  1.00  0.00     0.027 H 
ATOM     56  H   UNL     1     -49.461  26.952  26.954  1.00  0.00     0.027 H 
ATOM     57  H   UNL     1     -45.953  25.335  26.591  1.00  0.00     0.027 H 
ATOM     58  H   UNL     1     -46.686  26.836  27.189  1.00  0.00     0.027 H 
ATOM     59  H   UNL     1     -48.145  24.297  26.302  1.00  0.00     0.027 H 
ATOM     60  H   UNL     1     -48.270  25.105  27.878  1.00  0.00     0.027 H 
ENDBRANCH  38  47
ENDBRANCH  31  35
ENDBRANCH   1  26
TORSDOF 7
ENDMDL
MODEL 3
REMARK VINA RESULT:     -10.4      2.157     11.559
REMARK SMILES CNc1ccc2ccc(OCc3cncc(-n4cc(C5CCCC5)c5cncnc54)c3)cc2n1
REMARK SMILES IDX 11 1 10 4 9 5 3 6 4 7 34 8 5 9 33 11 6 12 32 14 7 15 8 17
REMARK SMILES IDX 2 20 1 22 12 26 13 27 31 28 14 29 16 31 15 33 17 35 18 36
REMARK SMILES IDX 30 37 19 38 25 40 29 41 26 42 28 43 27 44 20 47 21 48 24 49
REMARK SMILES IDX 22 51 23 54
REMARK H PARENT 11 2 11 3 4 10 5 13 32 16 7 18 8 19 2 21 1 23 1 24 1 25 13 30
REMARK H PARENT 31 32 15 34 18 39 26 45 28 46 20 50 21 52 21 53 24 55 24 56
REMARK H PARENT 22 57 22 58 23 59 23 60
REMARK Flexibility Score: inf
ROOT
ATOM      1  C   UNL     1     -46.623  35.883  27.667  1.00  0.00     0.115 C 
ATOM      2  H   UNL     1     -45.730  35.622  28.247  1.00  0.00     0.076 H 
ATOM      3  H   UNL     1     -47.446  35.340  28.148  1.00  0.00     0.076 H 
ENDROOT
BRANCH   1   4
ATOM      4  O   UNL     1     -46.396  35.422  26.333  1.00  0.00    -0.489 OA
BRANCH   4   5
ATOM      5  C   UNL     1     -46.981  34.254  25.927  1.00  0.00     0.122 A 
ATOM      6  C   UNL     1     -47.111  30.062  23.676  1.00  0.00     0.126 A 
ATOM      7  C   UNL     1     -48.413  29.821  24.099  1.00  0.00    -0.019 A 
ATOM      8  N   UNL     1     -46.464  31.201  23.999  1.00  0.00    -0.231 NA
ATOM      9  C   UNL     1     -49.058  30.758  24.899  1.00  0.00    -0.049 A 
ATOM     10  H   UNL     1     -48.929  28.913  23.801  1.00  0.00     0.066 H 
ATOM     11  C   UNL     1     -47.081  32.112  24.773  1.00  0.00     0.076 A 
ATOM     12  C   UNL     1     -48.390  31.931  25.256  1.00  0.00     0.001 A 
ATOM     13  H   UNL     1     -50.075  30.568  25.232  1.00  0.00     0.063 H 
ATOM     14  C   UNL     1     -46.404  33.276  25.114  1.00  0.00     0.007 A 
ATOM     15  C   UNL     1     -48.987  32.910  26.065  1.00  0.00    -0.049 A 
ATOM     16  H   UNL     1     -45.403  33.384  24.715  1.00  0.00     0.069 H 
ATOM     17  C   UNL     1     -48.279  34.064  26.397  1.00  0.00    -0.019 A 
ATOM     18  H   UNL     1     -49.998  32.779  26.443  1.00  0.00     0.063 H 
ATOM     19  H   UNL     1     -48.742  34.818  27.030  1.00  0.00     0.066 H 
BRANCH   6  20
ATOM     20  N   UNL     1     -46.497  29.101  22.853  1.00  0.00    -0.373 N 
ATOM     21  H   UNL     1     -46.322  28.264  23.402  1.00  0.00     0.161 HD
BRANCH  20  22
ATOM     22  C   UNL     1     -45.294  29.567  22.185  1.00  0.00     0.005 C 
ATOM     23  H   UNL     1     -45.501  29.884  21.156  1.00  0.00     0.045 H 
ATOM     24  H   UNL     1     -44.900  30.434  22.724  1.00  0.00     0.045 H 
ATOM     25  H   UNL     1     -44.511  28.801  22.183  1.00  0.00     0.045 H 
ENDBRANCH  20  22
ENDBRANCH   6  20
ENDBRANCH   4   5
ENDBRANCH   1   4
BRANCH   1  26
ATOM     26  C   UNL     1     -46.787  37.378  27.728  1.00  0.00     0.010 A 
ATOM     27  C   UNL     1     -48.002  37.943  28.091  1.00  0.00     0.034 A 
ATOM     28  C   UNL     1     -45.735  38.250  27.415  1.00  0.00    -0.028 A 
ATOM     29  N   UNL     1     -48.224  39.272  28.150  1.00  0.00    -0.262 NA
ATOM     30  H   UNL     1     -48.856  37.324  28.352  1.00  0.00     0.084 H 
ATOM     31  C   UNL     1     -45.919  39.638  27.487  1.00  0.00     0.066 A 
ATOM     32  H   UNL     1     -44.790  37.817  27.106  1.00  0.00     0.065 H 
ATOM     33  C   UNL     1     -47.182  40.090  27.851  1.00  0.00     0.051 A 
ATOM     34  H   UNL     1     -47.433  41.138  27.956  1.00  0.00     0.086 H 
BRANCH  31  35
ATOM     35  N   UNL     1     -44.841  40.540  27.215  1.00  0.00    -0.299 N 
ATOM     36  C   UNL     1     -44.758  41.370  26.107  1.00  0.00     0.015 A 
ATOM     37  C   UNL     1     -43.691  40.757  27.973  1.00  0.00     0.148 A 
ATOM     38  C   UNL     1     -43.582  42.097  26.133  1.00  0.00    -0.016 A 
ATOM     39  H   UNL     1     -45.526  41.367  25.346  1.00  0.00     0.083 H 
ATOM     40  C   UNL     1     -42.910  41.711  27.325  1.00  0.00     0.041 A 
ATOM     41  N   UNL     1     -43.378  40.176  29.151  1.00  0.00    -0.218 NA
ATOM     42  C   UNL     1     -41.711  42.063  27.946  1.00  0.00     0.040 A 
ATOM     43  C   UNL     1     -42.207  40.596  29.649  1.00  0.00     0.117 A 
ATOM     44  N   UNL     1     -41.361  41.495  29.118  1.00  0.00    -0.244 NA
ATOM     45  H   UNL     1     -41.018  42.790  27.537  1.00  0.00     0.085 H 
ATOM     46  H   UNL     1     -41.904  40.157  30.596  1.00  0.00     0.106 H 
BRANCH  38  47
ATOM     47  C   UNL     1     -43.109  43.092  25.109  1.00  0.00    -0.014 C 
ATOM     48  C   UNL     1     -43.795  42.932  23.739  1.00  0.00    -0.046 C 
ATOM     49  C   UNL     1     -43.366  44.548  25.535  1.00  0.00    -0.046 C 
ATOM     50  H   UNL     1     -42.031  42.954  24.960  1.00  0.00     0.035 H 
ATOM     51  C   UNL     1     -44.667  44.169  23.574  1.00  0.00    -0.053 C 
ATOM     52  H   UNL     1     -43.028  42.930  22.953  1.00  0.00     0.027 H 
ATOM     53  H   UNL     1     -44.372  42.008  23.628  1.00  0.00     0.027 H 
ATOM     54  C   UNL     1     -43.876  45.250  24.285  1.00  0.00    -0.053 C 
ATOM     55  H   UNL     1     -42.456  45.024  25.919  1.00  0.00     0.027 H 
ATOM     56  H   UNL     1     -44.122  44.616  26.328  1.00  0.00     0.027 H 
ATOM     57  H   UNL     1     -44.852  44.410  22.524  1.00  0.00     0.027 H 
ATOM     58  H   UNL     1     -45.636  44.019  24.066  1.00  0.00     0.027 H 
ATOM     59  H   UNL     1     -43.033  45.576  23.663  1.00  0.00     0.027 H 
ATOM     60  H   UNL     1     -44.486  46.128  24.521  1.00  0.00     0.027 H 
ENDBRANCH  38  47
ENDBRANCH  31  35
ENDBRANCH   1  26
TORSDOF 7
ENDMDL
MODEL 4
REMARK VINA RESULT:     -10.2      1.879      2.430
REMARK SMILES CNc1ccc2ccc(OCc3cncc(-n4cc(C5CCCC5)c5cncnc54)c3)cc2n1
REMARK SMILES IDX 11 1 10 4 9 5 3 6 4 7 34 8 5 9 33 11 6 12 32 14 7 15 8 17
REMARK SMILES IDX 2 20 1 22 12 26 13 27 31 28 14 29 16 31 15 33 17 35 18 36
REMARK SMILES IDX 30 37 19 38 25 40 29 41 26 42 28 43 27 44 20 47 21 48 24 49
REMARK SMILES IDX 22 51 23 54
REMARK H PARENT 11 2 11 3 4 10 5 13 32 16 7 18 8 19 2 21 1 23 1 24 1 25 13 30
REMARK H PARENT 31 32 15 34 18 39 26 45 28 46 20 50 21 52 21 53 24 55 24 56
REMARK H PARENT 22 57 22 58 23 59 23 60
REMARK Flexibility Score: inf
ROOT
ATOM      1  C   UNL     1     -46.822  36.622  26.547  1.00  0.00     0.115 C 
ATOM      2  H   UNL     1     -45.867  36.922  26.098  1.00  0.00     0.076 H 
ATOM      3  H   UNL     1     -47.589  36.966  25.842  1.00  0.00     0.076 H 
ENDROOT
BRANCH   1   4
ATOM      4  O   UNL     1     -46.917  37.298  27.802  1.00  0.00    -0.489 OA
BRANCH   4   5
ATOM      5  C   UNL     1     -45.861  38.054  28.229  1.00  0.00     0.122 A 
ATOM      6  C   UNL     1     -42.705  41.604  27.919  1.00  0.00     0.126 A 
ATOM      7  C   UNL     1     -42.126  41.261  29.137  1.00  0.00    -0.019 A 
ATOM      8  N   UNL     1     -43.729  40.897  27.402  1.00  0.00    -0.231 NA
ATOM      9  C   UNL     1     -42.632  40.182  29.855  1.00  0.00    -0.049 A 
ATOM     10  H   UNL     1     -41.281  41.822  29.521  1.00  0.00     0.066 H 
ATOM     11  C   UNL     1     -44.225  39.853  28.091  1.00  0.00     0.076 A 
ATOM     12  C   UNL     1     -43.707  39.457  29.338  1.00  0.00     0.001 A 
ATOM     13  H   UNL     1     -42.183  39.916  30.808  1.00  0.00     0.063 H 
ATOM     14  C   UNL     1     -45.290  39.137  27.558  1.00  0.00     0.007 A 
ATOM     15  C   UNL     1     -44.263  38.363  30.019  1.00  0.00    -0.049 A 
ATOM     16  H   UNL     1     -45.654  39.467  26.593  1.00  0.00     0.069 H 
ATOM     17  C   UNL     1     -45.337  37.670  29.463  1.00  0.00    -0.019 A 
ATOM     18  H   UNL     1     -43.869  38.049  30.982  1.00  0.00     0.063 H 
ATOM     19  H   UNL     1     -45.770  36.827  29.996  1.00  0.00     0.066 H 
BRANCH   6  20
ATOM     20  N   UNL     1     -42.154  42.688  27.212  1.00  0.00    -0.373 N 
ATOM     21  H   UNL     1     -41.731  43.331  27.876  1.00  0.00     0.161 HD
BRANCH  20  22
ATOM     22  C   UNL     1     -43.093  43.365  26.333  1.00  0.00     0.005 C 
ATOM     23  H   UNL     1     -43.019  42.996  25.304  1.00  0.00     0.045 H 
ATOM     24  H   UNL     1     -44.112  43.170  26.682  1.00  0.00     0.045 H 
ATOM     25  H   UNL     1     -42.947  44.451  26.347  1.00  0.00     0.045 H 
ENDBRANCH  20  22
ENDBRANCH   6  20
ENDBRANCH   4   5
ENDBRANCH   1   4
BRANCH   1  26
ATOM     26  C   UNL     1     -46.800  35.126  26.711  1.00  0.00     0.010 A 
ATOM     27  C   UNL     1     -46.213  34.544  27.826  1.00  0.00     0.034 A 
ATOM     28  C   UNL     1     -47.355  34.269  25.751  1.00  0.00    -0.028 A 
ATOM     29  N   UNL     1     -46.142  33.213  28.029  1.00  0.00    -0.262 NA
ATOM     30  H   UNL     1     -45.770  35.151  28.611  1.00  0.00     0.084 H 
ATOM     31  C   UNL     1     -47.323  32.879  25.936  1.00  0.00     0.066 A 
ATOM     32  H   UNL     1     -47.794  34.714  24.863  1.00  0.00     0.065 H 
ATOM     33  C   UNL     1     -46.699  32.410  27.086  1.00  0.00     0.051 A 
ATOM     34  H   UNL     1     -46.631  31.360  27.341  1.00  0.00     0.086 H 
BRANCH  31  35
ATOM     35  N   UNL     1     -47.928  31.995  24.987  1.00  0.00    -0.299 N 
ATOM     36  C   UNL     1     -49.194  31.441  25.111  1.00  0.00     0.015 A 
ATOM     37  C   UNL     1     -47.389  31.517  23.793  1.00  0.00     0.148 A 
ATOM     38  C   UNL     1     -49.467  30.614  24.036  1.00  0.00    -0.016 A 
ATOM     39  H   UNL     1     -49.812  31.640  25.975  1.00  0.00     0.083 H 
ATOM     40  C   UNL     1     -48.321  30.671  23.197  1.00  0.00     0.041 A 
ATOM     41  N   UNL     1     -46.184  31.827  23.270  1.00  0.00    -0.218 NA
ATOM     42  C   UNL     1     -47.955  30.097  21.978  1.00  0.00     0.040 A 
ATOM     43  C   UNL     1     -45.948  31.218  22.099  1.00  0.00     0.117 A 
ATOM     44  N   UNL     1     -46.754  30.377  21.430  1.00  0.00    -0.244 NA
ATOM     45  H   UNL     1     -48.593  29.422  21.421  1.00  0.00     0.085 H 
ATOM     46  H   UNL     1     -44.989  31.430  21.634  1.00  0.00     0.106 H 
BRANCH  38  47
ATOM     47  C   UNL     1     -50.721  29.816  23.803  1.00  0.00    -0.014 C 
ATOM     48  C   UNL     1     -51.447  30.185  22.496  1.00  0.00    -0.046 C 
ATOM     49  C   UNL     1     -50.453  28.303  23.719  1.00  0.00    -0.046 C 
ATOM     50  H   UNL     1     -51.414  30.004  24.633  1.00  0.00     0.035 H 
ATOM     51  C   UNL     1     -51.293  28.971  21.590  1.00  0.00    -0.053 C 
ATOM     52  H   UNL     1     -52.513  30.337  22.709  1.00  0.00     0.027 H 
ATOM     53  H   UNL     1     -51.079  31.099  22.019  1.00  0.00     0.027 H 
ATOM     54  C   UNL     1     -51.309  27.806  22.562  1.00  0.00    -0.053 C 
ATOM     55  H   UNL     1     -50.710  27.793  24.654  1.00  0.00     0.027 H 
ATOM     56  H   UNL     1     -49.397  28.084  23.513  1.00  0.00     0.027 H 
ATOM     57  H   UNL     1     -52.092  28.904  20.846  1.00  0.00     0.027 H 
ATOM     58  H   UNL     1     -50.335  29.012  21.058  1.00  0.00     0.027 H 
ATOM     59  H   UNL     1     -52.332  27.611  22.905  1.00  0.00     0.027 H 
ATOM     60  H   UNL     1     -50.915  26.886  22.119  1.00  0.00     0.027 H 
ENDBRANCH  38  47
ENDBRANCH  31  35
ENDBRANCH   1  26
TORSDOF 7
ENDMDL
MODEL 5
REMARK VINA RESULT:      -9.8      2.184     11.805
REMARK SMILES CNc1ccc2ccc(OCc3cncc(-n4cc(C5CCCC5)c5cncnc54)c3)cc2n1
REMARK SMILES IDX 11 1 10 4 9 5 3 6 4 7 34 8 5 9 33 11 6 12 32 14 7 15 8 17
REMARK SMILES IDX 2 20 1 22 12 26 13 27 31 28 14 29 16 31 15 33 17 35 18 36
REMARK SMILES IDX 30 37 19 38 25 40 29 41 26 42 28 43 27 44 20 47 21 48 24 49
REMARK SMILES IDX 22 51 23 54
REMARK H PARENT 11 2 11 3 4 10 5 13 32 16 7 18 8 19 2 21 1 23 1 24 1 25 13 30
REMARK H PARENT 31 32 15 34 18 39 26 45 28 46 20 50 21 52 21 53 24 55 24 56
REMARK H PARENT 22 57 22 58 23 59 23 60
REMARK Flexibility Score: inf
ROOT
ATOM      1  C   UNL     1     -47.366  35.249  26.369  1.00  0.00     0.115 C 
ATOM      2  H   UNL     1     -48.325  35.682  26.058  1.00  0.00     0.076 H 
ATOM      3  H   UNL     1     -46.759  35.212  25.457  1.00  0.00     0.076 H 
ENDROOT
BRANCH   1   4
ATOM      4  O   UNL     1     -47.648  33.940  26.869  1.00  0.00    -0.489 OA
BRANCH   4   5
ATOM      5  C   UNL     1     -47.561  32.873  26.018  1.00  0.00     0.122 A 
ATOM      6  C   UNL     1     -48.890  28.658  24.251  1.00  0.00     0.126 A 
ATOM      7  C   UNL     1     -47.891  28.693  23.285  1.00  0.00    -0.019 A 
ATOM      8  N   UNL     1     -49.033  29.649  25.154  1.00  0.00    -0.231 NA
ATOM      9  C   UNL     1     -47.034  29.788  23.225  1.00  0.00    -0.049 A 
ATOM     10  H   UNL     1     -47.770  27.870  22.587  1.00  0.00     0.066 H 
ATOM     11  C   UNL     1     -48.210  30.711  25.102  1.00  0.00     0.076 A 
ATOM     12  C   UNL     1     -47.188  30.829  24.142  1.00  0.00     0.001 A 
ATOM     13  H   UNL     1     -46.256  29.818  22.468  1.00  0.00     0.063 H 
ATOM     14  C   UNL     1     -48.371  31.736  26.027  1.00  0.00     0.007 A 
ATOM     15  C   UNL     1     -46.358  31.961  24.128  1.00  0.00    -0.049 A 
ATOM     16  H   UNL     1     -49.161  31.604  26.756  1.00  0.00     0.069 H 
ATOM     17  C   UNL     1     -46.550  32.976  25.063  1.00  0.00    -0.019 A 
ATOM     18  H   UNL     1     -45.566  32.061  23.390  1.00  0.00     0.063 H 
ATOM     19  H   UNL     1     -45.910  33.856  25.045  1.00  0.00     0.066 H 
BRANCH   6  20
ATOM     20  N   UNL     1     -49.724  27.526  24.293  1.00  0.00    -0.373 N 
ATOM     21  H   UNL     1     -49.485  26.914  23.518  1.00  0.00     0.161 HD
BRANCH  20  22
ATOM     22  C   UNL     1     -51.145  27.833  24.316  1.00  0.00     0.005 C 
ATOM     23  H   UNL     1     -51.535  27.861  25.340  1.00  0.00     0.045 H 
ATOM     24  H   UNL     1     -51.302  28.822  23.875  1.00  0.00     0.045 H 
ATOM     25  H   UNL     1     -51.721  27.115  23.721  1.00  0.00     0.045 H 
ENDBRANCH  20  22
ENDBRANCH   6  20
ENDBRANCH   4   5
ENDBRANCH   1   4
BRANCH   1  26
ATOM     26  C   UNL     1     -46.783  36.145  27.429  1.00  0.00     0.010 A 
ATOM     27  C   UNL     1     -46.827  35.780  28.768  1.00  0.00     0.034 A 
ATOM     28  C   UNL     1     -46.188  37.374  27.113  1.00  0.00    -0.028 A 
ATOM     29  N   UNL     1     -46.340  36.540  29.770  1.00  0.00    -0.262 NA
ATOM     30  H   UNL     1     -47.268  34.837  29.082  1.00  0.00     0.084 H 
ATOM     31  C   UNL     1     -45.649  38.183  28.123  1.00  0.00     0.066 A 
ATOM     32  H   UNL     1     -46.172  37.679  26.072  1.00  0.00     0.065 H 
ATOM     33  C   UNL     1     -45.761  37.720  29.429  1.00  0.00     0.051 A 
ATOM     34  H   UNL     1     -45.366  38.252  30.286  1.00  0.00     0.086 H 
BRANCH  31  35
ATOM     35  N   UNL     1     -44.997  39.418  27.811  1.00  0.00    -0.299 N 
ATOM     36  C   UNL     1     -45.333  40.249  26.751  1.00  0.00     0.015 A 
ATOM     37  C   UNL     1     -43.925  40.016  28.473  1.00  0.00     0.148 A 
ATOM     38  C   UNL     1     -44.496  41.349  26.715  1.00  0.00    -0.016 A 
ATOM     39  H   UNL     1     -46.127  39.989  26.065  1.00  0.00     0.083 H 
ATOM     40  C   UNL     1     -43.607  41.202  27.815  1.00  0.00     0.041 A 
ATOM     41  N   UNL     1     -43.303  39.558  29.580  1.00  0.00    -0.218 NA
ATOM     42  C   UNL     1     -42.552  41.946  28.344  1.00  0.00     0.040 A 
ATOM     43  C   UNL     1     -42.311  40.358  29.993  1.00  0.00     0.117 A 
ATOM     44  N   UNL     1     -41.901  41.514  29.444  1.00  0.00    -0.244 NA
ATOM     45  H   UNL     1     -42.211  42.883  27.919  1.00  0.00     0.085 H 
ATOM     46  H   UNL     1     -41.773  40.035  30.880  1.00  0.00     0.106 H 
BRANCH  38  47
ATOM     47  C   UNL     1     -44.519  42.472  25.714  1.00  0.00    -0.014 C 
ATOM     48  C   UNL     1     -45.124  43.775  26.271  1.00  0.00    -0.046 C 
ATOM     49  C   UNL     1     -43.114  42.847  25.212  1.00  0.00    -0.046 C 
ATOM     50  H   UNL     1     -45.128  42.162  24.856  1.00  0.00     0.035 H 
ATOM     51  C   UNL     1     -43.964  44.756  26.359  1.00  0.00    -0.053 C 
ATOM     52  H   UNL     1     -45.863  44.160  25.556  1.00  0.00     0.027 H 
ATOM     53  H   UNL     1     -45.635  43.659  27.232  1.00  0.00     0.027 H 
ATOM     54  C   UNL     1     -43.090  44.369  25.181  1.00  0.00    -0.053 C 
ATOM     55  H   UNL     1     -42.912  42.424  24.221  1.00  0.00     0.027 H 
ATOM     56  H   UNL     1     -42.327  42.482  25.884  1.00  0.00     0.027 H 
ATOM     57  H   UNL     1     -44.296  45.797  26.307  1.00  0.00     0.027 H 
ATOM     58  H   UNL     1     -43.419  44.618  27.301  1.00  0.00     0.027 H 
ATOM     59  H   UNL     1     -43.527  44.736  24.246  1.00  0.00     0.027 H 
ATOM     60  H   UNL     1     -42.075  44.770  25.265  1.00  0.00     0.027 H 
ENDBRANCH  38  47
ENDBRANCH  31  35
ENDBRANCH   1  26
TORSDOF 7
ENDMDL
MODEL 6
REMARK VINA RESULT:      -9.8      2.797     11.312
REMARK SMILES CNc1ccc2ccc(OCc3cncc(-n4cc(C5CCCC5)c5cncnc54)c3)cc2n1
REMARK SMILES IDX 11 1 10 4 9 5 3 6 4 7 34 8 5 9 33 11 6 12 32 14 7 15 8 17
REMARK SMILES IDX 2 20 1 22 12 26 13 27 31 28 14 29 16 31 15 33 17 35 18 36
REMARK SMILES IDX 30 37 19 38 25 40 29 41 26 42 28 43 27 44 20 47 21 48 24 49
REMARK SMILES IDX 22 51 23 54
REMARK H PARENT 11 2 11 3 4 10 5 13 32 16 7 18 8 19 2 21 1 23 1 24 1 25 13 30
REMARK H PARENT 31 32 15 34 18 39 26 45 28 46 20 50 21 52 21 53 24 55 24 56
REMARK H PARENT 22 57 22 58 23 59 23 60
REMARK Flexibility Score: inf
ROOT
ATOM      1  C   UNL     1     -46.714  32.649  24.617  1.00  0.00     0.115 C 
ATOM      2  H   UNL     1     -46.303  33.312  23.846  1.00  0.00     0.076 H 
ATOM      3  H   UNL     1     -46.110  31.735  24.561  1.00  0.00     0.076 H 
ENDROOT
BRANCH   1   4
ATOM      4  O   UNL     1     -48.077  32.402  24.265  1.00  0.00    -0.489 OA
BRANCH   4   5
ATOM      5  C   UNL     1     -48.523  31.111  24.206  1.00  0.00     0.122 A 
ATOM      6  C   UNL     1     -49.161  26.698  25.873  1.00  0.00     0.126 A 
ATOM      7  C   UNL     1     -49.857  26.315  24.731  1.00  0.00    -0.019 A 
ATOM      8  N   UNL     1     -48.655  27.941  26.007  1.00  0.00    -0.231 NA
ATOM      9  C   UNL     1     -50.064  27.241  23.713  1.00  0.00    -0.049 A 
ATOM     10  H   UNL     1     -50.228  25.301  24.628  1.00  0.00     0.066 H 
ATOM     11  C   UNL     1     -48.852  28.842  25.027  1.00  0.00     0.076 A 
ATOM     12  C   UNL     1     -49.562  28.536  23.852  1.00  0.00     0.001 A 
ATOM     13  H   UNL     1     -50.611  26.943  22.823  1.00  0.00     0.063 H 
ATOM     14  C   UNL     1     -48.340  30.125  25.177  1.00  0.00     0.007 A 
ATOM     15  C   UNL     1     -49.745  29.514  22.861  1.00  0.00    -0.049 A 
ATOM     16  H   UNL     1     -47.791  30.318  26.091  1.00  0.00     0.069 H 
ATOM     17  C   UNL     1     -49.226  30.795  23.045  1.00  0.00    -0.019 A 
ATOM     18  H   UNL     1     -50.291  29.288  21.949  1.00  0.00     0.063 H 
ATOM     19  H   UNL     1     -49.375  31.552  22.278  1.00  0.00     0.066 H 
BRANCH   6  20
ATOM     20  N   UNL     1     -48.954  25.730  26.872  1.00  0.00    -0.373 N 
ATOM     21  H   UNL     1     -49.031  26.177  27.782  1.00  0.00     0.161 HD
BRANCH  20  22
ATOM     22  C   UNL     1     -47.710  24.992  26.740  1.00  0.00     0.005 C 
ATOM     23  H   UNL     1     -47.160  25.287  25.838  1.00  0.00     0.045 H 
ATOM     24  H   UNL     1     -47.072  25.212  27.602  1.00  0.00     0.045 H 
ATOM     25  H   UNL     1     -47.882  23.910  26.729  1.00  0.00     0.045 H 
ENDBRANCH  20  22
ENDBRANCH   6  20
ENDBRANCH   4   5
ENDBRANCH   1   4
BRANCH   1  26
ATOM     26  C   UNL     1     -46.591  33.355  25.941  1.00  0.00     0.010 A 
ATOM     27  C   UNL     1     -46.197  32.665  27.079  1.00  0.00     0.034 A 
ATOM     28  C   UNL     1     -46.878  34.720  26.079  1.00  0.00    -0.028 A 
ATOM     29  N   UNL     1     -46.083  33.230  28.298  1.00  0.00    -0.262 NA
ATOM     30  H   UNL     1     -45.954  31.606  27.041  1.00  0.00     0.084 H 
ATOM     31  C   UNL     1     -46.749  35.351  27.325  1.00  0.00     0.066 A 
ATOM     32  H   UNL     1     -47.211  35.262  25.200  1.00  0.00     0.065 H 
ATOM     33  C   UNL     1     -46.357  34.556  28.396  1.00  0.00     0.051 A 
ATOM     34  H   UNL     1     -46.208  34.938  29.398  1.00  0.00     0.086 H 
BRANCH  31  35
ATOM     35  N   UNL     1     -46.992  36.753  27.471  1.00  0.00    -0.299 N 
ATOM     36  C   UNL     1     -46.027  37.744  27.359  1.00  0.00     0.015 A 
ATOM     37  C   UNL     1     -48.199  37.391  27.753  1.00  0.00     0.148 A 
ATOM     38  C   UNL     1     -46.585  38.991  27.577  1.00  0.00    -0.016 A 
ATOM     39  H   UNL     1     -44.992  37.499  27.166  1.00  0.00     0.083 H 
ATOM     40  C   UNL     1     -47.968  38.763  27.819  1.00  0.00     0.041 A 
ATOM     41  N   UNL     1     -49.404  36.805  27.913  1.00  0.00    -0.218 NA
ATOM     42  C   UNL     1     -49.073  39.571  28.090  1.00  0.00     0.040 A 
ATOM     43  C   UNL     1     -50.386  37.682  28.166  1.00  0.00     0.117 A 
ATOM     44  N   UNL     1     -50.291  39.018  28.265  1.00  0.00    -0.244 NA
ATOM     45  H   UNL     1     -49.018  40.651  28.168  1.00  0.00     0.085 H 
ATOM     46  H   UNL     1     -51.378  37.262  28.307  1.00  0.00     0.106 H 
BRANCH  38  47
ATOM     47  C   UNL     1     -45.875  40.316  27.561  1.00  0.00    -0.014 C 
ATOM     48  C   UNL     1     -44.358  40.201  27.806  1.00  0.00    -0.046 C 
ATOM     49  C   UNL     1     -46.025  41.053  26.219  1.00  0.00    -0.046 C 
ATOM     50  H   UNL     1     -46.293  40.946  28.356  1.00  0.00     0.035 H 
ATOM     51  C   UNL     1     -43.703  40.578  26.485  1.00  0.00    -0.053 C 
ATOM     52  H   UNL     1     -44.063  40.930  28.572  1.00  0.00     0.027 H 
ATOM     53  H   UNL     1     -44.032  39.216  28.156  1.00  0.00     0.027 H 
ATOM     54  C   UNL     1     -44.646  41.622  25.915  1.00  0.00    -0.053 C 
ATOM     55  H   UNL     1     -46.781  41.844  26.273  1.00  0.00     0.027 H 
ATOM     56  H   UNL     1     -46.327  40.375  25.410  1.00  0.00     0.027 H 
ATOM     57  H   UNL     1     -42.689  40.963  26.620  1.00  0.00     0.027 H 
ATOM     58  H   UNL     1     -43.653  39.706  25.822  1.00  0.00     0.027 H 
ATOM     59  H   UNL     1     -44.509  42.580  26.431  1.00  0.00     0.027 H 
ATOM     60  H   UNL     1     -44.490  41.785  24.844  1.00  0.00     0.027 H 
ENDBRANCH  38  47
ENDBRANCH  31  35
ENDBRANCH   1  26
TORSDOF 7
ENDMDL
MODEL 7
REMARK VINA RESULT:      -9.4      2.736     11.081
REMARK SMILES CNc1ccc2ccc(OCc3cncc(-n4cc(C5CCCC5)c5cncnc54)c3)cc2n1
REMARK SMILES IDX 11 1 10 4 9 5 3 6 4 7 34 8 5 9 33 11 6 12 32 14 7 15 8 17
REMARK SMILES IDX 2 20 1 22 12 26 13 27 31 28 14 29 16 31 15 33 17 35 18 36
REMARK SMILES IDX 30 37 19 38 25 40 29 41 26 42 28 43 27 44 20 47 21 48 24 49
REMARK SMILES IDX 22 51 23 54
REMARK H PARENT 11 2 11 3 4 10 5 13 32 16 7 18 8 19 2 21 1 23 1 24 1 25 13 30
REMARK H PARENT 31 32 15 34 18 39 26 45 28 46 20 50 21 52 21 53 24 55 24 56
REMARK H PARENT 22 57 22 58 23 59 23 60
REMARK Flexibility Score: inf
ROOT
ATOM      1  C   UNL     1     -45.712  34.431  27.200  1.00  0.00     0.115 C 
ATOM      2  H   UNL     1     -45.578  34.675  26.139  1.00  0.00     0.076 H 
ATOM      3  H   UNL     1     -44.797  33.900  27.489  1.00  0.00     0.076 H 
ENDROOT
BRANCH   1   4
ATOM      4  O   UNL     1     -46.861  33.585  27.286  1.00  0.00    -0.489 OA
BRANCH   4   5
ATOM      5  C   UNL     1     -47.254  32.887  26.178  1.00  0.00     0.122 A 
ATOM      6  C   UNL     1     -46.679  31.029  21.833  1.00  0.00     0.126 A 
ATOM      7  C   UNL     1     -47.955  30.476  21.848  1.00  0.00    -0.019 A 
ATOM      8  N   UNL     1     -46.216  31.761  22.867  1.00  0.00    -0.231 NA
ATOM      9  C   UNL     1     -48.766  30.655  22.964  1.00  0.00    -0.049 A 
ATOM     10  H   UNL     1     -48.322  29.918  20.993  1.00  0.00     0.066 H 
ATOM     11  C   UNL     1     -46.993  31.937  23.950  1.00  0.00     0.076 A 
ATOM     12  C   UNL     1     -48.287  31.393  24.048  1.00  0.00     0.001 A 
ATOM     13  H   UNL     1     -49.761  30.220  22.977  1.00  0.00     0.063 H 
ATOM     14  C   UNL     1     -46.505  32.680  25.018  1.00  0.00     0.007 A 
ATOM     15  C   UNL     1     -49.057  31.602  25.203  1.00  0.00    -0.049 A 
ATOM     16  H   UNL     1     -45.510  33.091  24.901  1.00  0.00     0.069 H 
ATOM     17  C   UNL     1     -48.536  32.345  26.261  1.00  0.00    -0.019 A 
ATOM     18  H   UNL     1     -50.058  31.186  25.288  1.00  0.00     0.063 H 
ATOM     19  H   UNL     1     -49.132  32.500  27.157  1.00  0.00     0.066 H 
BRANCH   6  20
ATOM     20  N   UNL     1     -45.895  30.844  20.680  1.00  0.00    -0.373 N 
ATOM     21  H   UNL     1     -44.918  30.788  20.954  1.00  0.00     0.161 HD
BRANCH  20  22
ATOM     22  C   UNL     1     -46.107  31.845  19.648  1.00  0.00     0.005 C 
ATOM     23  H   UNL     1     -46.737  31.460  18.837  1.00  0.00     0.045 H 
ATOM     24  H   UNL     1     -46.622  32.705  20.087  1.00  0.00     0.045 H 
ATOM     25  H   UNL     1     -45.158  32.208  19.237  1.00  0.00     0.045 H 
ENDBRANCH  20  22
ENDBRANCH   6  20
ENDBRANCH   4   5
ENDBRANCH   1   4
BRANCH   1  26
ATOM     26  C   UNL     1     -45.904  35.723  27.947  1.00  0.00     0.010 A 
ATOM     27  C   UNL     1     -46.196  35.721  29.304  1.00  0.00     0.034 A 
ATOM     28  C   UNL     1     -45.809  36.967  27.307  1.00  0.00    -0.028 A 
ATOM     29  N   UNL     1     -46.398  36.839  30.031  1.00  0.00    -0.262 NA
ATOM     30  H   UNL     1     -46.278  34.792  29.862  1.00  0.00     0.084 H 
ATOM     31  C   UNL     1     -45.988  38.154  28.032  1.00  0.00     0.066 A 
ATOM     32  H   UNL     1     -45.606  36.978  26.242  1.00  0.00     0.065 H 
ATOM     33  C   UNL     1     -46.287  38.028  29.384  1.00  0.00     0.051 A 
ATOM     34  H   UNL     1     -46.428  38.875  30.045  1.00  0.00     0.086 H 
BRANCH  31  35
ATOM     35  N   UNL     1     -45.847  39.431  27.404  1.00  0.00    -0.299 N 
ATOM     36  C   UNL     1     -44.647  39.973  26.964  1.00  0.00     0.015 A 
ATOM     37  C   UNL     1     -46.843  40.365  27.120  1.00  0.00     0.148 A 
ATOM     38  C   UNL     1     -44.853  41.230  26.423  1.00  0.00    -0.016 A 
ATOM     39  H   UNL     1     -43.713  39.446  27.094  1.00  0.00     0.083 H 
ATOM     40  C   UNL     1     -46.252  41.472  26.517  1.00  0.00     0.041 A 
ATOM     41  N   UNL     1     -48.166  40.231  27.356  1.00  0.00    -0.218 NA
ATOM     42  C   UNL     1     -47.103  42.516  26.154  1.00  0.00     0.040 A 
ATOM     43  C   UNL     1     -48.879  41.295  26.963  1.00  0.00     0.117 A 
ATOM     44  N   UNL     1     -48.429  42.421  26.384  1.00  0.00    -0.244 NA
ATOM     45  H   UNL     1     -46.760  43.429  25.681  1.00  0.00     0.085 H 
ATOM     46  H   UNL     1     -49.951  41.242  27.133  1.00  0.00     0.106 H 
BRANCH  38  47
ATOM     47  C   UNL     1     -43.811  42.152  25.853  1.00  0.00    -0.014 C 
ATOM     48  C   UNL     1     -44.095  42.571  24.398  1.00  0.00    -0.046 C 
ATOM     49  C   UNL     1     -43.683  43.464  26.646  1.00  0.00    -0.046 C 
ATOM     50  H   UNL     1     -42.843  41.637  25.868  1.00  0.00     0.035 H 
ATOM     51  C   UNL     1     -44.428  44.055  24.460  1.00  0.00    -0.053 C 
ATOM     52  H   UNL     1     -43.183  42.435  23.802  1.00  0.00     0.027 H 
ATOM     53  H   UNL     1     -44.887  41.995  23.910  1.00  0.00     0.027 H 
ATOM     54  C   UNL     1     -43.559  44.560  25.596  1.00  0.00    -0.053 C 
ATOM     55  H   UNL     1     -42.815  43.450  27.315  1.00  0.00     0.027 H 
ATOM     56  H   UNL     1     -44.566  43.654  27.270  1.00  0.00     0.027 H 
ATOM     57  H   UNL     1     -44.218  44.567  23.517  1.00  0.00     0.027 H 
ATOM     58  H   UNL     1     -45.489  44.197  24.698  1.00  0.00     0.027 H 
ATOM     59  H   UNL     1     -42.517  44.652  25.267  1.00  0.00     0.027 H 
ATOM     60  H   UNL     1     -43.886  45.534  25.972  1.00  0.00     0.027 H 
ENDBRANCH  38  47
ENDBRANCH  31  35
ENDBRANCH   1  26
TORSDOF 7
ENDMDL
