MODEL 1
REMARK VINA RESULT:      -7.6      0.000      0.000
REMARK SMILES Nc1ncnc2c1ncn2[C@@H]1O[C@H](CSCC[C@H](N)C(=O)O)[C@@H](O)[C@H]1O
REMARK SMILES IDX 16 1 15 4 14 5 13 8 11 9 12 10 25 11 23 13 10 17 2 18 3 19
REMARK SMILES IDX 7 20 4 21 6 22 8 23 5 24 9 26 1 28 26 31 24 33 17 35 18 38
REMARK SMILES IDX 19 40 20 43 21 44 22 45
REMARK H PARENT 16 2 16 3 14 6 14 7 11 12 25 14 13 15 23 16 4 25 9 27 1 29
REMARK H PARENT 1 30 26 32 24 34 17 36 17 37 18 39 19 41 19 42 22 46
REMARK Flexibility Score: inf
ROOT
ATOM      1  C   UNL     1     -46.575  34.287  25.477  1.00  0.00    -0.005 C 
ATOM      2  H   UNL     1     -46.860  34.366  24.426  1.00  0.00     0.038 H 
ATOM      3  H   UNL     1     -45.479  34.301  25.492  1.00  0.00     0.038 H 
ENDROOT
BRANCH   1   4
ATOM      4  S   UNL     1     -47.058  32.669  26.177  1.00  0.00    -0.159 SA
BRANCH   4   5
ATOM      5  C   UNL     1     -48.348  32.145  24.985  1.00  0.00     0.022 C 
ATOM      6  H   UNL     1     -48.947  33.022  24.736  1.00  0.00     0.041 H 
ATOM      7  H   UNL     1     -49.007  31.458  25.526  1.00  0.00     0.041 H 
BRANCH   5   8
ATOM      8  C   UNL     1     -47.794  31.463  23.730  1.00  0.00     0.098 C 
ATOM      9  C   UNL     1     -46.793  29.446  23.140  1.00  0.00     0.165 C 
ATOM     10  O   UNL     1     -46.762  30.526  24.096  1.00  0.00    -0.348 OA
ATOM     11  C   UNL     1     -48.033  29.618  22.255  1.00  0.00     0.128 C 
ATOM     12  H   UNL     1     -45.881  29.529  22.535  1.00  0.00     0.088 H 
ATOM     13  C   UNL     1     -48.864  30.650  23.004  1.00  0.00     0.111 C 
ATOM     14  H   UNL     1     -48.580  28.693  22.055  1.00  0.00     0.068 H 
ATOM     15  H   UNL     1     -47.346  32.183  23.036  1.00  0.00     0.064 H 
ATOM     16  H   UNL     1     -49.544  30.161  23.706  1.00  0.00     0.066 H 
BRANCH   9  17
ATOM     17  N   UNL     1     -46.713  28.194  23.863  1.00  0.00    -0.285 N 
ATOM     18  C   UNL     1     -47.798  25.731  26.102  1.00  0.00     0.155 A 
ATOM     19  N   UNL     1     -48.949  26.252  26.584  1.00  0.00    -0.217 NA
ATOM     20  C   UNL     1     -47.068  26.473  25.158  1.00  0.00     0.150 A 
ATOM     21  C   UNL     1     -49.355  27.450  26.113  1.00  0.00     0.120 A 
ATOM     22  C   UNL     1     -47.604  27.692  24.772  1.00  0.00     0.167 A 
ATOM     23  N   UNL     1     -45.873  26.233  24.514  1.00  0.00    -0.231 NA
ATOM     24  N   UNL     1     -48.752  28.242  25.201  1.00  0.00    -0.216 NA
ATOM     25  H   UNL     1     -50.289  27.821  26.521  1.00  0.00     0.106 H 
ATOM     26  C   UNL     1     -45.689  27.288  23.749  1.00  0.00     0.099 A 
ATOM     27  H   UNL     1     -44.838  27.448  23.098  1.00  0.00     0.104 H 
BRANCH  18  28
ATOM     28  N   UNL     1     -47.386  24.493  26.580  1.00  0.00    -0.382 N 
ATOM     29  H   UNL     1     -46.578  24.144  26.083  1.00  0.00     0.158 HD
ATOM     30  H   UNL     1     -48.155  23.851  26.741  1.00  0.00     0.158 HD
ENDBRANCH  18  28
ENDBRANCH   9  17
BRANCH  11  31
ATOM     31  O   UNL     1     -47.654  30.155  20.973  1.00  0.00    -0.386 OA
ATOM     32  H   UNL     1     -46.867  30.711  21.163  1.00  0.00     0.211 HD
ENDBRANCH  11  31
BRANCH  13  33
ATOM     33  O   UNL     1     -49.633  31.424  22.082  1.00  0.00    -0.387 OA
ATOM     34  H   UNL     1     -49.132  32.251  21.889  1.00  0.00     0.211 HD
ENDBRANCH  13  33
ENDBRANCH   5   8
ENDBRANCH   4   5
ENDBRANCH   1   4
BRANCH   1  35
ATOM     35  C   UNL     1     -47.067  35.495  26.277  1.00  0.00    -0.018 C 
ATOM     36  H   UNL     1     -46.319  36.297  26.207  1.00  0.00     0.030 H 
ATOM     37  H   UNL     1     -47.959  35.889  25.770  1.00  0.00     0.030 H 
BRANCH  35  38
ATOM     38  C   UNL     1     -47.411  35.241  27.748  1.00  0.00     0.104 C 
ATOM     39  H   UNL     1     -47.641  34.187  27.929  1.00  0.00     0.059 H 
BRANCH  38  40
ATOM     40  N   UNL     1     -48.589  36.053  28.175  1.00  0.00    -0.318 NA
ATOM     41  H   UNL     1     -49.311  35.914  27.455  1.00  0.00     0.119 HD
ATOM     42  H   UNL     1     -49.003  35.575  28.985  1.00  0.00     0.119 HD
ENDBRANCH  38  40
BRANCH  38  43
ATOM     43  C   UNL     1     -46.207  35.588  28.638  1.00  0.00     0.320 C 
ATOM     44  O   UNL     1     -45.184  36.145  28.267  1.00  0.00    -0.251 OA
BRANCH  43  45
ATOM     45  O   UNL     1     -46.379  35.254  29.929  1.00  0.00    -0.480 OA
ATOM     46  H   UNL     1     -47.241  34.789  29.955  1.00  0.00     0.296 HD
ENDBRANCH  43  45
ENDBRANCH  38  43
ENDBRANCH  35  38
ENDBRANCH   1  35
TORSDOF 12
ENDMDL
MODEL 2
REMARK VINA RESULT:      -7.4      5.169     11.279
REMARK SMILES Nc1ncnc2c1ncn2[C@@H]1O[C@H](CSCC[C@H](N)C(=O)O)[C@@H](O)[C@H]1O
REMARK SMILES IDX 16 1 15 4 14 5 13 8 11 9 12 10 25 11 23 13 10 17 2 18 3 19
REMARK SMILES IDX 7 20 4 21 6 22 8 23 5 24 9 26 1 28 26 31 24 33 17 35 18 38
REMARK SMILES IDX 19 40 20 43 21 44 22 45
REMARK H PARENT 16 2 16 3 14 6 14 7 11 12 25 14 13 15 23 16 4 25 9 27 1 29
REMARK H PARENT 1 30 26 32 24 34 17 36 17 37 18 39 19 41 19 42 22 46
REMARK Flexibility Score: inf
ROOT
ATOM      1  C   UNL     1     -46.322  33.917  25.373  1.00  0.00    -0.005 C 
ATOM      2  H   UNL     1     -45.469  34.036  24.700  1.00  0.00     0.038 H 
ATOM      3  H   UNL     1     -47.168  34.401  24.873  1.00  0.00     0.038 H 
ENDROOT
BRANCH   1   4
ATOM      4  S   UNL     1     -46.074  34.841  26.930  1.00  0.00    -0.159 SA
BRANCH   4   5
ATOM      5  C   UNL     1     -46.966  36.398  26.557  1.00  0.00     0.022 C 
ATOM      6  H   UNL     1     -47.986  36.137  26.272  1.00  0.00     0.041 H 
ATOM      7  H   UNL     1     -46.489  36.821  25.666  1.00  0.00     0.041 H 
BRANCH   5   8
ATOM      8  C   UNL     1     -46.940  37.419  27.700  1.00  0.00     0.098 C 
ATOM      9  C   UNL     1     -45.672  39.249  28.375  1.00  0.00     0.165 C 
ATOM     10  O   UNL     1     -45.594  37.885  27.911  1.00  0.00    -0.348 OA
ATOM     11  C   UNL     1     -47.126  39.719  28.256  1.00  0.00     0.128 C 
ATOM     12  H   UNL     1     -45.359  39.246  29.427  1.00  0.00     0.088 H 
ATOM     13  C   UNL     1     -47.771  38.659  27.376  1.00  0.00     0.111 C 
ATOM     14  H   UNL     1     -47.245  40.732  27.861  1.00  0.00     0.068 H 
ATOM     15  H   UNL     1     -47.284  36.983  28.646  1.00  0.00     0.064 H 
ATOM     16  H   UNL     1     -47.691  38.933  26.321  1.00  0.00     0.066 H 
BRANCH   9  17
ATOM     17  N   UNL     1     -44.701  40.036  27.643  1.00  0.00    -0.285 N 
ATOM     18  C   UNL     1     -41.710  41.802  27.202  1.00  0.00     0.155 A 
ATOM     19  N   UNL     1     -41.132  41.719  28.421  1.00  0.00    -0.217 NA
ATOM     20  C   UNL     1     -42.962  41.193  27.009  1.00  0.00     0.150 A 
ATOM     21  C   UNL     1     -41.774  41.029  29.387  1.00  0.00     0.120 A 
ATOM     22  C   UNL     1     -43.506  40.526  28.096  1.00  0.00     0.167 A 
ATOM     23  N   UNL     1     -43.802  41.127  25.918  1.00  0.00    -0.231 NA
ATOM     24  N   UNL     1     -42.963  40.394  29.317  1.00  0.00    -0.216 NA
ATOM     25  H   UNL     1     -41.265  40.981  30.345  1.00  0.00     0.106 H 
ATOM     26  C   UNL     1     -44.836  40.429  26.336  1.00  0.00     0.099 A 
ATOM     27  H   UNL     1     -45.707  40.181  25.739  1.00  0.00     0.104 H 
BRANCH  18  28
ATOM     28  N   UNL     1     -41.043  42.503  26.204  1.00  0.00    -0.382 N 
ATOM     29  H   UNL     1     -41.671  42.817  25.477  1.00  0.00     0.158 HD
ATOM     30  H   UNL     1     -40.174  42.063  25.921  1.00  0.00     0.158 HD
ENDBRANCH  18  28
ENDBRANCH   9  17
BRANCH  11  31
ATOM     31  O   UNL     1     -47.757  39.707  29.551  1.00  0.00    -0.386 OA
ATOM     32  H   UNL     1     -48.681  39.429  29.372  1.00  0.00     0.211 HD
ENDBRANCH  11  31
BRANCH  13  33
ATOM     33  O   UNL     1     -49.153  38.516  27.711  1.00  0.00    -0.387 OA
ATOM     34  H   UNL     1     -49.681  38.685  26.896  1.00  0.00     0.211 HD
ENDBRANCH  13  33
ENDBRANCH   5   8
ENDBRANCH   4   5
ENDBRANCH   1   4
BRANCH   1  35
ATOM     35  C   UNL     1     -46.674  32.440  25.563  1.00  0.00    -0.018 C 
ATOM     36  H   UNL     1     -46.880  31.994  24.581  1.00  0.00     0.030 H 
ATOM     37  H   UNL     1     -45.774  31.927  25.928  1.00  0.00     0.030 H 
BRANCH  35  38
ATOM     38  C   UNL     1     -47.834  32.136  26.518  1.00  0.00     0.104 C 
ATOM     39  H   UNL     1     -47.641  32.533  27.519  1.00  0.00     0.059 H 
BRANCH  38  40
ATOM     40  N   UNL     1     -48.063  30.665  26.638  1.00  0.00    -0.318 NA
ATOM     41  H   UNL     1     -47.130  30.231  26.673  1.00  0.00     0.119 HD
ATOM     42  H   UNL     1     -48.412  30.496  27.590  1.00  0.00     0.119 HD
ENDBRANCH  38  40
BRANCH  38  43
ATOM     43  C   UNL     1     -49.120  32.810  26.015  1.00  0.00     0.320 C 
ATOM     44  O   UNL     1     -49.643  33.802  26.503  1.00  0.00    -0.251 OA
BRANCH  43  45
ATOM     45  O   UNL     1     -49.640  32.226  24.922  1.00  0.00    -0.480 OA
ATOM     46  H   UNL     1     -50.296  31.585  25.268  1.00  0.00     0.296 HD
ENDBRANCH  43  45
ENDBRANCH  38  43
ENDBRANCH  35  38
ENDBRANCH   1  35
TORSDOF 12
ENDMDL
MODEL 3
REMARK VINA RESULT:      -7.4      4.645     11.261
REMARK SMILES Nc1ncnc2c1ncn2[C@@H]1O[C@H](CSCC[C@H](N)C(=O)O)[C@@H](O)[C@H]1O
REMARK SMILES IDX 16 1 15 4 14 5 13 8 11 9 12 10 25 11 23 13 10 17 2 18 3 19
REMARK SMILES IDX 7 20 4 21 6 22 8 23 5 24 9 26 1 28 26 31 24 33 17 35 18 38
REMARK SMILES IDX 19 40 20 43 21 44 22 45
REMARK H PARENT 16 2 16 3 14 6 14 7 11 12 25 14 13 15 23 16 4 25 9 27 1 29
REMARK H PARENT 1 30 26 32 24 34 17 36 17 37 18 39 19 41 19 42 22 46
REMARK Flexibility Score: inf
ROOT
ATOM      1  C   UNL     1     -46.720  33.133  26.784  1.00  0.00    -0.005 C 
ATOM      2  H   UNL     1     -46.871  32.771  27.804  1.00  0.00     0.038 H 
ATOM      3  H   UNL     1     -45.730  33.603  26.776  1.00  0.00     0.038 H 
ENDROOT
BRANCH   1   4
ATOM      4  S   UNL     1     -47.902  34.463  26.368  1.00  0.00    -0.159 SA
BRANCH   4   5
ATOM      5  C   UNL     1     -46.795  35.923  26.359  1.00  0.00     0.022 C 
ATOM      6  H   UNL     1     -47.291  36.713  25.792  1.00  0.00     0.041 H 
ATOM      7  H   UNL     1     -45.908  35.634  25.786  1.00  0.00     0.041 H 
BRANCH   5   8
ATOM      8  C   UNL     1     -46.386  36.401  27.756  1.00  0.00     0.098 C 
ATOM      9  C   UNL     1     -45.148  38.123  28.717  1.00  0.00     0.165 C 
ATOM     10  O   UNL     1     -45.136  37.115  27.684  1.00  0.00    -0.348 OA
ATOM     11  C   UNL     1     -46.552  38.170  29.331  1.00  0.00     0.128 C 
ATOM     12  H   UNL     1     -44.414  37.813  29.471  1.00  0.00     0.088 H 
ATOM     13  C   UNL     1     -47.399  37.382  28.343  1.00  0.00     0.111 C 
ATOM     14  H   UNL     1     -46.935  39.178  29.513  1.00  0.00     0.068 H 
ATOM     15  H   UNL     1     -46.241  35.564  28.449  1.00  0.00     0.064 H 
ATOM     16  H   UNL     1     -47.811  38.043  27.576  1.00  0.00     0.066 H 
BRANCH   9  17
ATOM     17  N   UNL     1     -44.676  39.366  28.146  1.00  0.00    -0.285 N 
ATOM     18  C   UNL     1     -42.644  42.210  27.938  1.00  0.00     0.155 A 
ATOM     19  N   UNL     1     -41.852  42.091  29.028  1.00  0.00    -0.217 NA
ATOM     20  C   UNL     1     -43.612  41.220  27.700  1.00  0.00     0.150 A 
ATOM     21  C   UNL     1     -42.013  41.010  29.820  1.00  0.00     0.120 A 
ATOM     22  C   UNL     1     -43.668  40.171  28.605  1.00  0.00     0.167 A 
ATOM     23  N   UNL     1     -44.566  41.074  26.716  1.00  0.00    -0.231 NA
ATOM     24  N   UNL     1     -42.891  39.994  29.686  1.00  0.00    -0.216 NA
ATOM     25  H   UNL     1     -41.348  40.953  30.676  1.00  0.00     0.106 H 
ATOM     26  C   UNL     1     -45.188  39.955  27.017  1.00  0.00     0.099 A 
ATOM     27  H   UNL     1     -46.012  39.526  26.458  1.00  0.00     0.104 H 
BRANCH  18  28
ATOM     28  N   UNL     1     -42.470  43.318  27.117  1.00  0.00    -0.382 N 
ATOM     29  H   UNL     1     -41.717  43.912  27.436  1.00  0.00     0.158 HD
ATOM     30  H   UNL     1     -43.344  43.761  26.855  1.00  0.00     0.158 HD
ENDBRANCH  18  28
ENDBRANCH   9  17
BRANCH  11  31
ATOM     31  O   UNL     1     -46.557  37.494  30.603  1.00  0.00    -0.386 OA
ATOM     32  H   UNL     1     -45.784  36.889  30.563  1.00  0.00     0.211 HD
ENDBRANCH  11  31
BRANCH  13  33
ATOM     33  O   UNL     1     -48.478  36.739  29.024  1.00  0.00    -0.387 OA
ATOM     34  H   UNL     1     -48.530  35.810  28.700  1.00  0.00     0.211 HD
ENDBRANCH  13  33
ENDBRANCH   5   8
ENDBRANCH   4   5
ENDBRANCH   1   4
BRANCH   1  35
ATOM     35  C   UNL     1     -46.693  31.974  25.786  1.00  0.00    -0.018 C 
ATOM     36  H   UNL     1     -45.673  31.570  25.736  1.00  0.00     0.030 H 
ATOM     37  H   UNL     1     -47.304  31.161  26.202  1.00  0.00     0.030 H 
BRANCH  35  38
ATOM     38  C   UNL     1     -47.191  32.285  24.370  1.00  0.00     0.104 C 
ATOM     39  H   UNL     1     -47.111  33.353  24.144  1.00  0.00     0.059 H 
BRANCH  38  40
ATOM     40  N   UNL     1     -48.618  31.880  24.198  1.00  0.00    -0.318 NA
ATOM     41  H   UNL     1     -48.789  31.852  23.184  1.00  0.00     0.119 HD
ATOM     42  H   UNL     1     -48.677  30.885  24.452  1.00  0.00     0.119 HD
ENDBRANCH  38  40
BRANCH  38  43
ATOM     43  C   UNL     1     -46.327  31.549  23.334  1.00  0.00     0.320 C 
ATOM     44  O   UNL     1     -46.241  30.335  23.212  1.00  0.00    -0.251 OA
BRANCH  43  45
ATOM     45  O   UNL     1     -45.665  32.373  22.503  1.00  0.00    -0.480 OA
ATOM     46  H   UNL     1     -44.799  31.937  22.356  1.00  0.00     0.296 HD
ENDBRANCH  43  45
ENDBRANCH  38  43
ENDBRANCH  35  38
ENDBRANCH   1  35
TORSDOF 12
ENDMDL
MODEL 4
REMARK VINA RESULT:      -7.2      4.528     11.310
REMARK SMILES Nc1ncnc2c1ncn2[C@@H]1O[C@H](CSCC[C@H](N)C(=O)O)[C@@H](O)[C@H]1O
REMARK SMILES IDX 16 1 15 4 14 5 13 8 11 9 12 10 25 11 23 13 10 17 2 18 3 19
REMARK SMILES IDX 7 20 4 21 6 22 8 23 5 24 9 26 1 28 26 31 24 33 17 35 18 38
REMARK SMILES IDX 19 40 20 43 21 44 22 45
REMARK H PARENT 16 2 16 3 14 6 14 7 11 12 25 14 13 15 23 16 4 25 9 27 1 29
REMARK H PARENT 1 30 26 32 24 34 17 36 17 37 18 39 19 41 19 42 22 46
REMARK Flexibility Score: inf
ROOT
ATOM      1  C   UNL     1     -46.096  33.995  25.871  1.00  0.00    -0.005 C 
ATOM      2  H   UNL     1     -45.850  33.344  26.713  1.00  0.00     0.038 H 
ATOM      3  H   UNL     1     -45.140  34.388  25.506  1.00  0.00     0.038 H 
ENDROOT
BRANCH   1   4
ATOM      4  S   UNL     1     -47.054  35.453  26.416  1.00  0.00    -0.159 SA
BRANCH   4   5
ATOM      5  C   UNL     1     -46.696  35.453  28.214  1.00  0.00     0.022 C 
ATOM      6  H   UNL     1     -46.455  34.430  28.505  1.00  0.00     0.041 H 
ATOM      7  H   UNL     1     -47.635  35.710  28.715  1.00  0.00     0.041 H 
BRANCH   5   8
ATOM      8  C   UNL     1     -45.594  36.434  28.628  1.00  0.00     0.098 C 
ATOM      9  C   UNL     1     -44.896  38.593  28.106  1.00  0.00     0.165 C 
ATOM     10  O   UNL     1     -45.299  37.329  27.537  1.00  0.00    -0.348 OA
ATOM     11  C   UNL     1     -45.142  38.544  29.618  1.00  0.00     0.128 C 
ATOM     12  H   UNL     1     -43.824  38.706  27.900  1.00  0.00     0.088 H 
ATOM     13  C   UNL     1     -46.027  37.319  29.795  1.00  0.00     0.111 C 
ATOM     14  H   UNL     1     -45.583  39.453  30.036  1.00  0.00     0.068 H 
ATOM     15  H   UNL     1     -44.661  35.919  28.884  1.00  0.00     0.064 H 
ATOM     16  H   UNL     1     -47.083  37.593  29.723  1.00  0.00     0.066 H 
BRANCH   9  17
ATOM     17  N   UNL     1     -45.581  39.652  27.396  1.00  0.00    -0.285 N 
ATOM     18  C   UNL     1     -45.924  42.831  25.969  1.00  0.00     0.155 A 
ATOM     19  N   UNL     1     -44.741  43.418  26.261  1.00  0.00    -0.217 NA
ATOM     20  C   UNL     1     -46.146  41.514  26.406  1.00  0.00     0.150 A 
ATOM     21  C   UNL     1     -43.820  42.698  26.934  1.00  0.00     0.120 A 
ATOM     22  C   UNL     1     -45.111  40.901  27.095  1.00  0.00     0.167 A 
ATOM     23  N   UNL     1     -47.231  40.671  26.294  1.00  0.00    -0.231 NA
ATOM     24  N   UNL     1     -43.911  41.430  27.389  1.00  0.00    -0.216 NA
ATOM     25  H   UNL     1     -42.882  43.208  27.135  1.00  0.00     0.106 H 
ATOM     26  C   UNL     1     -46.859  39.565  26.903  1.00  0.00     0.099 A 
ATOM     27  H   UNL     1     -47.469  38.677  27.017  1.00  0.00     0.104 H 
BRANCH  18  28
ATOM     28  N   UNL     1     -46.869  43.569  25.266  1.00  0.00    -0.382 N 
ATOM     29  H   UNL     1     -47.682  43.779  25.829  1.00  0.00     0.158 HD
ATOM     30  H   UNL     1     -47.021  43.226  24.323  1.00  0.00     0.158 HD
ENDBRANCH  18  28
ENDBRANCH   9  17
BRANCH  11  31
ATOM     31  O   UNL     1     -43.899  38.334  30.315  1.00  0.00    -0.386 OA
ATOM     32  H   UNL     1     -43.592  39.238  30.548  1.00  0.00     0.211 HD
ENDBRANCH  11  31
BRANCH  13  33
ATOM     33  O   UNL     1     -45.793  36.723  31.072  1.00  0.00    -0.387 OA
ATOM     34  H   UNL     1     -44.984  37.135  31.455  1.00  0.00     0.211 HD
ENDBRANCH  13  33
ENDBRANCH   5   8
ENDBRANCH   4   5
ENDBRANCH   1   4
BRANCH   1  35
ATOM     35  C   UNL     1     -46.741  33.204  24.731  1.00  0.00    -0.018 C 
ATOM     36  H   UNL     1     -47.627  33.748  24.376  1.00  0.00     0.030 H 
ATOM     37  H   UNL     1     -46.041  33.211  23.884  1.00  0.00     0.030 H 
BRANCH  35  38
ATOM     38  C   UNL     1     -47.121  31.752  25.042  1.00  0.00     0.104 C 
ATOM     39  H   UNL     1     -46.248  31.167  25.346  1.00  0.00     0.059 H 
BRANCH  38  40
ATOM     40  N   UNL     1     -47.734  31.088  23.853  1.00  0.00    -0.318 NA
ATOM     41  H   UNL     1     -47.281  31.502  23.027  1.00  0.00     0.119 HD
ATOM     42  H   UNL     1     -47.374  30.125  23.832  1.00  0.00     0.119 HD
ENDBRANCH  38  40
BRANCH  38  43
ATOM     43  C   UNL     1     -48.113  31.707  26.215  1.00  0.00     0.320 C 
ATOM     44  O   UNL     1     -49.016  32.507  26.416  1.00  0.00    -0.251 OA
BRANCH  43  45
ATOM     45  O   UNL     1     -47.935  30.652  27.029  1.00  0.00    -0.480 OA
ATOM     46  H   UNL     1     -48.151  30.988  27.925  1.00  0.00     0.296 HD
ENDBRANCH  43  45
ENDBRANCH  38  43
ENDBRANCH  35  38
ENDBRANCH   1  35
TORSDOF 12
ENDMDL
MODEL 5
REMARK VINA RESULT:      -7.1      4.119      6.719
REMARK SMILES Nc1ncnc2c1ncn2[C@@H]1O[C@H](CSCC[C@H](N)C(=O)O)[C@@H](O)[C@H]1O
REMARK SMILES IDX 16 1 15 4 14 5 13 8 11 9 12 10 25 11 23 13 10 17 2 18 3 19
REMARK SMILES IDX 7 20 4 21 6 22 8 23 5 24 9 26 1 28 26 31 24 33 17 35 18 38
REMARK SMILES IDX 19 40 20 43 21 44 22 45
REMARK H PARENT 16 2 16 3 14 6 14 7 11 12 25 14 13 15 23 16 4 25 9 27 1 29
REMARK H PARENT 1 30 26 32 24 34 17 36 17 37 18 39 19 41 19 42 22 46
REMARK Flexibility Score: inf
ROOT
ATOM      1  C   UNL     1     -45.079  39.631  28.078  1.00  0.00    -0.005 C 
ATOM      2  H   UNL     1     -44.594  38.786  28.574  1.00  0.00     0.038 H 
ATOM      3  H   UNL     1     -44.998  40.473  28.775  1.00  0.00     0.038 H 
ENDROOT
BRANCH   1   4
ATOM      4  S   UNL     1     -46.870  39.337  27.863  1.00  0.00    -0.159 SA
BRANCH   4   5
ATOM      5  C   UNL     1     -46.854  37.816  26.841  1.00  0.00     0.022 C 
ATOM      6  H   UNL     1     -45.938  37.822  26.250  1.00  0.00     0.041 H 
ATOM      7  H   UNL     1     -47.685  37.911  26.134  1.00  0.00     0.041 H 
BRANCH   5   8
ATOM      8  C   UNL     1     -46.997  36.522  27.650  1.00  0.00     0.098 C 
ATOM      9  C   UNL     1     -47.239  34.241  27.260  1.00  0.00     0.165 C 
ATOM     10  O   UNL     1     -47.730  35.545  26.887  1.00  0.00    -0.348 OA
ATOM     11  C   UNL     1     -46.005  34.424  28.150  1.00  0.00     0.128 C 
ATOM     12  H   UNL     1     -48.042  33.747  27.822  1.00  0.00     0.088 H 
ATOM     13  C   UNL     1     -45.641  35.889  27.956  1.00  0.00     0.111 C 
ATOM     14  H   UNL     1     -45.178  33.745  27.926  1.00  0.00     0.068 H 
ATOM     15  H   UNL     1     -47.546  36.682  28.585  1.00  0.00     0.064 H 
ATOM     16  H   UNL     1     -44.945  36.005  27.121  1.00  0.00     0.066 H 
BRANCH   9  17
ATOM     17  N   UNL     1     -47.028  33.470  26.053  1.00  0.00    -0.285 N 
ATOM     18  C   UNL     1     -47.443  30.741  23.900  1.00  0.00     0.155 A 
ATOM     19  N   UNL     1     -48.257  29.925  24.606  1.00  0.00    -0.217 NA
ATOM     20  C   UNL     1     -47.052  31.961  24.475  1.00  0.00     0.150 A 
ATOM     21  C   UNL     1     -48.677  30.336  25.820  1.00  0.00     0.120 A 
ATOM     22  C   UNL     1     -47.555  32.248  25.735  1.00  0.00     0.167 A 
ATOM     23  N   UNL     1     -46.227  32.973  24.032  1.00  0.00    -0.231 NA
ATOM     24  N   UNL     1     -48.383  31.485  26.467  1.00  0.00    -0.216 NA
ATOM     25  H   UNL     1     -49.338  29.652  26.344  1.00  0.00     0.106 H 
ATOM     26  C   UNL     1     -46.233  33.859  25.004  1.00  0.00     0.099 A 
ATOM     27  H   UNL     1     -45.682  34.793  25.005  1.00  0.00     0.104 H 
BRANCH  18  28
ATOM     28  N   UNL     1     -47.020  30.321  22.644  1.00  0.00    -0.382 N 
ATOM     29  H   UNL     1     -46.015  30.364  22.548  1.00  0.00     0.158 HD
ATOM     30  H   UNL     1     -47.584  30.695  21.888  1.00  0.00     0.158 HD
ENDBRANCH  18  28
ENDBRANCH   9  17
BRANCH  11  31
ATOM     31  O   UNL     1     -46.354  34.203  29.531  1.00  0.00    -0.386 OA
ATOM     32  H   UNL     1     -46.130  33.260  29.693  1.00  0.00     0.211 HD
ENDBRANCH  11  31
BRANCH  13  33
ATOM     33  O   UNL     1     -45.030  36.405  29.140  1.00  0.00    -0.387 OA
ATOM     34  H   UNL     1     -44.058  36.259  29.068  1.00  0.00     0.211 HD
ENDBRANCH  13  33
ENDBRANCH   5   8
ENDBRANCH   4   5
ENDBRANCH   1   4
BRANCH   1  35
ATOM     35  C   UNL     1     -44.341  40.014  26.794  1.00  0.00    -0.018 C 
ATOM     36  H   UNL     1     -43.543  39.283  26.609  1.00  0.00     0.030 H 
ATOM     37  H   UNL     1     -45.043  39.891  25.957  1.00  0.00     0.030 H 
BRANCH  35  38
ATOM     38  C   UNL     1     -43.761  41.432  26.743  1.00  0.00     0.104 C 
ATOM     39  H   UNL     1     -42.847  41.468  26.142  1.00  0.00     0.059 H 
BRANCH  38  40
ATOM     40  N   UNL     1     -43.438  41.933  28.112  1.00  0.00    -0.318 NA
ATOM     41  H   UNL     1     -42.734  42.674  27.988  1.00  0.00     0.119 HD
ATOM     42  H   UNL     1     -44.255  42.468  28.433  1.00  0.00     0.119 HD
ENDBRANCH  38  40
BRANCH  38  43
ATOM     43  C   UNL     1     -44.764  42.387  26.077  1.00  0.00     0.320 C 
ATOM     44  O   UNL     1     -45.598  43.065  26.660  1.00  0.00    -0.251 OA
BRANCH  43  45
ATOM     45  O   UNL     1     -44.631  42.460  24.741  1.00  0.00    -0.480 OA
ATOM     46  H   UNL     1     -45.288  43.131  24.460  1.00  0.00     0.296 HD
ENDBRANCH  43  45
ENDBRANCH  38  43
ENDBRANCH  35  38
ENDBRANCH   1  35
TORSDOF 12
ENDMDL
MODEL 6
REMARK VINA RESULT:      -7.0      3.769      5.173
REMARK SMILES Nc1ncnc2c1ncn2[C@@H]1O[C@H](CSCC[C@H](N)C(=O)O)[C@@H](O)[C@H]1O
REMARK SMILES IDX 16 1 15 4 14 5 13 8 11 9 12 10 25 11 23 13 10 17 2 18 3 19
REMARK SMILES IDX 7 20 4 21 6 22 8 23 5 24 9 26 1 28 26 31 24 33 17 35 18 38
REMARK SMILES IDX 19 40 20 43 21 44 22 45
REMARK H PARENT 16 2 16 3 14 6 14 7 11 12 25 14 13 15 23 16 4 25 9 27 1 29
REMARK H PARENT 1 30 26 32 24 34 17 36 17 37 18 39 19 41 19 42 22 46
REMARK Flexibility Score: inf
ROOT
ATOM      1  C   UNL     1     -46.774  36.022  28.687  1.00  0.00    -0.005 C 
ATOM      2  H   UNL     1     -46.409  34.993  28.735  1.00  0.00     0.038 H 
ATOM      3  H   UNL     1     -47.225  36.226  29.665  1.00  0.00     0.038 H 
ENDROOT
BRANCH   1   4
ATOM      4  S   UNL     1     -48.130  36.190  27.473  1.00  0.00    -0.159 SA
BRANCH   4   5
ATOM      5  C   UNL     1     -47.620  34.965  26.209  1.00  0.00     0.022 C 
ATOM      6  H   UNL     1     -46.542  35.054  26.075  1.00  0.00     0.041 H 
ATOM      7  H   UNL     1     -48.081  35.283  25.268  1.00  0.00     0.041 H 
BRANCH   5   8
ATOM      8  C   UNL     1     -48.033  33.526  26.536  1.00  0.00     0.098 C 
ATOM      9  C   UNL     1     -48.965  31.690  25.451  1.00  0.00     0.165 C 
ATOM     10  O   UNL     1     -49.100  33.111  25.661  1.00  0.00    -0.348 OA
ATOM     11  C   UNL     1     -47.635  31.235  26.061  1.00  0.00     0.128 C 
ATOM     12  H   UNL     1     -49.805  31.210  25.969  1.00  0.00     0.088 H 
ATOM     13  C   UNL     1     -46.891  32.539  26.307  1.00  0.00     0.111 C 
ATOM     14  H   UNL     1     -47.069  30.530  25.446  1.00  0.00     0.068 H 
ATOM     15  H   UNL     1     -48.401  33.429  27.564  1.00  0.00     0.064 H 
ATOM     16  H   UNL     1     -46.292  32.811  25.433  1.00  0.00     0.066 H 
BRANCH   9  17
ATOM     17  N   UNL     1     -49.126  31.421  24.037  1.00  0.00    -0.285 N 
ATOM     18  C   UNL     1     -48.043  30.738  20.779  1.00  0.00     0.155 A 
ATOM     19  N   UNL     1     -46.697  30.742  20.905  1.00  0.00    -0.217 NA
ATOM     20  C   UNL     1     -48.825  30.990  21.918  1.00  0.00     0.150 A 
ATOM     21  C   UNL     1     -46.170  30.961  22.128  1.00  0.00     0.120 A 
ATOM     22  C   UNL     1     -48.145  31.207  23.107  1.00  0.00     0.167 A 
ATOM     23  N   UNL     1     -50.188  31.080  22.106  1.00  0.00    -0.231 NA
ATOM     24  N   UNL     1     -46.815  31.197  23.290  1.00  0.00    -0.216 NA
ATOM     25  H   UNL     1     -45.086  30.943  22.181  1.00  0.00     0.106 H 
ATOM     26  C   UNL     1     -50.332  31.344  23.387  1.00  0.00     0.099 A 
ATOM     27  H   UNL     1     -51.278  31.489  23.894  1.00  0.00     0.104 H 
BRANCH  18  28
ATOM     28  N   UNL     1     -48.585  30.501  19.521  1.00  0.00    -0.382 N 
ATOM     29  H   UNL     1     -48.487  31.300  18.909  1.00  0.00     0.158 HD
ATOM     30  H   UNL     1     -49.487  30.039  19.556  1.00  0.00     0.158 HD
ENDBRANCH  18  28
ENDBRANCH   9  17
BRANCH  11  31
ATOM     31  O   UNL     1     -47.869  30.579  27.323  1.00  0.00    -0.386 OA
ATOM     32  H   UNL     1     -48.538  31.142  27.772  1.00  0.00     0.211 HD
ENDBRANCH  11  31
BRANCH  13  33
ATOM     33  O   UNL     1     -46.024  32.406  27.435  1.00  0.00    -0.387 OA
ATOM     34  H   UNL     1     -46.415  31.733  28.040  1.00  0.00     0.211 HD
ENDBRANCH  13  33
ENDBRANCH   5   8
ENDBRANCH   4   5
ENDBRANCH   1   4
BRANCH   1  35
ATOM     35  C   UNL     1     -45.621  37.008  28.490  1.00  0.00    -0.018 C 
ATOM     36  H   UNL     1     -44.671  36.458  28.526  1.00  0.00     0.030 H 
ATOM     37  H   UNL     1     -45.688  37.398  27.464  1.00  0.00     0.030 H 
BRANCH  35  38
ATOM     38  C   UNL     1     -45.566  38.192  29.462  1.00  0.00     0.104 C 
ATOM     39  H   UNL     1     -45.326  37.864  30.478  1.00  0.00     0.059 H 
BRANCH  38  40
ATOM     40  N   UNL     1     -46.872  38.916  29.504  1.00  0.00    -0.318 NA
ATOM     41  H   UNL     1     -47.309  38.775  28.583  1.00  0.00     0.119 HD
ATOM     42  H   UNL     1     -47.492  38.375  30.120  1.00  0.00     0.119 HD
ENDBRANCH  38  40
BRANCH  38  43
ATOM     43  C   UNL     1     -44.458  39.169  29.039  1.00  0.00     0.320 C 
ATOM     44  O   UNL     1     -44.343  39.683  27.936  1.00  0.00    -0.251 OA
BRANCH  43  45
ATOM     45  O   UNL     1     -43.597  39.465  30.029  1.00  0.00    -0.480 OA
ATOM     46  H   UNL     1     -42.722  39.177  29.694  1.00  0.00     0.296 HD
ENDBRANCH  43  45
ENDBRANCH  38  43
ENDBRANCH  35  38
ENDBRANCH   1  35
TORSDOF 12
ENDMDL
MODEL 7
REMARK VINA RESULT:      -6.9      9.876     12.957
REMARK SMILES Nc1ncnc2c1ncn2[C@@H]1O[C@H](CSCC[C@H](N)C(=O)O)[C@@H](O)[C@H]1O
REMARK SMILES IDX 16 1 15 4 14 5 13 8 11 9 12 10 25 11 23 13 10 17 2 18 3 19
REMARK SMILES IDX 7 20 4 21 6 22 8 23 5 24 9 26 1 28 26 31 24 33 17 35 18 38
REMARK SMILES IDX 19 40 20 43 21 44 22 45
REMARK H PARENT 16 2 16 3 14 6 14 7 11 12 25 14 13 15 23 16 4 25 9 27 1 29
REMARK H PARENT 1 30 26 32 24 34 17 36 17 37 18 39 19 41 19 42 22 46
REMARK Flexibility Score: inf
ROOT
ATOM      1  C   UNL     1     -43.991  44.436  23.694  1.00  0.00    -0.005 C 
ATOM      2  H   UNL     1     -42.969  44.050  23.687  1.00  0.00     0.038 H 
ATOM      3  H   UNL     1     -43.901  45.519  23.836  1.00  0.00     0.038 H 
ENDROOT
BRANCH   1   4
ATOM      4  S   UNL     1     -44.924  43.823  25.141  1.00  0.00    -0.159 SA
BRANCH   4   5
ATOM      5  C   UNL     1     -43.985  44.593  26.514  1.00  0.00     0.022 C 
ATOM      6  H   UNL     1     -44.705  45.032  27.205  1.00  0.00     0.041 H 
ATOM      7  H   UNL     1     -43.423  45.424  26.075  1.00  0.00     0.041 H 
BRANCH   5   8
ATOM      8  C   UNL     1     -43.029  43.631  27.228  1.00  0.00     0.098 C 
ATOM      9  C   UNL     1     -43.063  41.481  28.119  1.00  0.00     0.165 C 
ATOM     10  O   UNL     1     -43.776  42.735  28.073  1.00  0.00    -0.348 OA
ATOM     11  C   UNL     1     -41.924  41.534  27.095  1.00  0.00     0.128 C 
ATOM     12  H   UNL     1     -42.657  41.383  29.134  1.00  0.00     0.088 H 
ATOM     13  C   UNL     1     -42.269  42.746  26.242  1.00  0.00     0.111 C 
ATOM     14  H   UNL     1     -41.799  40.620  26.507  1.00  0.00     0.068 H 
ATOM     15  H   UNL     1     -42.316  44.162  27.869  1.00  0.00     0.064 H 
ATOM     16  H   UNL     1     -42.896  42.456  25.395  1.00  0.00     0.066 H 
BRANCH   9  17
ATOM     17  N   UNL     1     -44.017  40.408  27.936  1.00  0.00    -0.285 N 
ATOM     18  C   UNL     1     -45.793  37.531  28.847  1.00  0.00     0.155 A 
ATOM     19  N   UNL     1     -45.288  37.243  30.068  1.00  0.00    -0.217 NA
ATOM     20  C   UNL     1     -45.294  38.650  28.161  1.00  0.00     0.150 A 
ATOM     21  C   UNL     1     -44.347  38.063  30.580  1.00  0.00     0.120 A 
ATOM     22  C   UNL     1     -44.320  39.397  28.808  1.00  0.00     0.167 A 
ATOM     23  N   UNL     1     -45.576  39.179  26.919  1.00  0.00    -0.231 NA
ATOM     24  N   UNL     1     -43.804  39.168  30.026  1.00  0.00    -0.216 NA
ATOM     25  H   UNL     1     -43.980  37.797  31.567  1.00  0.00     0.106 H 
ATOM     26  C   UNL     1     -44.790  40.228  26.816  1.00  0.00     0.099 A 
ATOM     27  H   UNL     1     -44.736  40.890  25.959  1.00  0.00     0.104 H 
BRANCH  18  28
ATOM     28  N   UNL     1     -46.771  36.692  28.325  1.00  0.00    -0.382 N 
ATOM     29  H   UNL     1     -47.698  37.082  28.426  1.00  0.00     0.158 HD
ATOM     30  H   UNL     1     -46.636  35.719  28.577  1.00  0.00     0.158 HD
ENDBRANCH  18  28
ENDBRANCH   9  17
BRANCH  11  31
ATOM     31  O   UNL     1     -40.669  41.767  27.763  1.00  0.00    -0.386 OA
ATOM     32  H   UNL     1     -40.094  42.167  27.074  1.00  0.00     0.211 HD
ENDBRANCH  11  31
BRANCH  13  33
ATOM     33  O   UNL     1     -41.075  43.352  25.744  1.00  0.00    -0.387 OA
ATOM     34  H   UNL     1     -41.240  44.319  25.655  1.00  0.00     0.211 HD
ENDBRANCH  13  33
ENDBRANCH   5   8
ENDBRANCH   4   5
ENDBRANCH   1   4
BRANCH   1  35
ATOM     35  C   UNL     1     -44.681  44.198  22.349  1.00  0.00    -0.018 C 
ATOM     36  H   UNL     1     -44.514  43.157  22.042  1.00  0.00     0.030 H 
ATOM     37  H   UNL     1     -45.765  44.280  22.511  1.00  0.00     0.030 H 
BRANCH  35  38
ATOM     38  C   UNL     1     -44.284  45.140  21.207  1.00  0.00     0.104 C 
ATOM     39  H   UNL     1     -44.849  46.076  21.246  1.00  0.00     0.059 H 
BRANCH  38  40
ATOM     40  N   UNL     1     -44.525  44.507  19.876  1.00  0.00    -0.318 NA
ATOM     41  H   UNL     1     -44.258  43.518  19.976  1.00  0.00     0.119 HD
ATOM     42  H   UNL     1     -45.544  44.441  19.759  1.00  0.00     0.119 HD
ENDBRANCH  38  40
BRANCH  38  43
ATOM     43  C   UNL     1     -42.798  45.516  21.327  1.00  0.00     0.320 C 
ATOM     44  O   UNL     1     -41.855  44.755  21.164  1.00  0.00    -0.251 OA
BRANCH  43  45
ATOM     45  O   UNL     1     -42.593  46.816  21.603  1.00  0.00    -0.480 OA
ATOM     46  H   UNL     1     -43.338  47.284  21.170  1.00  0.00     0.296 HD
ENDBRANCH  43  45
ENDBRANCH  38  43
ENDBRANCH  35  38
ENDBRANCH   1  35
TORSDOF 12
ENDMDL
