MODEL 1
REMARK VINA RESULT:     -10.0      0.000      0.000
REMARK SMILES CC1(C)CCN(Cc2ccc(N3CC(=O)NC4(CCN(c5cc(NC6CC6)ncn5)CC4)C3)cc2)CC1
REMARK SMILES IDX 12 1 13 2 14 3 15 4 16 5 17 6 18 7 19 8 20 9 31 10 32 11
REMARK SMILES IDX 33 12 11 26 8 27 9 28 35 29 10 30 34 32 7 36 6 39 2 40 4 41
REMARK SMILES IDX 37 42 5 43 36 46 1 53 3 57 21 61 22 62 30 63 23 64 29 66
REMARK SMILES IDX 28 67 24 69 25 71 26 72 27 73
REMARK H PARENT 13 13 13 14 16 15 18 16 18 17 19 18 19 19 31 20 31 21 32 22
REMARK H PARENT 32 23 33 24 33 25 9 31 35 33 10 34 34 35 7 37 7 38 4 44 4 45
REMARK H PARENT 37 47 37 48 5 49 5 50 36 51 36 52 1 54 1 55 1 56 3 58 3 59
REMARK H PARENT 3 60 22 65 29 68 24 70 25 74 26 75 26 76 27 77 27 78
REMARK Flexibility Score: inf
ROOT
ATOM      1  N   UNL     1     -46.125  30.874  23.156  1.00  0.00    -0.360 N 
ATOM      2  C   UNL     1     -45.905  31.306  21.760  1.00  0.00     0.097 C 
ATOM      3  C   UNL     1     -47.121  31.051  20.857  1.00  0.00     0.240 C 
ATOM      4  O   UNL     1     -47.376  31.743  19.874  1.00  0.00    -0.273 OA
ATOM      5  N   UNL     1     -47.877  29.927  21.109  1.00  0.00    -0.347 N 
ATOM      6  C   UNL     1     -47.979  29.309  22.452  1.00  0.00     0.061 C 
ATOM      7  C   UNL     1     -49.138  29.967  23.243  1.00  0.00    -0.010 C 
ATOM      8  C   UNL     1     -50.516  29.560  22.729  1.00  0.00     0.021 C 
ATOM      9  N   UNL     1     -50.643  28.100  22.710  1.00  0.00    -0.356 N 
ATOM     10  C   UNL     1     -49.650  27.446  21.851  1.00  0.00     0.021 C 
ATOM     11  C   UNL     1     -48.227  27.788  22.296  1.00  0.00    -0.010 C 
ATOM     12  C   UNL     1     -46.628  29.482  23.231  1.00  0.00     0.042 C 
ATOM     13  H   UNL     1     -45.079  30.716  21.344  1.00  0.00     0.060 H 
ATOM     14  H   UNL     1     -45.596  32.354  21.689  1.00  0.00     0.060 H 
ATOM     15  H   UNL     1     -48.665  29.849  20.477  1.00  0.00     0.164 HD
ATOM     16  H   UNL     1     -49.080  31.058  23.189  1.00  0.00     0.031 H 
ATOM     17  H   UNL     1     -49.062  29.691  24.304  1.00  0.00     0.031 H 
ATOM     18  H   UNL     1     -51.295  30.052  23.320  1.00  0.00     0.049 H 
ATOM     19  H   UNL     1     -50.655  29.936  21.707  1.00  0.00     0.049 H 
ATOM     20  H   UNL     1     -49.802  27.794  20.821  1.00  0.00     0.049 H 
ATOM     21  H   UNL     1     -49.794  26.360  21.809  1.00  0.00     0.049 H 
ATOM     22  H   UNL     1     -47.518  27.362  21.572  1.00  0.00     0.031 H 
ATOM     23  H   UNL     1     -48.024  27.292  23.252  1.00  0.00     0.031 H 
ATOM     24  H   UNL     1     -45.864  28.844  22.765  1.00  0.00     0.052 H 
ATOM     25  H   UNL     1     -46.724  29.113  24.258  1.00  0.00     0.052 H 
ENDROOT
BRANCH   1  26
ATOM     26  C   UNL     1     -46.610  31.777  24.107  1.00  0.00     0.037 A 
ATOM     27  C   UNL     1     -47.741  33.608  25.984  1.00  0.00    -0.034 A 
ATOM     28  C   UNL     1     -46.653  33.977  25.190  1.00  0.00    -0.056 A 
ATOM     29  C   UNL     1     -48.229  32.304  25.872  1.00  0.00    -0.056 A 
ATOM     30  C   UNL     1     -46.096  33.074  24.274  1.00  0.00    -0.038 A 
ATOM     31  H   UNL     1     -46.241  34.982  25.257  1.00  0.00     0.063 H 
ATOM     32  C   UNL     1     -47.663  31.408  24.958  1.00  0.00    -0.038 A 
ATOM     33  H   UNL     1     -49.067  31.984  26.487  1.00  0.00     0.063 H 
ATOM     34  H   UNL     1     -45.278  33.441  23.662  1.00  0.00     0.064 H 
ATOM     35  H   UNL     1     -48.066  30.399  24.929  1.00  0.00     0.064 H 
BRANCH  27  36
ATOM     36  C   UNL     1     -48.392  34.592  26.930  1.00  0.00     0.023 C 
ATOM     37  H   UNL     1     -48.664  34.102  27.873  1.00  0.00     0.048 H 
ATOM     38  H   UNL     1     -49.336  34.899  26.459  1.00  0.00     0.048 H 
BRANCH  36  39
ATOM     39  N   UNL     1     -47.550  35.771  27.182  1.00  0.00    -0.299 NA
ATOM     40  C   UNL     1     -46.075  38.053  27.986  1.00  0.00    -0.033 C 
ATOM     41  C   UNL     1     -47.528  37.929  28.482  1.00  0.00    -0.035 C 
ATOM     42  C   UNL     1     -45.405  36.655  28.002  1.00  0.00    -0.035 C 
ATOM     43  C   UNL     1     -48.349  36.890  27.701  1.00  0.00    -0.001 C 
ATOM     44  H   UNL     1     -48.039  38.899  28.439  1.00  0.00     0.029 H 
ATOM     45  H   UNL     1     -47.519  37.637  29.542  1.00  0.00     0.029 H 
ATOM     46  C   UNL     1     -46.402  35.486  28.038  1.00  0.00    -0.001 C 
ATOM     47  H   UNL     1     -44.747  36.550  28.874  1.00  0.00     0.029 H 
ATOM     48  H   UNL     1     -44.754  36.544  27.123  1.00  0.00     0.029 H 
ATOM     49  H   UNL     1     -49.148  36.534  28.366  1.00  0.00     0.043 H 
ATOM     50  H   UNL     1     -48.840  37.382  26.854  1.00  0.00     0.043 H 
ATOM     51  H   UNL     1     -45.860  34.591  27.710  1.00  0.00     0.043 H 
ATOM     52  H   UNL     1     -46.724  35.292  29.070  1.00  0.00     0.043 H 
BRANCH  40  53
ATOM     53  C   UNL     1     -46.043  38.640  26.560  1.00  0.00    -0.060 C 
ATOM     54  H   UNL     1     -46.990  38.498  26.032  1.00  0.00     0.024 H 
ATOM     55  H   UNL     1     -45.260  38.164  25.958  1.00  0.00     0.024 H 
ATOM     56  H   UNL     1     -45.834  39.716  26.583  1.00  0.00     0.024 H 
ENDBRANCH  40  53
BRANCH  40  57
ATOM     57  C   UNL     1     -45.298  39.010  28.907  1.00  0.00    -0.060 C 
ATOM     58  H   UNL     1     -44.262  38.681  29.036  1.00  0.00     0.024 H 
ATOM     59  H   UNL     1     -45.279  40.026  28.496  1.00  0.00     0.024 H 
ATOM     60  H   UNL     1     -45.757  39.064  29.901  1.00  0.00     0.024 H 
ENDBRANCH  40  57
ENDBRANCH  36  39
ENDBRANCH  27  36
ENDBRANCH   1  26
BRANCH   9  61
ATOM     61  C   UNL     1     -50.930  27.458  23.924  1.00  0.00     0.134 A 
ATOM     62  C   UNL     1     -49.936  26.819  24.647  1.00  0.00     0.023 A 
ATOM     63  N   UNL     1     -52.185  27.497  24.403  1.00  0.00    -0.219 NA
ATOM     64  C   UNL     1     -50.278  26.198  25.835  1.00  0.00     0.131 A 
ATOM     65  H   UNL     1     -48.911  26.809  24.309  1.00  0.00     0.070 H 
ATOM     66  C   UNL     1     -52.425  26.866  25.561  1.00  0.00     0.120 A 
ATOM     67  N   UNL     1     -51.533  26.201  26.300  1.00  0.00    -0.219 NA
ATOM     68  H   UNL     1     -53.443  26.896  25.930  1.00  0.00     0.106 H 
BRANCH  64  69
ATOM     69  N   UNL     1     -49.343  25.493  26.609  1.00  0.00    -0.367 N 
ATOM     70  H   UNL     1     -49.496  25.777  27.575  1.00  0.00     0.162 HD
BRANCH  69  71
ATOM     71  C   UNL     1     -47.966  25.322  26.160  1.00  0.00     0.028 C 
ATOM     72  C   UNL     1     -46.956  24.588  26.997  1.00  0.00    -0.031 C 
ATOM     73  C   UNL     1     -46.861  26.076  26.846  1.00  0.00    -0.031 C 
ATOM     74  H   UNL     1     -47.882  25.238  25.078  1.00  0.00     0.053 H 
ATOM     75  H   UNL     1     -47.275  24.198  27.956  1.00  0.00     0.029 H 
ATOM     76  H   UNL     1     -46.224  23.976  26.485  1.00  0.00     0.029 H 
ATOM     77  H   UNL     1     -47.110  26.687  27.706  1.00  0.00     0.029 H 
ATOM     78  H   UNL     1     -46.062  26.476  26.231  1.00  0.00     0.029 H 
ENDBRANCH  69  71
ENDBRANCH  64  69
ENDBRANCH   9  61
TORSDOF 8
ENDMDL
MODEL 2
REMARK VINA RESULT:      -8.9      6.116     12.861
REMARK SMILES CC1(C)CCN(Cc2ccc(N3CC(=O)NC4(CCN(c5cc(NC6CC6)ncn5)CC4)C3)cc2)CC1
REMARK SMILES IDX 12 1 13 2 14 3 15 4 16 5 17 6 18 7 19 8 20 9 31 10 32 11
REMARK SMILES IDX 33 12 11 26 8 27 9 28 35 29 10 30 34 32 7 36 6 39 2 40 4 41
REMARK SMILES IDX 37 42 5 43 36 46 1 53 3 57 21 61 22 62 30 63 23 64 29 66
REMARK SMILES IDX 28 67 24 69 25 71 26 72 27 73
REMARK H PARENT 13 13 13 14 16 15 18 16 18 17 19 18 19 19 31 20 31 21 32 22
REMARK H PARENT 32 23 33 24 33 25 9 31 35 33 10 34 34 35 7 37 7 38 4 44 4 45
REMARK H PARENT 37 47 37 48 5 49 5 50 36 51 36 52 1 54 1 55 1 56 3 58 3 59
REMARK H PARENT 3 60 22 65 29 68 24 70 25 74 26 75 26 76 27 77 27 78
REMARK Flexibility Score: inf
ROOT
ATOM      1  N   UNL     1     -44.021  41.546  25.963  1.00  0.00    -0.360 N 
ATOM      2  C   UNL     1     -42.989  42.354  26.644  1.00  0.00     0.097 C 
ATOM      3  C   UNL     1     -43.552  43.640  27.266  1.00  0.00     0.240 C 
ATOM      4  O   UNL     1     -43.060  44.171  28.259  1.00  0.00    -0.273 OA
ATOM      5  N   UNL     1     -44.581  44.272  26.600  1.00  0.00    -0.347 N 
ATOM      6  C   UNL     1     -45.536  43.553  25.725  1.00  0.00     0.061 C 
ATOM      7  C   UNL     1     -46.728  43.033  26.568  1.00  0.00    -0.010 C 
ATOM      8  C   UNL     1     -47.668  44.146  27.021  1.00  0.00     0.021 C 
ATOM      9  N   UNL     1     -48.129  44.925  25.868  1.00  0.00    -0.356 N 
ATOM     10  C   UNL     1     -47.033  45.558  25.124  1.00  0.00     0.021 C 
ATOM     11  C   UNL     1     -46.036  44.514  24.619  1.00  0.00    -0.010 C 
ATOM     12  C   UNL     1     -44.818  42.355  25.011  1.00  0.00     0.042 C 
ATOM     13  H   UNL     1     -42.248  42.668  25.898  1.00  0.00     0.060 H 
ATOM     14  H   UNL     1     -42.438  41.783  27.397  1.00  0.00     0.060 H 
ATOM     15  H   UNL     1     -44.899  45.099  27.091  1.00  0.00     0.164 HD
ATOM     16  H   UNL     1     -46.377  42.519  27.468  1.00  0.00     0.031 H 
ATOM     17  H   UNL     1     -47.302  42.303  25.981  1.00  0.00     0.031 H 
ATOM     18  H   UNL     1     -48.489  43.726  27.610  1.00  0.00     0.049 H 
ATOM     19  H   UNL     1     -47.140  44.820  27.708  1.00  0.00     0.049 H 
ATOM     20  H   UNL     1     -46.519  46.256  25.797  1.00  0.00     0.049 H 
ATOM     21  H   UNL     1     -47.401  46.178  24.298  1.00  0.00     0.049 H 
ATOM     22  H   UNL     1     -45.185  45.033  24.156  1.00  0.00     0.031 H 
ATOM     23  H   UNL     1     -46.508  43.928  23.821  1.00  0.00     0.031 H 
ATOM     24  H   UNL     1     -44.113  42.755  24.267  1.00  0.00     0.052 H 
ATOM     25  H   UNL     1     -45.536  41.761  24.435  1.00  0.00     0.052 H 
ENDROOT
BRANCH   1  26
ATOM     26  C   UNL     1     -44.691  40.530  26.651  1.00  0.00     0.037 A 
ATOM     27  C   UNL     1     -45.926  38.376  28.060  1.00  0.00    -0.034 A 
ATOM     28  C   UNL     1     -46.433  38.813  26.834  1.00  0.00    -0.056 A 
ATOM     29  C   UNL     1     -44.832  39.052  28.602  1.00  0.00    -0.056 A 
ATOM     30  C   UNL     1     -45.828  39.875  26.148  1.00  0.00    -0.038 A 
ATOM     31  H   UNL     1     -47.290  38.316  26.386  1.00  0.00     0.063 H 
ATOM     32  C   UNL     1     -44.237  40.115  27.913  1.00  0.00    -0.038 A 
ATOM     33  H   UNL     1     -44.423  38.742  29.562  1.00  0.00     0.063 H 
ATOM     34  H   UNL     1     -46.250  40.137  25.182  1.00  0.00     0.064 H 
ATOM     35  H   UNL     1     -43.403  40.620  28.391  1.00  0.00     0.064 H 
BRANCH  27  36
ATOM     36  C   UNL     1     -46.530  37.190  28.780  1.00  0.00     0.023 C 
ATOM     37  H   UNL     1     -47.454  37.480  29.297  1.00  0.00     0.048 H 
ATOM     38  H   UNL     1     -45.815  36.905  29.565  1.00  0.00     0.048 H 
BRANCH  36  39
ATOM     39  N   UNL     1     -46.772  36.051  27.883  1.00  0.00    -0.299 NA
ATOM     40  C   UNL     1     -47.265  33.660  26.444  1.00  0.00    -0.033 C 
ATOM     41  C   UNL     1     -46.424  33.560  27.731  1.00  0.00    -0.035 C 
ATOM     42  C   UNL     1     -48.409  34.685  26.655  1.00  0.00    -0.035 C 
ATOM     43  C   UNL     1     -45.896  34.920  28.217  1.00  0.00    -0.001 C 
ATOM     44  H   UNL     1     -45.580  32.873  27.593  1.00  0.00     0.029 H 
ATOM     45  H   UNL     1     -47.044  33.125  28.528  1.00  0.00     0.029 H 
ATOM     46  C   UNL     1     -48.175  35.648  27.829  1.00  0.00    -0.001 C 
ATOM     47  H   UNL     1     -49.361  34.170  26.840  1.00  0.00     0.029 H 
ATOM     48  H   UNL     1     -48.560  35.269  25.737  1.00  0.00     0.029 H 
ATOM     49  H   UNL     1     -45.740  34.844  29.302  1.00  0.00     0.043 H 
ATOM     50  H   UNL     1     -44.912  35.104  27.770  1.00  0.00     0.043 H 
ATOM     51  H   UNL     1     -48.840  36.506  27.678  1.00  0.00     0.043 H 
ATOM     52  H   UNL     1     -48.482  35.180  28.773  1.00  0.00     0.043 H 
BRANCH  40  53
ATOM     53  C   UNL     1     -46.380  34.091  25.257  1.00  0.00    -0.060 C 
ATOM     54  H   UNL     1     -46.111  35.151  25.304  1.00  0.00     0.024 H 
ATOM     55  H   UNL     1     -46.896  33.929  24.303  1.00  0.00     0.024 H 
ATOM     56  H   UNL     1     -45.449  33.514  25.231  1.00  0.00     0.024 H 
ENDBRANCH  40  53
BRANCH  40  57
ATOM     57  C   UNL     1     -47.859  32.280  26.111  1.00  0.00    -0.060 C 
ATOM     58  H   UNL     1     -48.178  31.757  27.019  1.00  0.00     0.024 H 
ATOM     59  H   UNL     1     -48.732  32.373  25.455  1.00  0.00     0.024 H 
ATOM     60  H   UNL     1     -47.126  31.646  25.600  1.00  0.00     0.024 H 
ENDBRANCH  40  57
ENDBRANCH  36  39
ENDBRANCH  27  36
ENDBRANCH   1  26
BRANCH   9  61
ATOM     61  C   UNL     1     -49.170  44.387  25.096  1.00  0.00     0.134 A 
ATOM     62  C   UNL     1     -50.118  43.548  25.658  1.00  0.00     0.023 A 
ATOM     63  N   UNL     1     -49.262  44.725  23.798  1.00  0.00    -0.219 NA
ATOM     64  C   UNL     1     -51.118  43.043  24.848  1.00  0.00     0.131 A 
ATOM     65  H   UNL     1     -50.095  43.295  26.708  1.00  0.00     0.070 H 
ATOM     66  C   UNL     1     -50.264  44.186  23.089  1.00  0.00     0.120 A 
ATOM     67  N   UNL     1     -51.196  43.346  23.546  1.00  0.00    -0.219 NA
ATOM     68  H   UNL     1     -50.320  44.457  22.041  1.00  0.00     0.106 H 
BRANCH  64  69
ATOM     69  N   UNL     1     -52.095  42.155  25.326  1.00  0.00    -0.367 N 
ATOM     70  H   UNL     1     -52.980  42.453  24.920  1.00  0.00     0.162 HD
BRANCH  69  71
ATOM     71  C   UNL     1     -52.097  41.712  26.715  1.00  0.00     0.028 C 
ATOM     72  C   UNL     1     -51.030  40.797  27.246  1.00  0.00    -0.031 C 
ATOM     73  C   UNL     1     -52.422  40.280  27.039  1.00  0.00    -0.031 C 
ATOM     74  H   UNL     1     -52.509  42.456  27.395  1.00  0.00     0.053 H 
ATOM     75  H   UNL     1     -50.260  40.461  26.563  1.00  0.00     0.029 H 
ATOM     76  H   UNL     1     -50.690  40.951  28.263  1.00  0.00     0.029 H 
ATOM     77  H   UNL     1     -52.586  39.591  26.219  1.00  0.00     0.029 H 
ATOM     78  H   UNL     1     -53.029  40.082  27.915  1.00  0.00     0.029 H 
ENDBRANCH  69  71
ENDBRANCH  64  69
ENDBRANCH   9  61
TORSDOF 8
ENDMDL
MODEL 3
REMARK VINA RESULT:      -8.6      6.439     13.863
REMARK SMILES CC1(C)CCN(Cc2ccc(N3CC(=O)NC4(CCN(c5cc(NC6CC6)ncn5)CC4)C3)cc2)CC1
REMARK SMILES IDX 12 1 13 2 14 3 15 4 16 5 17 6 18 7 19 8 20 9 31 10 32 11
REMARK SMILES IDX 33 12 11 26 8 27 9 28 35 29 10 30 34 32 7 36 6 39 2 40 4 41
REMARK SMILES IDX 37 42 5 43 36 46 1 53 3 57 21 61 22 62 30 63 23 64 29 66
REMARK SMILES IDX 28 67 24 69 25 71 26 72 27 73
REMARK H PARENT 13 13 13 14 16 15 18 16 18 17 19 18 19 19 31 20 31 21 32 22
REMARK H PARENT 32 23 33 24 33 25 9 31 35 33 10 34 34 35 7 37 7 38 4 44 4 45
REMARK H PARENT 37 47 37 48 5 49 5 50 36 51 36 52 1 54 1 55 1 56 3 58 3 59
REMARK H PARENT 3 60 22 65 29 68 24 70 25 74 26 75 26 76 27 77 27 78
REMARK Flexibility Score: inf
ROOT
ATOM      1  N   UNL     1     -43.260  41.166  26.624  1.00  0.00    -0.360 N 
ATOM      2  C   UNL     1     -42.341  41.607  27.694  1.00  0.00     0.097 C 
ATOM      3  C   UNL     1     -42.693  42.994  28.250  1.00  0.00     0.240 C 
ATOM      4  O   UNL     1     -42.443  43.331  29.406  1.00  0.00    -0.273 OA
ATOM      5  N   UNL     1     -43.205  43.922  27.369  1.00  0.00    -0.347 N 
ATOM      6  C   UNL     1     -43.962  43.547  26.153  1.00  0.00     0.061 C 
ATOM      7  C   UNL     1     -45.467  43.406  26.497  1.00  0.00    -0.010 C 
ATOM      8  C   UNL     1     -46.148  44.748  26.752  1.00  0.00     0.021 C 
ATOM      9  N   UNL     1     -45.942  45.649  25.615  1.00  0.00    -0.356 N 
ATOM     10  C   UNL     1     -44.525  45.925  25.346  1.00  0.00     0.021 C 
ATOM     11  C   UNL     1     -43.756  44.633  25.069  1.00  0.00    -0.010 C 
ATOM     12  C   UNL     1     -43.415  42.197  25.570  1.00  0.00     0.042 C 
ATOM     13  H   UNL     1     -41.332  41.688  27.270  1.00  0.00     0.060 H 
ATOM     14  H   UNL     1     -42.270  40.881  28.510  1.00  0.00     0.060 H 
ATOM     15  H   UNL     1     -43.423  44.800  27.827  1.00  0.00     0.164 HD
ATOM     16  H   UNL     1     -45.609  42.795  27.394  1.00  0.00     0.031 H 
ATOM     17  H   UNL     1     -45.987  42.899  25.673  1.00  0.00     0.031 H 
ATOM     18  H   UNL     1     -47.204  44.592  26.991  1.00  0.00     0.049 H 
ATOM     19  H   UNL     1     -45.720  45.215  27.649  1.00  0.00     0.049 H 
ATOM     20  H   UNL     1     -44.098  46.420  26.228  1.00  0.00     0.049 H 
ATOM     21  H   UNL     1     -44.394  46.641  24.526  1.00  0.00     0.049 H 
ATOM     22  H   UNL     1     -42.688  44.871  24.971  1.00  0.00     0.031 H 
ATOM     23  H   UNL     1     -44.071  44.233  24.097  1.00  0.00     0.031 H 
ATOM     24  H   UNL     1     -42.415  42.372  25.148  1.00  0.00     0.052 H 
ATOM     25  H   UNL     1     -44.029  41.863  24.726  1.00  0.00     0.052 H 
ENDROOT
BRANCH   1  26
ATOM     26  C   UNL     1     -44.386  40.397  26.931  1.00  0.00     0.037 A 
ATOM     27  C   UNL     1     -46.589  38.705  27.594  1.00  0.00    -0.034 A 
ATOM     28  C   UNL     1     -46.507  39.318  26.341  1.00  0.00    -0.056 A 
ATOM     29  C   UNL     1     -45.591  38.982  28.531  1.00  0.00    -0.056 A 
ATOM     30  C   UNL     1     -45.428  40.152  26.022  1.00  0.00    -0.038 A 
ATOM     31  H   UNL     1     -47.271  39.133  25.589  1.00  0.00     0.063 H 
ATOM     32  C   UNL     1     -44.520  39.820  28.204  1.00  0.00    -0.038 A 
ATOM     33  H   UNL     1     -45.635  38.529  29.519  1.00  0.00     0.063 H 
ATOM     34  H   UNL     1     -45.408  40.564  25.017  1.00  0.00     0.064 H 
ATOM     35  H   UNL     1     -43.783  40.020  28.979  1.00  0.00     0.064 H 
BRANCH  27  36
ATOM     36  C   UNL     1     -47.714  37.752  27.929  1.00  0.00     0.023 C 
ATOM     37  H   UNL     1     -48.682  38.174  27.628  1.00  0.00     0.048 H 
ATOM     38  H   UNL     1     -47.740  37.674  29.025  1.00  0.00     0.048 H 
BRANCH  36  39
ATOM     39  N   UNL     1     -47.520  36.422  27.335  1.00  0.00    -0.299 NA
ATOM     40  C   UNL     1     -47.132  33.735  26.520  1.00  0.00    -0.033 C 
ATOM     41  C   UNL     1     -46.404  34.209  27.792  1.00  0.00    -0.035 C 
ATOM     42  C   UNL     1     -48.551  34.358  26.477  1.00  0.00    -0.035 C 
ATOM     43  C   UNL     1     -46.364  35.740  27.933  1.00  0.00    -0.001 C 
ATOM     44  H   UNL     1     -45.379  33.816  27.824  1.00  0.00     0.029 H 
ATOM     45  H   UNL     1     -46.917  33.794  28.671  1.00  0.00     0.029 H 
ATOM     46  C   UNL     1     -48.719  35.589  27.381  1.00  0.00    -0.001 C 
ATOM     47  H   UNL     1     -49.306  33.623  26.782  1.00  0.00     0.029 H 
ATOM     48  H   UNL     1     -48.805  34.635  25.444  1.00  0.00     0.029 H 
ATOM     49  H   UNL     1     -46.276  35.970  29.004  1.00  0.00     0.043 H 
ATOM     50  H   UNL     1     -45.455  36.122  27.454  1.00  0.00     0.043 H 
ATOM     51  H   UNL     1     -49.605  36.130  27.028  1.00  0.00     0.043 H 
ATOM     52  H   UNL     1     -48.937  35.277  28.412  1.00  0.00     0.043 H 
BRANCH  40  53
ATOM     53  C   UNL     1     -46.336  34.142  25.263  1.00  0.00    -0.060 C 
ATOM     54  H   UNL     1     -46.571  35.160  24.936  1.00  0.00     0.024 H 
ATOM     55  H   UNL     1     -46.557  33.472  24.424  1.00  0.00     0.024 H 
ATOM     56  H   UNL     1     -45.257  34.094  25.449  1.00  0.00     0.024 H 
ENDBRANCH  40  53
BRANCH  40  57
ATOM     57  C   UNL     1     -47.240  32.200  26.532  1.00  0.00    -0.060 C 
ATOM     58  H   UNL     1     -48.276  31.878  26.676  1.00  0.00     0.024 H 
ATOM     59  H   UNL     1     -46.883  31.771  25.589  1.00  0.00     0.024 H 
ATOM     60  H   UNL     1     -46.640  31.767  27.341  1.00  0.00     0.024 H 
ENDBRANCH  40  57
ENDBRANCH  36  39
ENDBRANCH  27  36
ENDBRANCH   1  26
BRANCH   9  61
ATOM     61  C   UNL     1     -46.761  45.471  24.489  1.00  0.00     0.134 A 
ATOM     62  C   UNL     1     -48.079  45.067  24.621  1.00  0.00     0.023 A 
ATOM     63  N   UNL     1     -46.259  45.732  23.270  1.00  0.00    -0.219 NA
ATOM     64  C   UNL     1     -48.837  44.903  23.476  1.00  0.00     0.131 A 
ATOM     65  H   UNL     1     -48.522  44.893  25.590  1.00  0.00     0.070 H 
ATOM     66  C   UNL     1     -47.067  45.543  22.217  1.00  0.00     0.120 A 
ATOM     67  N   UNL     1     -48.336  45.126  22.256  1.00  0.00    -0.219 NA
ATOM     68  H   UNL     1     -46.648  45.746  21.238  1.00  0.00     0.106 H 
BRANCH  64  69
ATOM     69  N   UNL     1     -50.168  44.458  23.515  1.00  0.00    -0.367 N 
ATOM     70  H   UNL     1     -50.228  43.795  24.285  1.00  0.00     0.162 HD
BRANCH  69  71
ATOM     71  C   UNL     1     -50.898  44.148  22.291  1.00  0.00     0.028 C 
ATOM     72  C   UNL     1     -52.399  44.204  22.240  1.00  0.00    -0.031 C 
ATOM     73  C   UNL     1     -51.698  42.879  22.203  1.00  0.00    -0.031 C 
ATOM     74  H   UNL     1     -50.351  44.427  21.392  1.00  0.00     0.053 H 
ATOM     75  H   UNL     1     -52.931  44.468  23.145  1.00  0.00     0.029 H 
ATOM     76  H   UNL     1     -52.862  44.561  21.328  1.00  0.00     0.029 H 
ATOM     77  H   UNL     1     -51.765  42.250  23.082  1.00  0.00     0.029 H 
ATOM     78  H   UNL     1     -51.685  42.334  21.265  1.00  0.00     0.029 H 
ENDBRANCH  69  71
ENDBRANCH  64  69
ENDBRANCH   9  61
TORSDOF 8
ENDMDL
MODEL 4
REMARK VINA RESULT:      -8.5      8.542     13.420
REMARK SMILES CC1(C)CCN(Cc2ccc(N3CC(=O)NC4(CCN(c5cc(NC6CC6)ncn5)CC4)C3)cc2)CC1
REMARK SMILES IDX 12 1 13 2 14 3 15 4 16 5 17 6 18 7 19 8 20 9 31 10 32 11
REMARK SMILES IDX 33 12 11 26 8 27 9 28 35 29 10 30 34 32 7 36 6 39 2 40 4 41
REMARK SMILES IDX 37 42 5 43 36 46 1 53 3 57 21 61 22 62 30 63 23 64 29 66
REMARK SMILES IDX 28 67 24 69 25 71 26 72 27 73
REMARK H PARENT 13 13 13 14 16 15 18 16 18 17 19 18 19 19 31 20 31 21 32 22
REMARK H PARENT 32 23 33 24 33 25 9 31 35 33 10 34 34 35 7 37 7 38 4 44 4 45
REMARK H PARENT 37 47 37 48 5 49 5 50 36 51 36 52 1 54 1 55 1 56 3 58 3 59
REMARK H PARENT 3 60 22 65 29 68 24 70 25 74 26 75 26 76 27 77 27 78
REMARK Flexibility Score: inf
ROOT
ATOM      1  N   UNL     1     -43.873  43.862  24.752  1.00  0.00    -0.360 N 
ATOM      2  C   UNL     1     -43.073  45.075  25.023  1.00  0.00     0.097 C 
ATOM      3  C   UNL     1     -43.873  46.168  25.746  1.00  0.00     0.240 C 
ATOM      4  O   UNL     1     -43.351  46.987  26.500  1.00  0.00    -0.273 OA
ATOM      5  N   UNL     1     -45.210  46.292  25.433  1.00  0.00    -0.347 N 
ATOM      6  C   UNL     1     -46.032  45.158  24.951  1.00  0.00     0.061 C 
ATOM      7  C   UNL     1     -46.636  44.399  26.160  1.00  0.00    -0.010 C 
ATOM      8  C   UNL     1     -47.752  45.176  26.854  1.00  0.00     0.021 C 
ATOM      9  N   UNL     1     -48.787  45.554  25.888  1.00  0.00    -0.356 N 
ATOM     10  C   UNL     1     -48.282  46.400  24.801  1.00  0.00     0.021 C 
ATOM     11  C   UNL     1     -47.158  45.698  24.035  1.00  0.00    -0.010 C 
ATOM     12  C   UNL     1     -45.157  44.185  24.086  1.00  0.00     0.042 C 
ATOM     13  H   UNL     1     -42.759  45.502  24.063  1.00  0.00     0.060 H 
ATOM     14  H   UNL     1     -42.153  44.856  25.574  1.00  0.00     0.060 H 
ATOM     15  H   UNL     1     -45.659  47.025  25.969  1.00  0.00     0.164 HD
ATOM     16  H   UNL     1     -45.871  44.188  26.912  1.00  0.00     0.031 H 
ATOM     17  H   UNL     1     -47.036  43.433  25.824  1.00  0.00     0.031 H 
ATOM     18  H   UNL     1     -48.141  44.597  27.697  1.00  0.00     0.049 H 
ATOM     19  H   UNL     1     -47.342  46.090  27.302  1.00  0.00     0.049 H 
ATOM     20  H   UNL     1     -47.897  47.330  25.239  1.00  0.00     0.049 H 
ATOM     21  H   UNL     1     -49.081  46.715  24.119  1.00  0.00     0.049 H 
ATOM     22  H   UNL     1     -46.742  46.399  23.298  1.00  0.00     0.031 H 
ATOM     23  H   UNL     1     -47.584  44.867  23.462  1.00  0.00     0.031 H 
ATOM     24  H   UNL     1     -44.906  44.680  23.137  1.00  0.00     0.052 H 
ATOM     25  H   UNL     1     -45.732  43.295  23.804  1.00  0.00     0.052 H 
ENDROOT
BRANCH   1  26
ATOM     26  C   UNL     1     -43.877  42.801  25.662  1.00  0.00     0.037 A 
ATOM     27  C   UNL     1     -44.042  40.630  27.509  1.00  0.00    -0.034 A 
ATOM     28  C   UNL     1     -43.393  41.818  27.856  1.00  0.00    -0.056 A 
ATOM     29  C   UNL     1     -44.563  40.514  26.219  1.00  0.00    -0.056 A 
ATOM     30  C   UNL     1     -43.309  42.879  26.944  1.00  0.00    -0.038 A 
ATOM     31  H   UNL     1     -42.968  41.941  28.849  1.00  0.00     0.063 H 
ATOM     32  C   UNL     1     -44.469  41.576  25.314  1.00  0.00    -0.038 A 
ATOM     33  H   UNL     1     -45.063  39.595  25.917  1.00  0.00     0.063 H 
ATOM     34  H   UNL     1     -42.825  43.786  27.294  1.00  0.00     0.064 H 
ATOM     35  H   UNL     1     -44.871  41.424  24.316  1.00  0.00     0.064 H 
BRANCH  27  36
ATOM     36  C   UNL     1     -44.197  39.502  28.505  1.00  0.00     0.023 C 
ATOM     37  H   UNL     1     -44.316  39.896  29.522  1.00  0.00     0.048 H 
ATOM     38  H   UNL     1     -43.248  38.948  28.499  1.00  0.00     0.048 H 
BRANCH  36  39
ATOM     39  N   UNL     1     -45.307  38.600  28.164  1.00  0.00    -0.299 NA
ATOM     40  C   UNL     1     -47.500  36.832  27.853  1.00  0.00    -0.033 C 
ATOM     41  C   UNL     1     -46.560  36.603  29.053  1.00  0.00    -0.035 C 
ATOM     42  C   UNL     1     -47.698  38.355  27.639  1.00  0.00    -0.035 C 
ATOM     43  C   UNL     1     -45.220  37.345  28.923  1.00  0.00    -0.001 C 
ATOM     44  H   UNL     1     -46.368  35.532  29.198  1.00  0.00     0.029 H 
ATOM     45  H   UNL     1     -47.061  36.950  29.968  1.00  0.00     0.029 H 
ATOM     46  C   UNL     1     -46.620  39.224  28.304  1.00  0.00    -0.001 C 
ATOM     47  H   UNL     1     -48.670  38.678  28.036  1.00  0.00     0.029 H 
ATOM     48  H   UNL     1     -47.727  38.579  26.564  1.00  0.00     0.029 H 
ATOM     49  H   UNL     1     -44.840  37.519  29.939  1.00  0.00     0.043 H 
ATOM     50  H   UNL     1     -44.494  36.692  28.424  1.00  0.00     0.043 H 
ATOM     51  H   UNL     1     -46.657  40.208  27.822  1.00  0.00     0.043 H 
ATOM     52  H   UNL     1     -46.862  39.388  29.363  1.00  0.00     0.043 H 
BRANCH  40  53
ATOM     53  C   UNL     1     -46.912  36.190  26.580  1.00  0.00    -0.060 C 
ATOM     54  H   UNL     1     -46.334  35.287  26.800  1.00  0.00     0.024 H 
ATOM     55  H   UNL     1     -46.241  36.887  26.063  1.00  0.00     0.024 H 
ATOM     56  H   UNL     1     -47.706  35.913  25.877  1.00  0.00     0.024 H 
ENDBRANCH  40  53
BRANCH  40  57
ATOM     57  C   UNL     1     -48.859  36.166  28.132  1.00  0.00    -0.060 C 
ATOM     58  H   UNL     1     -49.261  36.478  29.101  1.00  0.00     0.024 H 
ATOM     59  H   UNL     1     -49.594  36.430  27.363  1.00  0.00     0.024 H 
ATOM     60  H   UNL     1     -48.770  35.074  28.143  1.00  0.00     0.024 H 
ENDBRANCH  40  57
ENDBRANCH  36  39
ENDBRANCH  27  36
ENDBRANCH   1  26
BRANCH   9  61
ATOM     61  C   UNL     1     -49.724  44.575  25.525  1.00  0.00     0.134 A 
ATOM     62  C   UNL     1     -49.973  43.484  26.343  1.00  0.00     0.023 A 
ATOM     63  N   UNL     1     -50.411  44.722  24.379  1.00  0.00    -0.219 NA
ATOM     64  C   UNL     1     -50.904  42.548  25.930  1.00  0.00     0.131 A 
ATOM     65  H   UNL     1     -49.468  43.362  27.289  1.00  0.00     0.070 H 
ATOM     66  C   UNL     1     -51.292  43.763  24.059  1.00  0.00     0.120 A 
ATOM     67  N   UNL     1     -51.566  42.669  24.774  1.00  0.00    -0.219 NA
ATOM     68  H   UNL     1     -51.831  43.888  23.128  1.00  0.00     0.106 H 
BRANCH  64  69
ATOM     69  N   UNL     1     -51.187  41.393  26.677  1.00  0.00    -0.367 N 
ATOM     70  H   UNL     1     -51.978  40.942  26.222  1.00  0.00     0.162 HD
BRANCH  69  71
ATOM     71  C   UNL     1     -51.161  41.411  28.136  1.00  0.00     0.028 C 
ATOM     72  C   UNL     1     -49.961  40.931  28.901  1.00  0.00    -0.031 C 
ATOM     73  C   UNL     1     -51.219  40.116  28.897  1.00  0.00    -0.031 C 
ATOM     74  H   UNL     1     -51.734  42.235  28.558  1.00  0.00     0.053 H 
ATOM     75  H   UNL     1     -49.114  40.555  28.341  1.00  0.00     0.029 H 
ATOM     76  H   UNL     1     -49.697  41.456  29.812  1.00  0.00     0.029 H 
ATOM     77  H   UNL     1     -51.216  39.189  28.336  1.00  0.00     0.029 H 
ATOM     78  H   UNL     1     -51.811  40.087  29.804  1.00  0.00     0.029 H 
ENDBRANCH  69  71
ENDBRANCH  64  69
ENDBRANCH   9  61
TORSDOF 8
ENDMDL
MODEL 5
REMARK VINA RESULT:      -8.5      6.261     13.408
REMARK SMILES CC1(C)CCN(Cc2ccc(N3CC(=O)NC4(CCN(c5cc(NC6CC6)ncn5)CC4)C3)cc2)CC1
REMARK SMILES IDX 12 1 13 2 14 3 15 4 16 5 17 6 18 7 19 8 20 9 31 10 32 11
REMARK SMILES IDX 33 12 11 26 8 27 9 28 35 29 10 30 34 32 7 36 6 39 2 40 4 41
REMARK SMILES IDX 37 42 5 43 36 46 1 53 3 57 21 61 22 62 30 63 23 64 29 66
REMARK SMILES IDX 28 67 24 69 25 71 26 72 27 73
REMARK H PARENT 13 13 13 14 16 15 18 16 18 17 19 18 19 19 31 20 31 21 32 22
REMARK H PARENT 32 23 33 24 33 25 9 31 35 33 10 34 34 35 7 37 7 38 4 44 4 45
REMARK H PARENT 37 47 37 48 5 49 5 50 36 51 36 52 1 54 1 55 1 56 3 58 3 59
REMARK H PARENT 3 60 22 65 29 68 24 70 25 74 26 75 26 76 27 77 27 78
REMARK Flexibility Score: inf
ROOT
ATOM      1  N   UNL     1     -44.067  41.507  25.991  1.00  0.00    -0.360 N 
ATOM      2  C   UNL     1     -43.050  42.313  26.697  1.00  0.00     0.097 C 
ATOM      3  C   UNL     1     -43.625  43.596  27.312  1.00  0.00     0.240 C 
ATOM      4  O   UNL     1     -43.152  44.122  28.318  1.00  0.00    -0.273 OA
ATOM      5  N   UNL     1     -44.639  44.231  26.629  1.00  0.00    -0.347 N 
ATOM      6  C   UNL     1     -45.576  43.517  25.731  1.00  0.00     0.061 C 
ATOM      7  C   UNL     1     -46.786  42.994  26.547  1.00  0.00    -0.010 C 
ATOM      8  C   UNL     1     -47.735  44.106  26.985  1.00  0.00     0.021 C 
ATOM      9  N   UNL     1     -48.171  44.890  25.826  1.00  0.00    -0.356 N 
ATOM     10  C   UNL     1     -47.060  45.525  25.108  1.00  0.00     0.021 C 
ATOM     11  C   UNL     1     -46.053  44.483  24.619  1.00  0.00    -0.010 C 
ATOM     12  C   UNL     1     -44.844  42.321  25.026  1.00  0.00     0.042 C 
ATOM     13  H   UNL     1     -42.294  42.629  25.967  1.00  0.00     0.060 H 
ATOM     14  H   UNL     1     -42.514  41.737  27.459  1.00  0.00     0.060 H 
ATOM     15  H   UNL     1     -44.967  45.057  27.116  1.00  0.00     0.164 HD
ATOM     16  H   UNL     1     -46.453  42.475  27.452  1.00  0.00     0.031 H 
ATOM     17  H   UNL     1     -47.348  42.267  25.945  1.00  0.00     0.031 H 
ATOM     18  H   UNL     1     -48.567  43.683  27.556  1.00  0.00     0.049 H 
ATOM     19  H   UNL     1     -47.220  44.776  27.686  1.00  0.00     0.049 H 
ATOM     20  H   UNL     1     -46.559  46.220  25.794  1.00  0.00     0.049 H 
ATOM     21  H   UNL     1     -47.411  46.149  24.277  1.00  0.00     0.049 H 
ATOM     22  H   UNL     1     -45.193  45.003  24.176  1.00  0.00     0.031 H 
ATOM     23  H   UNL     1     -46.509  43.901  23.809  1.00  0.00     0.031 H 
ATOM     24  H   UNL     1     -44.124  42.724  24.299  1.00  0.00     0.052 H 
ATOM     25  H   UNL     1     -45.551  41.730  24.433  1.00  0.00     0.052 H 
ENDROOT
BRANCH   1  26
ATOM     26  C   UNL     1     -44.753  40.489  26.661  1.00  0.00     0.037 A 
ATOM     27  C   UNL     1     -46.019  38.328  28.031  1.00  0.00    -0.034 A 
ATOM     28  C   UNL     1     -46.518  38.794  26.813  1.00  0.00    -0.056 A 
ATOM     29  C   UNL     1     -44.915  38.979  28.586  1.00  0.00    -0.056 A 
ATOM     30  C   UNL     1     -45.897  39.859  26.146  1.00  0.00    -0.038 A 
ATOM     31  H   UNL     1     -47.382  38.316  26.355  1.00  0.00     0.063 H 
ATOM     32  C   UNL     1     -44.306  40.046  27.915  1.00  0.00    -0.038 A 
ATOM     33  H   UNL     1     -44.512  38.647  29.541  1.00  0.00     0.063 H 
ATOM     34  H   UNL     1     -46.315  40.144  25.185  1.00  0.00     0.064 H 
ATOM     35  H   UNL     1     -43.465  40.531  28.403  1.00  0.00     0.064 H 
BRANCH  27  36
ATOM     36  C   UNL     1     -46.639  37.138  28.730  1.00  0.00     0.023 C 
ATOM     37  H   UNL     1     -47.589  37.419  29.203  1.00  0.00     0.048 H 
ATOM     38  H   UNL     1     -45.957  36.867  29.548  1.00  0.00     0.048 H 
BRANCH  36  39
ATOM     39  N   UNL     1     -46.825  35.992  27.829  1.00  0.00    -0.299 NA
ATOM     40  C   UNL     1     -47.210  33.585  26.383  1.00  0.00    -0.033 C 
ATOM     41  C   UNL     1     -46.390  33.514  27.686  1.00  0.00    -0.035 C 
ATOM     42  C   UNL     1     -48.392  34.570  26.573  1.00  0.00    -0.035 C 
ATOM     43  C   UNL     1     -45.918  34.891  28.180  1.00  0.00    -0.001 C 
ATOM     44  H   UNL     1     -45.521  32.856  27.564  1.00  0.00     0.029 H 
ATOM     45  H   UNL     1     -47.009  33.058  28.472  1.00  0.00     0.029 H 
ATOM     46  C   UNL     1     -48.213  35.541  27.750  1.00  0.00    -0.001 C 
ATOM     47  H   UNL     1     -49.329  34.023  26.741  1.00  0.00     0.029 H 
ATOM     48  H   UNL     1     -48.546  35.148  25.651  1.00  0.00     0.029 H 
ATOM     49  H   UNL     1     -45.779  34.821  29.268  1.00  0.00     0.043 H 
ATOM     50  H   UNL     1     -44.933  35.109  27.751  1.00  0.00     0.043 H 
ATOM     51  H   UNL     1     -48.904  36.376  27.587  1.00  0.00     0.043 H 
ATOM     52  H   UNL     1     -48.521  35.063  28.689  1.00  0.00     0.043 H 
BRANCH  40  53
ATOM     53  C   UNL     1     -46.319  34.046  25.212  1.00  0.00    -0.060 C 
ATOM     54  H   UNL     1     -46.761  33.814  24.239  1.00  0.00     0.024 H 
ATOM     55  H   UNL     1     -45.338  33.557  25.250  1.00  0.00     0.024 H 
ATOM     56  H   UNL     1     -46.150  35.129  25.251  1.00  0.00     0.024 H 
ENDBRANCH  40  53
BRANCH  40  57
ATOM     57  C   UNL     1     -47.751  32.186  26.041  1.00  0.00    -0.060 C 
ATOM     58  H   UNL     1     -47.272  31.786  25.141  1.00  0.00     0.024 H 
ATOM     59  H   UNL     1     -47.568  31.480  26.859  1.00  0.00     0.024 H 
ATOM     60  H   UNL     1     -48.831  32.211  25.860  1.00  0.00     0.024 H 
ENDBRANCH  40  57
ENDBRANCH  36  39
ENDBRANCH  27  36
ENDBRANCH   1  26
BRANCH   9  61
ATOM     61  C   UNL     1     -49.197  44.356  25.030  1.00  0.00     0.134 A 
ATOM     62  C   UNL     1     -49.440  44.843  23.757  1.00  0.00     0.023 A 
ATOM     63  N   UNL     1     -49.928  43.334  25.508  1.00  0.00    -0.219 NA
ATOM     64  C   UNL     1     -50.468  44.282  23.020  1.00  0.00     0.131 A 
ATOM     65  H   UNL     1     -48.841  45.633  23.330  1.00  0.00     0.070 H 
ATOM     66  C   UNL     1     -50.904  42.855  24.724  1.00  0.00     0.120 A 
ATOM     67  N   UNL     1     -51.224  43.288  23.502  1.00  0.00    -0.219 NA
ATOM     68  H   UNL     1     -51.493  42.038  25.125  1.00  0.00     0.106 H 
BRANCH  64  69
ATOM     69  N   UNL     1     -50.809  44.740  21.738  1.00  0.00    -0.367 N 
ATOM     70  H   UNL     1     -51.821  44.857  21.733  1.00  0.00     0.162 HD
BRANCH  69  71
ATOM     71  C   UNL     1     -50.182  44.183  20.545  1.00  0.00     0.028 C 
ATOM     72  C   UNL     1     -48.691  44.208  20.361  1.00  0.00    -0.031 C 
ATOM     73  C   UNL     1     -49.561  45.105  19.532  1.00  0.00    -0.031 C 
ATOM     74  H   UNL     1     -50.727  43.333  20.139  1.00  0.00     0.053 H 
ATOM     75  H   UNL     1     -48.089  44.666  21.136  1.00  0.00     0.029 H 
ATOM     76  H   UNL     1     -48.226  43.359  19.876  1.00  0.00     0.029 H 
ATOM     77  H   UNL     1     -49.539  46.167  19.747  1.00  0.00     0.029 H 
ATOM     78  H   UNL     1     -49.687  44.865  18.483  1.00  0.00     0.029 H 
ENDBRANCH  69  71
ENDBRANCH  64  69
ENDBRANCH   9  61
TORSDOF 8
ENDMDL
MODEL 6
REMARK VINA RESULT:      -8.4      6.789     14.820
REMARK SMILES CC1(C)CCN(Cc2ccc(N3CC(=O)NC4(CCN(c5cc(NC6CC6)ncn5)CC4)C3)cc2)CC1
REMARK SMILES IDX 12 1 13 2 14 3 15 4 16 5 17 6 18 7 19 8 20 9 31 10 32 11
REMARK SMILES IDX 33 12 11 26 8 27 9 28 35 29 10 30 34 32 7 36 6 39 2 40 4 41
REMARK SMILES IDX 37 42 5 43 36 46 1 53 3 57 21 61 22 62 30 63 23 64 29 66
REMARK SMILES IDX 28 67 24 69 25 71 26 72 27 73
REMARK H PARENT 13 13 13 14 16 15 18 16 18 17 19 18 19 19 31 20 31 21 32 22
REMARK H PARENT 32 23 33 24 33 25 9 31 35 33 10 34 34 35 7 37 7 38 4 44 4 45
REMARK H PARENT 37 47 37 48 5 49 5 50 36 51 36 52 1 54 1 55 1 56 3 58 3 59
REMARK H PARENT 3 60 22 65 29 68 24 70 25 74 26 75 26 76 27 77 27 78
REMARK Flexibility Score: inf
ROOT
ATOM      1  N   UNL     1     -44.861  42.884  24.962  1.00  0.00    -0.360 N 
ATOM      2  C   UNL     1     -43.590  43.027  24.221  1.00  0.00     0.097 C 
ATOM      3  C   UNL     1     -42.530  43.818  25.001  1.00  0.00     0.240 C 
ATOM      4  O   UNL     1     -41.323  43.636  24.856  1.00  0.00    -0.273 OA
ATOM      5  N   UNL     1     -42.968  44.849  25.804  1.00  0.00    -0.347 N 
ATOM      6  C   UNL     1     -44.316  44.877  26.417  1.00  0.00     0.061 C 
ATOM      7  C   UNL     1     -44.284  44.149  27.786  1.00  0.00    -0.010 C 
ATOM      8  C   UNL     1     -43.556  44.945  28.866  1.00  0.00     0.021 C 
ATOM      9  N   UNL     1     -44.133  46.287  28.987  1.00  0.00    -0.356 N 
ATOM     10  C   UNL     1     -44.051  47.065  27.745  1.00  0.00     0.021 C 
ATOM     11  C   UNL     1     -44.764  46.347  26.598  1.00  0.00    -0.010 C 
ATOM     12  C   UNL     1     -45.356  44.187  25.466  1.00  0.00     0.042 C 
ATOM     13  H   UNL     1     -43.789  43.595  23.303  1.00  0.00     0.060 H 
ATOM     14  H   UNL     1     -43.181  42.064  23.901  1.00  0.00     0.060 H 
ATOM     15  H   UNL     1     -42.203  45.302  26.291  1.00  0.00     0.164 HD
ATOM     16  H   UNL     1     -43.782  43.180  27.703  1.00  0.00     0.031 H 
ATOM     17  H   UNL     1     -45.311  43.955  28.123  1.00  0.00     0.031 H 
ATOM     18  H   UNL     1     -43.561  44.388  29.808  1.00  0.00     0.049 H 
ATOM     19  H   UNL     1     -42.495  45.044  28.600  1.00  0.00     0.049 H 
ATOM     20  H   UNL     1     -42.991  47.194  27.489  1.00  0.00     0.049 H 
ATOM     21  H   UNL     1     -44.439  48.082  27.871  1.00  0.00     0.049 H 
ATOM     22  H   UNL     1     -44.596  46.911  25.670  1.00  0.00     0.031 H 
ATOM     23  H   UNL     1     -45.845  46.373  26.781  1.00  0.00     0.031 H 
ATOM     24  H   UNL     1     -45.513  44.828  24.586  1.00  0.00     0.052 H 
ATOM     25  H   UNL     1     -46.337  44.118  25.950  1.00  0.00     0.052 H 
ENDROOT
BRANCH   1  26
ATOM     26  C   UNL     1     -45.088  41.764  25.766  1.00  0.00     0.037 A 
ATOM     27  C   UNL     1     -45.618  39.569  27.514  1.00  0.00    -0.034 A 
ATOM     28  C   UNL     1     -44.320  39.838  27.076  1.00  0.00    -0.056 A 
ATOM     29  C   UNL     1     -46.657  40.371  27.035  1.00  0.00    -0.056 A 
ATOM     30  C   UNL     1     -44.064  40.912  26.213  1.00  0.00    -0.038 A 
ATOM     31  H   UNL     1     -43.487  39.229  27.421  1.00  0.00     0.063 H 
ATOM     32  C   UNL     1     -46.392  41.438  26.170  1.00  0.00    -0.038 A 
ATOM     33  H   UNL     1     -47.681  40.177  27.349  1.00  0.00     0.063 H 
ATOM     34  H   UNL     1     -43.026  41.086  25.943  1.00  0.00     0.064 H 
ATOM     35  H   UNL     1     -47.240  42.015  25.809  1.00  0.00     0.064 H 
BRANCH  27  36
ATOM     36  C   UNL     1     -45.900  38.453  28.495  1.00  0.00     0.023 C 
ATOM     37  H   UNL     1     -46.616  38.781  29.260  1.00  0.00     0.048 H 
ATOM     38  H   UNL     1     -44.956  38.256  29.022  1.00  0.00     0.048 H 
BRANCH  36  39
ATOM     39  N   UNL     1     -46.372  37.228  27.834  1.00  0.00    -0.299 NA
ATOM     40  C   UNL     1     -47.295  34.724  26.879  1.00  0.00    -0.033 C 
ATOM     41  C   UNL     1     -46.322  34.721  28.074  1.00  0.00    -0.035 C 
ATOM     42  C   UNL     1     -48.285  35.908  27.027  1.00  0.00    -0.035 C 
ATOM     43  C   UNL     1     -45.592  36.060  28.266  1.00  0.00    -0.001 C 
ATOM     44  H   UNL     1     -45.581  33.917  27.970  1.00  0.00     0.029 H 
ATOM     45  H   UNL     1     -46.885  34.499  28.991  1.00  0.00     0.029 H 
ATOM     46  C   UNL     1     -47.807  37.005  27.990  1.00  0.00    -0.001 C 
ATOM     47  H   UNL     1     -49.259  35.555  27.392  1.00  0.00     0.029 H 
ATOM     48  H   UNL     1     -48.481  36.355  26.043  1.00  0.00     0.029 H 
ATOM     49  H   UNL     1     -45.316  36.136  29.327  1.00  0.00     0.043 H 
ATOM     50  H   UNL     1     -44.655  36.045  27.697  1.00  0.00     0.043 H 
ATOM     51  H   UNL     1     -48.387  37.907  27.764  1.00  0.00     0.043 H 
ATOM     52  H   UNL     1     -48.048  36.734  29.027  1.00  0.00     0.043 H 
BRANCH  40  53
ATOM     53  C   UNL     1     -46.517  34.847  25.553  1.00  0.00    -0.060 C 
ATOM     54  H   UNL     1     -46.023  33.912  25.274  1.00  0.00     0.024 H 
ATOM     55  H   UNL     1     -45.739  35.617  25.624  1.00  0.00     0.024 H 
ATOM     56  H   UNL     1     -47.185  35.128  24.731  1.00  0.00     0.024 H 
ENDBRANCH  40  53
BRANCH  40  57
ATOM     57  C   UNL     1     -48.073  33.397  26.847  1.00  0.00    -0.060 C 
ATOM     58  H   UNL     1     -47.991  32.868  27.803  1.00  0.00     0.024 H 
ATOM     59  H   UNL     1     -49.137  33.567  26.649  1.00  0.00     0.024 H 
ATOM     60  H   UNL     1     -47.692  32.733  26.064  1.00  0.00     0.024 H 
ENDBRANCH  40  57
ENDBRANCH  36  39
ENDBRANCH  27  36
ENDBRANCH   1  26
BRANCH   9  61
ATOM     61  C   UNL     1     -45.322  46.418  29.721  1.00  0.00     0.134 A 
ATOM     62  C   UNL     1     -46.557  46.386  29.094  1.00  0.00     0.023 A 
ATOM     63  N   UNL     1     -45.253  46.542  31.057  1.00  0.00    -0.219 NA
ATOM     64  C   UNL     1     -47.694  46.525  29.868  1.00  0.00     0.131 A 
ATOM     65  H   UNL     1     -46.644  46.243  28.027  1.00  0.00     0.070 H 
ATOM     66  C   UNL     1     -46.408  46.674  31.726  1.00  0.00     0.120 A 
ATOM     67  N   UNL     1     -47.633  46.685  31.195  1.00  0.00    -0.219 NA
ATOM     68  H   UNL     1     -46.338  46.784  32.802  1.00  0.00     0.106 H 
BRANCH  64  69
ATOM     69  N   UNL     1     -48.983  46.545  29.311  1.00  0.00    -0.367 N 
ATOM     70  H   UNL     1     -49.281  47.518  29.308  1.00  0.00     0.162 HD
BRANCH  69  71
ATOM     71  C   UNL     1     -49.972  45.530  29.657  1.00  0.00     0.028 C 
ATOM     72  C   UNL     1     -49.661  44.064  29.543  1.00  0.00    -0.031 C 
ATOM     73  C   UNL     1     -50.604  44.706  28.571  1.00  0.00    -0.031 C 
ATOM     74  H   UNL     1     -50.635  45.845  30.461  1.00  0.00     0.053 H 
ATOM     75  H   UNL     1     -48.682  43.777  29.181  1.00  0.00     0.029 H 
ATOM     76  H   UNL     1     -50.075  43.399  30.291  1.00  0.00     0.029 H 
ATOM     77  H   UNL     1     -50.261  44.845  27.553  1.00  0.00     0.029 H 
ATOM     78  H   UNL     1     -51.660  44.477  28.657  1.00  0.00     0.029 H 
ENDBRANCH  69  71
ENDBRANCH  64  69
ENDBRANCH   9  61
TORSDOF 8
ENDMDL
MODEL 7
REMARK VINA RESULT:      -8.3      9.789     13.556
REMARK SMILES CC1(C)CCN(Cc2ccc(N3CC(=O)NC4(CCN(c5cc(NC6CC6)ncn5)CC4)C3)cc2)CC1
REMARK SMILES IDX 12 1 13 2 14 3 15 4 16 5 17 6 18 7 19 8 20 9 31 10 32 11
REMARK SMILES IDX 33 12 11 26 8 27 9 28 35 29 10 30 34 32 7 36 6 39 2 40 4 41
REMARK SMILES IDX 37 42 5 43 36 46 1 53 3 57 21 61 22 62 30 63 23 64 29 66
REMARK SMILES IDX 28 67 24 69 25 71 26 72 27 73
REMARK H PARENT 13 13 13 14 16 15 18 16 18 17 19 18 19 19 31 20 31 21 32 22
REMARK H PARENT 32 23 33 24 33 25 9 31 35 33 10 34 34 35 7 37 7 38 4 44 4 45
REMARK H PARENT 37 47 37 48 5 49 5 50 36 51 36 52 1 54 1 55 1 56 3 58 3 59
REMARK H PARENT 3 60 22 65 29 68 24 70 25 74 26 75 26 76 27 77 27 78
REMARK Flexibility Score: inf
ROOT
ATOM      1  N   UNL     1     -46.471  46.273  25.895  1.00  0.00    -0.360 N 
ATOM      2  C   UNL     1     -46.446  46.677  24.474  1.00  0.00     0.097 C 
ATOM      3  C   UNL     1     -45.799  45.622  23.565  1.00  0.00     0.240 C 
ATOM      4  O   UNL     1     -46.108  45.482  22.383  1.00  0.00    -0.273 OA
ATOM      5  N   UNL     1     -44.750  44.893  24.081  1.00  0.00    -0.347 N 
ATOM      6  C   UNL     1     -44.593  44.622  25.529  1.00  0.00     0.061 C 
ATOM      7  C   UNL     1     -45.359  43.328  25.906  1.00  0.00    -0.010 C 
ATOM      8  C   UNL     1     -44.679  42.063  25.390  1.00  0.00     0.021 C 
ATOM      9  N   UNL     1     -43.286  42.011  25.843  1.00  0.00    -0.356 N 
ATOM     10  C   UNL     1     -42.486  43.152  25.382  1.00  0.00     0.021 C 
ATOM     11  C   UNL     1     -43.088  44.474  25.860  1.00  0.00    -0.010 C 
ATOM     12  C   UNL     1     -45.137  45.832  26.367  1.00  0.00     0.042 C 
ATOM     13  H   UNL     1     -45.835  47.583  24.384  1.00  0.00     0.060 H 
ATOM     14  H   UNL     1     -47.439  46.941  24.096  1.00  0.00     0.060 H 
ATOM     15  H   UNL     1     -44.398  44.212  23.419  1.00  0.00     0.164 HD
ATOM     16  H   UNL     1     -46.374  43.340  25.498  1.00  0.00     0.031 H 
ATOM     17  H   UNL     1     -45.449  43.259  26.998  1.00  0.00     0.031 H 
ATOM     18  H   UNL     1     -45.259  41.182  25.682  1.00  0.00     0.049 H 
ATOM     19  H   UNL     1     -44.689  42.059  24.292  1.00  0.00     0.049 H 
ATOM     20  H   UNL     1     -42.467  43.137  24.285  1.00  0.00     0.049 H 
ATOM     21  H   UNL     1     -41.436  43.068  25.687  1.00  0.00     0.049 H 
ATOM     22  H   UNL     1     -42.520  45.302  25.414  1.00  0.00     0.031 H 
ATOM     23  H   UNL     1     -42.949  44.556  26.945  1.00  0.00     0.031 H 
ATOM     24  H   UNL     1     -44.457  46.687  26.239  1.00  0.00     0.052 H 
ATOM     25  H   UNL     1     -45.112  45.603  27.439  1.00  0.00     0.052 H 
ENDROOT
BRANCH   1  26
ATOM     26  C   UNL     1     -47.583  45.609  26.422  1.00  0.00     0.037 A 
ATOM     27  C   UNL     1     -49.945  44.361  27.428  1.00  0.00    -0.034 A 
ATOM     28  C   UNL     1     -48.939  44.792  28.295  1.00  0.00    -0.056 A 
ATOM     29  C   UNL     1     -49.744  44.511  26.054  1.00  0.00    -0.056 A 
ATOM     30  C   UNL     1     -47.778  45.398  27.797  1.00  0.00    -0.038 A 
ATOM     31  H   UNL     1     -49.057  44.683  29.371  1.00  0.00     0.063 H 
ATOM     32  C   UNL     1     -48.579  45.113  25.567  1.00  0.00    -0.038 A 
ATOM     33  H   UNL     1     -50.505  44.172  25.354  1.00  0.00     0.063 H 
ATOM     34  H   UNL     1     -47.055  45.744  28.530  1.00  0.00     0.064 H 
ATOM     35  H   UNL     1     -48.463  45.184  24.488  1.00  0.00     0.064 H 
BRANCH  27  36
ATOM     36  C   UNL     1     -51.231  43.763  27.954  1.00  0.00     0.023 C 
ATOM     37  H   UNL     1     -52.083  44.066  27.332  1.00  0.00     0.048 H 
ATOM     38  H   UNL     1     -51.400  44.208  28.945  1.00  0.00     0.048 H 
BRANCH  36  39
ATOM     39  N   UNL     1     -51.166  42.298  28.066  1.00  0.00    -0.299 NA
ATOM     40  C   UNL     1     -51.290  39.505  28.527  1.00  0.00    -0.033 C 
ATOM     41  C   UNL     1     -51.477  40.439  29.738  1.00  0.00    -0.035 C 
ATOM     42  C   UNL     1     -51.999  40.116  27.292  1.00  0.00    -0.035 C 
ATOM     43  C   UNL     1     -51.019  41.881  29.467  1.00  0.00    -0.001 C 
ATOM     44  H   UNL     1     -50.946  40.050  30.616  1.00  0.00     0.029 H 
ATOM     45  H   UNL     1     -52.541  40.460  30.010  1.00  0.00     0.029 H 
ATOM     46  C   UNL     1     -52.286  41.620  27.418  1.00  0.00    -0.001 C 
ATOM     47  H   UNL     1     -52.958  39.615  27.108  1.00  0.00     0.029 H 
ATOM     48  H   UNL     1     -51.395  39.941  26.391  1.00  0.00     0.029 H 
ATOM     49  H   UNL     1     -51.586  42.539  30.140  1.00  0.00     0.043 H 
ATOM     50  H   UNL     1     -49.963  41.982  29.745  1.00  0.00     0.043 H 
ATOM     51  H   UNL     1     -52.461  42.000  26.405  1.00  0.00     0.043 H 
ATOM     52  H   UNL     1     -53.217  41.785  27.976  1.00  0.00     0.043 H 
BRANCH  40  53
ATOM     53  C   UNL     1     -49.789  39.304  28.231  1.00  0.00    -0.060 C 
ATOM     54  H   UNL     1     -49.235  38.968  29.113  1.00  0.00     0.024 H 
ATOM     55  H   UNL     1     -49.327  40.238  27.893  1.00  0.00     0.024 H 
ATOM     56  H   UNL     1     -49.642  38.557  27.442  1.00  0.00     0.024 H 
ENDBRANCH  40  53
BRANCH  40  57
ATOM     57  C   UNL     1     -51.896  38.127  28.844  1.00  0.00    -0.060 C 
ATOM     58  H   UNL     1     -51.433  37.686  29.734  1.00  0.00     0.024 H 
ATOM     59  H   UNL     1     -52.973  38.201  29.030  1.00  0.00     0.024 H 
ATOM     60  H   UNL     1     -51.751  37.429  28.012  1.00  0.00     0.024 H 
ENDBRANCH  40  57
ENDBRANCH  36  39
ENDBRANCH  27  36
ENDBRANCH   1  26
BRANCH   9  61
ATOM     61  C   UNL     1     -43.047  41.579  27.157  1.00  0.00     0.134 A 
ATOM     62  C   UNL     1     -43.770  40.534  27.709  1.00  0.00     0.023 A 
ATOM     63  N   UNL     1     -42.076  42.172  27.872  1.00  0.00    -0.219 NA
ATOM     64  C   UNL     1     -43.494  40.155  29.010  1.00  0.00     0.131 A 
ATOM     65  H   UNL     1     -44.526  40.010  27.143  1.00  0.00     0.070 H 
ATOM     66  C   UNL     1     -41.881  41.740  29.126  1.00  0.00     0.120 A 
ATOM     67  N   UNL     1     -42.554  40.764  29.741  1.00  0.00    -0.219 NA
ATOM     68  H   UNL     1     -41.103  42.233  29.696  1.00  0.00     0.106 H 
BRANCH  64  69
ATOM     69  N   UNL     1     -44.205  39.134  29.660  1.00  0.00    -0.367 N 
ATOM     70  H   UNL     1     -43.514  38.558  30.136  1.00  0.00     0.162 HD
BRANCH  69  71
ATOM     71  C   UNL     1     -45.322  38.458  29.009  1.00  0.00     0.028 C 
ATOM     72  C   UNL     1     -46.094  37.373  29.707  1.00  0.00    -0.031 C 
ATOM     73  C   UNL     1     -45.174  37.026  28.575  1.00  0.00    -0.031 C 
ATOM     74  H   UNL     1     -45.868  39.106  28.326  1.00  0.00     0.053 H 
ATOM     75  H   UNL     1     -45.789  37.093  30.708  1.00  0.00     0.029 H 
ATOM     76  H   UNL     1     -47.161  37.318  29.531  1.00  0.00     0.029 H 
ATOM     77  H   UNL     1     -44.254  36.508  28.815  1.00  0.00     0.029 H 
ATOM     78  H   UNL     1     -45.617  36.735  27.629  1.00  0.00     0.029 H 
ENDBRANCH  69  71
ENDBRANCH  64  69
ENDBRANCH   9  61
TORSDOF 8
ENDMDL
