MODEL 1
REMARK VINA RESULT:     -10.1      0.000      0.000
REMARK SMILES CN(c1ncc2ccc(OC[C@H]3O[C@@H](n4cc(-c5ccn(C)n5)c5c(N)ncnc54)[C@@H](F)[C@@H]3O)cc2n1)C1CCC1
REMARK SMILES IDX 11 1 10 4 9 5 3 6 4 7 37 8 5 9 36 10 6 11 35 13 7 14 8 16
REMARK SMILES IDX 2 19 1 20 38 24 39 25 41 26 40 28 12 35 13 36 33 37 14 39
REMARK SMILES IDX 31 40 32 43 34 45 15 47 16 48 30 49 17 50 24 52 29 53 25 54
REMARK SMILES IDX 28 55 27 56 18 58 19 59 23 60 20 61 21 63 22 65 26 69
REMARK H PARENT 11 2 11 3 5 12 35 15 7 17 8 18 1 21 1 22 1 23 38 27 39 29
REMARK H PARENT 39 30 41 31 41 32 40 33 40 34 12 38 33 41 14 42 31 44 34 46
REMARK H PARENT 16 51 28 57 19 62 20 64 22 66 22 67 22 68 26 70 26 71
REMARK Flexibility Score: inf
ROOT
ATOM      1  C   UNL     1     -46.794  35.451  26.252  1.00  0.00     0.117 C 
ATOM      2  H   UNL     1     -47.262  36.395  25.953  1.00  0.00     0.073 H 
ATOM      3  H   UNL     1     -46.098  35.124  25.474  1.00  0.00     0.073 H 
ENDROOT
BRANCH   1   4
ATOM      4  O   UNL     1     -47.828  34.472  26.446  1.00  0.00    -0.491 OA
BRANCH   4   5
ATOM      5  C   UNL     1     -47.590  33.305  25.774  1.00  0.00     0.121 A 
ATOM      6  C   UNL     1     -48.725  28.844  24.619  1.00  0.00     0.225 A 
ATOM      7  N   UNL     1     -47.710  28.755  23.741  1.00  0.00    -0.221 NA
ATOM      8  N   UNL     1     -48.972  29.962  25.324  1.00  0.00    -0.213 NA
ATOM      9  C   UNL     1     -46.918  29.835  23.596  1.00  0.00     0.040 A 
ATOM     10  C   UNL     1     -48.174  31.026  25.168  1.00  0.00     0.079 A 
ATOM     11  C   UNL     1     -47.093  31.019  24.287  1.00  0.00     0.019 A 
ATOM     12  H   UNL     1     -46.111  29.710  22.880  1.00  0.00     0.085 H 
ATOM     13  C   UNL     1     -48.415  32.184  25.896  1.00  0.00     0.007 A 
ATOM     14  C   UNL     1     -46.269  32.151  24.131  1.00  0.00    -0.048 A 
ATOM     15  H   UNL     1     -49.281  32.206  26.553  1.00  0.00     0.069 H 
ATOM     16  C   UNL     1     -46.530  33.299  24.873  1.00  0.00    -0.019 A 
ATOM     17  H   UNL     1     -45.436  32.141  23.432  1.00  0.00     0.063 H 
ATOM     18  H   UNL     1     -45.912  34.185  24.752  1.00  0.00     0.066 H 
BRANCH   6  19
ATOM     19  N   UNL     1     -49.573  27.722  24.816  1.00  0.00    -0.341 N 
BRANCH  19  20
ATOM     20  C   UNL     1     -50.826  27.932  24.090  1.00  0.00     0.010 C 
ATOM     21  H   UNL     1     -51.533  27.113  24.267  1.00  0.00     0.046 H 
ATOM     22  H   UNL     1     -51.295  28.884  24.369  1.00  0.00     0.046 H 
ATOM     23  H   UNL     1     -50.668  27.984  23.009  1.00  0.00     0.046 H 
ENDBRANCH  19  20
BRANCH  19  24
ATOM     24  C   UNL     1     -49.643  27.076  26.115  1.00  0.00     0.032 C 
ATOM     25  C   UNL     1     -49.795  25.529  26.062  1.00  0.00    -0.032 C 
ATOM     26  C   UNL     1     -48.247  26.815  26.758  1.00  0.00    -0.032 C 
ATOM     27  H   UNL     1     -50.369  27.576  26.765  1.00  0.00     0.053 H 
ATOM     28  C   UNL     1     -48.264  25.416  26.121  1.00  0.00    -0.049 C 
ATOM     29  H   UNL     1     -50.293  25.121  26.951  1.00  0.00     0.029 H 
ATOM     30  H   UNL     1     -50.249  25.068  25.183  1.00  0.00     0.029 H 
ATOM     31  H   UNL     1     -47.404  27.439  26.452  1.00  0.00     0.029 H 
ATOM     32  H   UNL     1     -48.276  26.795  27.854  1.00  0.00     0.029 H 
ATOM     33  H   UNL     1     -47.869  24.607  26.740  1.00  0.00     0.027 H 
ATOM     34  H   UNL     1     -47.786  25.375  25.135  1.00  0.00     0.027 H 
ENDBRANCH  19  24
ENDBRANCH   6  19
ENDBRANCH   4   5
ENDBRANCH   1   4
BRANCH   1  35
ATOM     35  C   UNL     1     -46.047  35.633  27.585  1.00  0.00     0.123 C 
ATOM     36  O   UNL     1     -45.520  36.980  27.638  1.00  0.00    -0.345 OA
ATOM     37  C   UNL     1     -46.962  35.483  28.802  1.00  0.00     0.119 C 
ATOM     38  H   UNL     1     -45.189  34.953  27.632  1.00  0.00     0.067 H 
ATOM     39  C   UNL     1     -46.348  37.754  28.536  1.00  0.00     0.169 C 
ATOM     40  C   UNL     1     -47.520  36.876  28.966  1.00  0.00     0.173 C 
ATOM     41  H   UNL     1     -47.732  34.721  28.645  1.00  0.00     0.066 H 
ATOM     42  H   UNL     1     -45.711  38.013  29.391  1.00  0.00     0.088 H 
ATOM     43  F   UNL     1     -48.579  36.999  28.118  1.00  0.00    -0.239 F 
ATOM     44  H   UNL     1     -47.865  37.108  29.978  1.00  0.00     0.074 H 
BRANCH  37  45
ATOM     45  O   UNL     1     -46.204  35.114  29.957  1.00  0.00    -0.387 OA
ATOM     46  H   UNL     1     -45.290  35.428  29.831  1.00  0.00     0.211 HD
ENDBRANCH  37  45
BRANCH  39  47
ATOM     47  N   UNL     1     -46.758  38.993  27.898  1.00  0.00    -0.302 N 
ATOM     48  C   UNL     1     -48.025  39.504  27.825  1.00  0.00     0.019 A 
ATOM     49  C   UNL     1     -45.881  39.863  27.298  1.00  0.00     0.148 A 
ATOM     50  C   UNL     1     -47.950  40.752  27.237  1.00  0.00     0.033 A 
ATOM     51  H   UNL     1     -48.878  38.968  28.222  1.00  0.00     0.083 H 
ATOM     52  C   UNL     1     -46.596  40.967  26.841  1.00  0.00     0.071 A 
ATOM     53  N   UNL     1     -44.556  39.657  27.187  1.00  0.00    -0.218 NA
ATOM     54  C   UNL     1     -45.853  41.938  26.150  1.00  0.00     0.137 A 
ATOM     55  C   UNL     1     -43.956  40.666  26.536  1.00  0.00     0.120 A 
ATOM     56  N   UNL     1     -44.522  41.769  26.013  1.00  0.00    -0.219 NA
ATOM     57  H   UNL     1     -42.881  40.580  26.407  1.00  0.00     0.106 H 
BRANCH  50  58
ATOM     58  C   UNL     1     -49.084  41.660  27.078  1.00  0.00     0.095 A 
ATOM     59  C   UNL     1     -50.065  41.928  28.057  1.00  0.00    -0.016 A 
ATOM     60  N   UNL     1     -49.355  42.275  25.922  1.00  0.00    -0.173 NA
ATOM     61  C   UNL     1     -50.966  42.762  27.438  1.00  0.00     0.025 A 
ATOM     62  H   UNL     1     -50.126  41.543  29.066  1.00  0.00     0.066 H 
ATOM     63  N   UNL     1     -50.512  42.916  26.160  1.00  0.00    -0.275 N 
ATOM     64  H   UNL     1     -51.883  43.217  27.781  1.00  0.00     0.084 H 
BRANCH  63  65
ATOM     65  C   UNL     1     -51.147  43.650  25.093  1.00  0.00     0.030 C 
ATOM     66  H   UNL     1     -52.232  43.544  25.173  1.00  0.00     0.048 H 
ATOM     67  H   UNL     1     -50.866  44.702  25.184  1.00  0.00     0.048 H 
ATOM     68  H   UNL     1     -50.801  43.240  24.141  1.00  0.00     0.048 H 
ENDBRANCH  63  65
ENDBRANCH  50  58
BRANCH  54  69
ATOM     69  N   UNL     1     -46.392  43.063  25.538  1.00  0.00    -0.383 N 
ATOM     70  H   UNL     1     -47.020  43.586  26.139  1.00  0.00     0.158 HD
ATOM     71  H   UNL     1     -46.772  42.809  24.633  1.00  0.00     0.158 HD
ENDBRANCH  54  69
ENDBRANCH  39  47
ENDBRANCH   1  35
TORSDOF 11
ENDMDL
MODEL 2
REMARK VINA RESULT:      -9.5      2.366      3.324
REMARK SMILES CN(c1ncc2ccc(OC[C@H]3O[C@@H](n4cc(-c5ccn(C)n5)c5c(N)ncnc54)[C@@H](F)[C@@H]3O)cc2n1)C1CCC1
REMARK SMILES IDX 11 1 10 4 9 5 3 6 4 7 37 8 5 9 36 10 6 11 35 13 7 14 8 16
REMARK SMILES IDX 2 19 1 20 38 24 39 25 41 26 40 28 12 35 13 36 33 37 14 39
REMARK SMILES IDX 31 40 32 43 34 45 15 47 16 48 30 49 17 50 24 52 29 53 25 54
REMARK SMILES IDX 28 55 27 56 18 58 19 59 23 60 20 61 21 63 22 65 26 69
REMARK H PARENT 11 2 11 3 5 12 35 15 7 17 8 18 1 21 1 22 1 23 38 27 39 29
REMARK H PARENT 39 30 41 31 41 32 40 33 40 34 12 38 33 41 14 42 31 44 34 46
REMARK H PARENT 16 51 28 57 19 62 20 64 22 66 22 67 22 68 26 70 26 71
REMARK Flexibility Score: inf
ROOT
ATOM      1  C   UNL     1     -45.972  35.275  27.949  1.00  0.00     0.117 C 
ATOM      2  H   UNL     1     -46.076  35.495  26.880  1.00  0.00     0.073 H 
ATOM      3  H   UNL     1     -45.003  35.639  28.304  1.00  0.00     0.073 H 
ENDROOT
BRANCH   1   4
ATOM      4  O   UNL     1     -46.074  33.853  28.133  1.00  0.00    -0.491 OA
BRANCH   4   5
ATOM      5  C   UNL     1     -46.449  33.195  26.994  1.00  0.00     0.121 A 
ATOM      6  C   UNL     1     -48.692  29.657  24.764  1.00  0.00     0.225 A 
ATOM      7  N   UNL     1     -48.405  30.166  23.552  1.00  0.00    -0.221 NA
ATOM      8  N   UNL     1     -48.313  30.258  25.906  1.00  0.00    -0.213 NA
ATOM      9  C   UNL     1     -47.697  31.310  23.511  1.00  0.00     0.040 A 
ATOM     10  C   UNL     1     -47.607  31.394  25.846  1.00  0.00     0.079 A 
ATOM     11  C   UNL     1     -47.257  31.987  24.634  1.00  0.00     0.019 A 
ATOM     12  H   UNL     1     -47.486  31.677  22.511  1.00  0.00     0.085 H 
ATOM     13  C   UNL     1     -47.203  32.019  27.019  1.00  0.00     0.007 A 
ATOM     14  C   UNL     1     -46.521  33.188  24.593  1.00  0.00    -0.048 A 
ATOM     15  H   UNL     1     -47.510  31.580  27.966  1.00  0.00     0.069 H 
ATOM     16  C   UNL     1     -46.126  33.794  25.781  1.00  0.00    -0.019 A 
ATOM     17  H   UNL     1     -46.264  33.650  23.643  1.00  0.00     0.063 H 
ATOM     18  H   UNL     1     -45.571  34.728  25.764  1.00  0.00     0.066 H 
BRANCH   6  19
ATOM     19  N   UNL     1     -49.422  28.442  24.851  1.00  0.00    -0.341 N 
BRANCH  19  20
ATOM     20  C   UNL     1     -50.652  28.563  24.068  1.00  0.00     0.010 C 
ATOM     21  H   UNL     1     -50.481  29.116  23.136  1.00  0.00     0.046 H 
ATOM     22  H   UNL     1     -51.076  27.579  23.834  1.00  0.00     0.046 H 
ATOM     23  H   UNL     1     -51.432  29.102  24.613  1.00  0.00     0.046 H 
ENDBRANCH  19  20
BRANCH  19  24
ATOM     24  C   UNL     1     -49.487  27.715  26.106  1.00  0.00     0.032 C 
ATOM     25  C   UNL     1     -50.324  26.405  26.054  1.00  0.00    -0.032 C 
ATOM     26  C   UNL     1     -48.254  26.796  26.360  1.00  0.00    -0.032 C 
ATOM     27  H   UNL     1     -49.748  28.381  26.935  1.00  0.00     0.053 H 
ATOM     28  C   UNL     1     -49.036  25.642  25.712  1.00  0.00    -0.049 C 
ATOM     29  H   UNL     1     -50.744  26.130  27.031  1.00  0.00     0.029 H 
ATOM     30  H   UNL     1     -51.118  26.310  25.311  1.00  0.00     0.029 H 
ATOM     31  H   UNL     1     -47.310  27.035  25.863  1.00  0.00     0.029 H 
ATOM     32  H   UNL     1     -48.047  26.638  27.425  1.00  0.00     0.029 H 
ATOM     33  H   UNL     1     -48.920  24.664  26.187  1.00  0.00     0.027 H 
ATOM     34  H   UNL     1     -48.857  25.538  24.635  1.00  0.00     0.027 H 
ENDBRANCH  19  24
ENDBRANCH   6  19
ENDBRANCH   4   5
ENDBRANCH   1   4
BRANCH   1  35
ATOM     35  C   UNL     1     -47.109  35.946  28.737  1.00  0.00     0.123 C 
ATOM     36  O   UNL     1     -46.613  37.184  29.300  1.00  0.00    -0.345 OA
ATOM     37  C   UNL     1     -48.299  36.325  27.853  1.00  0.00     0.119 C 
ATOM     38  H   UNL     1     -47.411  35.311  29.578  1.00  0.00     0.067 H 
ATOM     39  C   UNL     1     -47.142  38.280  28.518  1.00  0.00     0.169 C 
ATOM     40  C   UNL     1     -47.904  37.687  27.337  1.00  0.00     0.173 C 
ATOM     41  H   UNL     1     -48.471  35.590  27.059  1.00  0.00     0.066 H 
ATOM     42  H   UNL     1     -47.812  38.835  29.185  1.00  0.00     0.088 H 
ATOM     43  F   UNL     1     -47.093  37.500  26.257  1.00  0.00    -0.239 F 
ATOM     44  H   UNL     1     -48.744  38.314  27.026  1.00  0.00     0.074 H 
BRANCH  37  45
ATOM     45  O   UNL     1     -49.494  36.419  28.634  1.00  0.00    -0.387 OA
ATOM     46  H   UNL     1     -50.133  36.965  28.141  1.00  0.00     0.211 HD
ENDBRANCH  37  45
BRANCH  39  47
ATOM     47  N   UNL     1     -46.069  39.176  28.123  1.00  0.00    -0.302 N 
ATOM     48  C   UNL     1     -46.052  40.018  27.044  1.00  0.00     0.019 A 
ATOM     49  C   UNL     1     -44.904  39.326  28.836  1.00  0.00     0.148 A 
ATOM     50  C   UNL     1     -44.895  40.771  27.107  1.00  0.00     0.033 A 
ATOM     51  H   UNL     1     -46.868  40.048  26.334  1.00  0.00     0.083 H 
ATOM     52  C   UNL     1     -44.126  40.298  28.212  1.00  0.00     0.071 A 
ATOM     53  N   UNL     1     -44.596  38.638  29.949  1.00  0.00    -0.218 NA
ATOM     54  C   UNL     1     -42.868  40.540  28.787  1.00  0.00     0.137 A 
ATOM     55  C   UNL     1     -43.386  38.980  30.418  1.00  0.00     0.120 A 
ATOM     56  N   UNL     1     -42.517  39.868  29.903  1.00  0.00    -0.219 NA
ATOM     57  H   UNL     1     -43.062  38.471  31.322  1.00  0.00     0.106 H 
BRANCH  50  58
ATOM     58  C   UNL     1     -44.566  41.858  26.187  1.00  0.00     0.095 A 
ATOM     59  C   UNL     1     -45.499  42.666  25.503  1.00  0.00    -0.016 A 
ATOM     60  N   UNL     1     -43.308  42.139  25.829  1.00  0.00    -0.173 NA
ATOM     61  C   UNL     1     -44.738  43.482  24.698  1.00  0.00     0.025 A 
ATOM     62  H   UNL     1     -46.578  42.640  25.564  1.00  0.00     0.066 H 
ATOM     63  N   UNL     1     -43.443  43.109  24.909  1.00  0.00    -0.275 N 
ATOM     64  H   UNL     1     -45.008  44.250  23.988  1.00  0.00     0.084 H 
BRANCH  63  65
ATOM     65  C   UNL     1     -42.270  43.624  24.247  1.00  0.00     0.030 C 
ATOM     66  H   UNL     1     -41.997  42.961  23.422  1.00  0.00     0.048 H 
ATOM     67  H   UNL     1     -42.499  44.622  23.866  1.00  0.00     0.048 H 
ATOM     68  H   UNL     1     -41.456  43.668  24.975  1.00  0.00     0.048 H 
ENDBRANCH  63  65
ENDBRANCH  50  58
BRANCH  54  69
ATOM     69  N   UNL     1     -41.909  41.399  28.265  1.00  0.00    -0.383 N 
ATOM     70  H   UNL     1     -41.592  42.099  28.927  1.00  0.00     0.158 HD
ATOM     71  H   UNL     1     -42.226  41.761  27.373  1.00  0.00     0.158 HD
ENDBRANCH  54  69
ENDBRANCH  39  47
ENDBRANCH   1  35
TORSDOF 11
ENDMDL
MODEL 3
REMARK VINA RESULT:      -9.4      2.288      3.292
REMARK SMILES CN(c1ncc2ccc(OC[C@H]3O[C@@H](n4cc(-c5ccn(C)n5)c5c(N)ncnc54)[C@@H](F)[C@@H]3O)cc2n1)C1CCC1
REMARK SMILES IDX 11 1 10 4 9 5 3 6 4 7 37 8 5 9 36 10 6 11 35 13 7 14 8 16
REMARK SMILES IDX 2 19 1 20 38 24 39 25 41 26 40 28 12 35 13 36 33 37 14 39
REMARK SMILES IDX 31 40 32 43 34 45 15 47 16 48 30 49 17 50 24 52 29 53 25 54
REMARK SMILES IDX 28 55 27 56 18 58 19 59 23 60 20 61 21 63 22 65 26 69
REMARK H PARENT 11 2 11 3 5 12 35 15 7 17 8 18 1 21 1 22 1 23 38 27 39 29
REMARK H PARENT 39 30 41 31 41 32 40 33 40 34 12 38 33 41 14 42 31 44 34 46
REMARK H PARENT 16 51 28 57 19 62 20 64 22 66 22 67 22 68 26 70 26 71
REMARK Flexibility Score: inf
ROOT
ATOM      1  C   UNL     1     -46.242  36.128  27.232  1.00  0.00     0.117 C 
ATOM      2  H   UNL     1     -47.336  36.091  27.280  1.00  0.00     0.073 H 
ATOM      3  H   UNL     1     -45.928  37.055  26.742  1.00  0.00     0.073 H 
ENDROOT
BRANCH   1   4
ATOM      4  O   UNL     1     -45.781  34.986  26.491  1.00  0.00    -0.491 OA
BRANCH   4   5
ATOM      5  C   UNL     1     -46.802  34.196  26.041  1.00  0.00     0.121 A 
ATOM      6  C   UNL     1     -48.427  30.429  23.655  1.00  0.00     0.225 A 
ATOM      7  N   UNL     1     -49.695  30.668  24.035  1.00  0.00    -0.221 NA
ATOM      8  N   UNL     1     -47.400  31.202  24.050  1.00  0.00    -0.213 NA
ATOM      9  C   UNL     1     -49.917  31.735  24.824  1.00  0.00     0.040 A 
ATOM     10  C   UNL     1     -47.639  32.261  24.833  1.00  0.00     0.079 A 
ATOM     11  C   UNL     1     -48.924  32.588  25.266  1.00  0.00     0.019 A 
ATOM     12  H   UNL     1     -50.958  31.888  25.097  1.00  0.00     0.085 H 
ATOM     13  C   UNL     1     -46.587  33.071  25.241  1.00  0.00     0.007 A 
ATOM     14  C   UNL     1     -49.153  33.703  26.097  1.00  0.00    -0.048 A 
ATOM     15  H   UNL     1     -45.580  32.794  24.938  1.00  0.00     0.069 H 
ATOM     16  C   UNL     1     -48.083  34.500  26.491  1.00  0.00    -0.019 A 
ATOM     17  H   UNL     1     -50.157  33.943  26.440  1.00  0.00     0.063 H 
ATOM     18  H   UNL     1     -48.244  35.354  27.143  1.00  0.00     0.066 H 
BRANCH   6  19
ATOM     19  N   UNL     1     -48.153  29.323  22.808  1.00  0.00    -0.341 N 
BRANCH  19  20
ATOM     20  C   UNL     1     -48.912  29.469  21.565  1.00  0.00     0.010 C 
ATOM     21  H   UNL     1     -48.319  29.974  20.792  1.00  0.00     0.046 H 
ATOM     22  H   UNL     1     -49.252  28.498  21.186  1.00  0.00     0.046 H 
ATOM     23  H   UNL     1     -49.817  30.067  21.707  1.00  0.00     0.046 H 
ENDBRANCH  19  20
BRANCH  19  24
ATOM     24  C   UNL     1     -48.018  27.988  23.366  1.00  0.00     0.032 C 
ATOM     25  C   UNL     1     -48.245  27.903  24.902  1.00  0.00    -0.032 C 
ATOM     26  C   UNL     1     -49.307  27.122  23.229  1.00  0.00    -0.032 C 
ATOM     27  H   UNL     1     -47.097  27.508  23.021  1.00  0.00     0.053 H 
ATOM     28  C   UNL     1     -49.728  27.607  24.626  1.00  0.00    -0.049 C 
ATOM     29  H   UNL     1     -47.714  27.060  25.363  1.00  0.00     0.029 H 
ATOM     30  H   UNL     1     -48.067  28.787  25.517  1.00  0.00     0.029 H 
ATOM     31  H   UNL     1     -50.019  27.363  22.436  1.00  0.00     0.029 H 
ATOM     32  H   UNL     1     -49.099  26.046  23.185  1.00  0.00     0.029 H 
ATOM     33  H   UNL     1     -50.191  26.855  25.270  1.00  0.00     0.027 H 
ATOM     34  H   UNL     1     -50.361  28.502  24.610  1.00  0.00     0.027 H 
ENDBRANCH  19  24
ENDBRANCH   6  19
ENDBRANCH   4   5
ENDBRANCH   1   4
BRANCH   1  35
ATOM     35  C   UNL     1     -45.649  36.054  28.650  1.00  0.00     0.123 C 
ATOM     36  O   UNL     1     -44.501  36.933  28.717  1.00  0.00    -0.345 OA
ATOM     37  C   UNL     1     -46.623  36.541  29.724  1.00  0.00     0.119 C 
ATOM     38  H   UNL     1     -45.288  35.040  28.855  1.00  0.00     0.067 H 
ATOM     39  C   UNL     1     -44.883  38.121  29.446  1.00  0.00     0.169 C 
ATOM     40  C   UNL     1     -46.377  38.031  29.739  1.00  0.00     0.173 C 
ATOM     41  H   UNL     1     -47.659  36.273  29.492  1.00  0.00     0.066 H 
ATOM     42  H   UNL     1     -44.294  38.113  30.371  1.00  0.00     0.088 H 
ATOM     43  F   UNL     1     -47.121  38.582  28.739  1.00  0.00    -0.239 F 
ATOM     44  H   UNL     1     -46.649  38.524  30.677  1.00  0.00     0.074 H 
BRANCH  37  45
ATOM     45  O   UNL     1     -46.294  35.972  30.994  1.00  0.00    -0.387 OA
ATOM     46  H   UNL     1     -46.543  35.031  30.977  1.00  0.00     0.211 HD
ENDBRANCH  37  45
BRANCH  39  47
ATOM     47  N   UNL     1     -44.512  39.309  28.696  1.00  0.00    -0.302 N 
ATOM     48  C   UNL     1     -45.155  39.833  27.607  1.00  0.00     0.019 A 
ATOM     49  C   UNL     1     -43.449  40.113  29.026  1.00  0.00     0.148 A 
ATOM     50  C   UNL     1     -44.541  41.026  27.279  1.00  0.00     0.033 A 
ATOM     51  H   UNL     1     -46.015  39.344  27.166  1.00  0.00     0.083 H 
ATOM     52  C   UNL     1     -43.414  41.187  28.139  1.00  0.00     0.071 A 
ATOM     53  N   UNL     1     -42.601  39.879  30.043  1.00  0.00    -0.218 NA
ATOM     54  C   UNL     1     -42.347  42.086  28.304  1.00  0.00     0.137 A 
ATOM     55  C   UNL     1     -41.647  40.821  30.114  1.00  0.00     0.120 A 
ATOM     56  N   UNL     1     -41.472  41.885  29.311  1.00  0.00    -0.219 NA
ATOM     57  H   UNL     1     -40.922  40.708  30.914  1.00  0.00     0.106 H 
BRANCH  50  58
ATOM     58  C   UNL     1     -45.007  41.935  26.235  1.00  0.00     0.095 A 
ATOM     59  C   UNL     1     -44.361  42.170  25.002  1.00  0.00    -0.016 A 
ATOM     60  N   UNL     1     -46.077  42.722  26.393  1.00  0.00    -0.173 NA
ATOM     61  C   UNL     1     -45.107  43.151  24.392  1.00  0.00     0.025 A 
ATOM     62  H   UNL     1     -43.459  41.710  24.621  1.00  0.00     0.066 H 
ATOM     63  N   UNL     1     -46.101  43.464  25.273  1.00  0.00    -0.275 N 
ATOM     64  H   UNL     1     -44.994  43.661  23.446  1.00  0.00     0.084 H 
BRANCH  63  65
ATOM     65  C   UNL     1     -47.107  44.486  25.122  1.00  0.00     0.030 C 
ATOM     66  H   UNL     1     -46.720  45.288  24.488  1.00  0.00     0.048 H 
ATOM     67  H   UNL     1     -47.989  44.036  24.660  1.00  0.00     0.048 H 
ATOM     68  H   UNL     1     -47.350  44.878  26.113  1.00  0.00     0.048 H 
ENDBRANCH  63  65
ENDBRANCH  50  58
BRANCH  54  69
ATOM     69  N   UNL     1     -42.083  43.165  27.470  1.00  0.00    -0.383 N 
ATOM     70  H   UNL     1     -42.895  43.745  27.292  1.00  0.00     0.158 HD
ATOM     71  H   UNL     1     -41.594  42.843  26.642  1.00  0.00     0.158 HD
ENDBRANCH  54  69
ENDBRANCH  39  47
ENDBRANCH   1  35
TORSDOF 11
ENDMDL
MODEL 4
REMARK VINA RESULT:      -8.9      2.541      3.797
REMARK SMILES CN(c1ncc2ccc(OC[C@H]3O[C@@H](n4cc(-c5ccn(C)n5)c5c(N)ncnc54)[C@@H](F)[C@@H]3O)cc2n1)C1CCC1
REMARK SMILES IDX 11 1 10 4 9 5 3 6 4 7 37 8 5 9 36 10 6 11 35 13 7 14 8 16
REMARK SMILES IDX 2 19 1 20 38 24 39 25 41 26 40 28 12 35 13 36 33 37 14 39
REMARK SMILES IDX 31 40 32 43 34 45 15 47 16 48 30 49 17 50 24 52 29 53 25 54
REMARK SMILES IDX 28 55 27 56 18 58 19 59 23 60 20 61 21 63 22 65 26 69
REMARK H PARENT 11 2 11 3 5 12 35 15 7 17 8 18 1 21 1 22 1 23 38 27 39 29
REMARK H PARENT 39 30 41 31 41 32 40 33 40 34 12 38 33 41 14 42 31 44 34 46
REMARK H PARENT 16 51 28 57 19 62 20 64 22 66 22 67 22 68 26 70 26 71
REMARK Flexibility Score: inf
ROOT
ATOM      1  C   UNL     1     -46.443  36.088  27.143  1.00  0.00     0.117 C 
ATOM      2  H   UNL     1     -47.508  35.845  27.224  1.00  0.00     0.073 H 
ATOM      3  H   UNL     1     -46.328  37.117  26.788  1.00  0.00     0.073 H 
ENDROOT
BRANCH   1   4
ATOM      4  O   UNL     1     -45.835  35.167  26.221  1.00  0.00    -0.491 OA
BRANCH   4   5
ATOM      5  C   UNL     1     -46.520  33.988  26.117  1.00  0.00     0.121 A 
ATOM      6  C   UNL     1     -48.926  30.766  23.597  1.00  0.00     0.225 A 
ATOM      7  N   UNL     1     -49.019  29.933  24.649  1.00  0.00    -0.221 NA
ATOM      8  N   UNL     1     -48.289  31.948  23.669  1.00  0.00    -0.213 NA
ATOM      9  C   UNL     1     -48.460  30.331  25.807  1.00  0.00     0.040 A 
ATOM     10  C   UNL     1     -47.740  32.328  24.829  1.00  0.00     0.079 A 
ATOM     11  C   UNL     1     -47.797  31.532  25.973  1.00  0.00     0.019 A 
ATOM     12  H   UNL     1     -48.567  29.626  26.627  1.00  0.00     0.085 H 
ATOM     13  C   UNL     1     -47.086  33.551  24.917  1.00  0.00     0.007 A 
ATOM     14  C   UNL     1     -47.206  31.947  27.182  1.00  0.00    -0.048 A 
ATOM     15  H   UNL     1     -47.005  34.155  24.016  1.00  0.00     0.069 H 
ATOM     16  C   UNL     1     -46.558  33.177  27.246  1.00  0.00    -0.019 A 
ATOM     17  H   UNL     1     -47.244  31.314  28.065  1.00  0.00     0.063 H 
ATOM     18  H   UNL     1     -46.085  33.502  28.168  1.00  0.00     0.066 H 
BRANCH   6  19
ATOM     19  N   UNL     1     -49.519  30.393  22.362  1.00  0.00    -0.341 N 
BRANCH  19  20
ATOM     20  C   UNL     1     -50.831  29.800  22.618  1.00  0.00     0.010 C 
ATOM     21  H   UNL     1     -50.946  29.522  23.673  1.00  0.00     0.046 H 
ATOM     22  H   UNL     1     -51.642  30.482  22.332  1.00  0.00     0.046 H 
ATOM     23  H   UNL     1     -50.990  28.888  22.035  1.00  0.00     0.046 H 
ENDBRANCH  19  20
BRANCH  19  24
ATOM     24  C   UNL     1     -48.707  29.811  21.307  1.00  0.00     0.032 C 
ATOM     25  C   UNL     1     -49.349  29.867  19.891  1.00  0.00    -0.032 C 
ATOM     26  C   UNL     1     -47.626  30.782  20.744  1.00  0.00    -0.032 C 
ATOM     27  H   UNL     1     -48.339  28.820  21.593  1.00  0.00     0.053 H 
ATOM     28  C   UNL     1     -48.633  31.208  19.663  1.00  0.00    -0.049 C 
ATOM     29  H   UNL     1     -48.990  29.067  19.230  1.00  0.00     0.029 H 
ATOM     30  H   UNL     1     -50.435  29.914  19.799  1.00  0.00     0.029 H 
ATOM     31  H   UNL     1     -47.274  31.600  21.378  1.00  0.00     0.029 H 
ATOM     32  H   UNL     1     -46.748  30.262  20.342  1.00  0.00     0.029 H 
ATOM     33  H   UNL     1     -48.219  31.364  18.664  1.00  0.00     0.027 H 
ATOM     34  H   UNL     1     -49.234  32.082  19.940  1.00  0.00     0.027 H 
ENDBRANCH  19  24
ENDBRANCH   6  19
ENDBRANCH   4   5
ENDBRANCH   1   4
BRANCH   1  35
ATOM     35  C   UNL     1     -45.759  35.923  28.511  1.00  0.00     0.123 C 
ATOM     36  O   UNL     1     -44.584  36.766  28.545  1.00  0.00    -0.345 OA
ATOM     37  C   UNL     1     -46.644  36.376  29.674  1.00  0.00     0.119 C 
ATOM     38  H   UNL     1     -45.415  34.890  28.638  1.00  0.00     0.067 H 
ATOM     39  C   UNL     1     -44.880  37.923  29.359  1.00  0.00     0.169 C 
ATOM     40  C   UNL     1     -46.354  37.856  29.749  1.00  0.00     0.173 C 
ATOM     41  H   UNL     1     -47.701  36.147  29.499  1.00  0.00     0.066 H 
ATOM     42  H   UNL     1     -44.232  37.850  30.240  1.00  0.00     0.088 H 
ATOM     43  F   UNL     1     -47.147  38.479  28.833  1.00  0.00    -0.239 F 
ATOM     44  H   UNL     1     -46.547  38.304  30.727  1.00  0.00     0.074 H 
BRANCH  37  45
ATOM     45  O   UNL     1     -46.247  35.731  30.887  1.00  0.00    -0.387 OA
ATOM     46  H   UNL     1     -45.963  36.419  31.515  1.00  0.00     0.211 HD
ENDBRANCH  37  45
BRANCH  39  47
ATOM     47  N   UNL     1     -44.526  39.140  28.648  1.00  0.00    -0.302 N 
ATOM     48  C   UNL     1     -45.159  39.674  27.559  1.00  0.00     0.019 A 
ATOM     49  C   UNL     1     -43.492  39.963  29.023  1.00  0.00     0.148 A 
ATOM     50  C   UNL     1     -44.571  40.892  27.276  1.00  0.00     0.033 A 
ATOM     51  H   UNL     1     -45.996  39.175  27.086  1.00  0.00     0.083 H 
ATOM     52  C   UNL     1     -43.468  41.060  28.165  1.00  0.00     0.071 A 
ATOM     53  N   UNL     1     -42.661  39.725  30.052  1.00  0.00    -0.218 NA
ATOM     54  C   UNL     1     -42.430  41.982  28.377  1.00  0.00     0.137 A 
ATOM     55  C   UNL     1     -41.735  40.690  30.169  1.00  0.00     0.120 A 
ATOM     56  N   UNL     1     -41.571  41.779  29.397  1.00  0.00    -0.219 NA
ATOM     57  H   UNL     1     -41.024  40.575  30.982  1.00  0.00     0.106 H 
BRANCH  50  58
ATOM     58  C   UNL     1     -45.038  41.815  26.245  1.00  0.00     0.095 A 
ATOM     59  C   UNL     1     -44.363  42.113  25.042  1.00  0.00    -0.016 A 
ATOM     60  N   UNL     1     -46.143  42.555  26.391  1.00  0.00    -0.173 NA
ATOM     61  C   UNL     1     -45.127  43.084  24.437  1.00  0.00     0.025 A 
ATOM     62  H   UNL     1     -43.433  41.700  24.676  1.00  0.00     0.066 H 
ATOM     63  N   UNL     1     -46.160  43.331  25.294  1.00  0.00    -0.275 N 
ATOM     64  H   UNL     1     -45.004  43.628  23.512  1.00  0.00     0.084 H 
BRANCH  63  65
ATOM     65  C   UNL     1     -47.200  44.318  25.142  1.00  0.00     0.030 C 
ATOM     66  H   UNL     1     -46.972  44.959  24.286  1.00  0.00     0.048 H 
ATOM     67  H   UNL     1     -48.147  43.799  24.978  1.00  0.00     0.048 H 
ATOM     68  H   UNL     1     -47.243  44.917  26.056  1.00  0.00     0.048 H 
ENDBRANCH  63  65
ENDBRANCH  50  58
BRANCH  54  69
ATOM     69  N   UNL     1     -42.177  43.090  27.576  1.00  0.00    -0.383 N 
ATOM     70  H   UNL     1     -41.718  43.847  28.070  1.00  0.00     0.158 HD
ATOM     71  H   UNL     1     -43.020  43.348  27.077  1.00  0.00     0.158 HD
ENDBRANCH  54  69
ENDBRANCH  39  47
ENDBRANCH   1  35
TORSDOF 11
ENDMDL
MODEL 5
REMARK VINA RESULT:      -8.5      1.045      2.750
REMARK SMILES CN(c1ncc2ccc(OC[C@H]3O[C@@H](n4cc(-c5ccn(C)n5)c5c(N)ncnc54)[C@@H](F)[C@@H]3O)cc2n1)C1CCC1
REMARK SMILES IDX 11 1 10 4 9 5 3 6 4 7 37 8 5 9 36 10 6 11 35 13 7 14 8 16
REMARK SMILES IDX 2 19 1 20 38 24 39 25 41 26 40 28 12 35 13 36 33 37 14 39
REMARK SMILES IDX 31 40 32 43 34 45 15 47 16 48 30 49 17 50 24 52 29 53 25 54
REMARK SMILES IDX 28 55 27 56 18 58 19 59 23 60 20 61 21 63 22 65 26 69
REMARK H PARENT 11 2 11 3 5 12 35 15 7 17 8 18 1 21 1 22 1 23 38 27 39 29
REMARK H PARENT 39 30 41 31 41 32 40 33 40 34 12 38 33 41 14 42 31 44 34 46
REMARK H PARENT 16 51 28 57 19 62 20 64 22 66 22 67 22 68 26 70 26 71
REMARK Flexibility Score: inf
ROOT
ATOM      1  C   UNL     1     -46.514  35.494  26.238  1.00  0.00     0.117 C 
ATOM      2  H   UNL     1     -46.848  36.481  25.898  1.00  0.00     0.073 H 
ATOM      3  H   UNL     1     -45.764  35.102  25.545  1.00  0.00     0.073 H 
ENDROOT
BRANCH   1   4
ATOM      4  O   UNL     1     -47.656  34.622  26.292  1.00  0.00    -0.491 OA
BRANCH   4   5
ATOM      5  C   UNL     1     -47.444  33.429  25.657  1.00  0.00     0.121 A 
ATOM      6  C   UNL     1     -48.700  28.972  24.619  1.00  0.00     0.225 A 
ATOM      7  N   UNL     1     -47.676  28.826  23.759  1.00  0.00    -0.221 NA
ATOM      8  N   UNL     1     -48.922  30.118  25.286  1.00  0.00    -0.213 NA
ATOM      9  C   UNL     1     -46.850  29.876  23.593  1.00  0.00     0.040 A 
ATOM     10  C   UNL     1     -48.090  31.151  25.111  1.00  0.00     0.079 A 
ATOM     11  C   UNL     1     -46.997  31.085  24.246  1.00  0.00     0.019 A 
ATOM     12  H   UNL     1     -46.036  29.706  22.893  1.00  0.00     0.085 H 
ATOM     13  C   UNL     1     -48.305  32.338  25.801  1.00  0.00     0.007 A 
ATOM     14  C   UNL     1     -46.137  32.187  24.070  1.00  0.00    -0.048 A 
ATOM     15  H   UNL     1     -49.179  32.405  26.444  1.00  0.00     0.069 H 
ATOM     16  C   UNL     1     -46.372  33.364  24.773  1.00  0.00    -0.019 A 
ATOM     17  H   UNL     1     -45.295  32.130  23.383  1.00  0.00     0.063 H 
ATOM     18  H   UNL     1     -45.725  34.226  24.635  1.00  0.00     0.066 H 
BRANCH   6  19
ATOM     19  N   UNL     1     -49.584  27.882  24.836  1.00  0.00    -0.341 N 
BRANCH  19  20
ATOM     20  C   UNL     1     -50.855  28.153  24.164  1.00  0.00     0.010 C 
ATOM     21  H   UNL     1     -51.574  27.340  24.325  1.00  0.00     0.046 H 
ATOM     22  H   UNL     1     -51.295  29.099  24.504  1.00  0.00     0.046 H 
ATOM     23  H   UNL     1     -50.732  28.254  23.082  1.00  0.00     0.046 H 
ENDBRANCH  19  20
BRANCH  19  24
ATOM     24  C   UNL     1     -49.629  27.222  26.129  1.00  0.00     0.032 C 
ATOM     25  C   UNL     1     -49.817  25.680  26.063  1.00  0.00    -0.032 C 
ATOM     26  C   UNL     1     -48.221  26.923  26.726  1.00  0.00    -0.032 C 
ATOM     27  H   UNL     1     -50.323  27.730  26.807  1.00  0.00     0.053 H 
ATOM     28  C   UNL     1     -48.288  25.532  26.073  1.00  0.00    -0.049 C 
ATOM     29  H   UNL     1     -50.297  25.272  26.962  1.00  0.00     0.029 H 
ATOM     30  H   UNL     1     -50.308  25.240  25.193  1.00  0.00     0.029 H 
ATOM     31  H   UNL     1     -47.373  27.532  26.401  1.00  0.00     0.029 H 
ATOM     32  H   UNL     1     -48.216  26.890  27.822  1.00  0.00     0.029 H 
ATOM     33  H   UNL     1     -47.892  24.708  26.671  1.00  0.00     0.027 H 
ATOM     34  H   UNL     1     -47.842  25.493  25.072  1.00  0.00     0.027 H 
ENDBRANCH  19  24
ENDBRANCH   6  19
ENDBRANCH   4   5
ENDBRANCH   1   4
BRANCH   1  35
ATOM     35  C   UNL     1     -45.920  35.599  27.654  1.00  0.00     0.123 C 
ATOM     36  O   UNL     1     -45.280  36.889  27.792  1.00  0.00    -0.345 OA
ATOM     37  C   UNL     1     -46.987  35.530  28.749  1.00  0.00     0.119 C 
ATOM     38  H   UNL     1     -45.143  34.839  27.793  1.00  0.00     0.067 H 
ATOM     39  C   UNL     1     -46.135  37.734  28.596  1.00  0.00     0.169 C 
ATOM     40  C   UNL     1     -47.427  36.970  28.868  1.00  0.00     0.173 C 
ATOM     41  H   UNL     1     -47.801  34.846  28.488  1.00  0.00     0.066 H 
ATOM     42  H   UNL     1     -45.585  37.927  29.525  1.00  0.00     0.088 H 
ATOM     43  F   UNL     1     -48.359  37.197  27.900  1.00  0.00    -0.239 F 
ATOM     44  H   UNL     1     -47.870  37.229  29.834  1.00  0.00     0.074 H 
BRANCH  37  45
ATOM     45  O   UNL     1     -46.413  35.085  29.981  1.00  0.00    -0.387 OA
ATOM     46  H   UNL     1     -46.917  35.487  30.711  1.00  0.00     0.211 HD
ENDBRANCH  37  45
BRANCH  39  47
ATOM     47  N   UNL     1     -46.346  39.009  27.933  1.00  0.00    -0.302 N 
ATOM     48  C   UNL     1     -45.442  39.707  27.179  1.00  0.00     0.019 A 
ATOM     49  C   UNL     1     -47.543  39.682  27.947  1.00  0.00     0.148 A 
ATOM     50  C   UNL     1     -46.088  40.803  26.641  1.00  0.00     0.033 A 
ATOM     51  H   UNL     1     -44.423  39.364  27.050  1.00  0.00     0.083 H 
ATOM     52  C   UNL     1     -47.413  40.831  27.171  1.00  0.00     0.071 A 
ATOM     53  N   UNL     1     -48.642  39.273  28.605  1.00  0.00    -0.218 NA
ATOM     54  C   UNL     1     -48.539  41.669  27.121  1.00  0.00     0.137 A 
ATOM     55  C   UNL     1     -49.655  40.140  28.455  1.00  0.00     0.120 A 
ATOM     56  N   UNL     1     -49.662  41.298  27.771  1.00  0.00    -0.219 NA
ATOM     57  H   UNL     1     -50.584  39.881  28.954  1.00  0.00     0.106 H 
BRANCH  50  58
ATOM     58  C   UNL     1     -45.484  41.736  25.693  1.00  0.00     0.095 A 
ATOM     59  C   UNL     1     -44.251  41.551  25.032  1.00  0.00    -0.016 A 
ATOM     60  N   UNL     1     -46.019  42.931  25.421  1.00  0.00    -0.173 NA
ATOM     61  C   UNL     1     -44.054  42.710  24.317  1.00  0.00     0.025 A 
ATOM     62  H   UNL     1     -43.581  40.704  25.089  1.00  0.00     0.066 H 
ATOM     63  N   UNL     1     -45.122  43.509  24.605  1.00  0.00    -0.275 N 
ATOM     64  H   UNL     1     -43.249  43.034  23.674  1.00  0.00     0.084 H 
BRANCH  63  65
ATOM     65  C   UNL     1     -45.346  44.859  24.150  1.00  0.00     0.030 C 
ATOM     66  H   UNL     1     -44.545  45.150  23.465  1.00  0.00     0.048 H 
ATOM     67  H   UNL     1     -46.309  44.895  23.636  1.00  0.00     0.048 H 
ATOM     68  H   UNL     1     -45.350  45.519  25.022  1.00  0.00     0.048 H 
ENDBRANCH  63  65
ENDBRANCH  50  58
BRANCH  54  69
ATOM     69  N   UNL     1     -48.583  42.902  26.481  1.00  0.00    -0.383 N 
ATOM     70  H   UNL     1     -49.306  43.516  26.839  1.00  0.00     0.158 HD
ATOM     71  H   UNL     1     -48.591  42.764  25.477  1.00  0.00     0.158 HD
ENDBRANCH  54  69
ENDBRANCH  39  47
ENDBRANCH   1  35
TORSDOF 11
ENDMDL
MODEL 6
REMARK VINA RESULT:      -8.5      3.167      5.891
REMARK SMILES CN(c1ncc2ccc(OC[C@H]3O[C@@H](n4cc(-c5ccn(C)n5)c5c(N)ncnc54)[C@@H](F)[C@@H]3O)cc2n1)C1CCC1
REMARK SMILES IDX 11 1 10 4 9 5 3 6 4 7 37 8 5 9 36 10 6 11 35 13 7 14 8 16
REMARK SMILES IDX 2 19 1 20 38 24 39 25 41 26 40 28 12 35 13 36 33 37 14 39
REMARK SMILES IDX 31 40 32 43 34 45 15 47 16 48 30 49 17 50 24 52 29 53 25 54
REMARK SMILES IDX 28 55 27 56 18 58 19 59 23 60 20 61 21 63 22 65 26 69
REMARK H PARENT 11 2 11 3 5 12 35 15 7 17 8 18 1 21 1 22 1 23 38 27 39 29
REMARK H PARENT 39 30 41 31 41 32 40 33 40 34 12 38 33 41 14 42 31 44 34 46
REMARK H PARENT 16 51 28 57 19 62 20 64 22 66 22 67 22 68 26 70 26 71
REMARK Flexibility Score: inf
ROOT
ATOM      1  C   UNL     1     -44.117  40.595  28.240  1.00  0.00     0.117 C 
ATOM      2  H   UNL     1     -43.840  41.191  29.117  1.00  0.00     0.073 H 
ATOM      3  H   UNL     1     -45.123  40.873  27.912  1.00  0.00     0.073 H 
ENDROOT
BRANCH   1   4
ATOM      4  O   UNL     1     -44.072  39.204  28.603  1.00  0.00    -0.491 OA
BRANCH   4   5
ATOM      5  C   UNL     1     -45.222  38.534  28.285  1.00  0.00     0.121 A 
ATOM      6  C   UNL     1     -47.540  34.596  27.005  1.00  0.00     0.225 A 
ATOM      7  N   UNL     1     -48.736  35.203  27.104  1.00  0.00    -0.221 NA
ATOM      8  N   UNL     1     -46.386  35.230  27.277  1.00  0.00    -0.213 NA
ATOM      9  C   UNL     1     -48.748  36.497  27.476  1.00  0.00     0.040 A 
ATOM     10  C   UNL     1     -46.415  36.517  27.644  1.00  0.00     0.079 A 
ATOM     11  C   UNL     1     -47.610  37.228  27.763  1.00  0.00     0.019 A 
ATOM     12  H   UNL     1     -49.737  36.942  27.536  1.00  0.00     0.085 H 
ATOM     13  C   UNL     1     -45.229  37.185  27.920  1.00  0.00     0.007 A 
ATOM     14  C   UNL     1     -47.620  38.580  28.158  1.00  0.00    -0.048 A 
ATOM     15  H   UNL     1     -44.300  36.623  27.867  1.00  0.00     0.069 H 
ATOM     16  C   UNL     1     -46.419  39.227  28.428  1.00  0.00    -0.019 A 
ATOM     17  H   UNL     1     -48.558  39.122  28.261  1.00  0.00     0.063 H 
ATOM     18  H   UNL     1     -46.413  40.266  28.748  1.00  0.00     0.066 H 
BRANCH   6  19
ATOM     19  N   UNL     1     -47.483  33.237  26.598  1.00  0.00    -0.341 N 
BRANCH  19  20
ATOM     20  C   UNL     1     -46.275  32.621  27.146  1.00  0.00     0.010 C 
ATOM     21  H   UNL     1     -46.350  32.489  28.233  1.00  0.00     0.046 H 
ATOM     22  H   UNL     1     -46.070  31.651  26.676  1.00  0.00     0.046 H 
ATOM     23  H   UNL     1     -45.386  33.232  26.966  1.00  0.00     0.046 H 
ENDBRANCH  19  20
BRANCH  19  24
ATOM     24  C   UNL     1     -47.888  32.856  25.256  1.00  0.00     0.032 C 
ATOM     25  C   UNL     1     -47.290  31.510  24.756  1.00  0.00    -0.032 C 
ATOM     26  C   UNL     1     -49.274  32.145  25.200  1.00  0.00    -0.032 C 
ATOM     27  H   UNL     1     -47.764  33.689  24.556  1.00  0.00     0.053 H 
ATOM     28  C   UNL     1     -48.538  30.799  25.303  1.00  0.00    -0.049 C 
ATOM     29  H   UNL     1     -47.209  31.462  23.662  1.00  0.00     0.029 H 
ATOM     30  H   UNL     1     -46.347  31.157  25.177  1.00  0.00     0.029 H 
ATOM     31  H   UNL     1     -49.990  32.329  26.004  1.00  0.00     0.029 H 
ATOM     32  H   UNL     1     -49.791  32.287  24.244  1.00  0.00     0.029 H 
ATOM     33  H   UNL     1     -48.936  29.992  24.683  1.00  0.00     0.027 H 
ATOM     34  H   UNL     1     -48.424  30.436  26.331  1.00  0.00     0.027 H 
ENDBRANCH  19  24
ENDBRANCH   6  19
ENDBRANCH   4   5
ENDBRANCH   1   4
BRANCH   1  35
ATOM     35  C   UNL     1     -43.107  40.829  27.104  1.00  0.00     0.123 C 
ATOM     36  O   UNL     1     -43.836  41.170  25.901  1.00  0.00    -0.345 OA
ATOM     37  C   UNL     1     -42.166  42.003  27.381  1.00  0.00     0.119 C 
ATOM     38  H   UNL     1     -42.556  39.905  26.893  1.00  0.00     0.067 H 
ATOM     39  C   UNL     1     -43.702  42.592  25.680  1.00  0.00     0.169 C 
ATOM     40  C   UNL     1     -42.956  43.184  26.871  1.00  0.00     0.173 C 
ATOM     41  H   UNL     1     -41.904  42.078  28.442  1.00  0.00     0.066 H 
ATOM     42  H   UNL     1     -43.125  42.703  24.754  1.00  0.00     0.088 H 
ATOM     43  F   UNL     1     -43.811  43.566  27.862  1.00  0.00    -0.239 F 
ATOM     44  H   UNL     1     -42.348  44.049  26.595  1.00  0.00     0.074 H 
BRANCH  37  45
ATOM     45  O   UNL     1     -40.953  41.860  26.636  1.00  0.00    -0.387 OA
ATOM     46  H   UNL     1     -41.168  41.954  25.690  1.00  0.00     0.211 HD
ENDBRANCH  37  45
BRANCH  39  47
ATOM     47  N   UNL     1     -45.009  43.189  25.461  1.00  0.00    -0.302 N 
ATOM     48  C   UNL     1     -46.215  42.726  25.913  1.00  0.00     0.019 A 
ATOM     49  C   UNL     1     -45.200  44.367  24.779  1.00  0.00     0.148 A 
ATOM     50  C   UNL     1     -47.182  43.655  25.581  1.00  0.00     0.033 A 
ATOM     51  H   UNL     1     -46.297  41.797  26.462  1.00  0.00     0.083 H 
ATOM     52  C   UNL     1     -46.557  44.677  24.806  1.00  0.00     0.071 A 
ATOM     53  N   UNL     1     -44.220  45.080  24.197  1.00  0.00    -0.218 NA
ATOM     54  C   UNL     1     -46.936  45.833  24.103  1.00  0.00     0.137 A 
ATOM     55  C   UNL     1     -44.704  46.172  23.587  1.00  0.00     0.120 A 
ATOM     56  N   UNL     1     -45.985  46.576  23.501  1.00  0.00    -0.219 NA
ATOM     57  H   UNL     1     -43.975  46.808  23.093  1.00  0.00     0.106 H 
BRANCH  50  58
ATOM     58  C   UNL     1     -48.583  43.569  25.985  1.00  0.00     0.095 A 
ATOM     59  C   UNL     1     -49.050  43.437  27.310  1.00  0.00    -0.016 A 
ATOM     60  N   UNL     1     -49.584  43.516  25.098  1.00  0.00    -0.173 NA
ATOM     61  C   UNL     1     -50.415  43.309  27.195  1.00  0.00     0.025 A 
ATOM     62  H   UNL     1     -48.471  43.410  28.224  1.00  0.00     0.066 H 
ATOM     63  N   UNL     1     -50.678  43.335  25.856  1.00  0.00    -0.275 N 
ATOM     64  H   UNL     1     -51.192  43.171  27.932  1.00  0.00     0.084 H 
BRANCH  63  65
ATOM     65  C   UNL     1     -51.961  43.169  25.219  1.00  0.00     0.030 C 
ATOM     66  H   UNL     1     -52.605  44.016  25.470  1.00  0.00     0.048 H 
ATOM     67  H   UNL     1     -51.806  43.125  24.138  1.00  0.00     0.048 H 
ATOM     68  H   UNL     1     -52.408  42.240  25.582  1.00  0.00     0.048 H 
ENDBRANCH  63  65
ENDBRANCH  50  58
BRANCH  54  69
ATOM     69  N   UNL     1     -48.247  46.262  23.931  1.00  0.00    -0.383 N 
ATOM     70  H   UNL     1     -48.825  45.600  23.426  1.00  0.00     0.158 HD
ATOM     71  H   UNL     1     -48.250  47.207  23.563  1.00  0.00     0.158 HD
ENDBRANCH  54  69
ENDBRANCH  39  47
ENDBRANCH   1  35
TORSDOF 11
ENDMDL
MODEL 7
REMARK VINA RESULT:      -8.5      3.397     11.635
REMARK SMILES CN(c1ncc2ccc(OC[C@H]3O[C@@H](n4cc(-c5ccn(C)n5)c5c(N)ncnc54)[C@@H](F)[C@@H]3O)cc2n1)C1CCC1
REMARK SMILES IDX 11 1 10 4 9 5 3 6 4 7 37 8 5 9 36 10 6 11 35 13 7 14 8 16
REMARK SMILES IDX 2 19 1 20 38 24 39 25 41 26 40 28 12 35 13 36 33 37 14 39
REMARK SMILES IDX 31 40 32 43 34 45 15 47 16 48 30 49 17 50 24 52 29 53 25 54
REMARK SMILES IDX 28 55 27 56 18 58 19 59 23 60 20 61 21 63 22 65 26 69
REMARK H PARENT 11 2 11 3 5 12 35 15 7 17 8 18 1 21 1 22 1 23 38 27 39 29
REMARK H PARENT 39 30 41 31 41 32 40 33 40 34 12 38 33 41 14 42 31 44 34 46
REMARK H PARENT 16 51 28 57 19 62 20 64 22 66 22 67 22 68 26 70 26 71
REMARK Flexibility Score: inf
ROOT
ATOM      1  C   UNL     1     -45.645  39.257  26.996  1.00  0.00     0.117 C 
ATOM      2  H   UNL     1     -45.886  38.337  26.452  1.00  0.00     0.073 H 
ATOM      3  H   UNL     1     -46.213  40.091  26.573  1.00  0.00     0.073 H 
ENDROOT
BRANCH   1   4
ATOM      4  O   UNL     1     -44.233  39.498  26.877  1.00  0.00    -0.491 OA
BRANCH   4   5
ATOM      5  C   UNL     1     -43.938  40.802  26.588  1.00  0.00     0.121 A 
ATOM      6  C   UNL     1     -44.407  44.696  23.916  1.00  0.00     0.225 A 
ATOM      7  N   UNL     1     -43.640  45.425  24.747  1.00  0.00    -0.221 NA
ATOM      8  N   UNL     1     -44.692  43.403  24.148  1.00  0.00    -0.213 NA
ATOM      9  C   UNL     1     -43.140  44.806  25.833  1.00  0.00     0.040 A 
ATOM     10  C   UNL     1     -44.185  42.803  25.232  1.00  0.00     0.079 A 
ATOM     11  C   UNL     1     -43.373  43.479  26.142  1.00  0.00     0.019 A 
ATOM     12  H   UNL     1     -42.523  45.436  26.469  1.00  0.00     0.085 H 
ATOM     13  C   UNL     1     -44.467  41.465  25.478  1.00  0.00     0.007 A 
ATOM     14  C   UNL     1     -42.855  42.832  27.281  1.00  0.00    -0.048 A 
ATOM     15  H   UNL     1     -45.133  40.947  24.792  1.00  0.00     0.069 H 
ATOM     16  C   UNL     1     -43.151  41.491  27.505  1.00  0.00    -0.019 A 
ATOM     17  H   UNL     1     -42.233  43.371  27.992  1.00  0.00     0.063 H 
ATOM     18  H   UNL     1     -42.770  40.984  28.388  1.00  0.00     0.066 H 
BRANCH   6  19
ATOM     19  N   UNL     1     -44.939  45.306  22.749  1.00  0.00    -0.341 N 
BRANCH  19  20
ATOM     20  C   UNL     1     -46.396  45.374  22.864  1.00  0.00     0.010 C 
ATOM     21  H   UNL     1     -46.859  45.668  21.914  1.00  0.00     0.046 H 
ATOM     22  H   UNL     1     -46.817  44.415  23.191  1.00  0.00     0.046 H 
ATOM     23  H   UNL     1     -46.714  46.108  23.609  1.00  0.00     0.046 H 
ENDBRANCH  19  20
BRANCH  19  24
ATOM     24  C   UNL     1     -44.375  45.006  21.444  1.00  0.00     0.032 C 
ATOM     25  C   UNL     1     -44.577  46.121  20.379  1.00  0.00    -0.032 C 
ATOM     26  C   UNL     1     -42.853  45.319  21.336  1.00  0.00    -0.032 C 
ATOM     27  H   UNL     1     -44.670  44.007  21.108  1.00  0.00     0.053 H 
ATOM     28  C   UNL     1     -43.221  46.711  20.798  1.00  0.00    -0.049 C 
ATOM     29  H   UNL     1     -44.582  45.732  19.353  1.00  0.00     0.029 H 
ATOM     30  H   UNL     1     -45.419  46.808  20.481  1.00  0.00     0.029 H 
ATOM     31  H   UNL     1     -42.253  45.334  22.250  1.00  0.00     0.029 H 
ATOM     32  H   UNL     1     -42.336  44.690  20.600  1.00  0.00     0.029 H 
ATOM     33  H   UNL     1     -42.594  47.088  19.986  1.00  0.00     0.027 H 
ATOM     34  H   UNL     1     -43.296  47.479  21.577  1.00  0.00     0.027 H 
ENDBRANCH  19  24
ENDBRANCH   6  19
ENDBRANCH   4   5
ENDBRANCH   1   4
BRANCH   1  35
ATOM     35  C   UNL     1     -45.982  39.092  28.488  1.00  0.00     0.123 C 
ATOM     36  O   UNL     1     -47.228  38.366  28.602  1.00  0.00    -0.345 OA
ATOM     37  C   UNL     1     -44.936  38.269  29.243  1.00  0.00     0.119 C 
ATOM     38  H   UNL     1     -46.141  40.073  28.949  1.00  0.00     0.067 H 
ATOM     39  C   UNL     1     -46.926  37.010  29.002  1.00  0.00     0.169 C 
ATOM     40  C   UNL     1     -45.409  36.853  29.017  1.00  0.00     0.173 C 
ATOM     41  H   UNL     1     -43.922  38.455  28.873  1.00  0.00     0.066 H 
ATOM     42  H   UNL     1     -47.349  36.887  30.007  1.00  0.00     0.088 H 
ATOM     43  F   UNL     1     -44.932  36.447  27.807  1.00  0.00    -0.239 F 
ATOM     44  H   UNL     1     -45.071  36.138  29.773  1.00  0.00     0.074 H 
BRANCH  37  45
ATOM     45  O   UNL     1     -44.963  38.584  30.638  1.00  0.00    -0.387 OA
ATOM     46  H   UNL     1     -44.088  38.936  30.883  1.00  0.00     0.211 HD
ENDBRANCH  37  45
BRANCH  39  47
ATOM     47  N   UNL     1     -47.596  36.067  28.122  1.00  0.00    -0.302 N 
ATOM     48  C   UNL     1     -47.022  35.040  27.422  1.00  0.00     0.019 A 
ATOM     49  C   UNL     1     -48.952  36.063  27.907  1.00  0.00     0.148 A 
ATOM     50  C   UNL     1     -48.031  34.324  26.809  1.00  0.00     0.033 A 
ATOM     51  H   UNL     1     -45.953  34.871  27.435  1.00  0.00     0.083 H 
ATOM     52  C   UNL     1     -49.262  35.000  27.061  1.00  0.00     0.071 A 
ATOM     53  N   UNL     1     -49.813  36.947  28.439  1.00  0.00    -0.218 NA
ATOM     54  C   UNL     1     -50.612  34.882  26.693  1.00  0.00     0.137 A 
ATOM     55  C   UNL     1     -51.072  36.711  28.037  1.00  0.00     0.120 A 
ATOM     56  N   UNL     1     -51.509  35.751  27.202  1.00  0.00    -0.219 NA
ATOM     57  H   UNL     1     -51.832  37.381  28.427  1.00  0.00     0.106 H 
BRANCH  50  58
ATOM     58  C   UNL     1     -47.827  33.090  26.054  1.00  0.00     0.095 A 
ATOM     59  C   UNL     1     -46.897  32.911  25.008  1.00  0.00    -0.016 A 
ATOM     60  N   UNL     1     -48.589  32.005  26.231  1.00  0.00    -0.173 NA
ATOM     61  C   UNL     1     -47.121  31.634  24.548  1.00  0.00     0.025 A 
ATOM     62  H   UNL     1     -46.180  33.623  24.621  1.00  0.00     0.066 H 
ATOM     63  N   UNL     1     -48.156  31.148  25.291  1.00  0.00    -0.275 N 
ATOM     64  H   UNL     1     -46.664  31.063  23.753  1.00  0.00     0.084 H 
BRANCH  63  65
ATOM     65  C   UNL     1     -48.807  29.869  25.146  1.00  0.00     0.030 C 
ATOM     66  H   UNL     1     -49.610  29.951  24.409  1.00  0.00     0.048 H 
ATOM     67  H   UNL     1     -48.065  29.141  24.811  1.00  0.00     0.048 H 
ATOM     68  H   UNL     1     -49.219  29.581  26.116  1.00  0.00     0.048 H 
ENDBRANCH  63  65
ENDBRANCH  50  58
BRANCH  54  69
ATOM     69  N   UNL     1     -51.109  33.950  25.790  1.00  0.00    -0.383 N 
ATOM     70  H   UNL     1     -52.117  33.848  25.829  1.00  0.00     0.158 HD
ATOM     71  H   UNL     1     -50.584  33.087  25.868  1.00  0.00     0.158 HD
ENDBRANCH  54  69
ENDBRANCH  39  47
ENDBRANCH   1  35
TORSDOF 11
ENDMDL
