MODEL 1
REMARK VINA RESULT:     -10.4      0.000      0.000
REMARK SMILES CNc1ccc2ccc(OC[C@H]3O[C@@H](n4cc(C5=CCN(C)CC5)c5c(N)ncnc54)[C@@H](F)[C@@H]3O)cc2n1
REMARK SMILES IDX 11 1 10 4 9 5 3 6 4 7 38 8 5 9 37 11 6 12 36 14 7 15 8 17
REMARK SMILES IDX 2 20 1 22 12 26 13 27 34 28 14 30 32 31 33 34 35 36 15 38
REMARK SMILES IDX 16 39 31 40 17 41 25 43 30 44 26 45 29 46 28 47 18 49 19 50
REMARK SMILES IDX 24 51 20 52 23 54 21 57 22 62 27 66
REMARK H PARENT 11 2 11 3 4 10 5 13 36 16 7 18 8 19 2 21 1 23 1 24 1 25 12 29
REMARK H PARENT 34 32 14 33 32 35 35 37 16 42 29 48 19 53 24 55 24 56 20 58
REMARK H PARENT 20 59 23 60 23 61 22 63 22 64 22 65 27 67 27 68
REMARK Flexibility Score: inf
ROOT
ATOM      1  C   UNL     1     -46.770  36.841  27.107  1.00  0.00     0.117 C 
ATOM      2  H   UNL     1     -46.454  37.871  26.915  1.00  0.00     0.073 H 
ATOM      3  H   UNL     1     -47.850  36.812  27.288  1.00  0.00     0.073 H 
ENDROOT
BRANCH   1   4
ATOM      4  O   UNL     1     -46.479  36.014  25.970  1.00  0.00    -0.491 OA
BRANCH   4   5
ATOM      5  C   UNL     1     -47.165  34.831  25.898  1.00  0.00     0.121 A 
ATOM      6  C   UNL     1     -47.032  30.417  24.132  1.00  0.00     0.126 A 
ATOM      7  C   UNL     1     -48.270  30.104  24.674  1.00  0.00    -0.019 A 
ATOM      8  N   UNL     1     -46.456  31.622  24.297  1.00  0.00    -0.231 NA
ATOM      9  C   UNL     1     -48.949  31.073  25.405  1.00  0.00    -0.049 A 
ATOM     10  H   UNL     1     -48.695  29.115  24.553  1.00  0.00     0.066 H 
ATOM     11  C   UNL     1     -47.105  32.563  25.010  1.00  0.00     0.076 A 
ATOM     12  C   UNL     1     -48.369  32.333  25.586  1.00  0.00     0.001 A 
ATOM     13  H   UNL     1     -49.917  30.836  25.838  1.00  0.00     0.063 H 
ATOM     14  C   UNL     1     -46.526  33.812  25.186  1.00  0.00     0.007 A 
ATOM     15  C   UNL     1     -49.009  33.342  26.323  1.00  0.00    -0.049 A 
ATOM     16  H   UNL     1     -45.551  34.002  24.743  1.00  0.00     0.069 H 
ATOM     17  C   UNL     1     -48.403  34.588  26.484  1.00  0.00    -0.019 A 
ATOM     18  H   UNL     1     -49.981  33.163  26.779  1.00  0.00     0.063 H 
ATOM     19  H   UNL     1     -48.915  35.344  27.073  1.00  0.00     0.066 H 
BRANCH   6  20
ATOM     20  N   UNL     1     -46.284  29.491  23.404  1.00  0.00    -0.373 N 
ATOM     21  H   UNL     1     -45.607  29.138  24.082  1.00  0.00     0.161 HD
BRANCH  20  22
ATOM     22  C   UNL     1     -45.624  30.039  22.232  1.00  0.00     0.005 C 
ATOM     23  H   UNL     1     -45.727  29.334  21.402  1.00  0.00     0.045 H 
ATOM     24  H   UNL     1     -46.074  30.984  21.915  1.00  0.00     0.045 H 
ATOM     25  H   UNL     1     -44.553  30.190  22.410  1.00  0.00     0.045 H 
ENDBRANCH  20  22
ENDBRANCH   6  20
ENDBRANCH   4   5
ENDBRANCH   1   4
BRANCH   1  26
ATOM     26  C   UNL     1     -46.013  36.271  28.320  1.00  0.00     0.123 C 
ATOM     27  O   UNL     1     -44.708  36.889  28.425  1.00  0.00    -0.345 OA
ATOM     28  C   UNL     1     -46.680  36.586  29.656  1.00  0.00     0.119 C 
ATOM     29  H   UNL     1     -45.845  35.198  28.186  1.00  0.00     0.067 H 
ATOM     30  C   UNL     1     -44.810  38.012  29.344  1.00  0.00     0.169 C 
ATOM     31  C   UNL     1     -46.227  38.005  29.923  1.00  0.00     0.173 C 
ATOM     32  H   UNL     1     -47.769  36.489  29.614  1.00  0.00     0.066 H 
ATOM     33  H   UNL     1     -44.063  37.828  30.124  1.00  0.00     0.088 H 
ATOM     34  F   UNL     1     -47.055  38.842  29.238  1.00  0.00    -0.239 F 
ATOM     35  H   UNL     1     -46.246  38.294  30.978  1.00  0.00     0.074 H 
BRANCH  28  36
ATOM     36  O   UNL     1     -46.203  35.714  30.690  1.00  0.00    -0.387 OA
ATOM     37  H   UNL     1     -46.257  36.182  31.545  1.00  0.00     0.211 HD
ENDBRANCH  28  36
BRANCH  30  38
ATOM     38  N   UNL     1     -44.438  39.245  28.670  1.00  0.00    -0.302 N 
ATOM     39  C   UNL     1     -45.053  39.811  27.583  1.00  0.00     0.017 A 
ATOM     40  C   UNL     1     -43.386  40.035  29.061  1.00  0.00     0.148 A 
ATOM     41  C   UNL     1     -44.434  41.014  27.316  1.00  0.00     0.008 A 
ATOM     42  H   UNL     1     -45.897  39.330  27.105  1.00  0.00     0.083 H 
ATOM     43  C   UNL     1     -43.357  41.160  28.244  1.00  0.00     0.069 A 
ATOM     44  N   UNL     1     -42.549  39.752  30.075  1.00  0.00    -0.218 NA
ATOM     45  C   UNL     1     -42.339  42.092  28.510  1.00  0.00     0.136 A 
ATOM     46  C   UNL     1     -41.626  40.715  30.230  1.00  0.00     0.120 A 
ATOM     47  N   UNL     1     -41.472  41.844  29.514  1.00  0.00    -0.219 NA
ATOM     48  H   UNL     1     -40.911  40.564  31.032  1.00  0.00     0.106 H 
BRANCH  41  49
ATOM     49  C   UNL     1     -44.865  41.913  26.292  1.00  0.00    -0.040 C 
ATOM     50  C   UNL     1     -46.083  42.482  26.263  1.00  0.00    -0.067 C 
ATOM     51  C   UNL     1     -43.868  42.185  25.192  1.00  0.00    -0.015 C 
ATOM     52  C   UNL     1     -46.522  43.431  25.188  1.00  0.00     0.017 C 
ATOM     53  H   UNL     1     -46.810  42.258  27.040  1.00  0.00     0.059 H 
ATOM     54  C   UNL     1     -44.512  42.871  23.975  1.00  0.00     0.002 C 
ATOM     55  H   UNL     1     -43.073  42.829  25.593  1.00  0.00     0.033 H 
ATOM     56  H   UNL     1     -43.392  41.261  24.841  1.00  0.00     0.033 H 
ATOM     57  N   UNL     1     -45.405  43.963  24.392  1.00  0.00    -0.302 NA
ATOM     58  H   UNL     1     -47.040  44.271  25.666  1.00  0.00     0.048 H 
ATOM     59  H   UNL     1     -47.252  42.911  24.555  1.00  0.00     0.048 H 
ATOM     60  H   UNL     1     -43.707  43.260  23.340  1.00  0.00     0.043 H 
ATOM     61  H   UNL     1     -45.061  42.131  23.381  1.00  0.00     0.043 H 
BRANCH  57  62
ATOM     62  C   UNL     1     -45.909  44.695  23.233  1.00  0.00    -0.013 C 
ATOM     63  H   UNL     1     -45.106  45.006  22.555  1.00  0.00     0.039 H 
ATOM     64  H   UNL     1     -46.619  44.080  22.669  1.00  0.00     0.039 H 
ATOM     65  H   UNL     1     -46.455  45.590  23.553  1.00  0.00     0.039 H 
ENDBRANCH  57  62
ENDBRANCH  41  49
BRANCH  45  66
ATOM     66  N   UNL     1     -42.138  43.260  27.787  1.00  0.00    -0.383 N 
ATOM     67  H   UNL     1     -42.937  43.463  27.199  1.00  0.00     0.158 HD
ATOM     68  H   UNL     1     -41.769  44.029  28.332  1.00  0.00     0.158 HD
ENDBRANCH  45  66
ENDBRANCH  30  38
ENDBRANCH   1  26
TORSDOF 10
ENDMDL
MODEL 2
REMARK VINA RESULT:      -9.4      3.673      8.144
REMARK SMILES CNc1ccc2ccc(OC[C@H]3O[C@@H](n4cc(C5=CCN(C)CC5)c5c(N)ncnc54)[C@@H](F)[C@@H]3O)cc2n1
REMARK SMILES IDX 11 1 10 4 9 5 3 6 4 7 38 8 5 9 37 11 6 12 36 14 7 15 8 17
REMARK SMILES IDX 2 20 1 22 12 26 13 27 34 28 14 30 32 31 33 34 35 36 15 38
REMARK SMILES IDX 16 39 31 40 17 41 25 43 30 44 26 45 29 46 28 47 18 49 19 50
REMARK SMILES IDX 24 51 20 52 23 54 21 57 22 62 27 66
REMARK H PARENT 11 2 11 3 4 10 5 13 36 16 7 18 8 19 2 21 1 23 1 24 1 25 12 29
REMARK H PARENT 34 32 14 33 32 35 35 37 16 42 29 48 19 53 24 55 24 56 20 58
REMARK H PARENT 20 59 23 60 23 61 22 63 22 64 22 65 27 67 27 68
REMARK Flexibility Score: inf
ROOT
ATOM      1  C   UNL     1     -44.949  37.494  27.797  1.00  0.00     0.117 C 
ATOM      2  H   UNL     1     -45.592  37.638  26.924  1.00  0.00     0.073 H 
ATOM      3  H   UNL     1     -43.913  37.339  27.473  1.00  0.00     0.073 H 
ENDROOT
BRANCH   1   4
ATOM      4  O   UNL     1     -44.990  38.655  28.640  1.00  0.00    -0.491 OA
BRANCH   4   5
ATOM      5  C   UNL     1     -44.278  39.740  28.203  1.00  0.00     0.121 A 
ATOM      6  C   UNL     1     -43.748  42.778  24.582  1.00  0.00     0.126 A 
ATOM      7  C   UNL     1     -42.718  43.449  25.224  1.00  0.00    -0.019 A 
ATOM      8  N   UNL     1     -44.383  41.729  25.138  1.00  0.00    -0.231 NA
ATOM      9  C   UNL     1     -42.316  43.017  26.484  1.00  0.00    -0.049 A 
ATOM     10  H   UNL     1     -42.247  44.311  24.768  1.00  0.00     0.066 H 
ATOM     11  C   UNL     1     -44.003  41.311  26.361  1.00  0.00     0.076 A 
ATOM     12  C   UNL     1     -42.961  41.928  27.078  1.00  0.00     0.001 A 
ATOM     13  H   UNL     1     -41.514  43.540  26.997  1.00  0.00     0.063 H 
ATOM     14  C   UNL     1     -44.646  40.229  26.946  1.00  0.00     0.007 A 
ATOM     15  C   UNL     1     -42.599  41.460  28.351  1.00  0.00    -0.049 A 
ATOM     16  H   UNL     1     -45.450  39.742  26.400  1.00  0.00     0.069 H 
ATOM     17  C   UNL     1     -43.263  40.370  28.916  1.00  0.00    -0.019 A 
ATOM     18  H   UNL     1     -41.802  41.942  28.913  1.00  0.00     0.063 H 
ATOM     19  H   UNL     1     -42.972  40.040  29.908  1.00  0.00     0.066 H 
BRANCH   6  20
ATOM     20  N   UNL     1     -44.218  43.166  23.327  1.00  0.00    -0.373 N 
ATOM     21  H   UNL     1     -43.895  42.423  22.706  1.00  0.00     0.161 HD
BRANCH  20  22
ATOM     22  C   UNL     1     -43.749  44.467  22.885  1.00  0.00     0.005 C 
ATOM     23  H   UNL     1     -43.744  45.153  23.738  1.00  0.00     0.045 H 
ATOM     24  H   UNL     1     -42.728  44.422  22.496  1.00  0.00     0.045 H 
ATOM     25  H   UNL     1     -44.410  44.892  22.121  1.00  0.00     0.045 H 
ENDBRANCH  20  22
ENDBRANCH   6  20
ENDBRANCH   4   5
ENDBRANCH   1   4
BRANCH   1  26
ATOM     26  C   UNL     1     -45.433  36.287  28.620  1.00  0.00     0.123 C 
ATOM     27  O   UNL     1     -46.594  36.656  29.404  1.00  0.00    -0.345 OA
ATOM     28  C   UNL     1     -45.920  35.122  27.764  1.00  0.00     0.119 C 
ATOM     29  H   UNL     1     -44.657  35.982  29.329  1.00  0.00     0.067 H 
ATOM     30  C   UNL     1     -47.784  36.291  28.651  1.00  0.00     0.169 C 
ATOM     31  C   UNL     1     -47.324  35.551  27.393  1.00  0.00     0.173 C 
ATOM     32  H   UNL     1     -45.285  34.949  26.891  1.00  0.00     0.066 H 
ATOM     33  H   UNL     1     -48.362  35.632  29.308  1.00  0.00     0.088 H 
ATOM     34  F   UNL     1     -47.234  36.386  26.321  1.00  0.00    -0.239 F 
ATOM     35  H   UNL     1     -47.992  34.726  27.128  1.00  0.00     0.074 H 
BRANCH  28  36
ATOM     36  O   UNL     1     -45.962  33.905  28.522  1.00  0.00    -0.387 OA
ATOM     37  H   UNL     1     -46.289  34.105  29.419  1.00  0.00     0.211 HD
ENDBRANCH  28  36
BRANCH  30  38
ATOM     38  N   UNL     1     -48.595  37.470  28.396  1.00  0.00    -0.302 N 
ATOM     39  C   UNL     1     -48.207  38.781  28.506  1.00  0.00     0.017 A 
ATOM     40  C   UNL     1     -49.904  37.416  27.986  1.00  0.00     0.148 A 
ATOM     41  C   UNL     1     -49.255  39.576  28.094  1.00  0.00     0.008 A 
ATOM     42  H   UNL     1     -47.210  39.042  28.840  1.00  0.00     0.083 H 
ATOM     43  C   UNL     1     -50.350  38.716  27.775  1.00  0.00     0.069 A 
ATOM     44  N   UNL     1     -50.607  36.283  27.813  1.00  0.00    -0.218 NA
ATOM     45  C   UNL     1     -51.680  38.851  27.339  1.00  0.00     0.136 A 
ATOM     46  C   UNL     1     -51.857  36.543  27.396  1.00  0.00     0.120 A 
ATOM     47  N   UNL     1     -52.425  37.739  27.160  1.00  0.00    -0.219 NA
ATOM     48  H   UNL     1     -52.493  35.678  27.229  1.00  0.00     0.106 H 
BRANCH  41  49
ATOM     49  C   UNL     1     -49.177  41.000  28.004  1.00  0.00    -0.040 C 
ATOM     50  C   UNL     1     -49.878  41.836  28.790  1.00  0.00    -0.067 C 
ATOM     51  C   UNL     1     -48.260  41.544  26.935  1.00  0.00    -0.015 C 
ATOM     52  C   UNL     1     -49.783  43.330  28.693  1.00  0.00     0.017 C 
ATOM     53  H   UNL     1     -50.563  41.441  29.536  1.00  0.00     0.059 H 
ATOM     54  C   UNL     1     -48.488  43.044  26.676  1.00  0.00     0.002 C 
ATOM     55  H   UNL     1     -47.221  41.386  27.253  1.00  0.00     0.033 H 
ATOM     56  H   UNL     1     -48.393  41.017  25.983  1.00  0.00     0.033 H 
ATOM     57  N   UNL     1     -48.606  43.789  27.939  1.00  0.00    -0.302 NA
ATOM     58  H   UNL     1     -49.724  43.734  29.711  1.00  0.00     0.048 H 
ATOM     59  H   UNL     1     -50.714  43.700  28.245  1.00  0.00     0.048 H 
ATOM     60  H   UNL     1     -47.640  43.419  26.092  1.00  0.00     0.043 H 
ATOM     61  H   UNL     1     -49.387  43.180  26.065  1.00  0.00     0.043 H 
BRANCH  57  62
ATOM     62  C   UNL     1     -48.689  45.225  27.691  1.00  0.00    -0.013 C 
ATOM     63  H   UNL     1     -47.732  45.648  27.364  1.00  0.00     0.039 H 
ATOM     64  H   UNL     1     -49.441  45.440  26.923  1.00  0.00     0.039 H 
ATOM     65  H   UNL     1     -49.006  45.754  28.597  1.00  0.00     0.039 H 
ENDBRANCH  57  62
ENDBRANCH  41  49
BRANCH  45  66
ATOM     66  N   UNL     1     -52.305  40.066  27.099  1.00  0.00    -0.383 N 
ATOM     67  H   UNL     1     -52.078  40.739  27.821  1.00  0.00     0.158 HD
ATOM     68  H   UNL     1     -52.237  40.387  26.141  1.00  0.00     0.158 HD
ENDBRANCH  45  66
ENDBRANCH  30  38
ENDBRANCH   1  26
TORSDOF 10
ENDMDL
MODEL 3
REMARK VINA RESULT:      -8.8      3.787      6.313
REMARK SMILES CNc1ccc2ccc(OC[C@H]3O[C@@H](n4cc(C5=CCN(C)CC5)c5c(N)ncnc54)[C@@H](F)[C@@H]3O)cc2n1
REMARK SMILES IDX 11 1 10 4 9 5 3 6 4 7 38 8 5 9 37 11 6 12 36 14 7 15 8 17
REMARK SMILES IDX 2 20 1 22 12 26 13 27 34 28 14 30 32 31 33 34 35 36 15 38
REMARK SMILES IDX 16 39 31 40 17 41 25 43 30 44 26 45 29 46 28 47 18 49 19 50
REMARK SMILES IDX 24 51 20 52 23 54 21 57 22 62 27 66
REMARK H PARENT 11 2 11 3 4 10 5 13 36 16 7 18 8 19 2 21 1 23 1 24 1 25 12 29
REMARK H PARENT 34 32 14 33 32 35 35 37 16 42 29 48 19 53 24 55 24 56 20 58
REMARK H PARENT 20 59 23 60 23 61 22 63 22 64 22 65 27 67 27 68
REMARK Flexibility Score: inf
ROOT
ATOM      1  C   UNL     1     -47.705  37.588  27.385  1.00  0.00     0.117 C 
ATOM      2  H   UNL     1     -47.699  37.446  26.300  1.00  0.00     0.073 H 
ATOM      3  H   UNL     1     -47.444  38.626  27.624  1.00  0.00     0.073 H 
ENDROOT
BRANCH   1   4
ATOM      4  O   UNL     1     -49.012  37.317  27.914  1.00  0.00    -0.491 OA
BRANCH   4   5
ATOM      5  C   UNL     1     -49.822  38.405  28.100  1.00  0.00     0.121 A 
ATOM      6  C   UNL     1     -49.833  43.119  28.734  1.00  0.00     0.126 A 
ATOM      7  C   UNL     1     -51.216  43.157  28.830  1.00  0.00    -0.019 A 
ATOM      8  N   UNL     1     -49.156  41.974  28.527  1.00  0.00    -0.231 NA
ATOM      9  C   UNL     1     -51.933  41.970  28.721  1.00  0.00    -0.049 A 
ATOM     10  H   UNL     1     -51.738  44.098  28.963  1.00  0.00     0.066 H 
ATOM     11  C   UNL     1     -49.844  40.821  28.414  1.00  0.00     0.076 A 
ATOM     12  C   UNL     1     -51.248  40.769  28.508  1.00  0.00     0.001 A 
ATOM     13  H   UNL     1     -53.016  41.991  28.789  1.00  0.00     0.063 H 
ATOM     14  C   UNL     1     -49.160  39.632  28.203  1.00  0.00     0.007 A 
ATOM     15  C   UNL     1     -51.924  39.545  28.382  1.00  0.00    -0.049 A 
ATOM     16  H   UNL     1     -48.075  39.660  28.132  1.00  0.00     0.069 H 
ATOM     17  C   UNL     1     -51.210  38.364  28.171  1.00  0.00    -0.019 A 
ATOM     18  H   UNL     1     -53.010  39.503  28.443  1.00  0.00     0.063 H 
ATOM     19  H   UNL     1     -51.762  37.436  28.061  1.00  0.00     0.066 H 
BRANCH   6  20
ATOM     20  N   UNL     1     -49.051  44.271  28.814  1.00  0.00    -0.373 N 
ATOM     21  H   UNL     1     -49.608  44.904  29.387  1.00  0.00     0.161 HD
BRANCH  20  22
ATOM     22  C   UNL     1     -48.725  44.867  27.530  1.00  0.00     0.005 C 
ATOM     23  H   UNL     1     -47.647  44.783  27.361  1.00  0.00     0.045 H 
ATOM     24  H   UNL     1     -49.226  44.354  26.703  1.00  0.00     0.045 H 
ATOM     25  H   UNL     1     -48.984  45.931  27.505  1.00  0.00     0.045 H 
ENDBRANCH  20  22
ENDBRANCH   6  20
ENDBRANCH   4   5
ENDBRANCH   1   4
BRANCH   1  26
ATOM     26  C   UNL     1     -46.709  36.624  28.052  1.00  0.00     0.123 C 
ATOM     27  O   UNL     1     -45.352  37.008  27.724  1.00  0.00    -0.345 OA
ATOM     28  C   UNL     1     -46.747  36.668  29.577  1.00  0.00     0.119 C 
ATOM     29  H   UNL     1     -46.852  35.610  27.665  1.00  0.00     0.067 H 
ATOM     30  C   UNL     1     -44.849  37.856  28.794  1.00  0.00     0.169 C 
ATOM     31  C   UNL     1     -45.915  37.892  29.892  1.00  0.00     0.173 C 
ATOM     32  H   UNL     1     -47.766  36.735  29.968  1.00  0.00     0.066 H 
ATOM     33  H   UNL     1     -43.931  37.374  29.150  1.00  0.00     0.088 H 
ATOM     34  F   UNL     1     -46.721  38.984  29.774  1.00  0.00    -0.239 F 
ATOM     35  H   UNL     1     -45.478  37.895  30.895  1.00  0.00     0.074 H 
BRANCH  28  36
ATOM     36  O   UNL     1     -46.137  35.500  30.143  1.00  0.00    -0.387 OA
ATOM     37  H   UNL     1     -45.355  35.264  29.610  1.00  0.00     0.211 HD
ENDBRANCH  28  36
BRANCH  30  38
ATOM     38  N   UNL     1     -44.478  39.159  28.267  1.00  0.00    -0.302 N 
ATOM     39  C   UNL     1     -45.009  39.789  27.171  1.00  0.00     0.017 A 
ATOM     40  C   UNL     1     -43.517  39.959  28.831  1.00  0.00     0.148 A 
ATOM     41  C   UNL     1     -44.433  41.038  27.071  1.00  0.00     0.008 A 
ATOM     42  H   UNL     1     -45.772  39.313  26.568  1.00  0.00     0.083 H 
ATOM     43  C   UNL     1     -43.466  41.152  28.118  1.00  0.00     0.069 A 
ATOM     44  N   UNL     1     -42.774  39.627  29.902  1.00  0.00    -0.218 NA
ATOM     45  C   UNL     1     -42.533  42.103  28.566  1.00  0.00     0.136 A 
ATOM     46  C   UNL     1     -41.925  40.614  30.233  1.00  0.00     0.120 A 
ATOM     47  N   UNL     1     -41.761  41.807  29.633  1.00  0.00    -0.219 NA
ATOM     48  H   UNL     1     -41.288  40.427  31.092  1.00  0.00     0.106 H 
BRANCH  41  49
ATOM     49  C   UNL     1     -44.805  42.002  26.085  1.00  0.00    -0.040 C 
ATOM     50  C   UNL     1     -45.981  42.654  26.086  1.00  0.00    -0.067 C 
ATOM     51  C   UNL     1     -43.797  42.246  24.988  1.00  0.00    -0.015 C 
ATOM     52  C   UNL     1     -46.359  43.671  25.050  1.00  0.00     0.017 C 
ATOM     53  H   UNL     1     -46.718  42.452  26.860  1.00  0.00     0.059 H 
ATOM     54  C   UNL     1     -44.398  43.019  23.802  1.00  0.00     0.002 C 
ATOM     55  H   UNL     1     -42.958  42.818  25.406  1.00  0.00     0.033 H 
ATOM     56  H   UNL     1     -43.388  41.305  24.600  1.00  0.00     0.033 H 
ATOM     57  N   UNL     1     -45.212  44.154  24.266  1.00  0.00    -0.302 NA
ATOM     58  H   UNL     1     -46.815  44.526  25.563  1.00  0.00     0.048 H 
ATOM     59  H   UNL     1     -47.126  43.226  24.404  1.00  0.00     0.048 H 
ATOM     60  H   UNL     1     -43.572  43.376  23.176  1.00  0.00     0.043 H 
ATOM     61  H   UNL     1     -45.001  42.342  23.186  1.00  0.00     0.043 H 
BRANCH  57  62
ATOM     62  C   UNL     1     -45.670  44.962  23.139  1.00  0.00    -0.013 C 
ATOM     63  H   UNL     1     -45.285  44.596  22.181  1.00  0.00     0.039 H 
ATOM     64  H   UNL     1     -46.765  44.970  23.091  1.00  0.00     0.039 H 
ATOM     65  H   UNL     1     -45.354  46.005  23.261  1.00  0.00     0.039 H 
ENDBRANCH  57  62
ENDBRANCH  41  49
BRANCH  45  66
ATOM     66  N   UNL     1     -42.324  43.337  27.968  1.00  0.00    -0.383 N 
ATOM     67  H   UNL     1     -42.626  44.089  28.575  1.00  0.00     0.158 HD
ATOM     68  H   UNL     1     -41.416  43.441  27.534  1.00  0.00     0.158 HD
ENDBRANCH  45  66
ENDBRANCH  30  38
ENDBRANCH   1  26
TORSDOF 10
ENDMDL
MODEL 4
REMARK VINA RESULT:      -8.6      3.933      7.523
REMARK SMILES CNc1ccc2ccc(OC[C@H]3O[C@@H](n4cc(C5=CCN(C)CC5)c5c(N)ncnc54)[C@@H](F)[C@@H]3O)cc2n1
REMARK SMILES IDX 11 1 10 4 9 5 3 6 4 7 38 8 5 9 37 11 6 12 36 14 7 15 8 17
REMARK SMILES IDX 2 20 1 22 12 26 13 27 34 28 14 30 32 31 33 34 35 36 15 38
REMARK SMILES IDX 16 39 31 40 17 41 25 43 30 44 26 45 29 46 28 47 18 49 19 50
REMARK SMILES IDX 24 51 20 52 23 54 21 57 22 62 27 66
REMARK H PARENT 11 2 11 3 4 10 5 13 36 16 7 18 8 19 2 21 1 23 1 24 1 25 12 29
REMARK H PARENT 34 32 14 33 32 35 35 37 16 42 29 48 19 53 24 55 24 56 20 58
REMARK H PARENT 20 59 23 60 23 61 22 63 22 64 22 65 27 67 27 68
REMARK Flexibility Score: inf
ROOT
ATOM      1  C   UNL     1     -46.616  43.738  25.342  1.00  0.00     0.117 C 
ATOM      2  H   UNL     1     -46.435  42.736  24.941  1.00  0.00     0.073 H 
ATOM      3  H   UNL     1     -47.347  44.262  24.715  1.00  0.00     0.073 H 
ENDROOT
BRANCH   1   4
ATOM      4  O   UNL     1     -47.143  43.650  26.674  1.00  0.00    -0.491 OA
BRANCH   4   5
ATOM      5  C   UNL     1     -48.363  43.041  26.798  1.00  0.00     0.121 A 
ATOM      6  C   UNL     1     -50.530  39.020  28.123  1.00  0.00     0.126 A 
ATOM      7  C   UNL     1     -51.782  39.525  27.802  1.00  0.00    -0.019 A 
ATOM      8  N   UNL     1     -49.403  39.739  27.971  1.00  0.00    -0.231 NA
ATOM      9  C   UNL     1     -51.878  40.816  27.293  1.00  0.00    -0.049 A 
ATOM     10  H   UNL     1     -52.677  38.936  27.967  1.00  0.00     0.066 H 
ATOM     11  C   UNL     1     -49.488  40.992  27.484  1.00  0.00     0.076 A 
ATOM     12  C   UNL     1     -50.717  41.578  27.125  1.00  0.00     0.001 A 
ATOM     13  H   UNL     1     -52.854  41.221  27.045  1.00  0.00     0.063 H 
ATOM     14  C   UNL     1     -48.334  41.744  27.319  1.00  0.00     0.007 A 
ATOM     15  C   UNL     1     -50.761  42.889  26.623  1.00  0.00    -0.049 A 
ATOM     16  H   UNL     1     -47.379  41.301  27.590  1.00  0.00     0.069 H 
ATOM     17  C   UNL     1     -49.584  43.622  26.467  1.00  0.00    -0.019 A 
ATOM     18  H   UNL     1     -51.710  43.348  26.355  1.00  0.00     0.063 H 
ATOM     19  H   UNL     1     -49.650  44.639  26.092  1.00  0.00     0.066 H 
BRANCH   6  20
ATOM     20  N   UNL     1     -50.359  37.742  28.657  1.00  0.00    -0.373 N 
ATOM     21  H   UNL     1     -49.363  37.559  28.532  1.00  0.00     0.161 HD
BRANCH  20  22
ATOM     22  C   UNL     1     -51.169  36.715  28.027  1.00  0.00     0.005 C 
ATOM     23  H   UNL     1     -50.530  36.095  27.392  1.00  0.00     0.045 H 
ATOM     24  H   UNL     1     -51.636  36.054  28.764  1.00  0.00     0.045 H 
ATOM     25  H   UNL     1     -51.946  37.152  27.390  1.00  0.00     0.045 H 
ENDBRANCH  20  22
ENDBRANCH   6  20
ENDBRANCH   4   5
ENDBRANCH   1   4
BRANCH   1  26
ATOM     26  C   UNL     1     -45.300  44.533  25.399  1.00  0.00     0.123 C 
ATOM     27  O   UNL     1     -44.551  44.166  26.583  1.00  0.00    -0.345 OA
ATOM     28  C   UNL     1     -44.349  44.220  24.248  1.00  0.00     0.119 C 
ATOM     29  H   UNL     1     -45.512  45.604  25.479  1.00  0.00     0.067 H 
ATOM     30  C   UNL     1     -43.604  43.124  26.215  1.00  0.00     0.169 C 
ATOM     31  C   UNL     1     -43.697  42.930  24.701  1.00  0.00     0.173 C 
ATOM     32  H   UNL     1     -44.868  44.120  23.291  1.00  0.00     0.066 H 
ATOM     33  H   UNL     1     -42.617  43.502  26.505  1.00  0.00     0.088 H 
ATOM     34  F   UNL     1     -44.535  41.905  24.375  1.00  0.00    -0.239 F 
ATOM     35  H   UNL     1     -42.722  42.733  24.245  1.00  0.00     0.074 H 
BRANCH  28  36
ATOM     36  O   UNL     1     -43.358  45.246  24.102  1.00  0.00    -0.387 OA
ATOM     37  H   UNL     1     -43.094  45.557  24.989  1.00  0.00     0.211 HD
ENDBRANCH  28  36
BRANCH  30  38
ATOM     38  N   UNL     1     -43.854  41.923  26.996  1.00  0.00    -0.302 N 
ATOM     39  C   UNL     1     -44.788  40.951  26.741  1.00  0.00     0.017 A 
ATOM     40  C   UNL     1     -43.150  41.594  28.127  1.00  0.00     0.148 A 
ATOM     41  C   UNL     1     -44.634  39.951  27.678  1.00  0.00     0.008 A 
ATOM     42  H   UNL     1     -45.465  41.034  25.901  1.00  0.00     0.083 H 
ATOM     43  C   UNL     1     -43.601  40.358  28.579  1.00  0.00     0.069 A 
ATOM     44  N   UNL     1     -42.183  42.350  28.676  1.00  0.00    -0.218 NA
ATOM     45  C   UNL     1     -42.979  39.857  29.735  1.00  0.00     0.136 A 
ATOM     46  C   UNL     1     -41.667  41.764  29.769  1.00  0.00     0.120 A 
ATOM     47  N   UNL     1     -42.008  40.587  30.323  1.00  0.00    -0.219 NA
ATOM     48  H   UNL     1     -40.875  42.311  30.273  1.00  0.00     0.106 H 
BRANCH  41  49
ATOM     49  C   UNL     1     -45.393  38.740  27.671  1.00  0.00    -0.040 C 
ATOM     50  C   UNL     1     -45.189  37.728  28.532  1.00  0.00    -0.067 C 
ATOM     51  C   UNL     1     -46.453  38.633  26.601  1.00  0.00    -0.015 C 
ATOM     52  C   UNL     1     -45.997  36.464  28.521  1.00  0.00     0.017 C 
ATOM     53  H   UNL     1     -44.402  37.795  29.280  1.00  0.00     0.059 H 
ATOM     54  C   UNL     1     -46.979  37.197  26.442  1.00  0.00     0.002 C 
ATOM     55  H   UNL     1     -47.286  39.297  26.869  1.00  0.00     0.033 H 
ATOM     56  H   UNL     1     -46.076  38.961  25.626  1.00  0.00     0.033 H 
ATOM     57  N   UNL     1     -47.245  36.580  27.751  1.00  0.00    -0.302 NA
ATOM     58  H   UNL     1     -46.250  36.213  29.558  1.00  0.00     0.048 H 
ATOM     59  H   UNL     1     -45.360  35.659  28.132  1.00  0.00     0.048 H 
ATOM     60  H   UNL     1     -47.900  37.238  25.848  1.00  0.00     0.043 H 
ATOM     61  H   UNL     1     -46.256  36.599  25.875  1.00  0.00     0.043 H 
BRANCH  57  62
ATOM     62  C   UNL     1     -47.868  35.269  27.592  1.00  0.00    -0.013 C 
ATOM     63  H   UNL     1     -47.216  34.454  27.927  1.00  0.00     0.039 H 
ATOM     64  H   UNL     1     -48.805  35.217  28.158  1.00  0.00     0.039 H 
ATOM     65  H   UNL     1     -48.127  35.092  26.541  1.00  0.00     0.039 H 
ENDBRANCH  57  62
ENDBRANCH  41  49
BRANCH  45  66
ATOM     66  N   UNL     1     -43.311  38.655  30.344  1.00  0.00    -0.383 N 
ATOM     67  H   UNL     1     -43.928  38.808  31.132  1.00  0.00     0.158 HD
ATOM     68  H   UNL     1     -43.573  37.920  29.699  1.00  0.00     0.158 HD
ENDBRANCH  45  66
ENDBRANCH  30  38
ENDBRANCH   1  26
TORSDOF 10
ENDMDL
MODEL 5
REMARK VINA RESULT:      -8.4      3.121      6.103
REMARK SMILES CNc1ccc2ccc(OC[C@H]3O[C@@H](n4cc(C5=CCN(C)CC5)c5c(N)ncnc54)[C@@H](F)[C@@H]3O)cc2n1
REMARK SMILES IDX 11 1 10 4 9 5 3 6 4 7 38 8 5 9 37 11 6 12 36 14 7 15 8 17
REMARK SMILES IDX 2 20 1 22 12 26 13 27 34 28 14 30 32 31 33 34 35 36 15 38
REMARK SMILES IDX 16 39 31 40 17 41 25 43 30 44 26 45 29 46 28 47 18 49 19 50
REMARK SMILES IDX 24 51 20 52 23 54 21 57 22 62 27 66
REMARK H PARENT 11 2 11 3 4 10 5 13 36 16 7 18 8 19 2 21 1 23 1 24 1 25 12 29
REMARK H PARENT 34 32 14 33 32 35 35 37 16 42 29 48 19 53 24 55 24 56 20 58
REMARK H PARENT 20 59 23 60 23 61 22 63 22 64 22 65 27 67 27 68
REMARK Flexibility Score: inf
ROOT
ATOM      1  C   UNL     1     -43.898  40.786  28.428  1.00  0.00     0.117 C 
ATOM      2  H   UNL     1     -44.894  41.156  28.167  1.00  0.00     0.073 H 
ATOM      3  H   UNL     1     -43.487  41.376  29.255  1.00  0.00     0.073 H 
ENDROOT
BRANCH   1   4
ATOM      4  O   UNL     1     -43.973  39.414  28.845  1.00  0.00    -0.491 OA
BRANCH   4   5
ATOM      5  C   UNL     1     -45.068  38.715  28.413  1.00  0.00     0.121 A 
ATOM      6  C   UNL     1     -46.611  34.400  27.140  1.00  0.00     0.126 A 
ATOM      7  C   UNL     1     -47.887  34.875  26.872  1.00  0.00    -0.019 A 
ATOM      8  N   UNL     1     -45.623  35.199  27.583  1.00  0.00    -0.231 NA
ATOM      9  C   UNL     1     -48.154  36.228  27.055  1.00  0.00    -0.049 A 
ATOM     10  H   UNL     1     -48.673  34.204  26.548  1.00  0.00     0.066 H 
ATOM     11  C   UNL     1     -45.876  36.508  27.770  1.00  0.00     0.076 A 
ATOM     12  C   UNL     1     -47.139  37.075  27.513  1.00  0.00     0.001 A 
ATOM     13  H   UNL     1     -49.151  36.608  26.854  1.00  0.00     0.063 H 
ATOM     14  C   UNL     1     -44.866  37.345  28.223  1.00  0.00     0.007 A 
ATOM     15  C   UNL     1     -47.360  38.446  27.723  1.00  0.00    -0.049 A 
ATOM     16  H   UNL     1     -43.886  36.919  28.422  1.00  0.00     0.069 H 
ATOM     17  C   UNL     1     -46.325  39.263  28.180  1.00  0.00    -0.019 A 
ATOM     18  H   UNL     1     -48.338  38.884  27.536  1.00  0.00     0.063 H 
ATOM     19  H   UNL     1     -46.530  40.316  28.349  1.00  0.00     0.066 H 
BRANCH   6  20
ATOM     20  N   UNL     1     -46.275  33.053  26.998  1.00  0.00    -0.373 N 
ATOM     21  H   UNL     1     -45.308  33.077  26.673  1.00  0.00     0.161 HD
BRANCH  20  22
ATOM     22  C   UNL     1     -47.125  32.316  26.080  1.00  0.00     0.005 C 
ATOM     23  H   UNL     1     -47.933  32.970  25.737  1.00  0.00     0.045 H 
ATOM     24  H   UNL     1     -46.576  31.984  25.193  1.00  0.00     0.045 H 
ATOM     25  H   UNL     1     -47.583  31.448  26.567  1.00  0.00     0.045 H 
ENDBRANCH  20  22
ENDBRANCH   6  20
ENDBRANCH   4   5
ENDBRANCH   1   4
BRANCH   1  26
ATOM     26  C   UNL     1     -42.965  40.864  27.207  1.00  0.00     0.123 C 
ATOM     27  O   UNL     1     -43.744  41.034  25.998  1.00  0.00    -0.345 OA
ATOM     28  C   UNL     1     -42.041  42.078  27.223  1.00  0.00     0.119 C 
ATOM     29  H   UNL     1     -42.412  39.926  27.097  1.00  0.00     0.067 H 
ATOM     30  C   UNL     1     -43.823  42.456  25.704  1.00  0.00     0.169 C 
ATOM     31  C   UNL     1     -42.943  43.186  26.722  1.00  0.00     0.173 C 
ATOM     32  H   UNL     1     -41.633  42.280  28.218  1.00  0.00     0.066 H 
ATOM     33  H   UNL     1     -43.431  42.573  24.688  1.00  0.00     0.088 H 
ATOM     34  F   UNL     1     -43.669  43.642  27.781  1.00  0.00    -0.239 F 
ATOM     35  H   UNL     1     -42.412  44.034  26.280  1.00  0.00     0.074 H 
BRANCH  28  36
ATOM     36  O   UNL     1     -40.936  41.899  26.326  1.00  0.00    -0.387 OA
ATOM     37  H   UNL     1     -40.112  41.860  26.846  1.00  0.00     0.211 HD
ENDBRANCH  28  36
BRANCH  30  38
ATOM     38  N   UNL     1     -45.211  42.887  25.687  1.00  0.00    -0.302 N 
ATOM     39  C   UNL     1     -46.240  42.392  26.446  1.00  0.00     0.017 A 
ATOM     40  C   UNL     1     -45.682  43.893  24.881  1.00  0.00     0.148 A 
ATOM     41  C   UNL     1     -47.370  43.136  26.177  1.00  0.00     0.008 A 
ATOM     42  H   UNL     1     -46.082  41.573  27.136  1.00  0.00     0.083 H 
ATOM     43  C   UNL     1     -47.030  44.088  25.166  1.00  0.00     0.069 A 
ATOM     44  N   UNL     1     -44.941  44.569  23.984  1.00  0.00    -0.218 NA
ATOM     45  C   UNL     1     -47.679  45.096  24.432  1.00  0.00     0.136 A 
ATOM     46  C   UNL     1     -45.671  45.502  23.352  1.00  0.00     0.120 A 
ATOM     47  N   UNL     1     -46.974  45.794  23.517  1.00  0.00    -0.219 NA
ATOM     48  H   UNL     1     -45.145  46.097  22.611  1.00  0.00     0.106 H 
BRANCH  41  49
ATOM     49  C   UNL     1     -48.618  42.947  26.847  1.00  0.00    -0.040 C 
ATOM     50  C   UNL     1     -49.194  43.879  27.626  1.00  0.00    -0.067 C 
ATOM     51  C   UNL     1     -49.269  41.598  26.658  1.00  0.00    -0.015 C 
ATOM     52  C   UNL     1     -50.509  43.672  28.319  1.00  0.00     0.017 C 
ATOM     53  H   UNL     1     -48.706  44.837  27.787  1.00  0.00     0.059 H 
ATOM     54  C   UNL     1     -50.406  41.351  27.665  1.00  0.00     0.002 C 
ATOM     55  H   UNL     1     -49.671  41.546  25.637  1.00  0.00     0.033 H 
ATOM     56  H   UNL     1     -48.545  40.782  26.765  1.00  0.00     0.033 H 
ATOM     57  N   UNL     1     -51.273  42.534  27.787  1.00  0.00    -0.302 NA
ATOM     58  H   UNL     1     -51.106  44.583  28.193  1.00  0.00     0.048 H 
ATOM     59  H   UNL     1     -50.310  43.554  29.392  1.00  0.00     0.048 H 
ATOM     60  H   UNL     1     -50.987  40.490  27.315  1.00  0.00     0.043 H 
ATOM     61  H   UNL     1     -49.985  41.082  28.640  1.00  0.00     0.043 H 
BRANCH  57  62
ATOM     62  C   UNL     1     -52.424  42.250  28.640  1.00  0.00    -0.013 C 
ATOM     63  H   UNL     1     -52.128  41.949  29.651  1.00  0.00     0.039 H 
ATOM     64  H   UNL     1     -53.072  43.131  28.717  1.00  0.00     0.039 H 
ATOM     65  H   UNL     1     -53.034  41.449  28.207  1.00  0.00     0.039 H 
ENDBRANCH  57  62
ENDBRANCH  41  49
BRANCH  45  66
ATOM     66  N   UNL     1     -49.023  45.416  24.563  1.00  0.00    -0.383 N 
ATOM     67  H   UNL     1     -49.379  45.121  25.463  1.00  0.00     0.158 HD
ATOM     68  H   UNL     1     -49.257  46.356  24.268  1.00  0.00     0.158 HD
ENDBRANCH  45  66
ENDBRANCH  30  38
ENDBRANCH   1  26
TORSDOF 10
ENDMDL
MODEL 6
REMARK VINA RESULT:      -8.4      1.923      2.645
REMARK SMILES CNc1ccc2ccc(OC[C@H]3O[C@@H](n4cc(C5=CCN(C)CC5)c5c(N)ncnc54)[C@@H](F)[C@@H]3O)cc2n1
REMARK SMILES IDX 11 1 10 4 9 5 3 6 4 7 38 8 5 9 37 11 6 12 36 14 7 15 8 17
REMARK SMILES IDX 2 20 1 22 12 26 13 27 34 28 14 30 32 31 33 34 35 36 15 38
REMARK SMILES IDX 16 39 31 40 17 41 25 43 30 44 26 45 29 46 28 47 18 49 19 50
REMARK SMILES IDX 24 51 20 52 23 54 21 57 22 62 27 66
REMARK H PARENT 11 2 11 3 4 10 5 13 36 16 7 18 8 19 2 21 1 23 1 24 1 25 12 29
REMARK H PARENT 34 32 14 33 32 35 35 37 16 42 29 48 19 53 24 55 24 56 20 58
REMARK H PARENT 20 59 23 60 23 61 22 63 22 64 22 65 27 67 27 68
REMARK Flexibility Score: inf
ROOT
ATOM      1  C   UNL     1     -46.008  35.218  28.156  1.00  0.00     0.117 C 
ATOM      2  H   UNL     1     -45.175  35.526  28.795  1.00  0.00     0.073 H 
ATOM      3  H   UNL     1     -45.854  35.595  27.139  1.00  0.00     0.073 H 
ENDROOT
BRANCH   1   4
ATOM      4  O   UNL     1     -46.087  33.785  28.100  1.00  0.00    -0.491 OA
BRANCH   4   5
ATOM      5  C   UNL     1     -46.449  33.251  26.893  1.00  0.00     0.121 A 
ATOM      6  C   UNL     1     -48.863  29.710  24.830  1.00  0.00     0.126 A 
ATOM      7  C   UNL     1     -48.531  30.152  23.558  1.00  0.00    -0.019 A 
ATOM      8  N   UNL     1     -48.454  30.346  25.944  1.00  0.00    -0.231 NA
ATOM      9  C   UNL     1     -47.738  31.287  23.425  1.00  0.00    -0.049 A 
ATOM     10  H   UNL     1     -48.902  29.640  22.678  1.00  0.00     0.066 H 
ATOM     11  C   UNL     1     -47.691  31.449  25.822  1.00  0.00     0.076 A 
ATOM     12  C   UNL     1     -47.301  31.961  24.569  1.00  0.00     0.001 A 
ATOM     13  H   UNL     1     -47.479  31.644  22.432  1.00  0.00     0.063 H 
ATOM     14  C   UNL     1     -47.260  32.114  26.961  1.00  0.00     0.007 A 
ATOM     15  C   UNL     1     -46.507  33.116  24.489  1.00  0.00    -0.049 A 
ATOM     16  H   UNL     1     -47.552  31.726  27.934  1.00  0.00     0.069 H 
ATOM     17  C   UNL     1     -46.087  33.764  25.651  1.00  0.00    -0.019 A 
ATOM     18  H   UNL     1     -46.214  33.520  23.522  1.00  0.00     0.063 H 
ATOM     19  H   UNL     1     -45.488  34.664  25.557  1.00  0.00     0.066 H 
BRANCH   6  20
ATOM     20  N   UNL     1     -49.670  28.591  25.041  1.00  0.00    -0.373 N 
ATOM     21  H   UNL     1     -50.544  28.984  25.390  1.00  0.00     0.161 HD
BRANCH  20  22
ATOM     22  C   UNL     1     -49.119  27.619  25.969  1.00  0.00     0.005 C 
ATOM     23  H   UNL     1     -49.217  28.004  26.989  1.00  0.00     0.045 H 
ATOM     24  H   UNL     1     -49.654  26.666  25.927  1.00  0.00     0.045 H 
ATOM     25  H   UNL     1     -48.054  27.444  25.780  1.00  0.00     0.045 H 
ENDBRANCH  20  22
ENDBRANCH   6  20
ENDBRANCH   4   5
ENDBRANCH   1   4
BRANCH   1  26
ATOM     26  C   UNL     1     -47.337  35.748  28.723  1.00  0.00     0.123 C 
ATOM     27  O   UNL     1     -47.128  37.034  29.355  1.00  0.00    -0.345 OA
ATOM     28  C   UNL     1     -48.386  36.030  27.651  1.00  0.00     0.119 C 
ATOM     29  H   UNL     1     -47.710  35.072  29.498  1.00  0.00     0.067 H 
ATOM     30  C   UNL     1     -47.427  38.073  28.382  1.00  0.00     0.169 C 
ATOM     31  C   UNL     1     -47.963  37.385  27.125  1.00  0.00     0.173 C 
ATOM     32  H   UNL     1     -48.409  35.261  26.874  1.00  0.00     0.066 H 
ATOM     33  H   UNL     1     -48.194  38.704  28.845  1.00  0.00     0.088 H 
ATOM     34  F   UNL     1     -46.981  37.184  26.202  1.00  0.00    -0.239 F 
ATOM     35  H   UNL     1     -48.767  37.955  26.649  1.00  0.00     0.074 H 
BRANCH  28  36
ATOM     36  O   UNL     1     -49.699  36.113  28.223  1.00  0.00    -0.387 OA
ATOM     37  H   UNL     1     -50.088  35.219  28.248  1.00  0.00     0.211 HD
ENDBRANCH  28  36
BRANCH  30  38
ATOM     38  N   UNL     1     -46.255  38.905  28.163  1.00  0.00    -0.302 N 
ATOM     39  C   UNL     1     -46.051  39.793  27.138  1.00  0.00     0.017 A 
ATOM     40  C   UNL     1     -45.165  38.913  28.997  1.00  0.00     0.148 A 
ATOM     41  C   UNL     1     -44.848  40.431  27.355  1.00  0.00     0.008 A 
ATOM     42  H   UNL     1     -46.788  39.921  26.355  1.00  0.00     0.083 H 
ATOM     43  C   UNL     1     -44.265  39.866  28.531  1.00  0.00     0.069 A 
ATOM     44  N   UNL     1     -45.024  38.133  30.083  1.00  0.00    -0.218 NA
ATOM     45  C   UNL     1     -43.083  40.018  29.276  1.00  0.00     0.136 A 
ATOM     46  C   UNL     1     -43.859  38.372  30.708  1.00  0.00     0.120 A 
ATOM     47  N   UNL     1     -42.896  39.248  30.369  1.00  0.00    -0.219 NA
ATOM     48  H   UNL     1     -43.668  37.783  31.600  1.00  0.00     0.106 H 
BRANCH  41  49
ATOM     49  C   UNL     1     -44.349  41.479  26.521  1.00  0.00    -0.040 C 
ATOM     50  C   UNL     1     -43.940  42.672  26.986  1.00  0.00    -0.067 C 
ATOM     51  C   UNL     1     -44.327  41.187  25.039  1.00  0.00    -0.015 C 
ATOM     52  C   UNL     1     -43.411  43.762  26.103  1.00  0.00     0.017 C 
ATOM     53  H   UNL     1     -43.989  42.890  28.051  1.00  0.00     0.059 H 
ATOM     54  C   UNL     1     -44.110  42.456  24.197  1.00  0.00     0.002 C 
ATOM     55  H   UNL     1     -43.515  40.475  24.837  1.00  0.00     0.033 H 
ATOM     56  H   UNL     1     -45.261  40.720  24.706  1.00  0.00     0.033 H 
ATOM     57  N   UNL     1     -43.037  43.291  24.760  1.00  0.00    -0.302 NA
ATOM     58  H   UNL     1     -42.521  44.187  26.583  1.00  0.00     0.048 H 
ATOM     59  H   UNL     1     -44.169  44.554  26.052  1.00  0.00     0.048 H 
ATOM     60  H   UNL     1     -43.853  42.146  23.177  1.00  0.00     0.043 H 
ATOM     61  H   UNL     1     -45.046  43.024  24.136  1.00  0.00     0.043 H 
BRANCH  57  62
ATOM     62  C   UNL     1     -42.745  44.424  23.886  1.00  0.00    -0.013 C 
ATOM     63  H   UNL     1     -41.724  44.799  24.018  1.00  0.00     0.039 H 
ATOM     64  H   UNL     1     -42.877  44.143  22.835  1.00  0.00     0.039 H 
ATOM     65  H   UNL     1     -43.442  45.248  24.081  1.00  0.00     0.039 H 
ENDBRANCH  57  62
ENDBRANCH  41  49
BRANCH  45  66
ATOM     66  N   UNL     1     -42.061  40.899  28.952  1.00  0.00    -0.383 N 
ATOM     67  H   UNL     1     -42.139  41.755  29.487  1.00  0.00     0.158 HD
ATOM     68  H   UNL     1     -41.144  40.474  28.906  1.00  0.00     0.158 HD
ENDBRANCH  45  66
ENDBRANCH  30  38
ENDBRANCH   1  26
TORSDOF 10
ENDMDL
MODEL 7
REMARK VINA RESULT:      -8.2      2.612      9.759
REMARK SMILES CNc1ccc2ccc(OC[C@H]3O[C@@H](n4cc(C5=CCN(C)CC5)c5c(N)ncnc54)[C@@H](F)[C@@H]3O)cc2n1
REMARK SMILES IDX 11 1 10 4 9 5 3 6 4 7 38 8 5 9 37 11 6 12 36 14 7 15 8 17
REMARK SMILES IDX 2 20 1 22 12 26 13 27 34 28 14 30 32 31 33 34 35 36 15 38
REMARK SMILES IDX 16 39 31 40 17 41 25 43 30 44 26 45 29 46 28 47 18 49 19 50
REMARK SMILES IDX 24 51 20 52 23 54 21 57 22 62 27 66
REMARK H PARENT 11 2 11 3 4 10 5 13 36 16 7 18 8 19 2 21 1 23 1 24 1 25 12 29
REMARK H PARENT 34 32 14 33 32 35 35 37 16 42 29 48 19 53 24 55 24 56 20 58
REMARK H PARENT 20 59 23 60 23 61 22 63 22 64 22 65 27 67 27 68
REMARK Flexibility Score: inf
ROOT
ATOM      1  C   UNL     1     -46.119  39.188  27.306  1.00  0.00     0.117 C 
ATOM      2  H   UNL     1     -46.952  38.664  26.828  1.00  0.00     0.073 H 
ATOM      3  H   UNL     1     -45.170  38.841  26.882  1.00  0.00     0.073 H 
ENDROOT
BRANCH   1   4
ATOM      4  O   UNL     1     -46.226  40.602  27.078  1.00  0.00    -0.491 OA
BRANCH   4   5
ATOM      5  C   UNL     1     -45.081  41.233  26.674  1.00  0.00     0.121 A 
ATOM      6  C   UNL     1     -43.131  43.766  23.151  1.00  0.00     0.126 A 
ATOM      7  C   UNL     1     -41.915  43.850  23.812  1.00  0.00    -0.019 A 
ATOM      8  N   UNL     1     -44.193  43.126  23.675  1.00  0.00    -0.231 NA
ATOM      9  C   UNL     1     -41.780  43.242  25.056  1.00  0.00    -0.049 A 
ATOM     10  H   UNL     1     -41.086  44.400  23.382  1.00  0.00     0.066 H 
ATOM     11  C   UNL     1     -44.072  42.541  24.883  1.00  0.00     0.076 A 
ATOM     12  C   UNL     1     -42.871  42.570  25.617  1.00  0.00     0.001 A 
ATOM     13  H   UNL     1     -40.833  43.308  25.583  1.00  0.00     0.063 H 
ATOM     14  C   UNL     1     -45.157  41.875  25.435  1.00  0.00     0.007 A 
ATOM     15  C   UNL     1     -42.790  41.949  26.873  1.00  0.00    -0.049 A 
ATOM     16  H   UNL     1     -46.089  41.843  24.875  1.00  0.00     0.069 H 
ATOM     17  C   UNL     1     -43.897  41.286  27.404  1.00  0.00    -0.019 A 
ATOM     18  H   UNL     1     -41.866  41.979  27.447  1.00  0.00     0.063 H 
ATOM     19  H   UNL     1     -43.809  40.829  28.384  1.00  0.00     0.066 H 
BRANCH   6  20
ATOM     20  N   UNL     1     -43.346  44.367  21.911  1.00  0.00    -0.373 N 
ATOM     21  H   UNL     1     -42.537  44.977  21.793  1.00  0.00     0.161 HD
BRANCH  20  22
ATOM     22  C   UNL     1     -44.590  45.110  21.810  1.00  0.00     0.005 C 
ATOM     23  H   UNL     1     -45.363  44.458  21.395  1.00  0.00     0.045 H 
ATOM     24  H   UNL     1     -44.941  45.451  22.788  1.00  0.00     0.045 H 
ATOM     25  H   UNL     1     -44.488  45.972  21.142  1.00  0.00     0.045 H 
ENDBRANCH  20  22
ENDBRANCH   6  20
ENDBRANCH   4   5
ENDBRANCH   1   4
BRANCH   1  26
ATOM     26  C   UNL     1     -46.140  38.946  28.825  1.00  0.00     0.123 C 
ATOM     27  O   UNL     1     -47.246  38.078  29.173  1.00  0.00    -0.345 OA
ATOM     28  C   UNL     1     -44.911  38.202  29.341  1.00  0.00     0.119 C 
ATOM     29  H   UNL     1     -46.302  39.890  29.354  1.00  0.00     0.067 H 
ATOM     30  C   UNL     1     -46.752  36.710  29.223  1.00  0.00     0.169 C 
ATOM     31  C   UNL     1     -45.237  36.761  29.013  1.00  0.00     0.173 C 
ATOM     32  H   UNL     1     -43.986  38.546  28.870  1.00  0.00     0.066 H 
ATOM     33  H   UNL     1     -46.999  36.340  30.224  1.00  0.00     0.088 H 
ATOM     34  F   UNL     1     -44.902  36.546  27.709  1.00  0.00    -0.239 F 
ATOM     35  H   UNL     1     -44.707  36.027  29.627  1.00  0.00     0.074 H 
BRANCH  28  36
ATOM     36  O   UNL     1     -44.766  38.363  30.759  1.00  0.00    -0.387 OA
ATOM     37  H   UNL     1     -43.926  37.953  31.037  1.00  0.00     0.211 HD
ENDBRANCH  28  36
BRANCH  30  38
ATOM     38  N   UNL     1     -47.468  35.885  28.266  1.00  0.00    -0.302 N 
ATOM     39  C   UNL     1     -46.952  34.874  27.496  1.00  0.00     0.017 A 
ATOM     40  C   UNL     1     -48.811  36.012  28.010  1.00  0.00     0.148 A 
ATOM     41  C   UNL     1     -47.988  34.299  26.790  1.00  0.00     0.008 A 
ATOM     42  H   UNL     1     -45.899  34.626  27.532  1.00  0.00     0.083 H 
ATOM     43  C   UNL     1     -49.178  35.028  27.098  1.00  0.00     0.069 A 
ATOM     44  N   UNL     1     -49.614  36.934  28.570  1.00  0.00    -0.218 NA
ATOM     45  C   UNL     1     -50.533  35.004  26.725  1.00  0.00     0.136 A 
ATOM     46  C   UNL     1     -50.879  36.807  28.137  1.00  0.00     0.120 A 
ATOM     47  N   UNL     1     -51.373  35.917  27.258  1.00  0.00    -0.219 NA
ATOM     48  H   UNL     1     -51.596  37.513  28.545  1.00  0.00     0.106 H 
BRANCH  41  49
ATOM     49  C   UNL     1     -47.828  33.161  25.940  1.00  0.00    -0.040 C 
ATOM     50  C   UNL     1     -48.594  32.059  26.015  1.00  0.00    -0.067 C 
ATOM     51  C   UNL     1     -46.704  33.244  24.935  1.00  0.00    -0.015 C 
ATOM     52  C   UNL     1     -48.422  30.874  25.112  1.00  0.00     0.017 C 
ATOM     53  H   UNL     1     -49.382  31.991  26.762  1.00  0.00     0.059 H 
ATOM     54  C   UNL     1     -46.380  31.877  24.306  1.00  0.00     0.002 C 
ATOM     55  H   UNL     1     -46.994  33.947  24.143  1.00  0.00     0.033 H 
ATOM     56  H   UNL     1     -45.783  33.628  25.390  1.00  0.00     0.033 H 
ATOM     57  N   UNL     1     -47.609  31.165  23.922  1.00  0.00    -0.302 NA
ATOM     58  H   UNL     1     -49.417  30.550  24.784  1.00  0.00     0.048 H 
ATOM     59  H   UNL     1     -47.988  30.058  25.703  1.00  0.00     0.048 H 
ATOM     60  H   UNL     1     -45.750  32.050  23.426  1.00  0.00     0.043 H 
ATOM     61  H   UNL     1     -45.793  31.276  25.010  1.00  0.00     0.043 H 
BRANCH  57  62
ATOM     62  C   UNL     1     -47.294  29.932  23.207  1.00  0.00    -0.013 C 
ATOM     63  H   UNL     1     -48.147  29.554  22.632  1.00  0.00     0.039 H 
ATOM     64  H   UNL     1     -46.456  30.090  22.517  1.00  0.00     0.039 H 
ATOM     65  H   UNL     1     -46.979  29.151  23.909  1.00  0.00     0.039 H 
ENDBRANCH  57  62
ENDBRANCH  41  49
BRANCH  45  66
ATOM     66  N   UNL     1     -51.078  34.112  25.812  1.00  0.00    -0.383 N 
ATOM     67  H   UNL     1     -51.880  33.636  26.206  1.00  0.00     0.158 HD
ATOM     68  H   UNL     1     -51.186  34.487  24.878  1.00  0.00     0.158 HD
ENDBRANCH  45  66
ENDBRANCH  30  38
ENDBRANCH   1  26
TORSDOF 10
ENDMDL
