MODEL 1
REMARK VINA RESULT:     -11.3      0.000      0.000
REMARK SMILES O=C(NCc1ccc2cc(CN3CCC4(CC4)C3)[nH]c2c1)c1cc(=O)n2ccccc2n1
REMARK SMILES IDX 5 1 6 2 7 3 8 4 9 5 10 6 19 7 20 8 21 9 4 15 3 18 1 19 2 20
REMARK SMILES IDX 22 22 23 23 32 24 24 25 31 27 25 28 26 29 30 30 27 31 29 32
REMARK SMILES IDX 28 34 11 38 12 41 13 42 18 43 14 44 15 47 16 52 17 53
REMARK H PARENT 6 10 7 11 9 12 19 13 21 14 4 16 4 17 3 21 23 26 30 33 27 35
REMARK H PARENT 29 36 28 37 11 39 11 40 13 45 13 46 18 48 18 49 14 50 14 51
REMARK H PARENT 16 54 16 55 17 56 17 57
REMARK Flexibility Score: inf
ROOT
ATOM      1  C   UNL     1     -47.847  34.937  26.563  1.00  0.00    -0.027 A 
ATOM      2  C   UNL     1     -46.606  34.843  25.922  1.00  0.00    -0.057 A 
ATOM      3  C   UNL     1     -46.258  33.707  25.179  1.00  0.00    -0.052 A 
ATOM      4  C   UNL     1     -47.178  32.647  25.069  1.00  0.00    -0.000 A 
ATOM      5  C   UNL     1     -47.163  31.387  24.411  1.00  0.00    -0.032 A 
ATOM      6  C   UNL     1     -48.379  30.770  24.632  1.00  0.00     0.030 A 
ATOM      7  N   UNL     1     -49.111  31.606  25.441  1.00  0.00    -0.357 N 
ATOM      8  C   UNL     1     -48.410  32.760  25.706  1.00  0.00     0.046 A 
ATOM      9  C   UNL     1     -48.775  33.886  26.454  1.00  0.00    -0.033 A 
ATOM     10  H   UNL     1     -45.890  35.658  25.993  1.00  0.00     0.063 H 
ATOM     11  H   UNL     1     -45.291  33.647  24.689  1.00  0.00     0.063 H 
ATOM     12  H   UNL     1     -46.352  30.982  23.822  1.00  0.00     0.065 H 
ATOM     13  H   UNL     1     -50.045  31.418  25.780  1.00  0.00     0.166 HD
ATOM     14  H   UNL     1     -49.749  33.951  26.933  1.00  0.00     0.065 H 
ENDROOT
BRANCH   1  15
ATOM     15  C   UNL     1     -48.218  36.180  27.334  1.00  0.00     0.043 C 
ATOM     16  H   UNL     1     -49.088  36.664  26.877  1.00  0.00     0.054 H 
ATOM     17  H   UNL     1     -48.492  35.923  28.363  1.00  0.00     0.054 H 
BRANCH  15  18
ATOM     18  N   UNL     1     -47.106  37.092  27.398  1.00  0.00    -0.347 N 
ATOM     19  O   UNL     1     -46.247  36.348  29.399  1.00  0.00    -0.268 OA
ATOM     20  C   UNL     1     -46.252  37.149  28.472  1.00  0.00     0.270 C 
ATOM     21  H   UNL     1     -47.081  37.889  26.769  1.00  0.00     0.164 HD
BRANCH  20  22
ATOM     22  C   UNL     1     -45.317  38.332  28.399  1.00  0.00     0.136 A 
ATOM     23  C   UNL     1     -44.505  38.513  29.444  1.00  0.00     0.035 A 
ATOM     24  N   UNL     1     -45.361  39.145  27.288  1.00  0.00    -0.225 NA
ATOM     25  C   UNL     1     -43.585  39.656  29.420  1.00  0.00     0.258 A 
ATOM     26  H   UNL     1     -44.481  37.868  30.312  1.00  0.00     0.071 H 
ATOM     27  C   UNL     1     -44.547  40.156  27.273  1.00  0.00     0.140 A 
ATOM     28  O   UNL     1     -42.832  39.829  30.377  1.00  0.00    -0.269 OA
ATOM     29  N   UNL     1     -43.650  40.460  28.291  1.00  0.00    -0.268 N 
ATOM     30  C   UNL     1     -44.561  41.065  26.092  1.00  0.00    -0.019 A 
ATOM     31  C   UNL     1     -42.809  41.565  28.197  1.00  0.00     0.014 A 
ATOM     32  C   UNL     1     -43.734  42.116  26.047  1.00  0.00    -0.057 A 
ATOM     33  H   UNL     1     -45.258  40.838  25.295  1.00  0.00     0.066 H 
ATOM     34  C   UNL     1     -42.827  42.377  27.133  1.00  0.00    -0.045 A 
ATOM     35  H   UNL     1     -42.133  41.742  29.029  1.00  0.00     0.082 H 
ATOM     36  H   UNL     1     -43.729  42.789  25.196  1.00  0.00     0.062 H 
ATOM     37  H   UNL     1     -42.167  43.236  27.071  1.00  0.00     0.064 H 
ENDBRANCH  20  22
ENDBRANCH  15  18
ENDBRANCH   1  15
BRANCH   6  38
ATOM     38  C   UNL     1     -48.906  29.447  24.185  1.00  0.00     0.039 C 
ATOM     39  H   UNL     1     -48.090  28.867  23.734  1.00  0.00     0.050 H 
ATOM     40  H   UNL     1     -49.617  29.608  23.366  1.00  0.00     0.050 H 
BRANCH  38  41
ATOM     41  N   UNL     1     -49.547  28.622  25.209  1.00  0.00    -0.297 NA
ATOM     42  C   UNL     1     -50.427  27.561  24.709  1.00  0.00    -0.001 C 
ATOM     43  C   UNL     1     -48.619  28.002  26.165  1.00  0.00     0.004 C 
ATOM     44  C   UNL     1     -49.607  26.276  24.727  1.00  0.00    -0.033 C 
ATOM     45  H   UNL     1     -50.868  27.768  23.729  1.00  0.00     0.043 H 
ATOM     46  H   UNL     1     -51.263  27.460  25.412  1.00  0.00     0.043 H 
ATOM     47  C   UNL     1     -48.574  26.544  25.780  1.00  0.00    -0.016 C 
ATOM     48  H   UNL     1     -49.045  28.100  27.170  1.00  0.00     0.044 H 
ATOM     49  H   UNL     1     -47.631  28.474  26.183  1.00  0.00     0.044 H 
ATOM     50  H   UNL     1     -49.132  26.096  23.757  1.00  0.00     0.029 H 
ATOM     51  H   UNL     1     -50.237  25.414  24.967  1.00  0.00     0.029 H 
ATOM     52  C   UNL     1     -48.250  25.491  26.817  1.00  0.00    -0.046 C 
ATOM     53  C   UNL     1     -47.254  25.803  25.741  1.00  0.00    -0.046 C 
ATOM     54  H   UNL     1     -48.765  24.538  26.769  1.00  0.00     0.027 H 
ATOM     55  H   UNL     1     -48.021  25.814  27.828  1.00  0.00     0.027 H 
ATOM     56  H   UNL     1     -46.352  26.337  26.020  1.00  0.00     0.027 H 
ATOM     57  H   UNL     1     -47.101  25.072  24.956  1.00  0.00     0.027 H 
ENDBRANCH  38  41
ENDBRANCH   6  38
TORSDOF 5
ENDMDL
MODEL 2
REMARK VINA RESULT:     -10.8      1.962      3.298
REMARK SMILES O=C(NCc1ccc2cc(CN3CCC4(CC4)C3)[nH]c2c1)c1cc(=O)n2ccccc2n1
REMARK SMILES IDX 5 1 6 2 7 3 8 4 9 5 10 6 19 7 20 8 21 9 4 15 3 18 1 19 2 20
REMARK SMILES IDX 22 22 23 23 32 24 24 25 31 27 25 28 26 29 30 30 27 31 29 32
REMARK SMILES IDX 28 34 11 38 12 41 13 42 18 43 14 44 15 47 16 52 17 53
REMARK H PARENT 6 10 7 11 9 12 19 13 21 14 4 16 4 17 3 21 23 26 30 33 27 35
REMARK H PARENT 29 36 28 37 11 39 11 40 13 45 13 46 18 48 18 49 14 50 14 51
REMARK H PARENT 16 54 16 55 17 56 17 57
REMARK Flexibility Score: inf
ROOT
ATOM      1  C   UNL     1     -47.894  34.696  26.477  1.00  0.00    -0.027 A 
ATOM      2  C   UNL     1     -46.672  34.653  25.796  1.00  0.00    -0.057 A 
ATOM      3  C   UNL     1     -46.314  33.543  25.018  1.00  0.00    -0.052 A 
ATOM      4  C   UNL     1     -47.204  32.459  24.914  1.00  0.00    -0.000 A 
ATOM      5  C   UNL     1     -47.173  31.213  24.230  1.00  0.00    -0.032 A 
ATOM      6  C   UNL     1     -48.362  30.554  24.476  1.00  0.00     0.030 A 
ATOM      7  N   UNL     1     -49.092  31.351  25.325  1.00  0.00    -0.357 N 
ATOM      8  C   UNL     1     -48.418  32.520  25.592  1.00  0.00     0.046 A 
ATOM      9  C   UNL     1     -48.793  33.619  26.375  1.00  0.00    -0.033 A 
ATOM     10  H   UNL     1     -45.978  35.488  25.861  1.00  0.00     0.063 H 
ATOM     11  H   UNL     1     -45.361  33.523  24.497  1.00  0.00     0.063 H 
ATOM     12  H   UNL     1     -46.369  30.845  23.607  1.00  0.00     0.065 H 
ATOM     13  H   UNL     1     -50.009  31.128  25.689  1.00  0.00     0.166 HD
ATOM     14  H   UNL     1     -49.752  33.645  26.885  1.00  0.00     0.065 H 
ENDROOT
BRANCH   1  15
ATOM     15  C   UNL     1     -48.277  35.911  27.286  1.00  0.00     0.043 C 
ATOM     16  H   UNL     1     -49.190  36.362  26.881  1.00  0.00     0.054 H 
ATOM     17  H   UNL     1     -48.486  35.629  28.324  1.00  0.00     0.054 H 
BRANCH  15  18
ATOM     18  N   UNL     1     -47.204  36.870  27.306  1.00  0.00    -0.347 N 
ATOM     19  O   UNL     1     -46.683  36.660  29.538  1.00  0.00    -0.268 OA
ATOM     20  C   UNL     1     -46.543  37.222  28.458  1.00  0.00     0.270 C 
ATOM     21  H   UNL     1     -47.085  37.498  26.517  1.00  0.00     0.164 HD
BRANCH  20  22
ATOM     22  C   UNL     1     -45.625  38.402  28.254  1.00  0.00     0.136 A 
ATOM     23  C   UNL     1     -45.850  39.150  27.171  1.00  0.00     0.035 A 
ATOM     24  N   UNL     1     -44.623  38.629  29.172  1.00  0.00    -0.225 NA
ATOM     25  C   UNL     1     -44.974  40.303  26.929  1.00  0.00     0.258 A 
ATOM     26  H   UNL     1     -46.639  38.961  26.456  1.00  0.00     0.071 H 
ATOM     27  C   UNL     1     -43.851  39.648  28.952  1.00  0.00     0.140 A 
ATOM     28  O   UNL     1     -45.175  40.999  25.935  1.00  0.00    -0.269 OA
ATOM     29  N   UNL     1     -43.973  40.509  27.866  1.00  0.00    -0.268 N 
ATOM     30  C   UNL     1     -42.751  39.932  29.917  1.00  0.00    -0.019 A 
ATOM     31  C   UNL     1     -43.102  41.582  27.702  1.00  0.00     0.014 A 
ATOM     32  C   UNL     1     -41.938  40.976  29.717  1.00  0.00    -0.057 A 
ATOM     33  H   UNL     1     -42.646  39.266  30.764  1.00  0.00     0.066 H 
ATOM     34  C   UNL     1     -42.117  41.831  28.574  1.00  0.00    -0.045 A 
ATOM     35  H   UNL     1     -43.256  42.214  26.832  1.00  0.00     0.082 H 
ATOM     36  H   UNL     1     -41.131  41.198  30.408  1.00  0.00     0.062 H 
ATOM     37  H   UNL     1     -41.443  42.670  28.436  1.00  0.00     0.064 H 
ENDBRANCH  20  22
ENDBRANCH  15  18
ENDBRANCH   1  15
BRANCH   6  38
ATOM     38  C   UNL     1     -48.863  29.225  24.018  1.00  0.00     0.039 C 
ATOM     39  H   UNL     1     -49.440  28.758  24.827  1.00  0.00     0.050 H 
ATOM     40  H   UNL     1     -48.005  28.557  23.868  1.00  0.00     0.050 H 
BRANCH  38  41
ATOM     41  N   UNL     1     -49.681  29.220  22.805  1.00  0.00    -0.297 NA
ATOM     42  C   UNL     1     -50.639  30.323  22.683  1.00  0.00    -0.001 C 
ATOM     43  C   UNL     1     -48.917  29.167  21.551  1.00  0.00     0.004 C 
ATOM     44  C   UNL     1     -49.986  31.364  21.781  1.00  0.00    -0.033 C 
ATOM     45  H   UNL     1     -50.970  30.739  23.640  1.00  0.00     0.043 H 
ATOM     46  H   UNL     1     -51.537  29.933  22.185  1.00  0.00     0.043 H 
ATOM     47  C   UNL     1     -49.018  30.555  20.971  1.00  0.00    -0.016 C 
ATOM     48  H   UNL     1     -49.409  28.455  20.879  1.00  0.00     0.044 H 
ATOM     49  H   UNL     1     -47.884  28.829  21.683  1.00  0.00     0.044 H 
ATOM     50  H   UNL     1     -49.459  32.121  22.369  1.00  0.00     0.029 H 
ATOM     51  H   UNL     1     -50.734  31.868  21.162  1.00  0.00     0.029 H 
ATOM     52  C   UNL     1     -48.911  30.767  19.476  1.00  0.00    -0.046 C 
ATOM     53  C   UNL     1     -47.799  31.225  20.371  1.00  0.00    -0.046 C 
ATOM     54  H   UNL     1     -49.532  31.525  19.012  1.00  0.00     0.027 H 
ATOM     55  H   UNL     1     -48.728  29.904  18.843  1.00  0.00     0.027 H 
ATOM     56  H   UNL     1     -46.866  30.675  20.348  1.00  0.00     0.027 H 
ATOM     57  H   UNL     1     -47.673  32.291  20.527  1.00  0.00     0.027 H 
ENDBRANCH  38  41
ENDBRANCH   6  38
TORSDOF 5
ENDMDL
MODEL 3
REMARK VINA RESULT:     -10.5      1.974      3.381
REMARK SMILES O=C(NCc1ccc2cc(CN3CCC4(CC4)C3)[nH]c2c1)c1cc(=O)n2ccccc2n1
REMARK SMILES IDX 5 1 6 2 7 3 8 4 9 5 10 6 19 7 20 8 21 9 4 15 3 18 1 19 2 20
REMARK SMILES IDX 22 22 23 23 32 24 24 25 31 27 25 28 26 29 30 30 27 31 29 32
REMARK SMILES IDX 28 34 11 38 12 41 13 42 18 43 14 44 15 47 16 52 17 53
REMARK H PARENT 6 10 7 11 9 12 19 13 21 14 4 16 4 17 3 21 23 26 30 33 27 35
REMARK H PARENT 29 36 28 37 11 39 11 40 13 45 13 46 18 48 18 49 14 50 14 51
REMARK H PARENT 16 54 16 55 17 56 17 57
REMARK Flexibility Score: inf
ROOT
ATOM      1  C   UNL     1     -47.619  37.186  27.939  1.00  0.00    -0.027 A 
ATOM      2  C   UNL     1     -48.931  36.702  27.863  1.00  0.00    -0.057 A 
ATOM      3  C   UNL     1     -49.227  35.513  27.183  1.00  0.00    -0.052 A 
ATOM      4  C   UNL     1     -48.185  34.789  26.575  1.00  0.00    -0.000 A 
ATOM      5  C   UNL     1     -48.122  33.579  25.832  1.00  0.00    -0.032 A 
ATOM      6  C   UNL     1     -46.800  33.339  25.508  1.00  0.00     0.030 A 
ATOM      7  N   UNL     1     -46.070  34.395  25.999  1.00  0.00    -0.357 N 
ATOM      8  C   UNL     1     -46.886  35.280  26.666  1.00  0.00     0.046 A 
ATOM      9  C   UNL     1     -46.570  36.467  27.339  1.00  0.00    -0.033 A 
ATOM     10  H   UNL     1     -49.744  37.248  28.335  1.00  0.00     0.063 H 
ATOM     11  H   UNL     1     -50.250  35.152  27.130  1.00  0.00     0.063 H 
ATOM     12  H   UNL     1     -48.956  32.940  25.576  1.00  0.00     0.065 H 
ATOM     13  H   UNL     1     -45.069  34.503  25.909  1.00  0.00     0.166 HD
ATOM     14  H   UNL     1     -45.545  36.820  27.403  1.00  0.00     0.065 H 
ENDROOT
BRANCH   1  15
ATOM     15  C   UNL     1     -47.313  38.452  28.700  1.00  0.00     0.043 C 
ATOM     16  H   UNL     1     -48.217  39.064  28.797  1.00  0.00     0.054 H 
ATOM     17  H   UNL     1     -46.970  38.216  29.713  1.00  0.00     0.054 H 
BRANCH  15  18
ATOM     18  N   UNL     1     -46.265  39.198  28.052  1.00  0.00    -0.347 N 
ATOM     19  O   UNL     1     -44.573  38.620  29.501  1.00  0.00    -0.268 OA
ATOM     20  C   UNL     1     -44.991  39.280  28.556  1.00  0.00     0.270 C 
ATOM     21  H   UNL     1     -46.509  39.889  27.349  1.00  0.00     0.164 HD
BRANCH  20  22
ATOM     22  C   UNL     1     -44.148  40.296  27.824  1.00  0.00     0.136 A 
ATOM     23  C   UNL     1     -42.993  40.636  28.400  1.00  0.00     0.035 A 
ATOM     24  N   UNL     1     -44.614  40.810  26.634  1.00  0.00    -0.225 NA
ATOM     25  C   UNL     1     -42.146  41.629  27.728  1.00  0.00     0.258 A 
ATOM     26  H   UNL     1     -42.638  40.227  29.337  1.00  0.00     0.071 H 
ATOM     27  C   UNL     1     -43.863  41.689  26.044  1.00  0.00     0.140 A 
ATOM     28  O   UNL     1     -41.080  41.947  28.250  1.00  0.00    -0.269 OA
ATOM     29  N   UNL     1     -42.638  42.133  26.533  1.00  0.00    -0.268 N 
ATOM     30  C   UNL     1     -44.328  42.275  24.755  1.00  0.00    -0.019 A 
ATOM     31  C   UNL     1     -41.892  43.079  25.838  1.00  0.00     0.014 A 
ATOM     32  C   UNL     1     -43.575  43.183  24.124  1.00  0.00    -0.057 A 
ATOM     33  H   UNL     1     -45.281  41.938  24.368  1.00  0.00     0.066 H 
ATOM     34  C   UNL     1     -42.315  43.601  24.680  1.00  0.00    -0.045 A 
ATOM     35  H   UNL     1     -40.944  43.379  26.277  1.00  0.00     0.082 H 
ATOM     36  H   UNL     1     -43.896  43.622  23.185  1.00  0.00     0.062 H 
ATOM     37  H   UNL     1     -41.725  44.339  24.147  1.00  0.00     0.064 H 
ENDBRANCH  20  22
ENDBRANCH  15  18
ENDBRANCH   1  15
BRANCH   6  38
ATOM     38  C   UNL     1     -46.161  32.227  24.745  1.00  0.00     0.039 C 
ATOM     39  H   UNL     1     -46.015  31.368  25.412  1.00  0.00     0.050 H 
ATOM     40  H   UNL     1     -45.147  32.532  24.459  1.00  0.00     0.050 H 
BRANCH  38  41
ATOM     41  N   UNL     1     -46.869  31.767  23.550  1.00  0.00    -0.297 NA
ATOM     42  C   UNL     1     -46.024  31.218  22.485  1.00  0.00    -0.001 C 
ATOM     43  C   UNL     1     -47.934  30.789  23.808  1.00  0.00     0.004 C 
ATOM     44  C   UNL     1     -46.072  29.702  22.633  1.00  0.00    -0.033 C 
ATOM     45  H   UNL     1     -45.002  31.611  22.474  1.00  0.00     0.043 H 
ATOM     46  H   UNL     1     -46.474  31.497  21.523  1.00  0.00     0.043 H 
ATOM     47  C   UNL     1     -47.378  29.469  23.334  1.00  0.00    -0.016 C 
ATOM     48  H   UNL     1     -48.803  31.058  23.197  1.00  0.00     0.044 H 
ATOM     49  H   UNL     1     -48.264  30.767  24.851  1.00  0.00     0.044 H 
ATOM     50  H   UNL     1     -45.238  29.338  23.241  1.00  0.00     0.029 H 
ATOM     51  H   UNL     1     -46.026  29.212  21.656  1.00  0.00     0.029 H 
ATOM     52  C   UNL     1     -48.310  28.373  22.864  1.00  0.00    -0.046 C 
ATOM     53  C   UNL     1     -47.572  28.215  24.159  1.00  0.00    -0.046 C 
ATOM     54  H   UNL     1     -48.004  27.752  22.030  1.00  0.00     0.027 H 
ATOM     55  H   UNL     1     -49.380  28.549  22.910  1.00  0.00     0.027 H 
ATOM     56  H   UNL     1     -48.138  28.285  25.081  1.00  0.00     0.027 H 
ATOM     57  H   UNL     1     -46.758  27.500  24.202  1.00  0.00     0.027 H 
ENDBRANCH  38  41
ENDBRANCH   6  38
TORSDOF 5
ENDMDL
MODEL 4
REMARK VINA RESULT:     -10.4      3.216     11.373
REMARK SMILES O=C(NCc1ccc2cc(CN3CCC4(CC4)C3)[nH]c2c1)c1cc(=O)n2ccccc2n1
REMARK SMILES IDX 5 1 6 2 7 3 8 4 9 5 10 6 19 7 20 8 21 9 4 15 3 18 1 19 2 20
REMARK SMILES IDX 22 22 23 23 32 24 24 25 31 27 25 28 26 29 30 30 27 31 29 32
REMARK SMILES IDX 28 34 11 38 12 41 13 42 18 43 14 44 15 47 16 52 17 53
REMARK H PARENT 6 10 7 11 9 12 19 13 21 14 4 16 4 17 3 21 23 26 30 33 27 35
REMARK H PARENT 29 36 28 37 11 39 11 40 13 45 13 46 18 48 18 49 14 50 14 51
REMARK H PARENT 16 54 16 55 17 56 17 57
REMARK Flexibility Score: inf
ROOT
ATOM      1  C   UNL     1     -46.779  33.350  25.390  1.00  0.00    -0.027 A 
ATOM      2  C   UNL     1     -48.127  33.602  25.675  1.00  0.00    -0.057 A 
ATOM      3  C   UNL     1     -48.499  34.440  26.735  1.00  0.00    -0.052 A 
ATOM      4  C   UNL     1     -47.499  35.046  27.518  1.00  0.00    -0.000 A 
ATOM      5  C   UNL     1     -47.513  35.930  28.631  1.00  0.00    -0.032 A 
ATOM      6  C   UNL     1     -46.204  36.218  28.970  1.00  0.00     0.030 A 
ATOM      7  N   UNL     1     -45.402  35.497  28.118  1.00  0.00    -0.357 N 
ATOM      8  C   UNL     1     -46.165  34.791  27.216  1.00  0.00     0.046 A 
ATOM      9  C   UNL     1     -45.773  33.955  26.164  1.00  0.00    -0.033 A 
ATOM     10  H   UNL     1     -48.909  33.146  25.073  1.00  0.00     0.063 H 
ATOM     11  H   UNL     1     -49.548  34.624  26.947  1.00  0.00     0.063 H 
ATOM     12  H   UNL     1     -48.390  36.329  29.123  1.00  0.00     0.065 H 
ATOM     13  H   UNL     1     -44.392  35.498  28.130  1.00  0.00     0.166 HD
ATOM     14  H   UNL     1     -44.723  33.783  25.943  1.00  0.00     0.065 H 
ENDROOT
BRANCH   1  15
ATOM     15  C   UNL     1     -46.395  32.469  24.227  1.00  0.00     0.043 C 
ATOM     16  H   UNL     1     -46.773  32.893  23.290  1.00  0.00     0.054 H 
ATOM     17  H   UNL     1     -45.306  32.405  24.139  1.00  0.00     0.054 H 
BRANCH  15  18
ATOM     18  N   UNL     1     -46.893  31.131  24.413  1.00  0.00    -0.347 N 
ATOM     19  O   UNL     1     -48.556  31.227  22.825  1.00  0.00    -0.268 OA
ATOM     20  C   UNL     1     -47.990  30.646  23.744  1.00  0.00     0.270 C 
ATOM     21  H   UNL     1     -46.604  30.603  25.231  1.00  0.00     0.164 HD
BRANCH  20  22
ATOM     22  C   UNL     1     -48.443  29.309  24.278  1.00  0.00     0.136 A 
ATOM     23  C   UNL     1     -49.760  29.091  24.292  1.00  0.00     0.035 A 
ATOM     24  N   UNL     1     -47.493  28.414  24.719  1.00  0.00    -0.225 NA
ATOM     25  C   UNL     1     -50.246  27.807  24.812  1.00  0.00     0.258 A 
ATOM     26  H   UNL     1     -50.497  29.802  23.945  1.00  0.00     0.071 H 
ATOM     27  C   UNL     1     -47.928  27.282  25.180  1.00  0.00     0.140 A 
ATOM     28  O   UNL     1     -51.458  27.596  24.828  1.00  0.00    -0.269 OA
ATOM     29  N   UNL     1     -49.271  26.924  25.252  1.00  0.00    -0.268 N 
ATOM     30  C   UNL     1     -46.937  26.283  25.671  1.00  0.00    -0.019 A 
ATOM     31  C   UNL     1     -49.655  25.688  25.760  1.00  0.00     0.014 A 
ATOM     32  C   UNL     1     -47.355  25.107  26.151  1.00  0.00    -0.057 A 
ATOM     33  H   UNL     1     -45.889  26.553  25.621  1.00  0.00     0.066 H 
ATOM     34  C   UNL     1     -48.759  24.795  26.199  1.00  0.00    -0.045 A 
ATOM     35  H   UNL     1     -50.721  25.474  25.786  1.00  0.00     0.082 H 
ATOM     36  H   UNL     1     -46.649  24.367  26.514  1.00  0.00     0.062 H 
ATOM     37  H   UNL     1     -49.070  23.834  26.594  1.00  0.00     0.064 H 
ENDBRANCH  20  22
ENDBRANCH  15  18
ENDBRANCH   1  15
BRANCH   6  38
ATOM     38  C   UNL     1     -45.635  37.079  30.048  1.00  0.00     0.039 C 
ATOM     39  H   UNL     1     -44.607  36.757  30.263  1.00  0.00     0.050 H 
ATOM     40  H   UNL     1     -46.185  36.891  30.979  1.00  0.00     0.050 H 
BRANCH  38  41
ATOM     41  N   UNL     1     -45.622  38.520  29.792  1.00  0.00    -0.297 NA
ATOM     42  C   UNL     1     -44.365  39.058  29.262  1.00  0.00    -0.001 C 
ATOM     43  C   UNL     1     -46.702  38.995  28.917  1.00  0.00     0.004 C 
ATOM     44  C   UNL     1     -44.548  39.176  27.754  1.00  0.00    -0.033 C 
ATOM     45  H   UNL     1     -43.477  38.480  29.538  1.00  0.00     0.043 H 
ATOM     46  H   UNL     1     -44.226  40.061  29.684  1.00  0.00     0.043 H 
ATOM     47  C   UNL     1     -46.035  39.296  27.598  1.00  0.00    -0.016 C 
ATOM     48  H   UNL     1     -47.105  39.923  29.341  1.00  0.00     0.044 H 
ATOM     49  H   UNL     1     -47.535  38.290  28.828  1.00  0.00     0.044 H 
ATOM     50  H   UNL     1     -44.178  38.284  27.240  1.00  0.00     0.029 H 
ATOM     51  H   UNL     1     -44.013  40.046  27.362  1.00  0.00     0.029 H 
ATOM     52  C   UNL     1     -46.623  40.333  26.665  1.00  0.00    -0.046 C 
ATOM     53  C   UNL     1     -46.689  38.882  26.297  1.00  0.00    -0.046 C 
ATOM     54  H   UNL     1     -45.948  40.968  26.102  1.00  0.00     0.027 H 
ATOM     55  H   UNL     1     -47.547  40.824  26.954  1.00  0.00     0.027 H 
ATOM     56  H   UNL     1     -47.653  38.388  26.337  1.00  0.00     0.027 H 
ATOM     57  H   UNL     1     -46.051  38.526  25.495  1.00  0.00     0.027 H 
ENDBRANCH  38  41
ENDBRANCH   6  38
TORSDOF 5
ENDMDL
MODEL 5
REMARK VINA RESULT:     -10.4      1.626      2.760
REMARK SMILES O=C(NCc1ccc2cc(CN3CCC4(CC4)C3)[nH]c2c1)c1cc(=O)n2ccccc2n1
REMARK SMILES IDX 5 1 6 2 7 3 8 4 9 5 10 6 19 7 20 8 21 9 4 15 3 18 1 19 2 20
REMARK SMILES IDX 22 22 23 23 32 24 24 25 31 27 25 28 26 29 30 30 27 31 29 32
REMARK SMILES IDX 28 34 11 38 12 41 13 42 18 43 14 44 15 47 16 52 17 53
REMARK H PARENT 6 10 7 11 9 12 19 13 21 14 4 16 4 17 3 21 23 26 30 33 27 35
REMARK H PARENT 29 36 28 37 11 39 11 40 13 45 13 46 18 48 18 49 14 50 14 51
REMARK H PARENT 16 54 16 55 17 56 17 57
REMARK Flexibility Score: inf
ROOT
ATOM      1  C   UNL     1     -47.977  34.074  26.208  1.00  0.00    -0.027 A 
ATOM      2  C   UNL     1     -46.758  34.113  25.519  1.00  0.00    -0.057 A 
ATOM      3  C   UNL     1     -46.320  33.020  24.760  1.00  0.00    -0.052 A 
ATOM      4  C   UNL     1     -47.124  31.868  24.682  1.00  0.00    -0.000 A 
ATOM      5  C   UNL     1     -47.000  30.616  24.020  1.00  0.00    -0.032 A 
ATOM      6  C   UNL     1     -48.134  29.873  24.286  1.00  0.00     0.030 A 
ATOM      7  N   UNL     1     -48.919  30.626  25.125  1.00  0.00    -0.357 N 
ATOM      8  C   UNL     1     -48.336  31.849  25.366  1.00  0.00     0.046 A 
ATOM      9  C   UNL     1     -48.790  32.930  26.131  1.00  0.00    -0.033 A 
ATOM     10  H   UNL     1     -46.131  35.000  25.565  1.00  0.00     0.063 H 
ATOM     11  H   UNL     1     -45.371  33.063  24.234  1.00  0.00     0.063 H 
ATOM     12  H   UNL     1     -46.173  30.299  23.399  1.00  0.00     0.065 H 
ATOM     13  H   UNL     1     -49.814  30.340  25.498  1.00  0.00     0.166 HD
ATOM     14  H   UNL     1     -49.746  32.891  26.646  1.00  0.00     0.065 H 
ENDROOT
BRANCH   1  15
ATOM     15  C   UNL     1     -48.449  35.271  26.996  1.00  0.00     0.043 C 
ATOM     16  H   UNL     1     -49.280  35.763  26.478  1.00  0.00     0.054 H 
ATOM     17  H   UNL     1     -48.818  34.960  27.979  1.00  0.00     0.054 H 
BRANCH  15  18
ATOM     18  N   UNL     1     -47.368  36.198  27.214  1.00  0.00    -0.347 N 
ATOM     19  O   UNL     1     -46.943  35.623  29.401  1.00  0.00    -0.268 OA
ATOM     20  C   UNL     1     -46.753  36.349  28.432  1.00  0.00     0.270 C 
ATOM     21  H   UNL     1     -47.210  36.943  26.542  1.00  0.00     0.164 HD
BRANCH  20  22
ATOM     22  C   UNL     1     -45.816  37.533  28.458  1.00  0.00     0.136 A 
ATOM     23  C   UNL     1     -45.047  37.657  29.543  1.00  0.00     0.035 A 
ATOM     24  N   UNL     1     -45.816  38.402  27.391  1.00  0.00    -0.225 NA
ATOM     25  C   UNL     1     -44.127  38.798  29.616  1.00  0.00     0.258 A 
ATOM     26  H   UNL     1     -45.058  36.968  30.377  1.00  0.00     0.071 H 
ATOM     27  C   UNL     1     -45.003  39.411  27.460  1.00  0.00     0.140 A 
ATOM     28  O   UNL     1     -43.414  38.921  30.609  1.00  0.00    -0.269 OA
ATOM     29  N   UNL     1     -44.147  39.661  28.529  1.00  0.00    -0.268 N 
ATOM     30  C   UNL     1     -44.969  40.381  26.329  1.00  0.00    -0.019 A 
ATOM     31  C   UNL     1     -43.303  40.767  28.526  1.00  0.00     0.014 A 
ATOM     32  C   UNL     1     -44.141  41.431  26.373  1.00  0.00    -0.057 A 
ATOM     33  H   UNL     1     -45.634  40.197  25.494  1.00  0.00     0.066 H 
ATOM     34  C   UNL     1     -43.279  41.633  27.506  1.00  0.00    -0.045 A 
ATOM     35  H   UNL     1     -42.661  40.900  29.393  1.00  0.00     0.082 H 
ATOM     36  H   UNL     1     -44.103  42.148  25.559  1.00  0.00     0.062 H 
ATOM     37  H   UNL     1     -42.617  42.493  27.515  1.00  0.00     0.064 H 
ENDBRANCH  20  22
ENDBRANCH  15  18
ENDBRANCH   1  15
BRANCH   6  38
ATOM     38  C   UNL     1     -48.533  28.500  23.855  1.00  0.00     0.039 C 
ATOM     39  H   UNL     1     -49.080  28.010  24.671  1.00  0.00     0.050 H 
ATOM     40  H   UNL     1     -47.628  27.894  23.725  1.00  0.00     0.050 H 
BRANCH  38  41
ATOM     41  N   UNL     1     -49.340  28.408  22.639  1.00  0.00    -0.297 NA
ATOM     42  C   UNL     1     -50.766  28.136  22.844  1.00  0.00    -0.001 C 
ATOM     43  C   UNL     1     -49.244  29.575  21.750  1.00  0.00     0.004 C 
ATOM     44  C   UNL     1     -51.479  29.481  22.760  1.00  0.00    -0.033 C 
ATOM     45  H   UNL     1     -50.992  27.594  23.768  1.00  0.00     0.043 H 
ATOM     46  H   UNL     1     -51.108  27.500  22.018  1.00  0.00     0.043 H 
ATOM     47  C   UNL     1     -50.551  30.308  21.921  1.00  0.00    -0.016 C 
ATOM     48  H   UNL     1     -49.161  29.214  20.718  1.00  0.00     0.044 H 
ATOM     49  H   UNL     1     -48.368  30.202  21.947  1.00  0.00     0.044 H 
ATOM     50  H   UNL     1     -51.602  29.926  23.752  1.00  0.00     0.029 H 
ATOM     51  H   UNL     1     -52.469  29.371  22.307  1.00  0.00     0.029 H 
ATOM     52  C   UNL     1     -51.096  31.167  20.801  1.00  0.00    -0.046 C 
ATOM     53  C   UNL     1     -50.572  31.817  22.046  1.00  0.00    -0.046 C 
ATOM     54  H   UNL     1     -52.167  31.185  20.634  1.00  0.00     0.027 H 
ATOM     55  H   UNL     1     -50.509  31.266  19.893  1.00  0.00     0.027 H 
ATOM     56  H   UNL     1     -49.632  32.354  21.984  1.00  0.00     0.027 H 
ATOM     57  H   UNL     1     -51.284  32.263  22.730  1.00  0.00     0.027 H 
ENDBRANCH  38  41
ENDBRANCH   6  38
TORSDOF 5
ENDMDL
MODEL 6
REMARK VINA RESULT:     -10.4      1.691      2.324
REMARK SMILES O=C(NCc1ccc2cc(CN3CCC4(CC4)C3)[nH]c2c1)c1cc(=O)n2ccccc2n1
REMARK SMILES IDX 5 1 6 2 7 3 8 4 9 5 10 6 19 7 20 8 21 9 4 15 3 18 1 19 2 20
REMARK SMILES IDX 22 22 23 23 32 24 24 25 31 27 25 28 26 29 30 30 27 31 29 32
REMARK SMILES IDX 28 34 11 38 12 41 13 42 18 43 14 44 15 47 16 52 17 53
REMARK H PARENT 6 10 7 11 9 12 19 13 21 14 4 16 4 17 3 21 23 26 30 33 27 35
REMARK H PARENT 29 36 28 37 11 39 11 40 13 45 13 46 18 48 18 49 14 50 14 51
REMARK H PARENT 16 54 16 55 17 56 17 57
REMARK Flexibility Score: inf
ROOT
ATOM      1  C   UNL     1     -46.619  35.049  27.798  1.00  0.00    -0.027 A 
ATOM      2  C   UNL     1     -47.878  35.546  27.439  1.00  0.00    -0.057 A 
ATOM      3  C   UNL     1     -48.764  34.785  26.663  1.00  0.00    -0.052 A 
ATOM      4  C   UNL     1     -48.382  33.496  26.247  1.00  0.00    -0.000 A 
ATOM      5  C   UNL     1     -49.009  32.476  25.481  1.00  0.00    -0.032 A 
ATOM      6  C   UNL     1     -48.153  31.393  25.419  1.00  0.00     0.030 A 
ATOM      7  N   UNL     1     -47.009  31.749  26.092  1.00  0.00    -0.357 N 
ATOM      8  C   UNL     1     -47.130  33.015  26.618  1.00  0.00     0.046 A 
ATOM      9  C   UNL     1     -46.231  33.760  27.390  1.00  0.00    -0.033 A 
ATOM     10  H   UNL     1     -48.189  36.537  27.761  1.00  0.00     0.063 H 
ATOM     11  H   UNL     1     -49.736  35.184  26.390  1.00  0.00     0.063 H 
ATOM     12  H   UNL     1     -49.994  32.523  25.035  1.00  0.00     0.065 H 
ATOM     13  H   UNL     1     -46.195  31.161  26.209  1.00  0.00     0.166 HD
ATOM     14  H   UNL     1     -45.264  33.355  27.675  1.00  0.00     0.065 H 
ENDROOT
BRANCH   1  15
ATOM     15  C   UNL     1     -45.690  35.869  28.658  1.00  0.00     0.043 C 
ATOM     16  H   UNL     1     -46.124  36.012  29.654  1.00  0.00     0.054 H 
ATOM     17  H   UNL     1     -44.734  35.351  28.791  1.00  0.00     0.054 H 
BRANCH  15  18
ATOM     18  N   UNL     1     -45.410  37.140  28.042  1.00  0.00    -0.347 N 
ATOM     19  O   UNL     1     -44.647  38.206  29.933  1.00  0.00    -0.268 OA
ATOM     20  C   UNL     1     -44.981  38.233  28.754  1.00  0.00     0.270 C 
ATOM     21  H   UNL     1     -45.771  37.331  27.112  1.00  0.00     0.164 HD
BRANCH  20  22
ATOM     22  C   UNL     1     -44.979  39.494  27.924  1.00  0.00     0.136 A 
ATOM     23  C   UNL     1     -46.144  39.847  27.377  1.00  0.00     0.035 A 
ATOM     24  N   UNL     1     -43.798  40.187  27.773  1.00  0.00    -0.225 NA
ATOM     25  C   UNL     1     -46.187  41.061  26.554  1.00  0.00     0.258 A 
ATOM     26  H   UNL     1     -47.066  39.293  27.502  1.00  0.00     0.071 H 
ATOM     27  C   UNL     1     -43.840  41.258  27.042  1.00  0.00     0.140 A 
ATOM     28  O   UNL     1     -47.257  41.396  26.048  1.00  0.00    -0.269 OA
ATOM     29  N   UNL     1     -44.985  41.740  26.416  1.00  0.00    -0.268 N 
ATOM     30  C   UNL     1     -42.586  42.039  26.848  1.00  0.00    -0.019 A 
ATOM     31  C   UNL     1     -44.946  42.900  25.649  1.00  0.00     0.014 A 
ATOM     32  C   UNL     1     -42.598  43.149  26.101  1.00  0.00    -0.057 A 
ATOM     33  H   UNL     1     -41.688  41.671  27.330  1.00  0.00     0.066 H 
ATOM     34  C   UNL     1     -43.816  43.597  25.480  1.00  0.00    -0.045 A 
ATOM     35  H   UNL     1     -45.878  43.219  25.189  1.00  0.00     0.082 H 
ATOM     36  H   UNL     1     -41.695  43.731  25.947  1.00  0.00     0.062 H 
ATOM     37  H   UNL     1     -43.797  44.500  24.878  1.00  0.00     0.064 H 
ENDBRANCH  20  22
ENDBRANCH  15  18
ENDBRANCH   1  15
BRANCH   6  38
ATOM     38  C   UNL     1     -48.294  30.065  24.752  1.00  0.00     0.039 C 
ATOM     39  H   UNL     1     -47.298  29.629  24.601  1.00  0.00     0.050 H 
ATOM     40  H   UNL     1     -48.686  30.218  23.739  1.00  0.00     0.050 H 
BRANCH  38  41
ATOM     41  N   UNL     1     -49.130  29.079  25.437  1.00  0.00    -0.297 NA
ATOM     42  C   UNL     1     -49.950  28.230  24.567  1.00  0.00    -0.001 C 
ATOM     43  C   UNL     1     -48.402  28.189  26.351  1.00  0.00     0.004 C 
ATOM     44  C   UNL     1     -49.193  26.917  24.407  1.00  0.00    -0.033 C 
ATOM     45  H   UNL     1     -50.210  28.689  23.608  1.00  0.00     0.043 H 
ATOM     46  H   UNL     1     -50.897  28.035  25.086  1.00  0.00     0.043 H 
ATOM     47  C   UNL     1     -48.345  26.858  25.642  1.00  0.00    -0.016 C 
ATOM     48  H   UNL     1     -48.989  28.086  27.271  1.00  0.00     0.044 H 
ATOM     49  H   UNL     1     -47.415  28.568  26.636  1.00  0.00     0.044 H 
ATOM     50  H   UNL     1     -48.567  26.928  23.510  1.00  0.00     0.029 H 
ATOM     51  H   UNL     1     -49.886  26.073  24.333  1.00  0.00     0.029 H 
ATOM     52  C   UNL     1     -48.242  25.574  26.437  1.00  0.00    -0.046 C 
ATOM     53  C   UNL     1     -47.067  26.048  25.636  1.00  0.00    -0.046 C 
ATOM     54  H   UNL     1     -48.776  24.700  26.083  1.00  0.00     0.027 H 
ATOM     55  H   UNL     1     -48.177  25.639  27.518  1.00  0.00     0.027 H 
ATOM     56  H   UNL     1     -46.207  26.434  26.172  1.00  0.00     0.027 H 
ATOM     57  H   UNL     1     -46.809  25.506  24.733  1.00  0.00     0.027 H 
ENDBRANCH  38  41
ENDBRANCH   6  38
TORSDOF 5
ENDMDL
MODEL 7
REMARK VINA RESULT:     -10.3      2.192      2.970
REMARK SMILES O=C(NCc1ccc2cc(CN3CCC4(CC4)C3)[nH]c2c1)c1cc(=O)n2ccccc2n1
REMARK SMILES IDX 5 1 6 2 7 3 8 4 9 5 10 6 19 7 20 8 21 9 4 15 3 18 1 19 2 20
REMARK SMILES IDX 22 22 23 23 32 24 24 25 31 27 25 28 26 29 30 30 27 31 29 32
REMARK SMILES IDX 28 34 11 38 12 41 13 42 18 43 14 44 15 47 16 52 17 53
REMARK H PARENT 6 10 7 11 9 12 19 13 21 14 4 16 4 17 3 21 23 26 30 33 27 35
REMARK H PARENT 29 36 28 37 11 39 11 40 13 45 13 46 18 48 18 49 14 50 14 51
REMARK H PARENT 16 54 16 55 17 56 17 57
REMARK Flexibility Score: inf
ROOT
ATOM      1  C   UNL     1     -47.835  36.282  27.197  1.00  0.00    -0.027 A 
ATOM      2  C   UNL     1     -46.482  36.012  26.959  1.00  0.00    -0.057 A 
ATOM      3  C   UNL     1     -46.065  34.758  26.491  1.00  0.00    -0.052 A 
ATOM      4  C   UNL     1     -47.025  33.758  26.249  1.00  0.00    -0.000 A 
ATOM      5  C   UNL     1     -46.963  32.417  25.782  1.00  0.00    -0.032 A 
ATOM      6  C   UNL     1     -48.251  31.923  25.715  1.00  0.00     0.030 A 
ATOM      7  N   UNL     1     -49.085  32.916  26.170  1.00  0.00    -0.357 N 
ATOM      8  C   UNL     1     -48.367  34.046  26.484  1.00  0.00     0.046 A 
ATOM      9  C   UNL     1     -48.803  35.291  26.952  1.00  0.00    -0.033 A 
ATOM     10  H   UNL     1     -45.731  36.778  27.134  1.00  0.00     0.063 H 
ATOM     11  H   UNL     1     -45.012  34.562  26.314  1.00  0.00     0.063 H 
ATOM     12  H   UNL     1     -46.068  31.876  25.506  1.00  0.00     0.065 H 
ATOM     13  H   UNL     1     -50.091  32.843  26.244  1.00  0.00     0.166 HD
ATOM     14  H   UNL     1     -49.858  35.492  27.117  1.00  0.00     0.065 H 
ENDROOT
BRANCH   1  15
ATOM     15  C   UNL     1     -48.271  37.647  27.671  1.00  0.00     0.043 C 
ATOM     16  H   UNL     1     -49.014  38.067  26.984  1.00  0.00     0.054 H 
ATOM     17  H   UNL     1     -48.743  37.576  28.657  1.00  0.00     0.054 H 
BRANCH  15  18
ATOM     18  N   UNL     1     -47.140  38.530  27.795  1.00  0.00    -0.347 N 
ATOM     19  O   UNL     1     -47.766  40.019  26.156  1.00  0.00    -0.268 OA
ATOM     20  C   UNL     1     -46.944  39.608  26.967  1.00  0.00     0.270 C 
ATOM     21  H   UNL     1     -46.330  38.227  28.327  1.00  0.00     0.164 HD
BRANCH  20  22
ATOM     22  C   UNL     1     -45.583  40.234  27.152  1.00  0.00     0.136 A 
ATOM     23  C   UNL     1     -45.167  41.049  26.181  1.00  0.00     0.035 A 
ATOM     24  N   UNL     1     -44.860  39.926  28.283  1.00  0.00    -0.225 NA
ATOM     25  C   UNL     1     -43.846  41.673  26.314  1.00  0.00     0.258 A 
ATOM     26  H   UNL     1     -45.744  41.282  25.295  1.00  0.00     0.071 H 
ATOM     27  C   UNL     1     -43.691  40.478  28.396  1.00  0.00     0.140 A 
ATOM     28  O   UNL     1     -43.455  42.427  25.425  1.00  0.00    -0.269 OA
ATOM     29  N   UNL     1     -43.136  41.346  27.460  1.00  0.00    -0.268 N 
ATOM     30  C   UNL     1     -42.870  40.172  29.602  1.00  0.00    -0.019 A 
ATOM     31  C   UNL     1     -41.874  41.897  27.657  1.00  0.00     0.014 A 
ATOM     32  C   UNL     1     -41.661  40.726  29.746  1.00  0.00    -0.057 A 
ATOM     33  H   UNL     1     -43.292  39.495  30.334  1.00  0.00     0.066 H 
ATOM     34  C   UNL     1     -41.143  41.618  28.743  1.00  0.00    -0.045 A 
ATOM     35  H   UNL     1     -41.503  42.567  26.886  1.00  0.00     0.082 H 
ATOM     36  H   UNL     1     -41.048  40.515  30.617  1.00  0.00     0.062 H 
ATOM     37  H   UNL     1     -40.159  42.053  28.885  1.00  0.00     0.064 H 
ENDBRANCH  20  22
ENDBRANCH  15  18
ENDBRANCH   1  15
BRANCH   6  38
ATOM     38  C   UNL     1     -48.771  30.587  25.298  1.00  0.00     0.039 C 
ATOM     39  H   UNL     1     -49.585  30.289  25.973  1.00  0.00     0.050 H 
ATOM     40  H   UNL     1     -47.988  29.837  25.461  1.00  0.00     0.050 H 
BRANCH  38  41
ATOM     41  N   UNL     1     -49.251  30.476  23.921  1.00  0.00    -0.297 NA
ATOM     42  C   UNL     1     -48.243  30.093  22.928  1.00  0.00    -0.001 C 
ATOM     43  C   UNL     1     -50.399  29.576  23.744  1.00  0.00     0.004 C 
ATOM     44  C   UNL     1     -48.405  28.594  22.703  1.00  0.00    -0.033 C 
ATOM     45  H   UNL     1     -47.219  30.373  23.195  1.00  0.00     0.043 H 
ATOM     46  H   UNL     1     -48.475  30.620  21.994  1.00  0.00     0.043 H 
ATOM     47  C   UNL     1     -49.835  28.345  23.080  1.00  0.00    -0.016 C 
ATOM     48  H   UNL     1     -51.113  30.060  23.066  1.00  0.00     0.044 H 
ATOM     49  H   UNL     1     -50.931  29.358  24.675  1.00  0.00     0.044 H 
ATOM     50  H   UNL     1     -47.731  28.023  23.349  1.00  0.00     0.029 H 
ATOM     51  H   UNL     1     -48.193  28.330  21.663  1.00  0.00     0.029 H 
ATOM     52  C   UNL     1     -50.715  27.478  22.205  1.00  0.00    -0.046 C 
ATOM     53  C   UNL     1     -50.260  26.965  23.538  1.00  0.00    -0.046 C 
ATOM     54  H   UNL     1     -50.284  27.030  21.317  1.00  0.00     0.027 H 
ATOM     55  H   UNL     1     -51.760  27.747  22.097  1.00  0.00     0.027 H 
ATOM     56  H   UNL     1     -50.993  26.887  24.332  1.00  0.00     0.027 H 
ATOM     57  H   UNL     1     -49.512  26.181  23.558  1.00  0.00     0.027 H 
ENDBRANCH  38  41
ENDBRANCH   6  38
TORSDOF 5
ENDMDL
