MODEL 1
REMARK VINA RESULT:     -10.9      0.000      0.000
REMARK SMILES Nc1ncnc2c1c(Cl)cn2-c1cccc(COc2ccc3ccc(NCC4CC4)nc3c2)c1
REMARK SMILES IDX 18 1 17 2 16 5 12 6 13 7 34 8 14 9 15 12 11 15 2 16 3 17
REMARK SMILES IDX 7 18 4 19 6 20 8 21 5 22 9 24 10 25 1 27 19 30 20 31 33 32
REMARK SMILES IDX 21 33 32 35 22 37 31 39 23 40 25 41 24 42 26 45 27 47 28 50
REMARK SMILES IDX 29 51 30 52
REMARK H PARENT 17 3 17 4 13 10 34 11 14 13 15 14 4 23 10 26 1 28 1 29 20 34
REMARK H PARENT 33 36 21 38 23 43 24 44 26 46 27 48 27 49 28 53 29 54 29 55
REMARK H PARENT 30 56 30 57
REMARK Flexibility Score: inf
ROOT
ATOM      1  O   UNL     1     -47.590  33.610  26.935  1.00  0.00    -0.489 OA
ENDROOT
BRANCH   1   2
ATOM      2  C   UNL     1     -46.399  34.379  27.098  1.00  0.00     0.113 C 
ATOM      3  H   UNL     1     -45.825  34.370  26.163  1.00  0.00     0.076 H 
ATOM      4  H   UNL     1     -45.785  33.978  27.915  1.00  0.00     0.076 H 
BRANCH   2   5
ATOM      5  C   UNL     1     -46.776  35.801  27.453  1.00  0.00    -0.009 A 
ATOM      6  C   UNL     1     -46.108  38.115  27.936  1.00  0.00     0.047 A 
ATOM      7  C   UNL     1     -47.463  38.450  28.056  1.00  0.00    -0.038 A 
ATOM      8  C   UNL     1     -45.780  36.782  27.627  1.00  0.00    -0.031 A 
ATOM      9  C   UNL     1     -48.458  37.483  27.876  1.00  0.00    -0.060 A 
ATOM     10  H   UNL     1     -47.798  39.457  28.273  1.00  0.00     0.064 H 
ATOM     11  H   UNL     1     -44.749  36.452  27.536  1.00  0.00     0.065 H 
ATOM     12  C   UNL     1     -48.119  36.168  27.572  1.00  0.00    -0.055 A 
ATOM     13  H   UNL     1     -49.504  37.766  27.970  1.00  0.00     0.062 H 
ATOM     14  H   UNL     1     -48.910  35.435  27.436  1.00  0.00     0.063 H 
BRANCH   6  15
ATOM     15  N   UNL     1     -45.072  39.098  28.116  1.00  0.00    -0.300 N 
ATOM     16  C   UNL     1     -43.234  42.024  27.181  1.00  0.00     0.137 A 
ATOM     17  N   UNL     1     -43.882  42.430  26.075  1.00  0.00    -0.219 NA
ATOM     18  C   UNL     1     -43.683  40.878  27.855  1.00  0.00     0.080 A 
ATOM     19  C   UNL     1     -44.929  41.706  25.652  1.00  0.00     0.120 A 
ATOM     20  C   UNL     1     -44.778  40.207  27.312  1.00  0.00     0.151 A 
ATOM     21  C   UNL     1     -43.308  40.171  29.018  1.00  0.00     0.072 A 
ATOM     22  N   UNL     1     -45.439  40.599  26.203  1.00  0.00    -0.218 NA
ATOM     23  H   UNL     1     -45.422  42.065  24.754  1.00  0.00     0.106 H 
ATOM     24  Cl  UNL     1     -42.030  40.566  30.069  1.00  0.00    -0.082 Cl
ATOM     25  C   UNL     1     -44.159  39.103  29.160  1.00  0.00     0.030 A 
ATOM     26  H   UNL     1     -44.157  38.341  29.924  1.00  0.00     0.084 H 
BRANCH  16  27
ATOM     27  N   UNL     1     -42.156  42.793  27.588  1.00  0.00    -0.383 N 
ATOM     28  H   UNL     1     -41.543  42.370  28.272  1.00  0.00     0.158 HD
ATOM     29  H   UNL     1     -42.416  43.761  27.731  1.00  0.00     0.158 HD
ENDBRANCH  16  27
ENDBRANCH   6  15
ENDBRANCH   2   5
ENDBRANCH   1   2
BRANCH   1  30
ATOM     30  C   UNL     1     -47.544  32.570  26.048  1.00  0.00     0.122 A 
ATOM     31  C   UNL     1     -46.709  32.781  24.952  1.00  0.00    -0.019 A 
ATOM     32  C   UNL     1     -48.244  31.367  26.153  1.00  0.00     0.007 A 
ATOM     33  C   UNL     1     -46.573  31.797  23.974  1.00  0.00    -0.049 A 
ATOM     34  H   UNL     1     -46.158  33.713  24.861  1.00  0.00     0.066 H 
ATOM     35  C   UNL     1     -48.129  30.369  25.192  1.00  0.00     0.076 A 
ATOM     36  H   UNL     1     -48.904  31.164  26.989  1.00  0.00     0.069 H 
ATOM     37  C   UNL     1     -47.281  30.591  24.091  1.00  0.00     0.001 A 
ATOM     38  H   UNL     1     -45.914  31.976  23.128  1.00  0.00     0.063 H 
ATOM     39  N   UNL     1     -48.828  29.230  25.345  1.00  0.00    -0.231 NA
ATOM     40  C   UNL     1     -47.173  29.577  23.139  1.00  0.00    -0.049 A 
ATOM     41  C   UNL     1     -48.719  28.256  24.421  1.00  0.00     0.126 A 
ATOM     42  C   UNL     1     -47.896  28.400  23.309  1.00  0.00    -0.019 A 
ATOM     43  H   UNL     1     -46.527  29.687  22.272  1.00  0.00     0.063 H 
ATOM     44  H   UNL     1     -47.805  27.597  22.585  1.00  0.00     0.066 H 
BRANCH  41  45
ATOM     45  N   UNL     1     -49.420  27.045  24.557  1.00  0.00    -0.370 N 
ATOM     46  H   UNL     1     -50.408  27.231  24.419  1.00  0.00     0.162 HD
BRANCH  45  47
ATOM     47  C   UNL     1     -49.185  26.289  25.780  1.00  0.00     0.019 C 
ATOM     48  H   UNL     1     -49.369  26.874  26.690  1.00  0.00     0.049 H 
ATOM     49  H   UNL     1     -49.910  25.466  25.803  1.00  0.00     0.049 H 
BRANCH  47  50
ATOM     50  C   UNL     1     -47.817  25.675  25.747  1.00  0.00    -0.024 C 
ATOM     51  C   UNL     1     -46.741  26.099  26.714  1.00  0.00    -0.048 C 
ATOM     52  C   UNL     1     -47.378  24.745  26.853  1.00  0.00    -0.048 C 
ATOM     53  H   UNL     1     -47.516  25.416  24.737  1.00  0.00     0.032 H 
ATOM     54  H   UNL     1     -45.726  26.157  26.338  1.00  0.00     0.027 H 
ATOM     55  H   UNL     1     -46.980  26.856  27.452  1.00  0.00     0.027 H 
ATOM     56  H   UNL     1     -48.042  24.585  27.694  1.00  0.00     0.027 H 
ATOM     57  H   UNL     1     -46.788  23.877  26.580  1.00  0.00     0.027 H 
ENDBRANCH  47  50
ENDBRANCH  45  47
ENDBRANCH  41  45
ENDBRANCH   1  30
TORSDOF 8
ENDMDL
MODEL 2
REMARK VINA RESULT:     -10.8      1.579      2.296
REMARK SMILES Nc1ncnc2c1c(Cl)cn2-c1cccc(COc2ccc3ccc(NCC4CC4)nc3c2)c1
REMARK SMILES IDX 18 1 17 2 16 5 12 6 13 7 34 8 14 9 15 12 11 15 2 16 3 17
REMARK SMILES IDX 7 18 4 19 6 20 8 21 5 22 9 24 10 25 1 27 19 30 20 31 33 32
REMARK SMILES IDX 21 33 32 35 22 37 31 39 23 40 25 41 24 42 26 45 27 47 28 50
REMARK SMILES IDX 29 51 30 52
REMARK H PARENT 17 3 17 4 13 10 34 11 14 13 15 14 4 23 10 26 1 28 1 29 20 34
REMARK H PARENT 33 36 21 38 23 43 24 44 26 46 27 48 27 49 28 53 29 54 29 55
REMARK H PARENT 30 56 30 57
REMARK Flexibility Score: inf
ROOT
ATOM      1  O   UNL     1     -48.454  34.591  27.469  1.00  0.00    -0.489 OA
ENDROOT
BRANCH   1   2
ATOM      2  C   UNL     1     -48.391  35.969  27.100  1.00  0.00     0.113 C 
ATOM      3  H   UNL     1     -49.352  36.450  27.315  1.00  0.00     0.076 H 
ATOM      4  H   UNL     1     -48.151  36.075  26.035  1.00  0.00     0.076 H 
BRANCH   2   5
ATOM      5  C   UNL     1     -47.293  36.641  27.895  1.00  0.00    -0.009 A 
ATOM      6  C   UNL     1     -45.609  38.416  28.105  1.00  0.00     0.047 A 
ATOM      7  C   UNL     1     -45.296  37.928  29.381  1.00  0.00    -0.038 A 
ATOM      8  C   UNL     1     -46.618  37.762  27.375  1.00  0.00    -0.031 A 
ATOM      9  C   UNL     1     -45.968  36.821  29.909  1.00  0.00    -0.060 A 
ATOM     10  H   UNL     1     -44.546  38.388  30.013  1.00  0.00     0.064 H 
ATOM     11  H   UNL     1     -46.898  38.079  26.375  1.00  0.00     0.065 H 
ATOM     12  C   UNL     1     -46.963  36.183  29.174  1.00  0.00    -0.055 A 
ATOM     13  H   UNL     1     -45.712  36.461  30.902  1.00  0.00     0.062 H 
ATOM     14  H   UNL     1     -47.472  35.324  29.605  1.00  0.00     0.063 H 
BRANCH   6  15
ATOM     15  N   UNL     1     -44.929  39.557  27.549  1.00  0.00    -0.300 N 
ATOM     16  C   UNL     1     -42.495  42.181  27.612  1.00  0.00     0.137 A 
ATOM     17  N   UNL     1     -41.866  41.963  28.781  1.00  0.00    -0.219 NA
ATOM     18  C   UNL     1     -43.536  41.324  27.224  1.00  0.00     0.080 A 
ATOM     19  C   UNL     1     -42.277  40.936  29.539  1.00  0.00     0.120 A 
ATOM     20  C   UNL     1     -43.876  40.295  28.103  1.00  0.00     0.151 A 
ATOM     21  C   UNL     1     -44.392  41.203  26.108  1.00  0.00     0.072 A 
ATOM     22  N   UNL     1     -43.258  40.063  29.280  1.00  0.00    -0.218 NA
ATOM     23  H   UNL     1     -41.747  40.797  30.476  1.00  0.00     0.106 H 
ATOM     24  Cl  UNL     1     -44.398  42.204  24.732  1.00  0.00    -0.082 Cl
ATOM     25  C   UNL     1     -45.221  40.131  26.321  1.00  0.00     0.030 A 
ATOM     26  H   UNL     1     -46.010  39.756  25.686  1.00  0.00     0.084 H 
BRANCH  16  27
ATOM     27  N   UNL     1     -42.047  43.251  26.855  1.00  0.00    -0.383 N 
ATOM     28  H   UNL     1     -41.057  43.264  26.646  1.00  0.00     0.158 HD
ATOM     29  H   UNL     1     -42.472  44.123  27.147  1.00  0.00     0.158 HD
ENDBRANCH  16  27
ENDBRANCH   6  15
ENDBRANCH   2   5
ENDBRANCH   1   2
BRANCH   1  30
ATOM     30  C   UNL     1     -48.002  33.680  26.556  1.00  0.00     0.122 A 
ATOM     31  C   UNL     1     -46.924  34.117  25.787  1.00  0.00    -0.019 A 
ATOM     32  C   UNL     1     -48.518  32.400  26.343  1.00  0.00     0.007 A 
ATOM     33  C   UNL     1     -46.368  33.282  24.819  1.00  0.00    -0.049 A 
ATOM     34  H   UNL     1     -46.512  35.110  25.945  1.00  0.00     0.066 H 
ATOM     35  C   UNL     1     -47.985  31.547  25.384  1.00  0.00     0.076 A 
ATOM     36  H   UNL     1     -49.356  32.022  26.919  1.00  0.00     0.069 H 
ATOM     37  C   UNL     1     -46.895  31.997  24.616  1.00  0.00     0.001 A 
ATOM     38  H   UNL     1     -45.524  33.637  24.232  1.00  0.00     0.063 H 
ATOM     39  N   UNL     1     -48.524  30.325  25.223  1.00  0.00    -0.231 NA
ATOM     40  C   UNL     1     -46.368  31.126  23.662  1.00  0.00    -0.049 A 
ATOM     41  C   UNL     1     -48.011  29.490  24.299  1.00  0.00     0.126 A 
ATOM     42  C   UNL     1     -46.930  29.863  23.506  1.00  0.00    -0.019 A 
ATOM     43  H   UNL     1     -45.522  31.415  23.045  1.00  0.00     0.063 H 
ATOM     44  H   UNL     1     -46.516  29.170  22.781  1.00  0.00     0.066 H 
BRANCH  41  45
ATOM     45  N   UNL     1     -48.536  28.200  24.115  1.00  0.00    -0.370 N 
ATOM     46  H   UNL     1     -49.337  28.092  24.729  1.00  0.00     0.162 HD
BRANCH  45  47
ATOM     47  C   UNL     1     -47.603  27.090  24.254  1.00  0.00     0.019 C 
ATOM     48  H   UNL     1     -47.833  26.249  23.588  1.00  0.00     0.049 H 
ATOM     49  H   UNL     1     -46.614  27.450  23.948  1.00  0.00     0.049 H 
BRANCH  47  50
ATOM     50  C   UNL     1     -47.502  26.684  25.695  1.00  0.00    -0.024 C 
ATOM     51  C   UNL     1     -48.590  25.884  26.365  1.00  0.00    -0.048 C 
ATOM     52  C   UNL     1     -47.269  25.237  26.058  1.00  0.00    -0.048 C 
ATOM     53  H   UNL     1     -46.985  27.431  26.288  1.00  0.00     0.032 H 
ATOM     54  H   UNL     1     -48.822  26.123  27.396  1.00  0.00     0.027 H 
ATOM     55  H   UNL     1     -49.453  25.593  25.776  1.00  0.00     0.027 H 
ATOM     56  H   UNL     1     -47.242  24.498  25.267  1.00  0.00     0.027 H 
ATOM     57  H   UNL     1     -46.605  25.025  26.889  1.00  0.00     0.027 H 
ENDBRANCH  47  50
ENDBRANCH  45  47
ENDBRANCH  41  45
ENDBRANCH   1  30
TORSDOF 8
ENDMDL
MODEL 3
REMARK VINA RESULT:     -10.3      1.773      2.384
REMARK SMILES Nc1ncnc2c1c(Cl)cn2-c1cccc(COc2ccc3ccc(NCC4CC4)nc3c2)c1
REMARK SMILES IDX 18 1 17 2 16 5 12 6 13 7 34 8 14 9 15 12 11 15 2 16 3 17
REMARK SMILES IDX 7 18 4 19 6 20 8 21 5 22 9 24 10 25 1 27 19 30 20 31 33 32
REMARK SMILES IDX 21 33 32 35 22 37 31 39 23 40 25 41 24 42 26 45 27 47 28 50
REMARK SMILES IDX 29 51 30 52
REMARK H PARENT 17 3 17 4 13 10 34 11 14 13 15 14 4 23 10 26 1 28 1 29 20 34
REMARK H PARENT 33 36 21 38 23 43 24 44 26 46 27 48 27 49 28 53 29 54 29 55
REMARK H PARENT 30 56 30 57
REMARK Flexibility Score: inf
ROOT
ATOM      1  O   UNL     1     -47.621  33.824  27.015  1.00  0.00    -0.489 OA
ENDROOT
BRANCH   1   2
ATOM      2  C   UNL     1     -47.850  35.130  26.485  1.00  0.00     0.113 C 
ATOM      3  H   UNL     1     -48.892  35.420  26.663  1.00  0.00     0.076 H 
ATOM      4  H   UNL     1     -47.636  35.155  25.409  1.00  0.00     0.076 H 
BRANCH   2   5
ATOM      5  C   UNL     1     -46.922  36.109  27.169  1.00  0.00    -0.009 A 
ATOM      6  C   UNL     1     -45.965  38.366  27.331  1.00  0.00     0.047 A 
ATOM      7  C   UNL     1     -45.248  37.949  28.460  1.00  0.00    -0.038 A 
ATOM      8  C   UNL     1     -46.805  37.432  26.698  1.00  0.00    -0.031 A 
ATOM      9  C   UNL     1     -45.366  36.640  28.940  1.00  0.00    -0.060 A 
ATOM     10  H   UNL     1     -44.596  38.613  29.015  1.00  0.00     0.064 H 
ATOM     11  H   UNL     1     -47.376  37.684  25.809  1.00  0.00     0.065 H 
ATOM     12  C   UNL     1     -46.200  35.726  28.302  1.00  0.00    -0.055 A 
ATOM     13  H   UNL     1     -44.803  36.339  29.820  1.00  0.00     0.062 H 
ATOM     14  H   UNL     1     -46.275  34.715  28.694  1.00  0.00     0.063 H 
BRANCH   6  15
ATOM     15  N   UNL     1     -45.858  39.710  26.826  1.00  0.00    -0.300 N 
ATOM     16  C   UNL     1     -47.172  42.932  25.988  1.00  0.00     0.137 A 
ATOM     17  N   UNL     1     -48.455  42.831  26.379  1.00  0.00    -0.219 NA
ATOM     18  C   UNL     1     -46.313  41.837  26.168  1.00  0.00     0.080 A 
ATOM     19  C   UNL     1     -48.864  41.672  26.916  1.00  0.00     0.120 A 
ATOM     20  C   UNL     1     -46.859  40.684  26.731  1.00  0.00     0.151 A 
ATOM     21  C   UNL     1     -44.949  41.564  25.926  1.00  0.00     0.072 A 
ATOM     22  N   UNL     1     -48.144  40.564  27.127  1.00  0.00    -0.218 NA
ATOM     23  H   UNL     1     -49.907  41.629  27.214  1.00  0.00     0.106 H 
ATOM     24  Cl  UNL     1     -43.812  42.636  25.254  1.00  0.00    -0.082 Cl
ATOM     25  C   UNL     1     -44.693  40.279  26.332  1.00  0.00     0.030 A 
ATOM     26  H   UNL     1     -43.764  39.731  26.281  1.00  0.00     0.084 H 
BRANCH  16  27
ATOM     27  N   UNL     1     -46.784  44.142  25.437  1.00  0.00    -0.383 N 
ATOM     28  H   UNL     1     -47.504  44.658  24.947  1.00  0.00     0.158 HD
ATOM     29  H   UNL     1     -45.875  44.081  24.996  1.00  0.00     0.158 HD
ENDBRANCH  16  27
ENDBRANCH   6  15
ENDBRANCH   2   5
ENDBRANCH   1   2
BRANCH   1  30
ATOM     30  C   UNL     1     -47.506  32.798  26.119  1.00  0.00     0.122 A 
ATOM     31  C   UNL     1     -46.619  33.041  25.072  1.00  0.00    -0.019 A 
ATOM     32  C   UNL     1     -48.185  31.579  26.172  1.00  0.00     0.007 A 
ATOM     33  C   UNL     1     -46.411  32.074  24.090  1.00  0.00    -0.049 A 
ATOM     34  H   UNL     1     -46.084  33.985  25.022  1.00  0.00     0.066 H 
ATOM     35  C   UNL     1     -47.998  30.598  25.206  1.00  0.00     0.076 A 
ATOM     36  H   UNL     1     -48.884  31.351  26.969  1.00  0.00     0.069 H 
ATOM     37  C   UNL     1     -47.098  30.851  24.154  1.00  0.00     0.001 A 
ATOM     38  H   UNL     1     -45.712  32.277  23.282  1.00  0.00     0.063 H 
ATOM     39  N   UNL     1     -48.680  29.442  25.307  1.00  0.00    -0.231 NA
ATOM     40  C   UNL     1     -46.919  29.853  23.196  1.00  0.00    -0.049 A 
ATOM     41  C   UNL     1     -48.503  28.483  24.378  1.00  0.00     0.126 A 
ATOM     42  C   UNL     1     -47.626  28.660  23.313  1.00  0.00    -0.019 A 
ATOM     43  H   UNL     1     -46.231  29.988  22.367  1.00  0.00     0.063 H 
ATOM     44  H   UNL     1     -47.479  27.869  22.585  1.00  0.00     0.066 H 
BRANCH  41  45
ATOM     45  N   UNL     1     -49.183  27.257  24.462  1.00  0.00    -0.370 N 
ATOM     46  H   UNL     1     -50.163  27.421  24.254  1.00  0.00     0.162 HD
BRANCH  45  47
ATOM     47  C   UNL     1     -49.020  26.502  25.697  1.00  0.00     0.019 C 
ATOM     48  H   UNL     1     -49.188  27.107  26.597  1.00  0.00     0.049 H 
ATOM     49  H   UNL     1     -49.793  25.724  25.712  1.00  0.00     0.049 H 
BRANCH  47  50
ATOM     50  C   UNL     1     -47.690  25.807  25.700  1.00  0.00    -0.024 C 
ATOM     51  C   UNL     1     -46.668  26.069  26.777  1.00  0.00    -0.048 C 
ATOM     52  C   UNL     1     -47.391  24.752  26.738  1.00  0.00    -0.048 C 
ATOM     53  H   UNL     1     -47.329  25.626  24.693  1.00  0.00     0.032 H 
ATOM     54  H   UNL     1     -45.627  26.097  26.480  1.00  0.00     0.027 H 
ATOM     55  H   UNL     1     -46.920  26.768  27.567  1.00  0.00     0.027 H 
ATOM     56  H   UNL     1     -48.124  24.557  27.510  1.00  0.00     0.027 H 
ATOM     57  H   UNL     1     -46.832  23.878  26.423  1.00  0.00     0.027 H 
ENDBRANCH  47  50
ENDBRANCH  45  47
ENDBRANCH  41  45
ENDBRANCH   1  30
TORSDOF 8
ENDMDL
MODEL 4
REMARK VINA RESULT:      -9.9      3.756     11.984
REMARK SMILES Nc1ncnc2c1c(Cl)cn2-c1cccc(COc2ccc3ccc(NCC4CC4)nc3c2)c1
REMARK SMILES IDX 18 1 17 2 16 5 12 6 13 7 34 8 14 9 15 12 11 15 2 16 3 17
REMARK SMILES IDX 7 18 4 19 6 20 8 21 5 22 9 24 10 25 1 27 19 30 20 31 33 32
REMARK SMILES IDX 21 33 32 35 22 37 31 39 23 40 25 41 24 42 26 45 27 47 28 50
REMARK SMILES IDX 29 51 30 52
REMARK H PARENT 17 3 17 4 13 10 34 11 14 13 15 14 4 23 10 26 1 28 1 29 20 34
REMARK H PARENT 33 36 21 38 23 43 24 44 26 46 27 48 27 49 28 53 29 54 29 55
REMARK H PARENT 30 56 30 57
REMARK Flexibility Score: inf
ROOT
ATOM      1  O   UNL     1     -46.660  37.549  28.010  1.00  0.00    -0.489 OA
ENDROOT
BRANCH   1   2
ATOM      2  C   UNL     1     -46.645  36.950  26.714  1.00  0.00     0.113 C 
ATOM      3  H   UNL     1     -45.761  37.291  26.163  1.00  0.00     0.076 H 
ATOM      4  H   UNL     1     -47.554  37.207  26.157  1.00  0.00     0.076 H 
BRANCH   2   5
ATOM      5  C   UNL     1     -46.601  35.446  26.869  1.00  0.00    -0.009 A 
ATOM      6  C   UNL     1     -47.222  33.211  26.059  1.00  0.00     0.047 A 
ATOM      7  C   UNL     1     -46.484  32.656  27.112  1.00  0.00    -0.038 A 
ATOM      8  C   UNL     1     -47.266  34.613  25.947  1.00  0.00    -0.031 A 
ATOM      9  C   UNL     1     -45.812  33.476  28.026  1.00  0.00    -0.060 A 
ATOM     10  H   UNL     1     -46.384  31.587  27.254  1.00  0.00     0.064 H 
ATOM     11  H   UNL     1     -47.834  35.108  25.165  1.00  0.00     0.065 H 
ATOM     12  C   UNL     1     -45.867  34.861  27.904  1.00  0.00    -0.055 A 
ATOM     13  H   UNL     1     -45.242  33.024  28.833  1.00  0.00     0.062 H 
ATOM     14  H   UNL     1     -45.337  35.478  28.626  1.00  0.00     0.063 H 
BRANCH   6  15
ATOM     15  N   UNL     1     -47.916  32.382  25.108  1.00  0.00    -0.300 N 
ATOM     16  C   UNL     1     -48.071  30.181  22.289  1.00  0.00     0.137 A 
ATOM     17  N   UNL     1     -46.775  30.043  21.959  1.00  0.00    -0.219 NA
ATOM     18  C   UNL     1     -48.418  30.989  23.384  1.00  0.00     0.080 A 
ATOM     19  C   UNL     1     -45.862  30.701  22.689  1.00  0.00     0.120 A 
ATOM     20  C   UNL     1     -47.377  31.627  24.059  1.00  0.00     0.151 A 
ATOM     21  C   UNL     1     -49.612  31.354  24.040  1.00  0.00     0.072 A 
ATOM     22  N   UNL     1     -46.072  31.501  23.741  1.00  0.00    -0.218 NA
ATOM     23  H   UNL     1     -44.828  30.566  22.389  1.00  0.00     0.106 H 
ATOM     24  Cl  UNL     1     -51.183  30.846  23.628  1.00  0.00    -0.082 Cl
ATOM     25  C   UNL     1     -49.289  32.191  25.079  1.00  0.00     0.030 A 
ATOM     26  H   UNL     1     -49.950  32.675  25.781  1.00  0.00     0.084 H 
BRANCH  16  27
ATOM     27  N   UNL     1     -48.988  29.490  21.513  1.00  0.00    -0.383 N 
ATOM     28  H   UNL     1     -49.940  29.829  21.545  1.00  0.00     0.158 HD
ATOM     29  H   UNL     1     -48.848  28.489  21.567  1.00  0.00     0.158 HD
ENDBRANCH  16  27
ENDBRANCH   6  15
ENDBRANCH   2   5
ENDBRANCH   1   2
BRANCH   1  30
ATOM     30  C   UNL     1     -45.606  38.357  28.336  1.00  0.00     0.122 A 
ATOM     31  C   UNL     1     -45.003  38.059  29.557  1.00  0.00    -0.019 A 
ATOM     32  C   UNL     1     -45.111  39.415  27.570  1.00  0.00     0.007 A 
ATOM     33  C   UNL     1     -43.917  38.808  30.005  1.00  0.00    -0.049 A 
ATOM     34  H   UNL     1     -45.379  37.237  30.160  1.00  0.00     0.066 H 
ATOM     35  C   UNL     1     -44.030  40.179  27.992  1.00  0.00     0.076 A 
ATOM     36  H   UNL     1     -45.552  39.680  26.614  1.00  0.00     0.069 H 
ATOM     37  C   UNL     1     -43.427  39.868  29.225  1.00  0.00     0.001 A 
ATOM     38  H   UNL     1     -43.456  38.559  30.958  1.00  0.00     0.063 H 
ATOM     39  N   UNL     1     -43.597  41.187  27.213  1.00  0.00    -0.231 NA
ATOM     40  C   UNL     1     -42.341  40.642  29.632  1.00  0.00    -0.049 A 
ATOM     41  C   UNL     1     -42.548  41.930  27.612  1.00  0.00     0.126 A 
ATOM     42  C   UNL     1     -41.897  41.679  28.816  1.00  0.00    -0.019 A 
ATOM     43  H   UNL     1     -41.829  40.443  30.569  1.00  0.00     0.063 H 
ATOM     44  H   UNL     1     -41.041  42.274  29.113  1.00  0.00     0.066 H 
BRANCH  41  45
ATOM     45  N   UNL     1     -42.056  42.979  26.816  1.00  0.00    -0.370 N 
ATOM     46  H   UNL     1     -41.628  43.668  27.426  1.00  0.00     0.162 HD
BRANCH  45  47
ATOM     47  C   UNL     1     -42.999  43.595  25.893  1.00  0.00     0.019 C 
ATOM     48  H   UNL     1     -42.519  43.995  24.991  1.00  0.00     0.049 H 
ATOM     49  H   UNL     1     -43.680  42.809  25.544  1.00  0.00     0.049 H 
BRANCH  47  50
ATOM     50  C   UNL     1     -43.830  44.614  26.614  1.00  0.00    -0.024 C 
ATOM     51  C   UNL     1     -44.631  45.649  25.866  1.00  0.00    -0.048 C 
ATOM     52  C   UNL     1     -45.337  44.527  26.573  1.00  0.00    -0.048 C 
ATOM     53  H   UNL     1     -43.378  44.907  27.556  1.00  0.00     0.032 H 
ATOM     54  H   UNL     1     -44.683  46.644  26.292  1.00  0.00     0.027 H 
ATOM     55  H   UNL     1     -44.606  45.636  24.782  1.00  0.00     0.027 H 
ATOM     56  H   UNL     1     -45.800  43.760  25.965  1.00  0.00     0.027 H 
ATOM     57  H   UNL     1     -45.882  44.764  27.480  1.00  0.00     0.027 H 
ENDBRANCH  47  50
ENDBRANCH  45  47
ENDBRANCH  41  45
ENDBRANCH   1  30
TORSDOF 8
ENDMDL
MODEL 5
REMARK VINA RESULT:      -9.6      2.939      5.006
REMARK SMILES Nc1ncnc2c1c(Cl)cn2-c1cccc(COc2ccc3ccc(NCC4CC4)nc3c2)c1
REMARK SMILES IDX 18 1 17 2 16 5 12 6 13 7 34 8 14 9 15 12 11 15 2 16 3 17
REMARK SMILES IDX 7 18 4 19 6 20 8 21 5 22 9 24 10 25 1 27 19 30 20 31 33 32
REMARK SMILES IDX 21 33 32 35 22 37 31 39 23 40 25 41 24 42 26 45 27 47 28 50
REMARK SMILES IDX 29 51 30 52
REMARK H PARENT 17 3 17 4 13 10 34 11 14 13 15 14 4 23 10 26 1 28 1 29 20 34
REMARK H PARENT 33 36 21 38 23 43 24 44 26 46 27 48 27 49 28 53 29 54 29 55
REMARK H PARENT 30 56 30 57
REMARK Flexibility Score: inf
ROOT
ATOM      1  O   UNL     1     -44.925  36.980  28.218  1.00  0.00    -0.489 OA
ENDROOT
BRANCH   1   2
ATOM      2  C   UNL     1     -45.333  38.059  29.060  1.00  0.00     0.113 C 
ATOM      3  H   UNL     1     -45.326  37.730  30.106  1.00  0.00     0.076 H 
ATOM      4  H   UNL     1     -46.338  38.407  28.787  1.00  0.00     0.076 H 
BRANCH   2   5
ATOM      5  C   UNL     1     -44.373  39.214  28.881  1.00  0.00    -0.009 A 
ATOM      6  C   UNL     1     -43.654  41.199  27.625  1.00  0.00     0.047 A 
ATOM      7  C   UNL     1     -42.634  41.389  28.567  1.00  0.00    -0.038 A 
ATOM      8  C   UNL     1     -44.522  40.106  27.801  1.00  0.00    -0.031 A 
ATOM      9  C   UNL     1     -42.485  40.513  29.648  1.00  0.00    -0.060 A 
ATOM     10  H   UNL     1     -41.938  42.218  28.513  1.00  0.00     0.064 H 
ATOM     11  H   UNL     1     -45.322  39.891  27.099  1.00  0.00     0.065 H 
ATOM     12  C   UNL     1     -43.350  39.435  29.807  1.00  0.00    -0.055 A 
ATOM     13  H   UNL     1     -41.689  40.682  30.369  1.00  0.00     0.062 H 
ATOM     14  H   UNL     1     -43.215  38.768  30.656  1.00  0.00     0.063 H 
BRANCH   6  15
ATOM     15  N   UNL     1     -43.823  42.092  26.510  1.00  0.00    -0.300 N 
ATOM     16  C   UNL     1     -45.736  44.270  24.409  1.00  0.00     0.137 A 
ATOM     17  N   UNL     1     -46.942  44.257  25.003  1.00  0.00    -0.219 NA
ATOM     18  C   UNL     1     -44.690  43.518  24.966  1.00  0.00     0.080 A 
ATOM     19  C   UNL     1     -47.098  43.507  26.104  1.00  0.00     0.120 A 
ATOM     20  C   UNL     1     -44.980  42.772  26.108  1.00  0.00     0.151 A 
ATOM     21  C   UNL     1     -43.328  43.297  24.671  1.00  0.00     0.072 A 
ATOM     22  N   UNL     1     -46.184  42.746  26.717  1.00  0.00    -0.218 NA
ATOM     23  H   UNL     1     -48.087  43.521  26.551  1.00  0.00     0.106 H 
ATOM     24  Cl  UNL     1     -42.454  43.975  23.378  1.00  0.00    -0.082 Cl
ATOM     25  C   UNL     1     -42.821  42.438  25.614  1.00  0.00     0.030 A 
ATOM     26  H   UNL     1     -41.821  42.039  25.691  1.00  0.00     0.084 H 
BRANCH  16  27
ATOM     27  N   UNL     1     -45.610  45.053  23.273  1.00  0.00    -0.383 N 
ATOM     28  H   UNL     1     -44.845  44.818  22.655  1.00  0.00     0.158 HD
ATOM     29  H   UNL     1     -45.762  46.034  23.473  1.00  0.00     0.158 HD
ENDBRANCH  16  27
ENDBRANCH   6  15
ENDBRANCH   2   5
ENDBRANCH   1   2
BRANCH   1  30
ATOM     30  C   UNL     1     -45.906  36.156  27.742  1.00  0.00     0.122 A 
ATOM     31  C   UNL     1     -47.195  36.680  27.826  1.00  0.00    -0.019 A 
ATOM     32  C   UNL     1     -45.721  34.881  27.204  1.00  0.00     0.007 A 
ATOM     33  C   UNL     1     -48.286  35.939  27.374  1.00  0.00    -0.049 A 
ATOM     34  H   UNL     1     -47.351  37.672  28.242  1.00  0.00     0.066 H 
ATOM     35  C   UNL     1     -46.790  34.119  26.747  1.00  0.00     0.076 A 
ATOM     36  H   UNL     1     -44.735  34.436  27.121  1.00  0.00     0.069 H 
ATOM     37  C   UNL     1     -48.087  34.659  26.833  1.00  0.00     0.001 A 
ATOM     38  H   UNL     1     -49.284  36.366  27.443  1.00  0.00     0.063 H 
ATOM     39  N   UNL     1     -46.552  32.896  26.238  1.00  0.00    -0.231 NA
ATOM     40  C   UNL     1     -49.147  33.883  26.365  1.00  0.00    -0.049 A 
ATOM     41  C   UNL     1     -47.581  32.153  25.789  1.00  0.00     0.126 A 
ATOM     42  C   UNL     1     -48.889  32.622  25.836  1.00  0.00    -0.019 A 
ATOM     43  H   UNL     1     -50.169  34.251  26.398  1.00  0.00     0.063 H 
ATOM     44  H   UNL     1     -49.704  32.018  25.451  1.00  0.00     0.066 H 
BRANCH  41  45
ATOM     45  N   UNL     1     -47.369  30.879  25.234  1.00  0.00    -0.370 N 
ATOM     46  H   UNL     1     -46.458  30.547  25.538  1.00  0.00     0.162 HD
BRANCH  45  47
ATOM     47  C   UNL     1     -47.524  30.762  23.790  1.00  0.00     0.019 C 
ATOM     48  H   UNL     1     -48.075  29.862  23.489  1.00  0.00     0.049 H 
ATOM     49  H   UNL     1     -48.133  31.610  23.455  1.00  0.00     0.049 H 
BRANCH  47  50
ATOM     50  C   UNL     1     -46.188  30.881  23.120  1.00  0.00    -0.024 C 
ATOM     51  C   UNL     1     -45.604  29.744  22.321  1.00  0.00    -0.048 C 
ATOM     52  C   UNL     1     -46.102  30.974  21.615  1.00  0.00    -0.048 C 
ATOM     53  H   UNL     1     -45.505  31.500  23.692  1.00  0.00     0.032 H 
ATOM     54  H   UNL     1     -44.535  29.583  22.389  1.00  0.00     0.027 H 
ATOM     55  H   UNL     1     -46.181  28.830  22.227  1.00  0.00     0.027 H 
ATOM     56  H   UNL     1     -47.012  30.887  21.034  1.00  0.00     0.027 H 
ATOM     57  H   UNL     1     -45.366  31.646  21.191  1.00  0.00     0.027 H 
ENDBRANCH  47  50
ENDBRANCH  45  47
ENDBRANCH  41  45
ENDBRANCH   1  30
TORSDOF 8
ENDMDL
MODEL 6
REMARK VINA RESULT:      -9.6      3.381     11.783
REMARK SMILES Nc1ncnc2c1c(Cl)cn2-c1cccc(COc2ccc3ccc(NCC4CC4)nc3c2)c1
REMARK SMILES IDX 18 1 17 2 16 5 12 6 13 7 34 8 14 9 15 12 11 15 2 16 3 17
REMARK SMILES IDX 7 18 4 19 6 20 8 21 5 22 9 24 10 25 1 27 19 30 20 31 33 32
REMARK SMILES IDX 21 33 32 35 22 37 31 39 23 40 25 41 24 42 26 45 27 47 28 50
REMARK SMILES IDX 29 51 30 52
REMARK H PARENT 17 3 17 4 13 10 34 11 14 13 15 14 4 23 10 26 1 28 1 29 20 34
REMARK H PARENT 33 36 21 38 23 43 24 44 26 46 27 48 27 49 28 53 29 54 29 55
REMARK H PARENT 30 56 30 57
REMARK Flexibility Score: inf
ROOT
ATOM      1  O   UNL     1     -48.334  35.289  28.242  1.00  0.00    -0.489 OA
ENDROOT
BRANCH   1   2
ATOM      2  C   UNL     1     -48.963  35.006  26.992  1.00  0.00     0.113 C 
ATOM      3  H   UNL     1     -49.084  35.936  26.423  1.00  0.00     0.076 H 
ATOM      4  H   UNL     1     -49.942  34.535  27.147  1.00  0.00     0.076 H 
BRANCH   2   5
ATOM      5  C   UNL     1     -48.098  34.040  26.213  1.00  0.00    -0.009 A 
ATOM      6  C   UNL     1     -47.833  31.893  25.051  1.00  0.00     0.047 A 
ATOM      7  C   UNL     1     -46.523  32.264  24.723  1.00  0.00    -0.038 A 
ATOM      8  C   UNL     1     -48.612  32.798  25.794  1.00  0.00    -0.031 A 
ATOM      9  C   UNL     1     -46.007  33.500  25.127  1.00  0.00    -0.060 A 
ATOM     10  H   UNL     1     -45.867  31.632  24.137  1.00  0.00     0.064 H 
ATOM     11  H   UNL     1     -49.630  32.565  26.095  1.00  0.00     0.065 H 
ATOM     12  C   UNL     1     -46.789  34.385  25.864  1.00  0.00    -0.055 A 
ATOM     13  H   UNL     1     -44.989  33.770  24.859  1.00  0.00     0.062 H 
ATOM     14  H   UNL     1     -46.366  35.340  26.166  1.00  0.00     0.063 H 
BRANCH   6  15
ATOM     15  N   UNL     1     -48.380  30.626  24.640  1.00  0.00    -0.300 N 
ATOM     16  C   UNL     1     -49.430  28.231  22.195  1.00  0.00     0.137 A 
ATOM     17  N   UNL     1     -49.125  28.846  21.039  1.00  0.00    -0.219 NA
ATOM     18  C   UNL     1     -49.149  28.876  23.410  1.00  0.00     0.080 A 
ATOM     19  C   UNL     1     -48.575  30.068  21.098  1.00  0.00     0.120 A 
ATOM     20  C   UNL     1     -48.582  30.148  23.339  1.00  0.00     0.151 A 
ATOM     21  C   UNL     1     -49.285  28.568  24.780  1.00  0.00     0.072 A 
ATOM     22  N   UNL     1     -48.271  30.781  22.188  1.00  0.00    -0.218 NA
ATOM     23  H   UNL     1     -48.348  30.532  20.143  1.00  0.00     0.106 H 
ATOM     24  Cl  UNL     1     -49.918  27.128  25.430  1.00  0.00    -0.082 Cl
ATOM     25  C   UNL     1     -48.814  29.633  25.506  1.00  0.00     0.030 A 
ATOM     26  H   UNL     1     -48.779  29.752  26.578  1.00  0.00     0.084 H 
BRANCH  16  27
ATOM     27  N   UNL     1     -49.999  26.971  22.098  1.00  0.00    -0.383 N 
ATOM     28  H   UNL     1     -50.556  26.799  21.271  1.00  0.00     0.158 HD
ATOM     29  H   UNL     1     -50.374  26.658  22.985  1.00  0.00     0.158 HD
ENDBRANCH  16  27
ENDBRANCH   6  15
ENDBRANCH   2   5
ENDBRANCH   1   2
BRANCH   1  30
ATOM     30  C   UNL     1     -47.396  36.284  28.257  1.00  0.00     0.122 A 
ATOM     31  C   UNL     1     -46.476  36.197  29.301  1.00  0.00    -0.019 A 
ATOM     32  C   UNL     1     -47.296  37.336  27.344  1.00  0.00     0.007 A 
ATOM     33  C   UNL     1     -45.467  37.150  29.429  1.00  0.00    -0.049 A 
ATOM     34  H   UNL     1     -46.543  35.381  30.016  1.00  0.00     0.066 H 
ATOM     35  C   UNL     1     -46.302  38.301  27.448  1.00  0.00     0.076 A 
ATOM     36  H   UNL     1     -47.992  37.440  26.518  1.00  0.00     0.069 H 
ATOM     37  C   UNL     1     -45.377  38.203  28.505  1.00  0.00     0.001 A 
ATOM     38  H   UNL     1     -44.756  37.065  30.247  1.00  0.00     0.063 H 
ATOM     39  N   UNL     1     -46.255  39.293  26.541  1.00  0.00    -0.231 NA
ATOM     40  C   UNL     1     -44.382  39.177  28.591  1.00  0.00    -0.049 A 
ATOM     41  C   UNL     1     -45.292  40.230  26.631  1.00  0.00     0.126 A 
ATOM     42  C   UNL     1     -44.340  40.196  27.644  1.00  0.00    -0.019 A 
ATOM     43  H   UNL     1     -43.635  39.148  29.379  1.00  0.00     0.063 H 
ATOM     44  H   UNL     1     -43.559  40.947  27.690  1.00  0.00     0.066 H 
BRANCH  41  45
ATOM     45  N   UNL     1     -45.201  41.270  25.690  1.00  0.00    -0.370 N 
ATOM     46  H   UNL     1     -44.736  40.911  24.862  1.00  0.00     0.162 HD
BRANCH  45  47
ATOM     47  C   UNL     1     -44.592  42.512  26.147  1.00  0.00     0.019 C 
ATOM     48  H   UNL     1     -45.329  43.286  26.397  1.00  0.00     0.049 H 
ATOM     49  H   UNL     1     -44.061  42.294  27.081  1.00  0.00     0.049 H 
BRANCH  47  50
ATOM     50  C   UNL     1     -43.570  42.977  25.153  1.00  0.00    -0.024 C 
ATOM     51  C   UNL     1     -43.095  44.408  25.123  1.00  0.00    -0.048 C 
ATOM     52  C   UNL     1     -42.174  43.326  25.609  1.00  0.00    -0.048 C 
ATOM     53  H   UNL     1     -43.664  42.455  24.206  1.00  0.00     0.032 H 
ATOM     54  H   UNL     1     -42.906  44.851  24.152  1.00  0.00     0.027 H 
ATOM     55  H   UNL     1     -43.501  45.101  25.851  1.00  0.00     0.027 H 
ATOM     56  H   UNL     1     -41.948  43.295  26.668  1.00  0.00     0.027 H 
ATOM     57  H   UNL     1     -41.346  43.040  24.970  1.00  0.00     0.027 H 
ENDBRANCH  47  50
ENDBRANCH  45  47
ENDBRANCH  41  45
ENDBRANCH   1  30
TORSDOF 8
ENDMDL
MODEL 7
REMARK VINA RESULT:      -9.4      2.350      3.536
REMARK SMILES Nc1ncnc2c1c(Cl)cn2-c1cccc(COc2ccc3ccc(NCC4CC4)nc3c2)c1
REMARK SMILES IDX 18 1 17 2 16 5 12 6 13 7 34 8 14 9 15 12 11 15 2 16 3 17
REMARK SMILES IDX 7 18 4 19 6 20 8 21 5 22 9 24 10 25 1 27 19 30 20 31 33 32
REMARK SMILES IDX 21 33 32 35 22 37 31 39 23 40 25 41 24 42 26 45 27 47 28 50
REMARK SMILES IDX 29 51 30 52
REMARK H PARENT 17 3 17 4 13 10 34 11 14 13 15 14 4 23 10 26 1 28 1 29 20 34
REMARK H PARENT 33 36 21 38 23 43 24 44 26 46 27 48 27 49 28 53 29 54 29 55
REMARK H PARENT 30 56 30 57
REMARK Flexibility Score: inf
ROOT
ATOM      1  O   UNL     1     -46.716  35.685  26.663  1.00  0.00    -0.489 OA
ENDROOT
BRANCH   1   2
ATOM      2  C   UNL     1     -47.346  36.146  27.858  1.00  0.00     0.113 C 
ATOM      3  H   UNL     1     -46.788  35.783  28.730  1.00  0.00     0.076 H 
ATOM      4  H   UNL     1     -48.385  35.796  27.909  1.00  0.00     0.076 H 
BRANCH   2   5
ATOM      5  C   UNL     1     -47.362  37.658  27.855  1.00  0.00    -0.009 A 
ATOM      6  C   UNL     1     -46.162  39.792  27.652  1.00  0.00     0.047 A 
ATOM      7  C   UNL     1     -47.385  40.460  27.792  1.00  0.00    -0.038 A 
ATOM      8  C   UNL     1     -46.168  38.385  27.679  1.00  0.00    -0.031 A 
ATOM      9  C   UNL     1     -48.577  39.745  27.958  1.00  0.00    -0.060 A 
ATOM     10  H   UNL     1     -47.467  41.540  27.762  1.00  0.00     0.064 H 
ATOM     11  H   UNL     1     -45.254  37.806  27.593  1.00  0.00     0.065 H 
ATOM     12  C   UNL     1     -48.567  38.354  27.985  1.00  0.00    -0.055 A 
ATOM     13  H   UNL     1     -49.515  40.284  28.061  1.00  0.00     0.062 H 
ATOM     14  H   UNL     1     -49.506  37.820  28.114  1.00  0.00     0.063 H 
BRANCH   6  15
ATOM     15  N   UNL     1     -44.928  40.512  27.477  1.00  0.00    -0.300 N 
ATOM     16  C   UNL     1     -42.797  42.866  25.823  1.00  0.00     0.137 A 
ATOM     17  N   UNL     1     -43.597  43.348  24.856  1.00  0.00    -0.219 NA
ATOM     18  C   UNL     1     -43.299  41.898  26.707  1.00  0.00     0.080 A 
ATOM     19  C   UNL     1     -44.847  42.868  24.769  1.00  0.00     0.120 A 
ATOM     20  C   UNL     1     -44.612  41.473  26.508  1.00  0.00     0.151 A 
ATOM     21  C   UNL     1     -42.808  41.190  27.825  1.00  0.00     0.072 A 
ATOM     22  N   UNL     1     -45.428  41.945  25.543  1.00  0.00    -0.218 NA
ATOM     23  H   UNL     1     -45.459  43.281  23.973  1.00  0.00     0.106 H 
ATOM     24  Cl  UNL     1     -41.254  41.333  28.504  1.00  0.00    -0.082 Cl
ATOM     25  C   UNL     1     -43.805  40.363  28.278  1.00  0.00     0.030 A 
ATOM     26  H   UNL     1     -43.777  39.667  29.102  1.00  0.00     0.084 H 
BRANCH  16  27
ATOM     27  N   UNL     1     -41.513  43.382  25.883  1.00  0.00    -0.383 N 
ATOM     28  H   UNL     1     -40.842  42.841  26.414  1.00  0.00     0.158 HD
ATOM     29  H   UNL     1     -41.515  44.384  26.020  1.00  0.00     0.158 HD
ENDBRANCH  16  27
ENDBRANCH   6  15
ENDBRANCH   2   5
ENDBRANCH   1   2
BRANCH   1  30
ATOM     30  C   UNL     1     -47.153  34.498  26.145  1.00  0.00     0.122 A 
ATOM     31  C   UNL     1     -48.481  34.193  26.437  1.00  0.00    -0.019 A 
ATOM     32  C   UNL     1     -46.399  33.605  25.381  1.00  0.00     0.007 A 
ATOM     33  C   UNL     1     -49.050  33.011  25.967  1.00  0.00    -0.049 A 
ATOM     34  H   UNL     1     -49.078  34.882  27.029  1.00  0.00     0.066 H 
ATOM     35  C   UNL     1     -46.939  32.418  24.901  1.00  0.00     0.076 A 
ATOM     36  H   UNL     1     -45.362  33.804  25.132  1.00  0.00     0.069 H 
ATOM     37  C   UNL     1     -48.282  32.121  25.198  1.00  0.00     0.001 A 
ATOM     38  H   UNL     1     -50.089  32.790  26.200  1.00  0.00     0.063 H 
ATOM     39  N   UNL     1     -46.165  31.595  24.170  1.00  0.00    -0.231 NA
ATOM     40  C   UNL     1     -48.810  30.928  24.704  1.00  0.00    -0.049 A 
ATOM     41  C   UNL     1     -46.681  30.445  23.696  1.00  0.00     0.126 A 
ATOM     42  C   UNL     1     -48.002  30.087  23.945  1.00  0.00    -0.019 A 
ATOM     43  H   UNL     1     -49.842  30.650  24.894  1.00  0.00     0.063 H 
ATOM     44  H   UNL     1     -48.407  29.167  23.539  1.00  0.00     0.066 H 
BRANCH  41  45
ATOM     45  N   UNL     1     -45.908  29.571  22.914  1.00  0.00    -0.370 N 
ATOM     46  H   UNL     1     -45.038  29.389  23.404  1.00  0.00     0.162 HD
BRANCH  45  47
ATOM     47  C   UNL     1     -45.670  29.968  21.533  1.00  0.00     0.019 C 
ATOM     48  H   UNL     1     -44.604  30.038  21.283  1.00  0.00     0.049 H 
ATOM     49  H   UNL     1     -46.075  29.178  20.888  1.00  0.00     0.049 H 
BRANCH  47  50
ATOM     50  C   UNL     1     -46.427  31.225  21.224  1.00  0.00    -0.024 C 
ATOM     51  C   UNL     1     -46.201  31.985  19.942  1.00  0.00    -0.048 C 
ATOM     52  C   UNL     1     -47.482  31.227  20.144  1.00  0.00    -0.048 C 
ATOM     53  H   UNL     1     -46.638  31.798  22.121  1.00  0.00     0.032 H 
ATOM     54  H   UNL     1     -46.226  33.067  19.991  1.00  0.00     0.027 H 
ATOM     55  H   UNL     1     -45.481  31.594  19.231  1.00  0.00     0.027 H 
ATOM     56  H   UNL     1     -47.633  30.327  19.560  1.00  0.00     0.027 H 
ATOM     57  H   UNL     1     -48.386  31.799  20.321  1.00  0.00     0.027 H 
ENDBRANCH  47  50
ENDBRANCH  45  47
ENDBRANCH  41  45
ENDBRANCH   1  30
TORSDOF 8
ENDMDL
