MODEL 1
REMARK VINA RESULT:      -9.9      0.000      0.000
REMARK SMILES CO[C@]12C[C@](CNCc3cc4ccc(CNC(=O)c5cc(=O)n6ccccc6n5)cc4[nH]3)(C1)C2
REMARK SMILES IDX 8 1 7 4 6 6 5 9 3 10 33 11 4 12 34 13 2 20 1 21 9 25 10 26
REMARK SMILES IDX 32 27 11 28 31 30 12 32 30 33 13 34 14 36 15 39 16 42 17 43
REMARK SMILES IDX 18 45 19 46 20 47 29 48 21 49 28 51 22 52 23 53 27 54 24 55
REMARK SMILES IDX 26 56 25 58
REMARK H PARENT 8 2 8 3 7 5 6 7 6 8 33 14 33 15 4 16 4 17 34 18 34 19 1 22
REMARK H PARENT 1 23 1 24 10 29 32 31 12 35 30 37 13 38 15 40 15 41 16 44
REMARK H PARENT 20 50 27 57 24 59 26 60 25 61
REMARK Flexibility Score: inf
ROOT
ATOM      1  C   UNL     1     -49.197  30.081  23.537  1.00  0.00     0.036 C 
ATOM      2  H   UNL     1     -49.513  30.422  22.544  1.00  0.00     0.049 H 
ATOM      3  H   UNL     1     -48.491  29.264  23.361  1.00  0.00     0.049 H 
ENDROOT
BRANCH   1   4
ATOM      4  N   UNL     1     -50.387  29.638  24.261  1.00  0.00    -0.311 NA
ATOM      5  H   UNL     1     -50.301  29.938  25.231  1.00  0.00     0.123 HD
BRANCH   4   6
ATOM      6  C   UNL     1     -50.578  28.187  24.239  1.00  0.00     0.001 C 
ATOM      7  H   UNL     1     -51.545  27.893  24.659  1.00  0.00     0.043 H 
ATOM      8  H   UNL     1     -50.603  27.876  23.187  1.00  0.00     0.043 H 
BRANCH   6   9
ATOM      9  C   UNL     1     -49.457  27.481  24.913  1.00  0.00    -0.009 C 
ATOM     10  C   UNL     1     -48.040  26.594  25.908  1.00  0.00     0.070 C 
ATOM     11  C   UNL     1     -48.834  27.859  26.322  1.00  0.00    -0.017 C 
ATOM     12  C   UNL     1     -49.399  25.995  25.469  1.00  0.00    -0.017 C 
ATOM     13  C   UNL     1     -47.945  27.224  24.497  1.00  0.00    -0.017 C 
ATOM     14  H   UNL     1     -48.281  28.803  26.378  1.00  0.00     0.030 H 
ATOM     15  H   UNL     1     -49.495  27.774  27.192  1.00  0.00     0.030 H 
ATOM     16  H   UNL     1     -49.376  25.194  24.723  1.00  0.00     0.030 H 
ATOM     17  H   UNL     1     -50.110  25.735  26.260  1.00  0.00     0.030 H 
ATOM     18  H   UNL     1     -47.772  26.539  23.661  1.00  0.00     0.030 H 
ATOM     19  H   UNL     1     -47.307  28.107  24.384  1.00  0.00     0.030 H 
BRANCH  10  20
ATOM     20  O   UNL     1     -47.017  25.980  26.659  1.00  0.00    -0.378 OA
BRANCH  20  21
ATOM     21  C   UNL     1     -47.196  24.602  26.946  1.00  0.00     0.036 C 
ATOM     22  H   UNL     1     -47.979  24.471  27.699  1.00  0.00     0.053 H 
ATOM     23  H   UNL     1     -46.258  24.204  27.341  1.00  0.00     0.053 H 
ATOM     24  H   UNL     1     -47.457  24.055  26.035  1.00  0.00     0.053 H 
ENDBRANCH  20  21
ENDBRANCH  10  20
ENDBRANCH   6   9
ENDBRANCH   4   6
ENDBRANCH   1   4
BRANCH   1  25
ATOM     25  C   UNL     1     -48.523  31.207  24.241  1.00  0.00     0.030 A 
ATOM     26  C   UNL     1     -47.214  31.647  24.209  1.00  0.00    -0.032 A 
ATOM     27  N   UNL     1     -49.209  32.047  25.089  1.00  0.00    -0.357 N 
ATOM     28  C   UNL     1     -47.103  32.772  25.071  1.00  0.00    -0.000 A 
ATOM     29  H   UNL     1     -46.416  31.203  23.627  1.00  0.00     0.065 H 
ATOM     30  C   UNL     1     -48.366  33.001  25.611  1.00  0.00     0.046 A 
ATOM     31  H   UNL     1     -50.193  31.974  25.306  1.00  0.00     0.166 HD
ATOM     32  C   UNL     1     -46.044  33.621  25.441  1.00  0.00    -0.052 A 
ATOM     33  C   UNL     1     -48.627  34.041  26.511  1.00  0.00    -0.033 A 
ATOM     34  C   UNL     1     -46.285  34.667  26.341  1.00  0.00    -0.057 A 
ATOM     35  H   UNL     1     -45.049  33.470  25.033  1.00  0.00     0.063 H 
ATOM     36  C   UNL     1     -47.560  34.877  26.883  1.00  0.00    -0.027 A 
ATOM     37  H   UNL     1     -49.625  34.202  26.909  1.00  0.00     0.065 H 
ATOM     38  H   UNL     1     -45.461  35.322  26.616  1.00  0.00     0.063 H 
BRANCH  36  39
ATOM     39  C   UNL     1     -47.804  36.027  27.825  1.00  0.00     0.043 C 
ATOM     40  H   UNL     1     -47.805  35.686  28.868  1.00  0.00     0.054 H 
ATOM     41  H   UNL     1     -48.786  36.479  27.640  1.00  0.00     0.054 H 
BRANCH  39  42
ATOM     42  N   UNL     1     -46.785  37.031  27.681  1.00  0.00    -0.347 N 
ATOM     43  C   UNL     1     -47.078  38.371  27.689  1.00  0.00     0.270 C 
ATOM     44  H   UNL     1     -45.804  36.773  27.730  1.00  0.00     0.164 HD
ATOM     45  O   UNL     1     -48.214  38.826  27.728  1.00  0.00    -0.268 OA
BRANCH  43  46
ATOM     46  C   UNL     1     -45.839  39.232  27.656  1.00  0.00     0.136 A 
ATOM     47  C   UNL     1     -45.672  39.993  26.572  1.00  0.00     0.035 A 
ATOM     48  N   UNL     1     -44.971  39.187  28.724  1.00  0.00    -0.225 NA
ATOM     49  C   UNL     1     -44.480  40.848  26.498  1.00  0.00     0.258 A 
ATOM     50  H   UNL     1     -46.362  40.022  25.739  1.00  0.00     0.071 H 
ATOM     51  C   UNL     1     -43.920  39.943  28.655  1.00  0.00     0.140 A 
ATOM     52  O   UNL     1     -44.319  41.551  25.503  1.00  0.00    -0.269 OA
ATOM     53  N   UNL     1     -43.622  40.783  27.586  1.00  0.00    -0.268 N 
ATOM     54  C   UNL     1     -42.951  39.925  29.789  1.00  0.00    -0.019 A 
ATOM     55  C   UNL     1     -42.472  41.563  27.589  1.00  0.00     0.014 A 
ATOM     56  C   UNL     1     -41.858  40.695  29.746  1.00  0.00    -0.057 A 
ATOM     57  H   UNL     1     -43.174  39.275  30.625  1.00  0.00     0.066 H 
ATOM     58  C   UNL     1     -41.607  41.542  28.611  1.00  0.00    -0.045 A 
ATOM     59  H   UNL     1     -42.302  42.197  26.722  1.00  0.00     0.082 H 
ATOM     60  H   UNL     1     -41.142  40.696  30.561  1.00  0.00     0.062 H 
ATOM     61  H   UNL     1     -40.711  42.157  28.603  1.00  0.00     0.064 H 
ENDBRANCH  43  46
ENDBRANCH  39  42
ENDBRANCH  36  39
ENDBRANCH   1  25
TORSDOF 9
ENDMDL
MODEL 2
REMARK VINA RESULT:      -9.5      2.093     12.292
REMARK SMILES CO[C@]12C[C@](CNCc3cc4ccc(CNC(=O)c5cc(=O)n6ccccc6n5)cc4[nH]3)(C1)C2
REMARK SMILES IDX 8 1 7 4 6 6 5 9 3 10 33 11 4 12 34 13 2 20 1 21 9 25 10 26
REMARK SMILES IDX 32 27 11 28 31 30 12 32 30 33 13 34 14 36 15 39 16 42 17 43
REMARK SMILES IDX 18 45 19 46 20 47 29 48 21 49 28 51 22 52 23 53 27 54 24 55
REMARK SMILES IDX 26 56 25 58
REMARK H PARENT 8 2 8 3 7 5 6 7 6 8 33 14 33 15 4 16 4 17 34 18 34 19 1 22
REMARK H PARENT 1 23 1 24 10 29 32 31 12 35 30 37 13 38 15 40 15 41 16 44
REMARK H PARENT 20 50 27 57 24 59 26 60 25 61
REMARK Flexibility Score: inf
ROOT
ATOM      1  C   UNL     1     -45.911  38.119  29.644  1.00  0.00     0.036 C 
ATOM      2  H   UNL     1     -46.722  38.810  29.904  1.00  0.00     0.049 H 
ATOM      3  H   UNL     1     -45.587  37.670  30.589  1.00  0.00     0.049 H 
ENDROOT
BRANCH   1   4
ATOM      4  N   UNL     1     -44.847  38.892  29.006  1.00  0.00    -0.311 NA
ATOM      5  H   UNL     1     -44.408  39.477  29.715  1.00  0.00     0.123 HD
BRANCH   4   6
ATOM      6  C   UNL     1     -45.321  39.754  27.922  1.00  0.00     0.001 C 
ATOM      7  H   UNL     1     -45.679  39.177  27.064  1.00  0.00     0.043 H 
ATOM      8  H   UNL     1     -46.194  40.301  28.298  1.00  0.00     0.043 H 
BRANCH   6   9
ATOM      9  C   UNL     1     -44.285  40.739  27.519  1.00  0.00    -0.009 C 
ATOM     10  C   UNL     1     -42.947  41.994  26.868  1.00  0.00     0.070 C 
ATOM     11  C   UNL     1     -43.351  40.636  26.241  1.00  0.00    -0.017 C 
ATOM     12  C   UNL     1     -44.461  42.251  27.064  1.00  0.00    -0.017 C 
ATOM     13  C   UNL     1     -42.968  41.268  28.235  1.00  0.00    -0.017 C 
ATOM     14  H   UNL     1     -42.599  39.838  26.244  1.00  0.00     0.030 H 
ATOM     15  H   UNL     1     -43.846  40.661  25.265  1.00  0.00     0.030 H 
ATOM     16  H   UNL     1     -44.753  42.964  27.841  1.00  0.00     0.030 H 
ATOM     17  H   UNL     1     -45.060  42.429  26.164  1.00  0.00     0.030 H 
ATOM     18  H   UNL     1     -43.106  41.892  29.124  1.00  0.00     0.030 H 
ATOM     19  H   UNL     1     -42.180  40.532  28.425  1.00  0.00     0.030 H 
BRANCH  10  20
ATOM     20  O   UNL     1     -41.970  42.877  26.365  1.00  0.00    -0.378 OA
BRANCH  20  21
ATOM     21  C   UNL     1     -42.325  43.602  25.199  1.00  0.00     0.036 C 
ATOM     22  H   UNL     1     -42.772  42.931  24.459  1.00  0.00     0.053 H 
ATOM     23  H   UNL     1     -41.421  44.043  24.774  1.00  0.00     0.053 H 
ATOM     24  H   UNL     1     -43.026  44.404  25.449  1.00  0.00     0.053 H 
ENDBRANCH  20  21
ENDBRANCH  10  20
ENDBRANCH   6   9
ENDBRANCH   4   6
ENDBRANCH   1   4
BRANCH   1  25
ATOM     25  C   UNL     1     -46.444  37.072  28.728  1.00  0.00     0.030 A 
ATOM     26  C   UNL     1     -47.740  36.693  28.438  1.00  0.00    -0.032 A 
ATOM     27  N   UNL     1     -45.613  36.284  27.965  1.00  0.00    -0.357 N 
ATOM     28  C   UNL     1     -47.690  35.638  27.486  1.00  0.00    -0.000 A 
ATOM     29  H   UNL     1     -48.633  37.127  28.868  1.00  0.00     0.065 H 
ATOM     30  C   UNL     1     -46.346  35.400  27.208  1.00  0.00     0.046 A 
ATOM     31  H   UNL     1     -44.604  36.338  27.962  1.00  0.00     0.166 HD
ATOM     32  C   UNL     1     -48.665  34.864  26.832  1.00  0.00    -0.052 A 
ATOM     33  C   UNL     1     -45.923  34.418  26.304  1.00  0.00    -0.033 A 
ATOM     34  C   UNL     1     -48.261  33.875  25.924  1.00  0.00    -0.057 A 
ATOM     35  H   UNL     1     -49.721  35.029  27.024  1.00  0.00     0.063 H 
ATOM     36  C   UNL     1     -46.905  33.642  25.663  1.00  0.00    -0.027 A 
ATOM     37  H   UNL     1     -44.868  34.261  26.100  1.00  0.00     0.065 H 
ATOM     38  H   UNL     1     -49.023  33.287  25.418  1.00  0.00     0.063 H 
BRANCH  36  39
ATOM     39  C   UNL     1     -46.493  32.596  24.660  1.00  0.00     0.043 C 
ATOM     40  H   UNL     1     -45.410  32.426  24.693  1.00  0.00     0.054 H 
ATOM     41  H   UNL     1     -46.731  32.920  23.640  1.00  0.00     0.054 H 
BRANCH  39  42
ATOM     42  N   UNL     1     -47.153  31.346  24.927  1.00  0.00    -0.347 N 
ATOM     43  C   UNL     1     -48.011  30.770  24.025  1.00  0.00     0.270 C 
ATOM     44  H   UNL     1     -46.874  30.781  25.723  1.00  0.00     0.164 HD
ATOM     45  O   UNL     1     -48.359  31.294  22.975  1.00  0.00    -0.268 OA
BRANCH  43  46
ATOM     46  C   UNL     1     -48.477  29.404  24.464  1.00  0.00     0.136 A 
ATOM     47  C   UNL     1     -49.789  29.169  24.388  1.00  0.00     0.035 A 
ATOM     48  N   UNL     1     -47.543  28.494  24.907  1.00  0.00    -0.225 NA
ATOM     49  C   UNL     1     -50.286  27.852  24.804  1.00  0.00     0.258 A 
ATOM     50  H   UNL     1     -50.515  29.891  24.036  1.00  0.00     0.071 H 
ATOM     51  C   UNL     1     -47.985  27.333  25.274  1.00  0.00     0.140 A 
ATOM     52  O   UNL     1     -51.493  27.629  24.738  1.00  0.00    -0.269 OA
ATOM     53  N   UNL     1     -49.324  26.956  25.247  1.00  0.00    -0.268 N 
ATOM     54  C   UNL     1     -47.009  26.317  25.762  1.00  0.00    -0.019 A 
ATOM     55  C   UNL     1     -49.718  25.688  25.659  1.00  0.00     0.014 A 
ATOM     56  C   UNL     1     -47.436  25.109  26.147  1.00  0.00    -0.057 A 
ATOM     57  H   UNL     1     -45.964  26.601  25.787  1.00  0.00     0.066 H 
ATOM     58  C   UNL     1     -48.836  24.781  26.095  1.00  0.00    -0.045 A 
ATOM     59  H   UNL     1     -50.781  25.460  25.611  1.00  0.00     0.082 H 
ATOM     60  H   UNL     1     -46.741  24.357  26.505  1.00  0.00     0.062 H 
ATOM     61  H   UNL     1     -49.155  23.793  26.414  1.00  0.00     0.064 H 
ENDBRANCH  43  46
ENDBRANCH  39  42
ENDBRANCH  36  39
ENDBRANCH   1  25
TORSDOF 9
ENDMDL
MODEL 3
REMARK VINA RESULT:      -9.3      1.852      2.637
REMARK SMILES CO[C@]12C[C@](CNCc3cc4ccc(CNC(=O)c5cc(=O)n6ccccc6n5)cc4[nH]3)(C1)C2
REMARK SMILES IDX 8 1 7 4 6 6 5 9 3 10 33 11 4 12 34 13 2 20 1 21 9 25 10 26
REMARK SMILES IDX 32 27 11 28 31 30 12 32 30 33 13 34 14 36 15 39 16 42 17 43
REMARK SMILES IDX 18 45 19 46 20 47 29 48 21 49 28 51 22 52 23 53 27 54 24 55
REMARK SMILES IDX 26 56 25 58
REMARK H PARENT 8 2 8 3 7 5 6 7 6 8 33 14 33 15 4 16 4 17 34 18 34 19 1 22
REMARK H PARENT 1 23 1 24 10 29 32 31 12 35 30 37 13 38 15 40 15 41 16 44
REMARK H PARENT 20 50 27 57 24 59 26 60 25 61
REMARK Flexibility Score: inf
ROOT
ATOM      1  C   UNL     1     -46.358  30.989  23.535  1.00  0.00     0.036 C 
ATOM      2  H   UNL     1     -45.401  31.217  23.051  1.00  0.00     0.049 H 
ATOM      3  H   UNL     1     -46.209  30.038  24.057  1.00  0.00     0.049 H 
ENDROOT
BRANCH   1   4
ATOM      4  N   UNL     1     -47.379  30.895  22.494  1.00  0.00    -0.311 NA
ATOM      5  H   UNL     1     -47.567  31.833  22.145  1.00  0.00     0.123 HD
BRANCH   4   6
ATOM      6  C   UNL     1     -48.638  30.312  22.959  1.00  0.00     0.001 C 
ATOM      7  H   UNL     1     -49.198  31.001  23.600  1.00  0.00     0.043 H 
ATOM      8  H   UNL     1     -49.268  30.147  22.077  1.00  0.00     0.043 H 
BRANCH   6   9
ATOM      9  C   UNL     1     -48.417  29.005  23.631  1.00  0.00    -0.009 C 
ATOM     10  C   UNL     1     -48.214  27.331  24.601  1.00  0.00     0.070 C 
ATOM     11  C   UNL     1     -48.578  28.719  25.183  1.00  0.00    -0.017 C 
ATOM     12  C   UNL     1     -49.217  27.644  23.464  1.00  0.00    -0.017 C 
ATOM     13  C   UNL     1     -47.142  28.064  23.758  1.00  0.00    -0.017 C 
ATOM     14  H   UNL     1     -47.848  29.192  25.849  1.00  0.00     0.030 H 
ATOM     15  H   UNL     1     -49.582  28.839  25.605  1.00  0.00     0.030 H 
ATOM     16  H   UNL     1     -49.085  27.112  22.517  1.00  0.00     0.030 H 
ATOM     17  H   UNL     1     -50.281  27.660  23.726  1.00  0.00     0.030 H 
ATOM     18  H   UNL     1     -46.805  27.565  22.844  1.00  0.00     0.030 H 
ATOM     19  H   UNL     1     -46.278  28.473  24.290  1.00  0.00     0.030 H 
BRANCH  10  20
ATOM     20  O   UNL     1     -48.075  26.137  25.338  1.00  0.00    -0.378 OA
BRANCH  20  21
ATOM     21  C   UNL     1     -48.191  26.257  26.747  1.00  0.00     0.036 C 
ATOM     22  H   UNL     1     -47.442  25.632  27.242  1.00  0.00     0.053 H 
ATOM     23  H   UNL     1     -49.186  25.917  27.045  1.00  0.00     0.053 H 
ATOM     24  H   UNL     1     -48.068  27.301  27.051  1.00  0.00     0.053 H 
ENDBRANCH  20  21
ENDBRANCH  10  20
ENDBRANCH   6   9
ENDBRANCH   4   6
ENDBRANCH   1   4
BRANCH   1  25
ATOM     25  C   UNL     1     -46.676  32.071  24.508  1.00  0.00     0.030 A 
ATOM     26  C   UNL     1     -47.885  32.586  24.933  1.00  0.00    -0.032 A 
ATOM     27  N   UNL     1     -45.689  32.746  25.189  1.00  0.00    -0.357 N 
ATOM     28  C   UNL     1     -47.621  33.611  25.882  1.00  0.00    -0.000 A 
ATOM     29  H   UNL     1     -48.860  32.263  24.592  1.00  0.00     0.065 H 
ATOM     30  C   UNL     1     -46.238  33.693  26.024  1.00  0.00     0.046 A 
ATOM     31  H   UNL     1     -44.697  32.580  25.089  1.00  0.00     0.166 HD
ATOM     32  C   UNL     1     -48.432  34.477  26.638  1.00  0.00    -0.052 A 
ATOM     33  C   UNL     1     -45.618  34.603  26.888  1.00  0.00    -0.033 A 
ATOM     34  C   UNL     1     -47.830  35.396  27.507  1.00  0.00    -0.057 A 
ATOM     35  H   UNL     1     -49.513  34.434  26.553  1.00  0.00     0.063 H 
ATOM     36  C   UNL     1     -46.437  35.472  27.631  1.00  0.00    -0.027 A 
ATOM     37  H   UNL     1     -44.537  34.638  26.984  1.00  0.00     0.065 H 
ATOM     38  H   UNL     1     -48.466  36.057  28.093  1.00  0.00     0.063 H 
BRANCH  36  39
ATOM     39  C   UNL     1     -45.811  36.446  28.595  1.00  0.00     0.043 C 
ATOM     40  H   UNL     1     -44.822  36.100  28.916  1.00  0.00     0.054 H 
ATOM     41  H   UNL     1     -46.421  36.542  29.501  1.00  0.00     0.054 H 
BRANCH  39  42
ATOM     42  N   UNL     1     -45.660  37.741  27.986  1.00  0.00    -0.347 N 
ATOM     43  C   UNL     1     -44.931  38.741  28.575  1.00  0.00     0.270 C 
ATOM     44  H   UNL     1     -45.958  37.891  27.026  1.00  0.00     0.164 HD
ATOM     45  O   UNL     1     -44.428  38.661  29.689  1.00  0.00    -0.268 OA
BRANCH  43  46
ATOM     46  C   UNL     1     -44.803  39.959  27.693  1.00  0.00     0.136 A 
ATOM     47  C   UNL     1     -45.927  40.402  27.125  1.00  0.00     0.035 A 
ATOM     48  N   UNL     1     -43.562  40.533  27.531  1.00  0.00    -0.225 NA
ATOM     49  C   UNL     1     -45.848  41.586  26.259  1.00  0.00     0.258 A 
ATOM     50  H   UNL     1     -46.898  39.944  27.261  1.00  0.00     0.071 H 
ATOM     51  C   UNL     1     -43.497  41.578  26.766  1.00  0.00     0.140 A 
ATOM     52  O   UNL     1     -46.878  42.000  25.730  1.00  0.00    -0.269 OA
ATOM     53  N   UNL     1     -44.587  42.144  26.112  1.00  0.00    -0.268 N 
ATOM     54  C   UNL     1     -42.173  42.231  26.560  1.00  0.00    -0.019 A 
ATOM     55  C   UNL     1     -44.433  43.267  25.307  1.00  0.00     0.014 A 
ATOM     56  C   UNL     1     -42.075  43.311  25.776  1.00  0.00    -0.057 A 
ATOM     57  H   UNL     1     -41.319  41.798  27.065  1.00  0.00     0.066 H 
ATOM     58  C   UNL     1     -43.241  43.849  25.127  1.00  0.00    -0.045 A 
ATOM     59  H   UNL     1     -45.327  43.657  24.826  1.00  0.00     0.082 H 
ATOM     60  H   UNL     1     -41.120  43.801  25.615  1.00  0.00     0.062 H 
ATOM     61  H   UNL     1     -43.132  44.726  24.497  1.00  0.00     0.064 H 
ENDBRANCH  43  46
ENDBRANCH  39  42
ENDBRANCH  36  39
ENDBRANCH   1  25
TORSDOF 9
ENDMDL
MODEL 4
REMARK VINA RESULT:      -8.9      1.790      2.582
REMARK SMILES CO[C@]12C[C@](CNCc3cc4ccc(CNC(=O)c5cc(=O)n6ccccc6n5)cc4[nH]3)(C1)C2
REMARK SMILES IDX 8 1 7 4 6 6 5 9 3 10 33 11 4 12 34 13 2 20 1 21 9 25 10 26
REMARK SMILES IDX 32 27 11 28 31 30 12 32 30 33 13 34 14 36 15 39 16 42 17 43
REMARK SMILES IDX 18 45 19 46 20 47 29 48 21 49 28 51 22 52 23 53 27 54 24 55
REMARK SMILES IDX 26 56 25 58
REMARK H PARENT 8 2 8 3 7 5 6 7 6 8 33 14 33 15 4 16 4 17 34 18 34 19 1 22
REMARK H PARENT 1 23 1 24 10 29 32 31 12 35 30 37 13 38 15 40 15 41 16 44
REMARK H PARENT 20 50 27 57 24 59 26 60 25 61
REMARK Flexibility Score: inf
ROOT
ATOM      1  C   UNL     1     -48.449  31.290  23.898  1.00  0.00     0.036 C 
ATOM      2  H   UNL     1     -48.733  30.398  24.469  1.00  0.00     0.049 H 
ATOM      3  H   UNL     1     -49.381  31.687  23.482  1.00  0.00     0.049 H 
ENDROOT
BRANCH   1   4
ATOM      4  N   UNL     1     -47.510  30.879  22.856  1.00  0.00    -0.311 NA
ATOM      5  H   UNL     1     -48.042  30.661  22.015  1.00  0.00     0.123 HD
BRANCH   4   6
ATOM      6  C   UNL     1     -46.713  29.706  23.218  1.00  0.00     0.001 C 
ATOM      7  H   UNL     1     -46.112  29.343  22.378  1.00  0.00     0.043 H 
ATOM      8  H   UNL     1     -45.995  30.023  23.984  1.00  0.00     0.043 H 
BRANCH   6   9
ATOM      9  C   UNL     1     -47.561  28.626  23.785  1.00  0.00    -0.009 C 
ATOM     10  C   UNL     1     -48.571  27.175  24.600  1.00  0.00     0.070 C 
ATOM     11  C   UNL     1     -47.044  27.233  24.341  1.00  0.00    -0.017 C 
ATOM     12  C   UNL     1     -48.450  28.635  25.101  1.00  0.00    -0.017 C 
ATOM     13  C   UNL     1     -48.744  27.756  23.175  1.00  0.00    -0.017 C 
ATOM     14  H   UNL     1     -46.632  26.532  23.606  1.00  0.00     0.030 H 
ATOM     15  H   UNL     1     -46.388  27.265  25.217  1.00  0.00     0.030 H 
ATOM     16  H   UNL     1     -49.354  29.251  25.076  1.00  0.00     0.030 H 
ATOM     17  H   UNL     1     -47.927  28.797  26.050  1.00  0.00     0.030 H 
ATOM     18  H   UNL     1     -49.683  28.279  22.966  1.00  0.00     0.030 H 
ATOM     19  H   UNL     1     -48.494  27.104  22.333  1.00  0.00     0.030 H 
BRANCH  10  20
ATOM     20  O   UNL     1     -49.267  26.103  25.194  1.00  0.00    -0.378 OA
BRANCH  20  21
ATOM     21  C   UNL     1     -48.658  25.519  26.334  1.00  0.00     0.036 C 
ATOM     22  H   UNL     1     -49.199  24.616  26.631  1.00  0.00     0.053 H 
ATOM     23  H   UNL     1     -48.694  26.238  27.156  1.00  0.00     0.053 H 
ATOM     24  H   UNL     1     -47.612  25.276  26.123  1.00  0.00     0.053 H 
ENDBRANCH  20  21
ENDBRANCH  10  20
ENDBRANCH   6   9
ENDBRANCH   4   6
ENDBRANCH   1   4
BRANCH   1  25
ATOM     25  C   UNL     1     -47.831  32.279  24.825  1.00  0.00     0.030 A 
ATOM     26  C   UNL     1     -46.512  32.510  25.159  1.00  0.00    -0.032 A 
ATOM     27  N   UNL     1     -48.590  33.193  25.521  1.00  0.00    -0.357 N 
ATOM     28  C   UNL     1     -46.472  33.581  26.093  1.00  0.00    -0.000 A 
ATOM     29  H   UNL     1     -45.660  31.963  24.774  1.00  0.00     0.065 H 
ATOM     30  C   UNL     1     -47.787  33.990  26.304  1.00  0.00     0.046 A 
ATOM     31  H   UNL     1     -49.596  33.268  25.472  1.00  0.00     0.166 HD
ATOM     32  C   UNL     1     -45.438  34.244  26.779  1.00  0.00    -0.052 A 
ATOM     33  C   UNL     1     -48.124  35.034  27.173  1.00  0.00    -0.033 A 
ATOM     34  C   UNL     1     -45.756  35.291  27.654  1.00  0.00    -0.057 A 
ATOM     35  H   UNL     1     -44.403  33.951  26.632  1.00  0.00     0.063 H 
ATOM     36  C   UNL     1     -47.085  35.683  27.862  1.00  0.00    -0.027 A 
ATOM     37  H   UNL     1     -49.158  35.337  27.311  1.00  0.00     0.065 H 
ATOM     38  H   UNL     1     -44.948  35.802  28.174  1.00  0.00     0.063 H 
BRANCH  36  39
ATOM     39  C   UNL     1     -47.402  36.832  28.784  1.00  0.00     0.043 C 
ATOM     40  H   UNL     1     -47.314  36.528  29.834  1.00  0.00     0.054 H 
ATOM     41  H   UNL     1     -48.435  37.172  28.639  1.00  0.00     0.054 H 
BRANCH  39  42
ATOM     42  N   UNL     1     -46.504  37.932  28.556  1.00  0.00    -0.347 N 
ATOM     43  C   UNL     1     -45.390  38.134  29.330  1.00  0.00     0.270 C 
ATOM     44  H   UNL     1     -46.588  38.493  27.714  1.00  0.00     0.164 HD
ATOM     45  O   UNL     1     -45.110  37.468  30.319  1.00  0.00    -0.268 OA
BRANCH  43  46
ATOM     46  C   UNL     1     -44.533  39.267  28.823  1.00  0.00     0.136 A 
ATOM     47  C   UNL     1     -43.519  39.642  29.606  1.00  0.00     0.035 A 
ATOM     48  N   UNL     1     -44.837  39.836  27.606  1.00  0.00    -0.225 NA
ATOM     49  C   UNL     1     -42.658  40.741  29.150  1.00  0.00     0.258 A 
ATOM     50  H   UNL     1     -43.287  39.187  30.560  1.00  0.00     0.071 H 
ATOM     51  C   UNL     1     -44.075  40.806  27.208  1.00  0.00     0.140 A 
ATOM     52  O   UNL     1     -41.723  41.094  29.866  1.00  0.00    -0.269 OA
ATOM     53  N   UNL     1     -42.987  41.297  27.922  1.00  0.00    -0.268 N 
ATOM     54  C   UNL     1     -44.368  41.453  25.897  1.00  0.00    -0.019 A 
ATOM     55  C   UNL     1     -42.218  42.343  27.424  1.00  0.00     0.014 A 
ATOM     56  C   UNL     1     -43.599  42.456  25.459  1.00  0.00    -0.057 A 
ATOM     57  H   UNL     1     -45.213  41.077  25.333  1.00  0.00     0.066 H 
ATOM     58  C   UNL     1     -42.487  42.918  26.246  1.00  0.00    -0.045 A 
ATOM     59  H   UNL     1     -41.382  42.676  28.035  1.00  0.00     0.082 H 
ATOM     60  H   UNL     1     -43.796  42.939  24.507  1.00  0.00     0.062 H 
ATOM     61  H   UNL     1     -41.879  43.734  25.866  1.00  0.00     0.064 H 
ENDBRANCH  43  46
ENDBRANCH  39  42
ENDBRANCH  36  39
ENDBRANCH   1  25
TORSDOF 9
ENDMDL
MODEL 5
REMARK VINA RESULT:      -8.8      3.008     12.260
REMARK SMILES CO[C@]12C[C@](CNCc3cc4ccc(CNC(=O)c5cc(=O)n6ccccc6n5)cc4[nH]3)(C1)C2
REMARK SMILES IDX 8 1 7 4 6 6 5 9 3 10 33 11 4 12 34 13 2 20 1 21 9 25 10 26
REMARK SMILES IDX 32 27 11 28 31 30 12 32 30 33 13 34 14 36 15 39 16 42 17 43
REMARK SMILES IDX 18 45 19 46 20 47 29 48 21 49 28 51 22 52 23 53 27 54 24 55
REMARK SMILES IDX 26 56 25 58
REMARK H PARENT 8 2 8 3 7 5 6 7 6 8 33 14 33 15 4 16 4 17 34 18 34 19 1 22
REMARK H PARENT 1 23 1 24 10 29 32 31 12 35 30 37 13 38 15 40 15 41 16 44
REMARK H PARENT 20 50 27 57 24 59 26 60 25 61
REMARK Flexibility Score: inf
ROOT
ATOM      1  C   UNL     1     -42.900  41.375  28.580  1.00  0.00     0.036 C 
ATOM      2  H   UNL     1     -43.121  41.697  29.605  1.00  0.00     0.049 H 
ATOM      3  H   UNL     1     -41.895  40.942  28.613  1.00  0.00     0.049 H 
ENDROOT
BRANCH   1   4
ATOM      4  N   UNL     1     -42.967  42.550  27.714  1.00  0.00    -0.311 NA
ATOM      5  H   UNL     1     -43.940  42.698  27.451  1.00  0.00     0.123 HD
BRANCH   4   6
ATOM      6  C   UNL     1     -42.172  42.423  26.493  1.00  0.00     0.001 C 
ATOM      7  H   UNL     1     -41.126  42.707  26.651  1.00  0.00     0.043 H 
ATOM      8  H   UNL     1     -42.154  41.360  26.224  1.00  0.00     0.043 H 
BRANCH   6   9
ATOM      9  C   UNL     1     -42.776  43.184  25.368  1.00  0.00    -0.009 C 
ATOM     10  C   UNL     1     -43.679  44.119  23.921  1.00  0.00     0.070 C 
ATOM     11  C   UNL     1     -43.992  42.705  24.470  1.00  0.00    -0.017 C 
ATOM     12  C   UNL     1     -43.555  44.567  25.398  1.00  0.00    -0.017 C 
ATOM     13  C   UNL     1     -42.185  43.720  23.993  1.00  0.00    -0.017 C 
ATOM     14  H   UNL     1     -43.807  41.855  23.804  1.00  0.00     0.030 H 
ATOM     15  H   UNL     1     -44.954  42.565  24.976  1.00  0.00     0.030 H 
ATOM     16  H   UNL     1     -42.957  45.461  25.603  1.00  0.00     0.030 H 
ATOM     17  H   UNL     1     -44.476  44.603  25.989  1.00  0.00     0.030 H 
ATOM     18  H   UNL     1     -41.457  44.535  24.053  1.00  0.00     0.030 H 
ATOM     19  H   UNL     1     -41.832  42.967  23.282  1.00  0.00     0.030 H 
BRANCH  10  20
ATOM     20  O   UNL     1     -44.358  44.765  22.867  1.00  0.00    -0.378 OA
BRANCH  20  21
ATOM     21  C   UNL     1     -43.641  45.792  22.200  1.00  0.00     0.036 C 
ATOM     22  H   UNL     1     -42.657  45.926  22.659  1.00  0.00     0.053 H 
ATOM     23  H   UNL     1     -44.203  46.725  22.293  1.00  0.00     0.053 H 
ATOM     24  H   UNL     1     -43.530  45.549  21.140  1.00  0.00     0.053 H 
ENDBRANCH  20  21
ENDBRANCH  10  20
ENDBRANCH   6   9
ENDBRANCH   4   6
ENDBRANCH   1   4
BRANCH   1  25
ATOM     25  C   UNL     1     -43.896  40.345  28.174  1.00  0.00     0.030 A 
ATOM     26  C   UNL     1     -44.799  40.316  27.129  1.00  0.00    -0.032 A 
ATOM     27  N   UNL     1     -44.036  39.161  28.860  1.00  0.00    -0.357 N 
ATOM     28  C   UNL     1     -45.514  39.089  27.195  1.00  0.00    -0.000 A 
ATOM     29  H   UNL     1     -44.936  41.099  26.394  1.00  0.00     0.065 H 
ATOM     30  C   UNL     1     -45.018  38.384  28.289  1.00  0.00     0.046 A 
ATOM     31  H   UNL     1     -43.499  38.895  29.674  1.00  0.00     0.166 HD
ATOM     32  C   UNL     1     -46.537  38.509  26.423  1.00  0.00    -0.052 A 
ATOM     33  C   UNL     1     -45.496  37.120  28.655  1.00  0.00    -0.033 A 
ATOM     34  C   UNL     1     -47.030  37.245  26.774  1.00  0.00    -0.057 A 
ATOM     35  H   UNL     1     -46.941  39.032  25.562  1.00  0.00     0.063 H 
ATOM     36  C   UNL     1     -46.526  36.554  27.884  1.00  0.00    -0.027 A 
ATOM     37  H   UNL     1     -45.084  36.590  29.508  1.00  0.00     0.065 H 
ATOM     38  H   UNL     1     -47.816  36.803  26.167  1.00  0.00     0.063 H 
BRANCH  36  39
ATOM     39  C   UNL     1     -47.049  35.183  28.226  1.00  0.00     0.043 C 
ATOM     40  H   UNL     1     -48.015  35.249  28.740  1.00  0.00     0.054 H 
ATOM     41  H   UNL     1     -46.364  34.665  28.908  1.00  0.00     0.054 H 
BRANCH  39  42
ATOM     42  N   UNL     1     -47.224  34.392  27.037  1.00  0.00    -0.347 N 
ATOM     43  C   UNL     1     -46.827  33.081  26.971  1.00  0.00     0.270 C 
ATOM     44  H   UNL     1     -47.792  34.741  26.272  1.00  0.00     0.164 HD
ATOM     45  O   UNL     1     -46.220  32.501  27.863  1.00  0.00    -0.268 OA
BRANCH  43  46
ATOM     46  C   UNL     1     -47.231  32.421  25.676  1.00  0.00     0.136 A 
ATOM     47  C   UNL     1     -46.320  32.416  24.701  1.00  0.00     0.035 A 
ATOM     48  N   UNL     1     -48.489  31.869  25.577  1.00  0.00    -0.225 NA
ATOM     49  C   UNL     1     -46.671  31.783  23.423  1.00  0.00     0.258 A 
ATOM     50  H   UNL     1     -45.333  32.852  24.790  1.00  0.00     0.071 H 
ATOM     51  C   UNL     1     -48.796  31.311  24.448  1.00  0.00     0.140 A 
ATOM     52  O   UNL     1     -45.838  31.776  22.519  1.00  0.00    -0.269 OA
ATOM     53  N   UNL     1     -47.944  31.237  23.350  1.00  0.00    -0.268 N 
ATOM     54  C   UNL     1     -50.148  30.702  24.295  1.00  0.00    -0.019 A 
ATOM     55  C   UNL     1     -48.350  30.620  22.172  1.00  0.00     0.014 A 
ATOM     56  C   UNL     1     -50.492  30.119  23.141  1.00  0.00    -0.057 A 
ATOM     57  H   UNL     1     -50.817  30.755  25.144  1.00  0.00     0.066 H 
ATOM     58  C   UNL     1     -49.566  30.075  22.042  1.00  0.00    -0.045 A 
ATOM     59  H   UNL     1     -47.634  30.597  21.354  1.00  0.00     0.082 H 
ATOM     60  H   UNL     1     -51.472  29.670  23.011  1.00  0.00     0.062 H 
ATOM     61  H   UNL     1     -49.872  29.595  21.117  1.00  0.00     0.064 H 
ENDBRANCH  43  46
ENDBRANCH  39  42
ENDBRANCH  36  39
ENDBRANCH   1  25
TORSDOF 9
ENDMDL
MODEL 6
REMARK VINA RESULT:      -8.7      2.512     12.038
REMARK SMILES CO[C@]12C[C@](CNCc3cc4ccc(CNC(=O)c5cc(=O)n6ccccc6n5)cc4[nH]3)(C1)C2
REMARK SMILES IDX 8 1 7 4 6 6 5 9 3 10 33 11 4 12 34 13 2 20 1 21 9 25 10 26
REMARK SMILES IDX 32 27 11 28 31 30 12 32 30 33 13 34 14 36 15 39 16 42 17 43
REMARK SMILES IDX 18 45 19 46 20 47 29 48 21 49 28 51 22 52 23 53 27 54 24 55
REMARK SMILES IDX 26 56 25 58
REMARK H PARENT 8 2 8 3 7 5 6 7 6 8 33 14 33 15 4 16 4 17 34 18 34 19 1 22
REMARK H PARENT 1 23 1 24 10 29 32 31 12 35 30 37 13 38 15 40 15 41 16 44
REMARK H PARENT 20 50 27 57 24 59 26 60 25 61
REMARK Flexibility Score: inf
ROOT
ATOM      1  C   UNL     1     -42.838  40.557  29.341  1.00  0.00     0.036 C 
ATOM      2  H   UNL     1     -42.930  40.939  30.365  1.00  0.00     0.049 H 
ATOM      3  H   UNL     1     -41.808  40.199  29.248  1.00  0.00     0.049 H 
ENDROOT
BRANCH   1   4
ATOM      4  N   UNL     1     -43.126  41.658  28.423  1.00  0.00    -0.311 NA
ATOM      5  H   UNL     1     -44.130  41.679  28.254  1.00  0.00     0.123 HD
BRANCH   4   6
ATOM      6  C   UNL     1     -42.441  41.539  27.135  1.00  0.00     0.001 C 
ATOM      7  H   UNL     1     -41.355  41.463  27.252  1.00  0.00     0.043 H 
ATOM      8  H   UNL     1     -42.759  40.591  26.683  1.00  0.00     0.043 H 
BRANCH   6   9
ATOM      9  C   UNL     1     -42.812  42.647  26.218  1.00  0.00    -0.009 C 
ATOM     10  C   UNL     1     -43.199  44.064  24.941  1.00  0.00     0.070 C 
ATOM     11  C   UNL     1     -41.819  43.441  25.269  1.00  0.00    -0.017 C 
ATOM     12  C   UNL     1     -43.750  42.617  24.937  1.00  0.00    -0.017 C 
ATOM     13  C   UNL     1     -43.456  44.079  26.467  1.00  0.00    -0.017 C 
ATOM     14  H   UNL     1     -41.080  44.085  25.759  1.00  0.00     0.030 H 
ATOM     15  H   UNL     1     -41.327  42.865  24.478  1.00  0.00     0.030 H 
ATOM     16  H   UNL     1     -44.822  42.487  25.119  1.00  0.00     0.030 H 
ATOM     17  H   UNL     1     -43.441  41.965  24.112  1.00  0.00     0.030 H 
ATOM     18  H   UNL     1     -44.501  44.101  26.793  1.00  0.00     0.030 H 
ATOM     19  H   UNL     1     -42.872  44.784  27.068  1.00  0.00     0.030 H 
BRANCH  10  20
ATOM     20  O   UNL     1     -43.439  45.092  24.007  1.00  0.00    -0.378 OA
BRANCH  20  21
ATOM     21  C   UNL     1     -44.543  44.899  23.137  1.00  0.00     0.036 C 
ATOM     22  H   UNL     1     -44.841  45.851  22.688  1.00  0.00     0.053 H 
ATOM     23  H   UNL     1     -45.380  44.506  23.719  1.00  0.00     0.053 H 
ATOM     24  H   UNL     1     -44.287  44.179  22.354  1.00  0.00     0.053 H 
ENDBRANCH  20  21
ENDBRANCH  10  20
ENDBRANCH   6   9
ENDBRANCH   4   6
ENDBRANCH   1   4
BRANCH   1  25
ATOM     25  C   UNL     1     -43.798  39.433  29.157  1.00  0.00     0.030 A 
ATOM     26  C   UNL     1     -44.039  38.309  29.922  1.00  0.00    -0.032 A 
ATOM     27  N   UNL     1     -44.666  39.389  28.090  1.00  0.00    -0.357 N 
ATOM     28  C   UNL     1     -45.070  37.558  29.293  1.00  0.00    -0.000 A 
ATOM     29  H   UNL     1     -43.525  38.050  30.838  1.00  0.00     0.065 H 
ATOM     30  C   UNL     1     -45.444  38.256  28.147  1.00  0.00     0.046 A 
ATOM     31  H   UNL     1     -44.725  40.086  27.361  1.00  0.00     0.166 HD
ATOM     32  C   UNL     1     -45.722  36.349  29.594  1.00  0.00    -0.052 A 
ATOM     33  C   UNL     1     -46.444  37.802  27.279  1.00  0.00    -0.033 A 
ATOM     34  C   UNL     1     -46.725  35.878  28.736  1.00  0.00    -0.057 A 
ATOM     35  H   UNL     1     -45.456  35.785  30.483  1.00  0.00     0.063 H 
ATOM     36  C   UNL     1     -47.083  36.587  27.582  1.00  0.00    -0.027 A 
ATOM     37  H   UNL     1     -46.722  38.372  26.397  1.00  0.00     0.065 H 
ATOM     38  H   UNL     1     -47.229  34.946  28.982  1.00  0.00     0.063 H 
BRANCH  36  39
ATOM     39  C   UNL     1     -48.185  36.079  26.690  1.00  0.00     0.043 C 
ATOM     40  H   UNL     1     -48.328  36.741  25.827  1.00  0.00     0.054 H 
ATOM     41  H   UNL     1     -49.140  36.053  27.229  1.00  0.00     0.054 H 
BRANCH  39  42
ATOM     42  N   UNL     1     -47.880  34.761  26.202  1.00  0.00    -0.347 N 
ATOM     43  C   UNL     1     -48.793  33.739  26.249  1.00  0.00     0.270 C 
ATOM     44  H   UNL     1     -47.035  34.600  25.663  1.00  0.00     0.164 HD
ATOM     45  O   UNL     1     -49.893  33.823  26.780  1.00  0.00    -0.268 OA
BRANCH  43  46
ATOM     46  C   UNL     1     -48.297  32.490  25.562  1.00  0.00     0.136 A 
ATOM     47  C   UNL     1     -48.823  31.335  25.974  1.00  0.00     0.035 A 
ATOM     48  N   UNL     1     -47.351  32.611  24.568  1.00  0.00    -0.225 NA
ATOM     49  C   UNL     1     -48.369  30.095  25.331  1.00  0.00     0.258 A 
ATOM     50  H   UNL     1     -49.567  31.251  26.755  1.00  0.00     0.071 H 
ATOM     51  C   UNL     1     -46.952  31.514  24.004  1.00  0.00     0.140 A 
ATOM     52  O   UNL     1     -48.848  29.026  25.706  1.00  0.00    -0.269 OA
ATOM     53  N   UNL     1     -47.415  30.245  24.335  1.00  0.00    -0.268 N 
ATOM     54  C   UNL     1     -45.928  31.598  22.923  1.00  0.00    -0.019 A 
ATOM     55  C   UNL     1     -46.936  29.116  23.680  1.00  0.00     0.014 A 
ATOM     56  C   UNL     1     -45.498  30.483  22.322  1.00  0.00    -0.057 A 
ATOM     57  H   UNL     1     -45.561  32.581  22.659  1.00  0.00     0.066 H 
ATOM     58  C   UNL     1     -46.017  29.199  22.711  1.00  0.00    -0.045 A 
ATOM     59  H   UNL     1     -47.342  28.156  23.989  1.00  0.00     0.082 H 
ATOM     60  H   UNL     1     -44.753  30.523  21.533  1.00  0.00     0.062 H 
ATOM     61  H   UNL     1     -45.650  28.310  22.205  1.00  0.00     0.064 H 
ENDBRANCH  43  46
ENDBRANCH  39  42
ENDBRANCH  36  39
ENDBRANCH   1  25
TORSDOF 9
ENDMDL
MODEL 7
REMARK VINA RESULT:      -8.7      1.916      2.833
REMARK SMILES CO[C@]12C[C@](CNCc3cc4ccc(CNC(=O)c5cc(=O)n6ccccc6n5)cc4[nH]3)(C1)C2
REMARK SMILES IDX 8 1 7 4 6 6 5 9 3 10 33 11 4 12 34 13 2 20 1 21 9 25 10 26
REMARK SMILES IDX 32 27 11 28 31 30 12 32 30 33 13 34 14 36 15 39 16 42 17 43
REMARK SMILES IDX 18 45 19 46 20 47 29 48 21 49 28 51 22 52 23 53 27 54 24 55
REMARK SMILES IDX 26 56 25 58
REMARK H PARENT 8 2 8 3 7 5 6 7 6 8 33 14 33 15 4 16 4 17 34 18 34 19 1 22
REMARK H PARENT 1 23 1 24 10 29 32 31 12 35 30 37 13 38 15 40 15 41 16 44
REMARK H PARENT 20 50 27 57 24 59 26 60 25 61
REMARK Flexibility Score: inf
ROOT
ATOM      1  C   UNL     1     -45.966  31.629  23.963  1.00  0.00     0.036 C 
ATOM      2  H   UNL     1     -45.974  31.950  22.914  1.00  0.00     0.049 H 
ATOM      3  H   UNL     1     -44.936  31.764  24.309  1.00  0.00     0.049 H 
ENDROOT
BRANCH   1   4
ATOM      4  N   UNL     1     -46.387  30.230  24.010  1.00  0.00    -0.311 NA
ATOM      5  H   UNL     1     -45.559  29.644  23.912  1.00  0.00     0.123 HD
BRANCH   4   6
ATOM      6  C   UNL     1     -47.337  29.870  22.957  1.00  0.00     0.001 C 
ATOM      7  H   UNL     1     -47.684  30.746  22.400  1.00  0.00     0.043 H 
ATOM      8  H   UNL     1     -46.799  29.248  22.231  1.00  0.00     0.043 H 
BRANCH   6   9
ATOM      9  C   UNL     1     -48.476  29.085  23.498  1.00  0.00    -0.009 C 
ATOM     10  C   UNL     1     -49.957  28.124  24.316  1.00  0.00     0.070 C 
ATOM     11  C   UNL     1     -48.733  28.751  25.028  1.00  0.00    -0.017 C 
ATOM     12  C   UNL     1     -50.027  29.427  23.482  1.00  0.00    -0.017 C 
ATOM     13  C   UNL     1     -48.959  27.589  23.261  1.00  0.00    -0.017 C 
ATOM     14  H   UNL     1     -48.025  28.066  25.507  1.00  0.00     0.030 H 
ATOM     15  H   UNL     1     -48.919  29.601  25.693  1.00  0.00     0.030 H 
ATOM     16  H   UNL     1     -50.529  29.375  22.511  1.00  0.00     0.030 H 
ATOM     17  H   UNL     1     -50.337  30.339  24.004  1.00  0.00     0.030 H 
ATOM     18  H   UNL     1     -49.364  27.352  22.272  1.00  0.00     0.030 H 
ATOM     19  H   UNL     1     -48.275  26.794  23.575  1.00  0.00     0.030 H 
BRANCH  10  20
ATOM     20  O   UNL     1     -51.013  27.433  24.946  1.00  0.00    -0.378 OA
BRANCH  20  21
ATOM     21  C   UNL     1     -50.636  26.446  25.892  1.00  0.00     0.036 C 
ATOM     22  H   UNL     1     -50.330  26.919  26.830  1.00  0.00     0.053 H 
ATOM     23  H   UNL     1     -49.791  25.882  25.489  1.00  0.00     0.053 H 
ATOM     24  H   UNL     1     -51.467  25.758  26.073  1.00  0.00     0.053 H 
ENDBRANCH  20  21
ENDBRANCH  10  20
ENDBRANCH   6   9
ENDBRANCH   4   6
ENDBRANCH   1   4
BRANCH   1  25
ATOM     25  C   UNL     1     -46.892  32.500  24.740  1.00  0.00     0.030 A 
ATOM     26  C   UNL     1     -48.217  32.332  25.092  1.00  0.00    -0.032 A 
ATOM     27  N   UNL     1     -46.482  33.701  25.273  1.00  0.00    -0.357 N 
ATOM     28  C   UNL     1     -48.623  33.469  25.843  1.00  0.00    -0.000 A 
ATOM     29  H   UNL     1     -48.833  31.481  24.832  1.00  0.00     0.065 H 
ATOM     30  C   UNL     1     -47.518  34.312  25.941  1.00  0.00     0.046 A 
ATOM     31  H   UNL     1     -45.553  34.088  25.183  1.00  0.00     0.166 HD
ATOM     32  C   UNL     1     -49.829  33.859  26.454  1.00  0.00    -0.052 A 
ATOM     33  C   UNL     1     -47.557  35.535  26.621  1.00  0.00    -0.033 A 
ATOM     34  C   UNL     1     -49.888  35.080  27.138  1.00  0.00    -0.057 A 
ATOM     35  H   UNL     1     -50.706  33.221  26.399  1.00  0.00     0.063 H 
ATOM     36  C   UNL     1     -48.770  35.921  27.218  1.00  0.00    -0.027 A 
ATOM     37  H   UNL     1     -46.677  36.167  26.689  1.00  0.00     0.065 H 
ATOM     38  H   UNL     1     -50.824  35.369  27.612  1.00  0.00     0.063 H 
BRANCH  36  39
ATOM     39  C   UNL     1     -48.847  37.215  27.985  1.00  0.00     0.043 C 
ATOM     40  H   UNL     1     -49.372  37.076  28.938  1.00  0.00     0.054 H 
ATOM     41  H   UNL     1     -49.412  37.968  27.421  1.00  0.00     0.054 H 
BRANCH  39  42
ATOM     42  N   UNL     1     -47.531  37.722  28.265  1.00  0.00    -0.347 N 
ATOM     43  C   UNL     1     -47.084  38.910  27.747  1.00  0.00     0.270 C 
ATOM     44  H   UNL     1     -46.960  37.288  28.984  1.00  0.00     0.164 HD
ATOM     45  O   UNL     1     -47.711  39.590  26.945  1.00  0.00    -0.268 OA
BRANCH  43  46
ATOM     46  C   UNL     1     -45.728  39.299  28.282  1.00  0.00     0.136 A 
ATOM     47  C   UNL     1     -45.304  38.642  29.364  1.00  0.00     0.035 A 
ATOM     48  N   UNL     1     -45.018  40.287  27.636  1.00  0.00    -0.225 NA
ATOM     49  C   UNL     1     -43.989  38.989  29.919  1.00  0.00     0.258 A 
ATOM     50  H   UNL     1     -45.869  37.866  29.863  1.00  0.00     0.071 H 
ATOM     51  C   UNL     1     -43.858  40.591  28.129  1.00  0.00     0.140 A 
ATOM     52  O   UNL     1     -43.592  38.390  30.916  1.00  0.00    -0.269 OA
ATOM     53  N   UNL     1     -43.296  39.988  29.250  1.00  0.00    -0.268 N 
ATOM     54  C   UNL     1     -43.055  41.656  27.463  1.00  0.00    -0.019 A 
ATOM     55  C   UNL     1     -42.044  40.371  29.715  1.00  0.00     0.014 A 
ATOM     56  C   UNL     1     -41.854  41.990  27.948  1.00  0.00    -0.057 A 
ATOM     57  H   UNL     1     -43.484  42.131  26.589  1.00  0.00     0.066 H 
ATOM     58  C   UNL     1     -41.328  41.328  29.112  1.00  0.00    -0.045 A 
ATOM     59  H   UNL     1     -41.665  39.858  30.596  1.00  0.00     0.082 H 
ATOM     60  H   UNL     1     -41.255  42.762  27.476  1.00  0.00     0.062 H 
ATOM     61  H   UNL     1     -40.350  41.620  29.484  1.00  0.00     0.064 H 
ENDBRANCH  43  46
ENDBRANCH  39  42
ENDBRANCH  36  39
ENDBRANCH   1  25
TORSDOF 9
ENDMDL
