MODEL 1
REMARK VINA RESULT:     -10.3      0.000      0.000
REMARK SMILES Nc1ncnc2c1ccn2[C@@H]1C[C@H](CCc2ccc3[nH]ccc3c2)[C@@H](O)[C@H]1O
REMARK SMILES IDX 11 1 12 2 13 3 25 4 27 5 10 12 2 13 3 14 7 15 4 16 6 17 8 18
REMARK SMILES IDX 5 19 9 21 1 24 28 27 14 29 15 32 16 35 17 36 24 37 18 38
REMARK SMILES IDX 23 40 19 42 22 44 20 45 21 46 26 50
REMARK H PARENT 11 6 12 7 12 8 13 9 25 10 27 11 4 20 8 22 9 23 1 25 1 26 28 28
REMARK H PARENT 14 30 14 31 15 33 15 34 17 39 24 41 18 43 22 47 20 48 21 49
REMARK H PARENT 26 51
REMARK Flexibility Score: inf
ROOT
ATOM      1  C   UNL     1     -45.626  39.270  28.565  1.00  0.00     0.064 C 
ATOM      2  C   UNL     1     -45.312  37.759  28.504  1.00  0.00    -0.024 C 
ATOM      3  C   UNL     1     -46.676  37.066  28.527  1.00  0.00    -0.010 C 
ATOM      4  C   UNL     1     -47.536  38.024  27.700  1.00  0.00     0.085 C 
ATOM      5  C   UNL     1     -47.125  39.409  28.221  1.00  0.00     0.101 C 
ATOM      6  H   UNL     1     -45.467  39.619  29.592  1.00  0.00     0.056 H 
ATOM      7  H   UNL     1     -44.690  37.457  29.353  1.00  0.00     0.029 H 
ATOM      8  H   UNL     1     -44.762  37.497  27.592  1.00  0.00     0.029 H 
ATOM      9  H   UNL     1     -47.062  37.036  29.554  1.00  0.00     0.033 H 
ATOM     10  H   UNL     1     -47.304  37.930  26.634  1.00  0.00     0.063 H 
ATOM     11  H   UNL     1     -47.345  40.189  27.486  1.00  0.00     0.065 H 
ENDROOT
BRANCH   1  12
ATOM     12  N   UNL     1     -44.748  40.047  27.704  1.00  0.00    -0.327 N 
ATOM     13  C   UNL     1     -41.727  41.824  27.205  1.00  0.00     0.136 A 
ATOM     14  N   UNL     1     -41.138  41.721  28.411  1.00  0.00    -0.219 NA
ATOM     15  C   UNL     1     -42.979  41.225  27.007  1.00  0.00     0.061 A 
ATOM     16  C   UNL     1     -41.780  41.034  29.376  1.00  0.00     0.120 A 
ATOM     17  C   UNL     1     -43.530  40.556  28.092  1.00  0.00     0.145 A 
ATOM     18  C   UNL     1     -43.900  41.097  25.931  1.00  0.00    -0.031 A 
ATOM     19  N   UNL     1     -42.975  40.422  29.308  1.00  0.00    -0.218 NA
ATOM     20  H   UNL     1     -41.267  40.968  30.331  1.00  0.00     0.106 H 
ATOM     21  C   UNL     1     -44.975  40.362  26.385  1.00  0.00     0.007 A 
ATOM     22  H   UNL     1     -43.781  41.489  24.930  1.00  0.00     0.065 H 
ATOM     23  H   UNL     1     -45.871  40.041  25.869  1.00  0.00     0.082 H 
BRANCH  13  24
ATOM     24  N   UNL     1     -41.053  42.540  26.225  1.00  0.00    -0.383 N 
ATOM     25  H   UNL     1     -40.130  42.851  26.491  1.00  0.00     0.158 HD
ATOM     26  H   UNL     1     -41.128  42.069  25.330  1.00  0.00     0.158 HD
ENDBRANCH  13  24
ENDBRANCH   1  12
BRANCH   5  27
ATOM     27  O   UNL     1     -47.913  39.723  29.385  1.00  0.00    -0.388 OA
ATOM     28  H   UNL     1     -47.747  40.650  29.638  1.00  0.00     0.211 HD
ENDBRANCH   5  27
BRANCH   3  29
ATOM     29  C   UNL     1     -46.672  35.639  27.964  1.00  0.00    -0.044 C 
ATOM     30  H   UNL     1     -47.520  35.079  28.380  1.00  0.00     0.027 H 
ATOM     31  H   UNL     1     -45.769  35.122  28.307  1.00  0.00     0.027 H 
BRANCH  29  32
ATOM     32  C   UNL     1     -46.758  35.563  26.432  1.00  0.00    -0.028 C 
ATOM     33  H   UNL     1     -45.785  35.819  25.997  1.00  0.00     0.032 H 
ATOM     34  H   UNL     1     -47.454  36.331  26.074  1.00  0.00     0.032 H 
BRANCH  32  35
ATOM     35  C   UNL     1     -47.226  34.225  25.909  1.00  0.00    -0.047 A 
ATOM     36  C   UNL     1     -48.479  33.719  26.275  1.00  0.00    -0.057 A 
ATOM     37  C   UNL     1     -46.400  33.478  25.050  1.00  0.00    -0.050 A 
ATOM     38  C   UNL     1     -48.930  32.475  25.818  1.00  0.00    -0.038 A 
ATOM     39  H   UNL     1     -49.127  34.296  26.933  1.00  0.00     0.063 H 
ATOM     40  C   UNL     1     -46.832  32.221  24.580  1.00  0.00    -0.000 A 
ATOM     41  H   UNL     1     -45.428  33.855  24.746  1.00  0.00     0.063 H 
ATOM     42  C   UNL     1     -48.083  31.750  24.974  1.00  0.00     0.045 A 
ATOM     43  H   UNL     1     -49.902  32.095  26.111  1.00  0.00     0.065 H 
ATOM     44  C   UNL     1     -46.260  31.233  23.731  1.00  0.00    -0.037 A 
ATOM     45  N   UNL     1     -48.258  30.520  24.381  1.00  0.00    -0.361 N 
ATOM     46  C   UNL     1     -47.160  30.198  23.628  1.00  0.00     0.002 A 
ATOM     47  H   UNL     1     -45.293  31.279  23.248  1.00  0.00     0.065 H 
ATOM     48  H   UNL     1     -49.081  29.945  24.489  1.00  0.00     0.166 HD
ATOM     49  H   UNL     1     -47.114  29.263  23.084  1.00  0.00     0.082 H 
ENDBRANCH  32  35
ENDBRANCH  29  32
ENDBRANCH   3  29
BRANCH   4  50
ATOM     50  O   UNL     1     -48.920  37.774  27.888  1.00  0.00    -0.390 OA
ATOM     51  H   UNL     1     -49.334  37.825  27.002  1.00  0.00     0.211 HD
ENDBRANCH   4  50
TORSDOF 7
ENDMDL
MODEL 2
REMARK VINA RESULT:      -9.5      2.290      9.707
REMARK SMILES Nc1ncnc2c1ccn2[C@@H]1C[C@H](CCc2ccc3[nH]ccc3c2)[C@@H](O)[C@H]1O
REMARK SMILES IDX 11 1 12 2 13 3 25 4 27 5 10 12 2 13 3 14 7 15 4 16 6 17 8 18
REMARK SMILES IDX 5 19 9 21 1 24 28 27 14 29 15 32 16 35 17 36 24 37 18 38
REMARK SMILES IDX 23 40 19 42 22 44 20 45 21 46 26 50
REMARK H PARENT 11 6 12 7 12 8 13 9 25 10 27 11 4 20 8 22 9 23 1 25 1 26 28 28
REMARK H PARENT 14 30 14 31 15 33 15 34 17 39 24 41 18 43 22 47 20 48 21 49
REMARK H PARENT 26 51
REMARK Flexibility Score: inf
ROOT
ATOM      1  C   UNL     1     -47.544  32.334  26.066  1.00  0.00     0.064 C 
ATOM      2  C   UNL     1     -48.253  33.704  26.018  1.00  0.00    -0.024 C 
ATOM      3  C   UNL     1     -47.491  34.583  27.011  1.00  0.00    -0.010 C 
ATOM      4  C   UNL     1     -46.050  34.108  26.820  1.00  0.00     0.085 C 
ATOM      5  C   UNL     1     -46.186  32.580  26.759  1.00  0.00     0.101 C 
ATOM      6  H   UNL     1     -48.138  31.653  26.687  1.00  0.00     0.056 H 
ATOM      7  H   UNL     1     -49.309  33.604  26.293  1.00  0.00     0.029 H 
ATOM      8  H   UNL     1     -48.222  34.141  25.013  1.00  0.00     0.029 H 
ATOM      9  H   UNL     1     -47.810  34.353  28.036  1.00  0.00     0.033 H 
ATOM     10  H   UNL     1     -45.636  34.494  25.882  1.00  0.00     0.063 H 
ATOM     11  H   UNL     1     -45.332  32.126  26.246  1.00  0.00     0.065 H 
ENDROOT
BRANCH   1  12
ATOM     12  N   UNL     1     -47.432  31.728  24.747  1.00  0.00    -0.327 N 
ATOM     13  C   UNL     1     -48.914  30.045  22.009  1.00  0.00     0.136 A 
ATOM     14  N   UNL     1     -50.188  29.902  22.422  1.00  0.00    -0.219 NA
ATOM     15  C   UNL     1     -47.995  30.687  22.850  1.00  0.00     0.061 A 
ATOM     16  C   UNL     1     -50.523  30.395  23.631  1.00  0.00     0.120 A 
ATOM     17  C   UNL     1     -48.475  31.138  24.072  1.00  0.00     0.145 A 
ATOM     18  C   UNL     1     -46.617  31.035  22.793  1.00  0.00    -0.031 A 
ATOM     19  N   UNL     1     -49.736  31.024  24.521  1.00  0.00    -0.218 NA
ATOM     20  H   UNL     1     -51.561  30.266  23.923  1.00  0.00     0.106 H 
ATOM     21  C   UNL     1     -46.300  31.681  23.969  1.00  0.00     0.007 A 
ATOM     22  H   UNL     1     -45.937  30.845  21.973  1.00  0.00     0.065 H 
ATOM     23  H   UNL     1     -45.362  32.108  24.302  1.00  0.00     0.082 H 
BRANCH  13  24
ATOM     24  N   UNL     1     -48.587  29.526  20.764  1.00  0.00    -0.383 N 
ATOM     25  H   UNL     1     -48.491  28.521  20.738  1.00  0.00     0.158 HD
ATOM     26  H   UNL     1     -49.168  29.941  20.045  1.00  0.00     0.158 HD
ENDBRANCH  13  24
ENDBRANCH   1  12
BRANCH   5  27
ATOM     27  O   UNL     1     -46.169  32.056  28.101  1.00  0.00    -0.388 OA
ATOM     28  H   UNL     1     -46.757  31.279  28.144  1.00  0.00     0.211 HD
ENDBRANCH   5  27
BRANCH   3  29
ATOM     29  C   UNL     1     -47.652  36.091  26.777  1.00  0.00    -0.044 C 
ATOM     30  H   UNL     1     -48.499  36.269  26.103  1.00  0.00     0.027 H 
ATOM     31  H   UNL     1     -46.764  36.468  26.255  1.00  0.00     0.027 H 
BRANCH  29  32
ATOM     32  C   UNL     1     -47.882  36.909  28.056  1.00  0.00    -0.028 C 
ATOM     33  H   UNL     1     -48.307  36.263  28.834  1.00  0.00     0.032 H 
ATOM     34  H   UNL     1     -48.643  37.675  27.860  1.00  0.00     0.032 H 
BRANCH  32  35
ATOM     35  C   UNL     1     -46.643  37.600  28.575  1.00  0.00    -0.047 A 
ATOM     36  C   UNL     1     -46.069  37.210  29.791  1.00  0.00    -0.057 A 
ATOM     37  C   UNL     1     -46.060  38.647  27.837  1.00  0.00    -0.050 A 
ATOM     38  C   UNL     1     -44.931  37.845  30.302  1.00  0.00    -0.038 A 
ATOM     39  H   UNL     1     -46.510  36.395  30.363  1.00  0.00     0.063 H 
ATOM     40  C   UNL     1     -44.916  39.302  28.334  1.00  0.00    -0.000 A 
ATOM     41  H   UNL     1     -46.483  38.960  26.887  1.00  0.00     0.063 H 
ATOM     42  C   UNL     1     -44.380  38.888  29.552  1.00  0.00     0.045 A 
ATOM     43  H   UNL     1     -44.498  37.532  31.246  1.00  0.00     0.065 H 
ATOM     44  C   UNL     1     -44.104  40.371  27.860  1.00  0.00    -0.037 A 
ATOM     45  N   UNL     1     -43.281  39.679  29.802  1.00  0.00    -0.361 N 
ATOM     46  C   UNL     1     -43.107  40.581  28.785  1.00  0.00     0.002 A 
ATOM     47  H   UNL     1     -44.238  40.923  26.940  1.00  0.00     0.065 H 
ATOM     48  H   UNL     1     -42.693  39.600  30.619  1.00  0.00     0.166 HD
ATOM     49  H   UNL     1     -42.291  41.290  28.806  1.00  0.00     0.082 H 
ENDBRANCH  32  35
ENDBRANCH  29  32
ENDBRANCH   3  29
BRANCH   4  50
ATOM     50  O   UNL     1     -45.218  34.526  27.891  1.00  0.00    -0.390 OA
ATOM     51  H   UNL     1     -45.758  34.459  28.705  1.00  0.00     0.211 HD
ENDBRANCH   4  50
TORSDOF 7
ENDMDL
MODEL 3
REMARK VINA RESULT:      -9.4      1.810      9.124
REMARK SMILES Nc1ncnc2c1ccn2[C@@H]1C[C@H](CCc2ccc3[nH]ccc3c2)[C@@H](O)[C@H]1O
REMARK SMILES IDX 11 1 12 2 13 3 25 4 27 5 10 12 2 13 3 14 7 15 4 16 6 17 8 18
REMARK SMILES IDX 5 19 9 21 1 24 28 27 14 29 15 32 16 35 17 36 24 37 18 38
REMARK SMILES IDX 23 40 19 42 22 44 20 45 21 46 26 50
REMARK H PARENT 11 6 12 7 12 8 13 9 25 10 27 11 4 20 8 22 9 23 1 25 1 26 28 28
REMARK H PARENT 14 30 14 31 15 33 15 34 17 39 24 41 18 43 22 47 20 48 21 49
REMARK H PARENT 26 51
REMARK Flexibility Score: inf
ROOT
ATOM      1  C   UNL     1     -47.296  34.266  27.348  1.00  0.00     0.064 C 
ATOM      2  C   UNL     1     -47.923  35.651  27.079  1.00  0.00    -0.024 C 
ATOM      3  C   UNL     1     -47.293  36.583  28.116  1.00  0.00    -0.010 C 
ATOM      4  C   UNL     1     -45.864  36.045  28.205  1.00  0.00     0.085 C 
ATOM      5  C   UNL     1     -46.060  34.522  28.238  1.00  0.00     0.101 C 
ATOM      6  H   UNL     1     -48.015  33.659  27.911  1.00  0.00     0.056 H 
ATOM      7  H   UNL     1     -49.013  35.610  27.181  1.00  0.00     0.029 H 
ATOM      8  H   UNL     1     -47.707  36.003  26.063  1.00  0.00     0.029 H 
ATOM      9  H   UNL     1     -47.786  36.449  29.087  1.00  0.00     0.033 H 
ATOM     10  H   UNL     1     -45.285  36.338  27.322  1.00  0.00     0.063 H 
ATOM     11  H   UNL     1     -45.157  33.999  27.911  1.00  0.00     0.065 H 
ENDROOT
BRANCH   1  12
ATOM     12  N   UNL     1     -46.999  33.551  26.117  1.00  0.00    -0.327 N 
ATOM     13  C   UNL     1     -47.442  30.730  24.024  1.00  0.00     0.136 A 
ATOM     14  N   UNL     1     -48.286  29.972  24.749  1.00  0.00    -0.219 NA
ATOM     15  C   UNL     1     -47.025  31.965  24.540  1.00  0.00     0.061 A 
ATOM     16  C   UNL     1     -48.700  30.444  25.941  1.00  0.00     0.120 A 
ATOM     17  C   UNL     1     -47.523  32.323  25.785  1.00  0.00     0.145 A 
ATOM     18  C   UNL     1     -46.184  33.028  24.110  1.00  0.00    -0.031 A 
ATOM     19  N   UNL     1     -48.371  31.602  26.538  1.00  0.00    -0.218 NA
ATOM     20  H   UNL     1     -49.385  29.805  26.490  1.00  0.00     0.106 H 
ATOM     21  C   UNL     1     -46.192  33.993  25.096  1.00  0.00     0.007 A 
ATOM     22  H   UNL     1     -45.642  33.085  23.175  1.00  0.00     0.065 H 
ATOM     23  H   UNL     1     -45.691  34.952  25.140  1.00  0.00     0.082 H 
BRANCH  13  24
ATOM     24  N   UNL     1     -47.022  30.225  22.800  1.00  0.00    -0.383 N 
ATOM     25  H   UNL     1     -46.151  30.609  22.463  1.00  0.00     0.158 HD
ATOM     26  H   UNL     1     -47.102  29.215  22.790  1.00  0.00     0.158 HD
ENDBRANCH  13  24
ENDBRANCH   1  12
BRANCH   5  27
ATOM     27  O   UNL     1     -46.288  34.111  29.599  1.00  0.00    -0.388 OA
ATOM     28  H   UNL     1     -47.138  34.481  29.904  1.00  0.00     0.211 HD
ENDBRANCH   5  27
BRANCH   3  29
ATOM     29  C   UNL     1     -47.342  38.071  27.744  1.00  0.00    -0.044 C 
ATOM     30  H   UNL     1     -47.046  38.675  28.612  1.00  0.00     0.027 H 
ATOM     31  H   UNL     1     -48.379  38.349  27.520  1.00  0.00     0.027 H 
BRANCH  29  32
ATOM     32  C   UNL     1     -46.439  38.459  26.565  1.00  0.00    -0.028 C 
ATOM     33  H   UNL     1     -47.058  38.719  25.698  1.00  0.00     0.032 H 
ATOM     34  H   UNL     1     -45.854  37.583  26.258  1.00  0.00     0.032 H 
BRANCH  32  35
ATOM     35  C   UNL     1     -45.476  39.582  26.871  1.00  0.00    -0.047 A 
ATOM     36  C   UNL     1     -45.461  40.739  26.083  1.00  0.00    -0.057 A 
ATOM     37  C   UNL     1     -44.583  39.468  27.952  1.00  0.00    -0.050 A 
ATOM     38  C   UNL     1     -44.568  41.787  26.335  1.00  0.00    -0.038 A 
ATOM     39  H   UNL     1     -46.156  40.838  25.250  1.00  0.00     0.063 H 
ATOM     40  C   UNL     1     -43.673  40.509  28.223  1.00  0.00    -0.000 A 
ATOM     41  H   UNL     1     -44.583  38.583  28.582  1.00  0.00     0.063 H 
ATOM     42  C   UNL     1     -43.686  41.641  27.410  1.00  0.00     0.045 A 
ATOM     43  H   UNL     1     -44.568  42.677  25.715  1.00  0.00     0.065 H 
ATOM     44  C   UNL     1     -42.660  40.708  29.203  1.00  0.00    -0.037 A 
ATOM     45  N   UNL     1     -42.715  42.493  27.886  1.00  0.00    -0.361 N 
ATOM     46  C   UNL     1     -42.087  41.937  28.969  1.00  0.00     0.002 A 
ATOM     47  H   UNL     1     -42.385  40.023  29.992  1.00  0.00     0.065 H 
ATOM     48  H   UNL     1     -42.503  43.397  27.489  1.00  0.00     0.166 HD
ATOM     49  H   UNL     1     -41.292  42.462  29.480  1.00  0.00     0.082 H 
ENDBRANCH  32  35
ENDBRANCH  29  32
ENDBRANCH   3  29
BRANCH   4  50
ATOM     50  O   UNL     1     -45.200  36.521  29.364  1.00  0.00    -0.390 OA
ATOM     51  H   UNL     1     -44.715  35.758  29.740  1.00  0.00     0.211 HD
ENDBRANCH   4  50
TORSDOF 7
ENDMDL
MODEL 4
REMARK VINA RESULT:      -9.4      2.203      9.550
REMARK SMILES Nc1ncnc2c1ccn2[C@@H]1C[C@H](CCc2ccc3[nH]ccc3c2)[C@@H](O)[C@H]1O
REMARK SMILES IDX 11 1 12 2 13 3 25 4 27 5 10 12 2 13 3 14 7 15 4 16 6 17 8 18
REMARK SMILES IDX 5 19 9 21 1 24 28 27 14 29 15 32 16 35 17 36 24 37 18 38
REMARK SMILES IDX 23 40 19 42 22 44 20 45 21 46 26 50
REMARK H PARENT 11 6 12 7 12 8 13 9 25 10 27 11 4 20 8 22 9 23 1 25 1 26 28 28
REMARK H PARENT 14 30 14 31 15 33 15 34 17 39 24 41 18 43 22 47 20 48 21 49
REMARK H PARENT 26 51
REMARK Flexibility Score: inf
ROOT
ATOM      1  C   UNL     1     -48.242  32.405  26.075  1.00  0.00     0.064 C 
ATOM      2  C   UNL     1     -48.868  33.792  26.334  1.00  0.00    -0.024 C 
ATOM      3  C   UNL     1     -47.757  34.616  26.988  1.00  0.00    -0.010 C 
ATOM      4  C   UNL     1     -46.512  34.114  26.254  1.00  0.00     0.085 C 
ATOM      5  C   UNL     1     -46.715  32.593  26.210  1.00  0.00     0.101 C 
ATOM      6  H   UNL     1     -48.582  31.715  26.857  1.00  0.00     0.056 H 
ATOM      7  H   UNL     1     -49.745  33.708  26.985  1.00  0.00     0.029 H 
ATOM      8  H   UNL     1     -49.202  34.266  25.403  1.00  0.00     0.029 H 
ATOM      9  H   UNL     1     -47.674  34.355  28.051  1.00  0.00     0.033 H 
ATOM     10  H   UNL     1     -46.469  34.525  25.240  1.00  0.00     0.063 H 
ATOM     11  H   UNL     1     -46.135  32.139  25.402  1.00  0.00     0.065 H 
ENDROOT
BRANCH   1  12
ATOM     12  N   UNL     1     -48.658  31.846  24.797  1.00  0.00    -0.327 N 
ATOM     13  C   UNL     1     -47.855  30.260  21.736  1.00  0.00     0.136 A 
ATOM     14  N   UNL     1     -46.517  30.141  21.824  1.00  0.00    -0.219 NA
ATOM     15  C   UNL     1     -48.555  30.857  22.794  1.00  0.00     0.061 A 
ATOM     16  C   UNL     1     -45.909  30.597  22.937  1.00  0.00     0.120 A 
ATOM     17  C   UNL     1     -47.800  31.290  23.876  1.00  0.00     0.145 A 
ATOM     18  C   UNL     1     -49.913  31.155  23.091  1.00  0.00    -0.031 A 
ATOM     19  N   UNL     1     -46.467  31.185  24.008  1.00  0.00    -0.218 NA
ATOM     20  H   UNL     1     -44.831  30.475  22.970  1.00  0.00     0.106 H 
ATOM     21  C   UNL     1     -49.948  31.757  24.332  1.00  0.00     0.007 A 
ATOM     22  H   UNL     1     -50.771  30.941  22.469  1.00  0.00     0.065 H 
ATOM     23  H   UNL     1     -50.789  32.118  24.911  1.00  0.00     0.082 H 
BRANCH  13  24
ATOM     24  N   UNL     1     -48.463  29.789  20.580  1.00  0.00    -0.383 N 
ATOM     25  H   UNL     1     -47.837  29.340  19.928  1.00  0.00     0.158 HD
ATOM     26  H   UNL     1     -49.312  29.284  20.809  1.00  0.00     0.158 HD
ENDBRANCH  13  24
ENDBRANCH   1  12
BRANCH   5  27
ATOM     27  O   UNL     1     -46.213  32.019  27.433  1.00  0.00    -0.388 OA
ATOM     28  H   UNL     1     -46.436  32.611  28.175  1.00  0.00     0.211 HD
ENDBRANCH   5  27
BRANCH   3  29
ATOM     29  C   UNL     1     -47.939  36.135  26.870  1.00  0.00    -0.044 C 
ATOM     30  H   UNL     1     -48.992  36.362  26.659  1.00  0.00     0.027 H 
ATOM     31  H   UNL     1     -47.371  36.497  26.005  1.00  0.00     0.027 H 
BRANCH  29  32
ATOM     32  C   UNL     1     -47.526  36.921  28.123  1.00  0.00    -0.028 C 
ATOM     33  H   UNL     1     -47.101  36.233  28.864  1.00  0.00     0.032 H 
ATOM     34  H   UNL     1     -48.422  37.344  28.592  1.00  0.00     0.032 H 
BRANCH  32  35
ATOM     35  C   UNL     1     -46.561  38.050  27.849  1.00  0.00    -0.047 A 
ATOM     36  C   UNL     1     -46.675  38.813  26.680  1.00  0.00    -0.057 A 
ATOM     37  C   UNL     1     -45.537  38.340  28.769  1.00  0.00    -0.050 A 
ATOM     38  C   UNL     1     -45.785  39.855  26.394  1.00  0.00    -0.038 A 
ATOM     39  H   UNL     1     -47.470  38.600  25.968  1.00  0.00     0.063 H 
ATOM     40  C   UNL     1     -44.627  39.382  28.500  1.00  0.00    -0.000 A 
ATOM     41  H   UNL     1     -45.435  37.767  29.686  1.00  0.00     0.063 H 
ATOM     42  C   UNL     1     -44.771  40.113  27.322  1.00  0.00     0.045 A 
ATOM     43  H   UNL     1     -45.885  40.436  25.484  1.00  0.00     0.065 H 
ATOM     44  C   UNL     1     -43.505  39.919  29.192  1.00  0.00    -0.037 A 
ATOM     45  N   UNL     1     -43.770  41.058  27.306  1.00  0.00    -0.361 N 
ATOM     46  C   UNL     1     -42.998  40.948  28.432  1.00  0.00     0.002 A 
ATOM     47  H   UNL     1     -43.115  39.585  30.144  1.00  0.00     0.065 H 
ATOM     48  H   UNL     1     -43.633  41.733  26.568  1.00  0.00     0.166 HD
ATOM     49  H   UNL     1     -42.158  41.610  28.596  1.00  0.00     0.082 H 
ENDBRANCH  32  35
ENDBRANCH  29  32
ENDBRANCH   3  29
BRANCH   4  50
ATOM     50  O   UNL     1     -45.323  34.472  26.942  1.00  0.00    -0.390 OA
ATOM     51  H   UNL     1     -44.641  33.821  26.674  1.00  0.00     0.211 HD
ENDBRANCH   4  50
TORSDOF 7
ENDMDL
MODEL 5
REMARK VINA RESULT:      -9.2      1.582      2.614
REMARK SMILES Nc1ncnc2c1ccn2[C@@H]1C[C@H](CCc2ccc3[nH]ccc3c2)[C@@H](O)[C@H]1O
REMARK SMILES IDX 11 1 12 2 13 3 25 4 27 5 10 12 2 13 3 14 7 15 4 16 6 17 8 18
REMARK SMILES IDX 5 19 9 21 1 24 28 27 14 29 15 32 16 35 17 36 24 37 18 38
REMARK SMILES IDX 23 40 19 42 22 44 20 45 21 46 26 50
REMARK H PARENT 11 6 12 7 12 8 13 9 25 10 27 11 4 20 8 22 9 23 1 25 1 26 28 28
REMARK H PARENT 14 30 14 31 15 33 15 34 17 39 24 41 18 43 22 47 20 48 21 49
REMARK H PARENT 26 51
REMARK Flexibility Score: inf
ROOT
ATOM      1  C   UNL     1     -46.674  37.084  28.402  1.00  0.00     0.064 C 
ATOM      2  C   UNL     1     -45.866  35.799  28.118  1.00  0.00    -0.024 C 
ATOM      3  C   UNL     1     -46.913  34.732  27.793  1.00  0.00    -0.010 C 
ATOM      4  C   UNL     1     -47.964  35.537  27.027  1.00  0.00     0.085 C 
ATOM      5  C   UNL     1     -48.093  36.826  27.850  1.00  0.00     0.101 C 
ATOM      6  H   UNL     1     -46.738  37.225  29.487  1.00  0.00     0.056 H 
ATOM      7  H   UNL     1     -45.261  35.521  28.987  1.00  0.00     0.029 H 
ATOM      8  H   UNL     1     -45.177  35.932  27.275  1.00  0.00     0.029 H 
ATOM      9  H   UNL     1     -47.360  34.354  28.721  1.00  0.00     0.033 H 
ATOM     10  H   UNL     1     -47.615  35.762  26.013  1.00  0.00     0.063 H 
ATOM     11  H   UNL     1     -48.493  37.645  27.244  1.00  0.00     0.065 H 
ENDROOT
BRANCH   1  12
ATOM     12  N   UNL     1     -46.032  38.268  27.851  1.00  0.00    -0.327 N 
ATOM     13  C   UNL     1     -43.553  40.787  28.049  1.00  0.00     0.136 A 
ATOM     14  N   UNL     1     -42.932  40.480  29.203  1.00  0.00    -0.219 NA
ATOM     15  C   UNL     1     -44.623  39.989  27.620  1.00  0.00     0.061 A 
ATOM     16  C   UNL     1     -43.366  39.406  29.893  1.00  0.00     0.120 A 
ATOM     17  C   UNL     1     -44.969  38.919  28.433  1.00  0.00     0.145 A 
ATOM     18  C   UNL     1     -45.505  39.964  26.505  1.00  0.00    -0.031 A 
ATOM     19  N   UNL     1     -44.374  38.572  29.587  1.00  0.00    -0.218 NA
ATOM     20  H   UNL     1     -42.833  39.190  30.814  1.00  0.00     0.106 H 
ATOM     21  C   UNL     1     -46.356  38.891  26.669  1.00  0.00     0.007 A 
ATOM     22  H   UNL     1     -45.507  40.649  25.668  1.00  0.00     0.065 H 
ATOM     23  H   UNL     1     -47.156  38.529  26.035  1.00  0.00     0.082 H 
BRANCH  13  24
ATOM     24  N   UNL     1     -43.096  41.900  27.355  1.00  0.00    -0.383 N 
ATOM     25  H   UNL     1     -42.237  42.295  27.711  1.00  0.00     0.158 HD
ATOM     26  H   UNL     1     -43.134  41.732  26.356  1.00  0.00     0.158 HD
ENDBRANCH  13  24
ENDBRANCH   1  12
BRANCH   5  27
ATOM     27  O   UNL     1     -49.046  36.611  28.909  1.00  0.00    -0.388 OA
ATOM     28  H   UNL     1     -49.360  35.689  28.868  1.00  0.00     0.211 HD
ENDBRANCH   5  27
BRANCH   3  29
ATOM     29  C   UNL     1     -46.377  33.541  26.987  1.00  0.00    -0.044 C 
ATOM     30  H   UNL     1     -46.936  32.636  27.256  1.00  0.00     0.027 H 
ATOM     31  H   UNL     1     -45.336  33.353  27.278  1.00  0.00     0.027 H 
BRANCH  29  32
ATOM     32  C   UNL     1     -46.463  33.718  25.464  1.00  0.00    -0.028 C 
ATOM     33  H   UNL     1     -45.474  33.977  25.068  1.00  0.00     0.032 H 
ATOM     34  H   UNL     1     -47.106  34.578  25.239  1.00  0.00     0.032 H 
BRANCH  32  35
ATOM     35  C   UNL     1     -47.015  32.515  24.737  1.00  0.00    -0.047 A 
ATOM     36  C   UNL     1     -46.179  31.718  23.945  1.00  0.00    -0.057 A 
ATOM     37  C   UNL     1     -48.379  32.190  24.848  1.00  0.00    -0.050 A 
ATOM     38  C   UNL     1     -46.668  30.608  23.247  1.00  0.00    -0.038 A 
ATOM     39  H   UNL     1     -45.120  31.959  23.861  1.00  0.00     0.063 H 
ATOM     40  C   UNL     1     -48.895  31.079  24.152  1.00  0.00    -0.000 A 
ATOM     41  H   UNL     1     -49.045  32.789  25.463  1.00  0.00     0.063 H 
ATOM     42  C   UNL     1     -48.030  30.316  23.369  1.00  0.00     0.045 A 
ATOM     43  H   UNL     1     -46.008  30.001  22.637  1.00  0.00     0.065 H 
ATOM     44  C   UNL     1     -50.187  30.493  24.042  1.00  0.00    -0.037 A 
ATOM     45  N   UNL     1     -48.776  29.305  22.808  1.00  0.00    -0.361 N 
ATOM     46  C   UNL     1     -50.083  29.404  23.207  1.00  0.00     0.002 A 
ATOM     47  H   UNL     1     -51.093  30.834  24.523  1.00  0.00     0.065 H 
ATOM     48  H   UNL     1     -48.406  28.594  22.193  1.00  0.00     0.166 HD
ATOM     49  H   UNL     1     -50.823  28.692  22.866  1.00  0.00     0.082 H 
ENDBRANCH  32  35
ENDBRANCH  29  32
ENDBRANCH   3  29
BRANCH   4  50
ATOM     50  O   UNL     1     -49.195  34.836  26.939  1.00  0.00    -0.390 OA
ATOM     51  H   UNL     1     -49.649  34.965  27.797  1.00  0.00     0.211 HD
ENDBRANCH   4  50
TORSDOF 7
ENDMDL
MODEL 6
REMARK VINA RESULT:      -9.1      1.321      2.343
REMARK SMILES Nc1ncnc2c1ccn2[C@@H]1C[C@H](CCc2ccc3[nH]ccc3c2)[C@@H](O)[C@H]1O
REMARK SMILES IDX 11 1 12 2 13 3 25 4 27 5 10 12 2 13 3 14 7 15 4 16 6 17 8 18
REMARK SMILES IDX 5 19 9 21 1 24 28 27 14 29 15 32 16 35 17 36 24 37 18 38
REMARK SMILES IDX 23 40 19 42 22 44 20 45 21 46 26 50
REMARK H PARENT 11 6 12 7 12 8 13 9 25 10 27 11 4 20 8 22 9 23 1 25 1 26 28 28
REMARK H PARENT 14 30 14 31 15 33 15 34 17 39 24 41 18 43 22 47 20 48 21 49
REMARK H PARENT 26 51
REMARK Flexibility Score: inf
ROOT
ATOM      1  C   UNL     1     -44.762  37.856  29.268  1.00  0.00     0.064 C 
ATOM      2  C   UNL     1     -44.924  37.061  27.955  1.00  0.00    -0.024 C 
ATOM      3  C   UNL     1     -46.358  36.528  27.984  1.00  0.00    -0.010 C 
ATOM      4  C   UNL     1     -47.114  37.680  28.649  1.00  0.00     0.085 C 
ATOM      5  C   UNL     1     -46.191  38.090  29.805  1.00  0.00     0.101 C 
ATOM      6  H   UNL     1     -44.213  37.236  29.987  1.00  0.00     0.056 H 
ATOM      7  H   UNL     1     -44.192  36.248  27.899  1.00  0.00     0.029 H 
ATOM      8  H   UNL     1     -44.767  37.697  27.075  1.00  0.00     0.029 H 
ATOM      9  H   UNL     1     -46.414  35.644  28.632  1.00  0.00     0.033 H 
ATOM     10  H   UNL     1     -47.245  38.512  27.949  1.00  0.00     0.063 H 
ATOM     11  H   UNL     1     -46.386  39.119  30.123  1.00  0.00     0.065 H 
ENDROOT
BRANCH   1  12
ATOM     12  N   UNL     1     -43.994  39.077  29.078  1.00  0.00    -0.327 N 
ATOM     13  C   UNL     1     -43.279  41.990  27.198  1.00  0.00     0.136 A 
ATOM     14  N   UNL     1     -44.136  41.877  26.167  1.00  0.00    -0.219 NA
ATOM     15  C   UNL     1     -43.267  40.994  28.185  1.00  0.00     0.061 A 
ATOM     16  C   UNL     1     -44.956  40.807  26.136  1.00  0.00     0.120 A 
ATOM     17  C   UNL     1     -44.160  39.944  28.023  1.00  0.00     0.145 A 
ATOM     18  C   UNL     1     -42.555  40.749  29.391  1.00  0.00    -0.031 A 
ATOM     19  N   UNL     1     -45.037  39.794  27.015  1.00  0.00    -0.218 NA
ATOM     20  H   UNL     1     -45.637  40.758  25.292  1.00  0.00     0.106 H 
ATOM     21  C   UNL     1     -43.026  39.567  29.923  1.00  0.00     0.007 A 
ATOM     22  H   UNL     1     -41.789  41.376  29.827  1.00  0.00     0.065 H 
ATOM     23  H   UNL     1     -42.750  39.050  30.833  1.00  0.00     0.082 H 
BRANCH  13  24
ATOM     24  N   UNL     1     -42.438  43.095  27.210  1.00  0.00    -0.383 N 
ATOM     25  H   UNL     1     -42.490  43.672  26.383  1.00  0.00     0.158 HD
ATOM     26  H   UNL     1     -42.503  43.577  28.100  1.00  0.00     0.158 HD
ENDBRANCH  13  24
ENDBRANCH   1  12
BRANCH   5  27
ATOM     27  O   UNL     1     -46.474  37.259  30.947  1.00  0.00    -0.388 OA
ATOM     28  H   UNL     1     -46.600  36.340  30.646  1.00  0.00     0.211 HD
ENDBRANCH   5  27
BRANCH   3  29
ATOM     29  C   UNL     1     -46.928  36.164  26.608  1.00  0.00    -0.044 C 
ATOM     30  H   UNL     1     -46.125  35.772  25.970  1.00  0.00     0.027 H 
ATOM     31  H   UNL     1     -47.288  37.076  26.117  1.00  0.00     0.027 H 
BRANCH  29  32
ATOM     32  C   UNL     1     -48.056  35.122  26.646  1.00  0.00    -0.028 C 
ATOM     33  H   UNL     1     -48.969  35.553  26.216  1.00  0.00     0.032 H 
ATOM     34  H   UNL     1     -48.300  34.896  27.691  1.00  0.00     0.032 H 
BRANCH  32  35
ATOM     35  C   UNL     1     -47.717  33.824  25.952  1.00  0.00    -0.047 A 
ATOM     36  C   UNL     1     -46.478  33.659  25.321  1.00  0.00    -0.057 A 
ATOM     37  C   UNL     1     -48.650  32.772  25.933  1.00  0.00    -0.050 A 
ATOM     38  C   UNL     1     -46.145  32.472  24.656  1.00  0.00    -0.038 A 
ATOM     39  H   UNL     1     -45.748  34.467  25.339  1.00  0.00     0.063 H 
ATOM     40  C   UNL     1     -48.338  31.570  25.267  1.00  0.00    -0.000 A 
ATOM     41  H   UNL     1     -49.614  32.874  26.423  1.00  0.00     0.063 H 
ATOM     42  C   UNL     1     -47.096  31.448  24.645  1.00  0.00     0.045 A 
ATOM     43  H   UNL     1     -45.182  32.360  24.171  1.00  0.00     0.065 H 
ATOM     44  C   UNL     1     -49.034  30.346  25.056  1.00  0.00    -0.037 A 
ATOM     45  N   UNL     1     -47.046  30.194  24.080  1.00  0.00    -0.361 N 
ATOM     46  C   UNL     1     -48.215  29.520  24.322  1.00  0.00     0.002 A 
ATOM     47  H   UNL     1     -50.027  30.101  25.406  1.00  0.00     0.065 H 
ATOM     48  H   UNL     1     -46.258  29.830  23.565  1.00  0.00     0.166 HD
ATOM     49  H   UNL     1     -48.361  28.513  23.953  1.00  0.00     0.082 H 
ENDBRANCH  32  35
ENDBRANCH  29  32
ENDBRANCH   3  29
BRANCH   4  50
ATOM     50  O   UNL     1     -48.391  37.267  29.109  1.00  0.00    -0.390 OA
ATOM     51  H   UNL     1     -48.368  37.331  30.086  1.00  0.00     0.211 HD
ENDBRANCH   4  50
TORSDOF 7
ENDMDL
MODEL 7
REMARK VINA RESULT:      -9.1      2.245      2.993
REMARK SMILES Nc1ncnc2c1ccn2[C@@H]1C[C@H](CCc2ccc3[nH]ccc3c2)[C@@H](O)[C@H]1O
REMARK SMILES IDX 11 1 12 2 13 3 25 4 27 5 10 12 2 13 3 14 7 15 4 16 6 17 8 18
REMARK SMILES IDX 5 19 9 21 1 24 28 27 14 29 15 32 16 35 17 36 24 37 18 38
REMARK SMILES IDX 23 40 19 42 22 44 20 45 21 46 26 50
REMARK H PARENT 11 6 12 7 12 8 13 9 25 10 27 11 4 20 8 22 9 23 1 25 1 26 28 28
REMARK H PARENT 14 30 14 31 15 33 15 34 17 39 24 41 18 43 22 47 20 48 21 49
REMARK H PARENT 26 51
REMARK Flexibility Score: inf
ROOT
ATOM      1  C   UNL     1     -45.531  38.378  28.164  1.00  0.00     0.064 C 
ATOM      2  C   UNL     1     -45.791  37.127  27.299  1.00  0.00    -0.024 C 
ATOM      3  C   UNL     1     -45.755  35.950  28.276  1.00  0.00    -0.010 C 
ATOM      4  C   UNL     1     -46.402  36.551  29.525  1.00  0.00     0.085 C 
ATOM      5  C   UNL     1     -45.752  37.939  29.628  1.00  0.00     0.101 C 
ATOM      6  H   UNL     1     -44.483  38.678  28.041  1.00  0.00     0.056 H 
ATOM      7  H   UNL     1     -45.028  37.028  26.519  1.00  0.00     0.029 H 
ATOM      8  H   UNL     1     -46.764  37.179  26.793  1.00  0.00     0.029 H 
ATOM      9  H   UNL     1     -44.715  35.687  28.504  1.00  0.00     0.033 H 
ATOM     10  H   UNL     1     -47.485  36.644  29.393  1.00  0.00     0.063 H 
ATOM     11  H   UNL     1     -46.372  38.624  30.213  1.00  0.00     0.065 H 
ENDROOT
BRANCH   1  12
ATOM     12  N   UNL     1     -46.353  39.507  27.756  1.00  0.00    -0.327 N 
ATOM     13  C   UNL     1     -46.722  42.556  25.995  1.00  0.00     0.136 A 
ATOM     14  N   UNL     1     -45.493  42.731  25.475  1.00  0.00    -0.219 NA
ATOM     15  C   UNL     1     -46.973  41.421  26.779  1.00  0.00     0.061 A 
ATOM     16  C   UNL     1     -44.557  41.794  25.727  1.00  0.00     0.120 A 
ATOM     17  C   UNL     1     -45.914  40.543  26.964  1.00  0.00     0.145 A 
ATOM     18  C   UNL     1     -48.087  40.878  27.477  1.00  0.00    -0.031 A 
ATOM     19  N   UNL     1     -44.675  40.674  26.458  1.00  0.00    -0.218 NA
ATOM     20  H   UNL     1     -43.582  41.970  25.282  1.00  0.00     0.106 H 
ATOM     21  C   UNL     1     -47.679  39.698  28.063  1.00  0.00     0.007 A 
ATOM     22  H   UNL     1     -49.081  41.300  27.532  1.00  0.00     0.065 H 
ATOM     23  H   UNL     1     -48.233  38.988  28.664  1.00  0.00     0.082 H 
BRANCH  13  24
ATOM     24  N   UNL     1     -47.672  43.533  25.730  1.00  0.00    -0.383 N 
ATOM     25  H   UNL     1     -48.436  43.230  25.144  1.00  0.00     0.158 HD
ATOM     26  H   UNL     1     -47.925  44.020  26.582  1.00  0.00     0.158 HD
ENDBRANCH  13  24
ENDBRANCH   1  12
BRANCH   5  27
ATOM     27  O   UNL     1     -44.507  37.819  30.343  1.00  0.00    -0.388 OA
ATOM     28  H   UNL     1     -43.888  37.283  29.813  1.00  0.00     0.211 HD
ENDBRANCH   5  27
BRANCH   3  29
ATOM     29  C   UNL     1     -46.481  34.692  27.782  1.00  0.00    -0.044 C 
ATOM     30  H   UNL     1     -47.277  34.427  28.490  1.00  0.00     0.027 H 
ATOM     31  H   UNL     1     -45.779  33.850  27.785  1.00  0.00     0.027 H 
BRANCH  29  32
ATOM     32  C   UNL     1     -47.112  34.831  26.388  1.00  0.00    -0.028 C 
ATOM     33  H   UNL     1     -46.466  35.450  25.753  1.00  0.00     0.032 H 
ATOM     34  H   UNL     1     -48.056  35.382  26.475  1.00  0.00     0.032 H 
BRANCH  32  35
ATOM     35  C   UNL     1     -47.399  33.512  25.710  1.00  0.00    -0.047 A 
ATOM     36  C   UNL     1     -48.581  32.815  25.986  1.00  0.00    -0.057 A 
ATOM     37  C   UNL     1     -46.474  32.975  24.796  1.00  0.00    -0.050 A 
ATOM     38  C   UNL     1     -48.864  31.583  25.383  1.00  0.00    -0.038 A 
ATOM     39  H   UNL     1     -49.305  33.229  26.685  1.00  0.00     0.063 H 
ATOM     40  C   UNL     1     -46.736  31.735  24.181  1.00  0.00    -0.000 A 
ATOM     41  H   UNL     1     -45.554  33.503  24.561  1.00  0.00     0.063 H 
ATOM     42  C   UNL     1     -47.921  31.069  24.488  1.00  0.00     0.045 A 
ATOM     43  H   UNL     1     -49.783  31.054  25.608  1.00  0.00     0.065 H 
ATOM     44  C   UNL     1     -46.032  30.928  23.243  1.00  0.00    -0.037 A 
ATOM     45  N   UNL     1     -47.931  29.901  23.759  1.00  0.00    -0.361 N 
ATOM     46  C   UNL     1     -46.791  29.805  23.005  1.00  0.00     0.002 A 
ATOM     47  H   UNL     1     -45.074  31.148  22.794  1.00  0.00     0.065 H 
ATOM     48  H   UNL     1     -48.675  29.219  23.782  1.00  0.00     0.166 HD
ATOM     49  H   UNL     1     -46.621  28.951  22.363  1.00  0.00     0.082 H 
ENDBRANCH  32  35
ENDBRANCH  29  32
ENDBRANCH   3  29
BRANCH   4  50
ATOM     50  O   UNL     1     -46.149  35.759  30.674  1.00  0.00    -0.390 OA
ATOM     51  H   UNL     1     -45.201  35.878  30.891  1.00  0.00     0.211 HD
ENDBRANCH   4  50
TORSDOF 7
ENDMDL
