MODEL 1
REMARK VINA RESULT:     -11.2      0.000      0.000
REMARK SMILES Cn1ccc(-c2cn(-c3cncc(COc4ccc5ccc(N6CC7(COC7)C6)nc5c4)c3)c3ncnc(N)c23)n1
REMARK SMILES IDX 9 1 10 2 11 3 12 4 13 5 33 6 8 10 6 11 7 12 40 13 34 15
REMARK SMILES IDX 38 16 35 17 37 18 36 19 5 21 2 22 3 23 41 24 4 25 1 28 39 32
REMARK SMILES IDX 14 35 15 38 16 39 17 40 32 41 18 42 31 44 19 46 30 48 20 49
REMARK SMILES IDX 22 50 21 51 23 54 24 55 29 56 25 57 26 62 28 63 27 64
REMARK H PARENT 10 7 12 8 33 9 7 14 36 20 3 26 4 27 1 29 1 30 1 31 39 33 39 34
REMARK H PARENT 14 36 14 37 17 43 32 45 18 47 20 52 21 53 24 58 24 59 29 60
REMARK H PARENT 29 61 26 65 26 66 28 67 28 68
REMARK Flexibility Score: inf
ROOT
ATOM      1  C   UNL     1     -47.913  32.463  25.459  1.00  0.00     0.066 A 
ATOM      2  C   UNL     1     -46.616  32.835  25.123  1.00  0.00     0.051 A 
ATOM      3  N   UNL     1     -46.060  34.033  25.445  1.00  0.00    -0.262 NA
ATOM      4  C   UNL     1     -46.827  34.905  26.127  1.00  0.00     0.034 A 
ATOM      5  C   UNL     1     -48.138  34.651  26.508  1.00  0.00     0.010 A 
ATOM      6  C   UNL     1     -48.674  33.399  26.175  1.00  0.00    -0.028 A 
ATOM      7  H   UNL     1     -45.943  32.207  24.552  1.00  0.00     0.086 H 
ATOM      8  H   UNL     1     -46.338  35.846  26.365  1.00  0.00     0.084 H 
ATOM      9  H   UNL     1     -49.685  33.179  26.506  1.00  0.00     0.065 H 
ENDROOT
BRANCH   1  10
ATOM     10  N   UNL     1     -48.458  31.193  25.088  1.00  0.00    -0.299 N 
ATOM     11  C   UNL     1     -48.953  28.989  25.172  1.00  0.00     0.033 A 
ATOM     12  C   UNL     1     -48.294  30.020  25.807  1.00  0.00     0.021 A 
ATOM     13  C   UNL     1     -49.573  29.530  24.011  1.00  0.00     0.071 A 
ATOM     14  H   UNL     1     -47.728  29.997  26.727  1.00  0.00     0.083 H 
ATOM     15  C   UNL     1     -49.237  30.885  23.972  1.00  0.00     0.150 A 
ATOM     16  C   UNL     1     -50.386  29.053  22.965  1.00  0.00     0.137 A 
ATOM     17  N   UNL     1     -49.597  31.742  22.995  1.00  0.00    -0.218 NA
ATOM     18  N   UNL     1     -50.746  29.891  21.975  1.00  0.00    -0.219 NA
ATOM     19  C   UNL     1     -50.342  31.167  22.043  1.00  0.00     0.120 A 
ATOM     20  H   UNL     1     -50.658  31.809  21.228  1.00  0.00     0.106 H 
BRANCH  11  21
ATOM     21  C   UNL     1     -48.990  27.591  25.615  1.00  0.00     0.095 A 
ATOM     22  N   UNL     1     -48.391  25.664  26.249  1.00  0.00    -0.275 N 
ATOM     23  C   UNL     1     -49.752  25.619  26.270  1.00  0.00     0.025 A 
ATOM     24  N   UNL     1     -47.898  26.857  25.862  1.00  0.00    -0.173 NA
ATOM     25  C   UNL     1     -50.176  26.864  25.864  1.00  0.00    -0.016 A 
ATOM     26  H   UNL     1     -50.295  24.731  26.561  1.00  0.00     0.084 H 
ATOM     27  H   UNL     1     -51.200  27.192  25.755  1.00  0.00     0.066 H 
BRANCH  22  28
ATOM     28  C   UNL     1     -47.481  24.597  26.589  1.00  0.00     0.030 C 
ATOM     29  H   UNL     1     -48.003  23.647  26.462  1.00  0.00     0.048 H 
ATOM     30  H   UNL     1     -47.167  24.730  27.627  1.00  0.00     0.048 H 
ATOM     31  H   UNL     1     -46.611  24.637  25.928  1.00  0.00     0.048 H 
ENDBRANCH  22  28
ENDBRANCH  11  21
BRANCH  16  32
ATOM     32  N   UNL     1     -50.850  27.750  22.872  1.00  0.00    -0.383 N 
ATOM     33  H   UNL     1     -50.296  27.181  22.225  1.00  0.00     0.158 HD
ATOM     34  H   UNL     1     -51.854  27.722  22.758  1.00  0.00     0.158 HD
ENDBRANCH  16  32
ENDBRANCH   1  10
BRANCH   5  35
ATOM     35  C   UNL     1     -48.899  35.682  27.300  1.00  0.00     0.115 C 
ATOM     36  H   UNL     1     -49.972  35.452  27.354  1.00  0.00     0.076 H 
ATOM     37  H   UNL     1     -48.818  36.635  26.761  1.00  0.00     0.076 H 
BRANCH  35  38
ATOM     38  O   UNL     1     -48.359  35.916  28.604  1.00  0.00    -0.489 OA
BRANCH  38  39
ATOM     39  C   UNL     1     -47.284  36.754  28.724  1.00  0.00     0.122 A 
ATOM     40  C   UNL     1     -46.391  36.407  29.737  1.00  0.00    -0.019 A 
ATOM     41  C   UNL     1     -47.041  37.896  27.960  1.00  0.00     0.007 A 
ATOM     42  C   UNL     1     -45.259  37.184  29.972  1.00  0.00    -0.049 A 
ATOM     43  H   UNL     1     -46.575  35.524  30.344  1.00  0.00     0.066 H 
ATOM     44  C   UNL     1     -45.919  38.690  28.173  1.00  0.00     0.076 A 
ATOM     45  H   UNL     1     -47.725  38.218  27.182  1.00  0.00     0.069 H 
ATOM     46  C   UNL     1     -45.019  38.325  29.191  1.00  0.00     0.001 A 
ATOM     47  H   UNL     1     -44.572  36.897  30.763  1.00  0.00     0.063 H 
ATOM     48  N   UNL     1     -45.731  39.776  27.403  1.00  0.00    -0.231 NA
ATOM     49  C   UNL     1     -43.899  39.135  29.393  1.00  0.00    -0.049 A 
ATOM     50  C   UNL     1     -44.643  40.552  27.602  1.00  0.00     0.129 A 
ATOM     51  C   UNL     1     -43.713  40.258  28.593  1.00  0.00    -0.019 A 
ATOM     52  H   UNL     1     -43.175  38.905  30.169  1.00  0.00     0.063 H 
ATOM     53  H   UNL     1     -42.854  40.900  28.756  1.00  0.00     0.066 H 
BRANCH  50  54
ATOM     54  N   UNL     1     -44.477  41.694  26.797  1.00  0.00    -0.355 N 
ATOM     55  C   UNL     1     -43.303  42.065  26.045  1.00  0.00     0.031 C 
ATOM     56  C   UNL     1     -45.386  42.102  25.751  1.00  0.00     0.031 C 
ATOM     57  C   UNL     1     -44.234  42.862  25.192  1.00  0.00     0.052 C 
ATOM     58  H   UNL     1     -42.574  42.618  26.643  1.00  0.00     0.050 H 
ATOM     59  H   UNL     1     -42.830  41.208  25.556  1.00  0.00     0.050 H 
ATOM     60  H   UNL     1     -46.232  42.679  26.132  1.00  0.00     0.050 H 
ATOM     61  H   UNL     1     -45.735  41.261  25.143  1.00  0.00     0.050 H 
ATOM     62  C   UNL     1     -44.015  42.967  23.726  1.00  0.00     0.058 C 
ATOM     63  C   UNL     1     -44.210  44.352  25.262  1.00  0.00     0.058 C 
ATOM     64  O   UNL     1     -43.868  44.414  23.842  1.00  0.00    -0.380 OA
ATOM     65  H   UNL     1     -43.105  42.506  23.334  1.00  0.00     0.057 H 
ATOM     66  H   UNL     1     -44.867  42.712  23.088  1.00  0.00     0.057 H 
ATOM     67  H   UNL     1     -43.426  44.805  25.876  1.00  0.00     0.057 H 
ATOM     68  H   UNL     1     -45.165  44.850  25.452  1.00  0.00     0.057 H 
ENDBRANCH  50  54
ENDBRANCH  38  39
ENDBRANCH  35  38
ENDBRANCH   5  35
TORSDOF 8
ENDMDL
MODEL 2
REMARK VINA RESULT:     -11.0      1.742      2.524
REMARK SMILES Cn1ccc(-c2cn(-c3cncc(COc4ccc5ccc(N6CC7(COC7)C6)nc5c4)c3)c3ncnc(N)c23)n1
REMARK SMILES IDX 9 1 10 2 11 3 12 4 13 5 33 6 8 10 6 11 7 12 40 13 34 15
REMARK SMILES IDX 38 16 35 17 37 18 36 19 5 21 2 22 3 23 41 24 4 25 1 28 39 32
REMARK SMILES IDX 14 35 15 38 16 39 17 40 32 41 18 42 31 44 19 46 30 48 20 49
REMARK SMILES IDX 22 50 21 51 23 54 24 55 29 56 25 57 26 62 28 63 27 64
REMARK H PARENT 10 7 12 8 33 9 7 14 36 20 3 26 4 27 1 29 1 30 1 31 39 33 39 34
REMARK H PARENT 14 36 14 37 17 43 32 45 18 47 20 52 21 53 24 58 24 59 29 60
REMARK H PARENT 29 61 26 65 26 66 28 67 28 68
REMARK Flexibility Score: inf
ROOT
ATOM      1  C   UNL     1     -47.995  33.303  26.254  1.00  0.00     0.066 A 
ATOM      2  C   UNL     1     -49.180  34.007  26.440  1.00  0.00     0.051 A 
ATOM      3  N   UNL     1     -49.268  35.189  27.104  1.00  0.00    -0.262 NA
ATOM      4  C   UNL     1     -48.128  35.696  27.613  1.00  0.00     0.034 A 
ATOM      5  C   UNL     1     -46.889  35.080  27.502  1.00  0.00     0.010 A 
ATOM      6  C   UNL     1     -46.832  33.870  26.796  1.00  0.00    -0.028 A 
ATOM      7  H   UNL     1     -50.144  33.657  26.089  1.00  0.00     0.086 H 
ATOM      8  H   UNL     1     -48.248  36.644  28.131  1.00  0.00     0.084 H 
ATOM      9  H   UNL     1     -45.859  33.404  26.670  1.00  0.00     0.065 H 
ENDROOT
BRANCH   1  10
ATOM     10  N   UNL     1     -47.955  32.054  25.556  1.00  0.00    -0.299 N 
ATOM     11  C   UNL     1     -48.392  29.899  25.035  1.00  0.00     0.033 A 
ATOM     12  C   UNL     1     -48.654  30.917  25.928  1.00  0.00     0.021 A 
ATOM     13  C   UNL     1     -47.504  30.413  24.050  1.00  0.00     0.071 A 
ATOM     14  H   UNL     1     -49.298  30.908  26.795  1.00  0.00     0.083 H 
ATOM     15  C   UNL     1     -47.235  31.737  24.404  1.00  0.00     0.150 A 
ATOM     16  C   UNL     1     -46.875  29.934  22.885  1.00  0.00     0.137 A 
ATOM     17  N   UNL     1     -46.396  32.558  23.742  1.00  0.00    -0.218 NA
ATOM     18  N   UNL     1     -46.025  30.735  22.217  1.00  0.00    -0.219 NA
ATOM     19  C   UNL     1     -45.837  31.982  22.671  1.00  0.00     0.120 A 
ATOM     20  H   UNL     1     -45.148  32.596  22.100  1.00  0.00     0.106 H 
BRANCH  11  21
ATOM     21  C   UNL     1     -48.928  28.535  25.107  1.00  0.00     0.095 A 
ATOM     22  N   UNL     1     -49.201  26.506  25.637  1.00  0.00    -0.275 N 
ATOM     23  C   UNL     1     -50.226  26.773  24.779  1.00  0.00     0.025 A 
ATOM     24  N   UNL     1     -48.399  27.564  25.863  1.00  0.00    -0.173 NA
ATOM     25  C   UNL     1     -50.078  28.092  24.416  1.00  0.00    -0.016 A 
ATOM     26  H   UNL     1     -50.955  26.024  24.501  1.00  0.00     0.084 H 
ATOM     27  H   UNL     1     -50.710  28.648  23.739  1.00  0.00     0.066 H 
BRANCH  22  28
ATOM     28  C   UNL     1     -48.920  25.250  26.290  1.00  0.00     0.030 C 
ATOM     29  H   UNL     1     -49.868  24.748  26.493  1.00  0.00     0.048 H 
ATOM     30  H   UNL     1     -48.387  25.458  27.221  1.00  0.00     0.048 H 
ATOM     31  H   UNL     1     -48.301  24.631  25.636  1.00  0.00     0.048 H 
ENDBRANCH  22  28
ENDBRANCH  11  21
BRANCH  16  32
ATOM     32  N   UNL     1     -47.065  28.662  22.364  1.00  0.00    -0.383 N 
ATOM     33  H   UNL     1     -46.668  27.931  22.961  1.00  0.00     0.158 HD
ATOM     34  H   UNL     1     -46.831  28.626  21.382  1.00  0.00     0.158 HD
ENDBRANCH  16  32
ENDBRANCH   1  10
BRANCH   5  35
ATOM     35  C   UNL     1     -45.668  35.749  28.079  1.00  0.00     0.115 C 
ATOM     36  H   UNL     1     -44.929  35.995  27.305  1.00  0.00     0.076 H 
ATOM     37  H   UNL     1     -45.183  35.025  28.746  1.00  0.00     0.076 H 
BRANCH  35  38
ATOM     38  O   UNL     1     -45.967  36.893  28.883  1.00  0.00    -0.489 OA
BRANCH  38  39
ATOM     39  C   UNL     1     -45.134  37.976  28.813  1.00  0.00     0.122 A 
ATOM     40  C   UNL     1     -44.376  38.198  29.961  1.00  0.00    -0.019 A 
ATOM     41  C   UNL     1     -45.014  38.854  27.734  1.00  0.00     0.007 A 
ATOM     42  C   UNL     1     -43.494  39.275  30.024  1.00  0.00    -0.049 A 
ATOM     43  H   UNL     1     -44.468  37.525  30.810  1.00  0.00     0.066 H 
ATOM     44  C   UNL     1     -44.142  39.937  27.770  1.00  0.00     0.076 A 
ATOM     45  H   UNL     1     -45.607  38.735  26.833  1.00  0.00     0.069 H 
ATOM     46  C   UNL     1     -43.373  40.145  28.930  1.00  0.00     0.001 A 
ATOM     47  H   UNL     1     -42.908  39.430  30.926  1.00  0.00     0.063 H 
ATOM     48  N   UNL     1     -44.062  40.747  26.700  1.00  0.00    -0.231 NA
ATOM     49  C   UNL     1     -42.505  41.239  28.950  1.00  0.00    -0.049 A 
ATOM     50  C   UNL     1     -43.216  41.801  26.726  1.00  0.00     0.129 A 
ATOM     51  C   UNL     1     -42.430  42.073  27.839  1.00  0.00    -0.019 A 
ATOM     52  H   UNL     1     -41.893  41.452  29.822  1.00  0.00     0.063 H 
ATOM     53  H   UNL     1     -41.769  42.934  27.855  1.00  0.00     0.066 H 
BRANCH  50  54
ATOM     54  N   UNL     1     -43.163  42.646  25.602  1.00  0.00    -0.355 N 
ATOM     55  C   UNL     1     -44.247  42.981  24.712  1.00  0.00     0.031 C 
ATOM     56  C   UNL     1     -42.632  43.989  25.607  1.00  0.00     0.031 C 
ATOM     57  C   UNL     1     -43.460  44.207  24.388  1.00  0.00     0.052 C 
ATOM     58  H   UNL     1     -44.384  42.247  23.915  1.00  0.00     0.050 H 
ATOM     59  H   UNL     1     -45.189  43.150  25.245  1.00  0.00     0.050 H 
ATOM     60  H   UNL     1     -41.546  44.012  25.488  1.00  0.00     0.050 H 
ATOM     61  H   UNL     1     -42.936  44.560  26.491  1.00  0.00     0.050 H 
ATOM     62  C   UNL     1     -44.144  45.503  24.139  1.00  0.00     0.058 C 
ATOM     63  C   UNL     1     -42.811  44.338  23.051  1.00  0.00     0.058 C 
ATOM     64  O   UNL     1     -43.597  45.542  22.786  1.00  0.00    -0.380 OA
ATOM     65  H   UNL     1     -45.236  45.483  24.125  1.00  0.00     0.057 H 
ATOM     66  H   UNL     1     -43.793  46.357  24.726  1.00  0.00     0.057 H 
ATOM     67  H   UNL     1     -43.029  43.556  22.318  1.00  0.00     0.057 H 
ATOM     68  H   UNL     1     -41.741  44.564  23.045  1.00  0.00     0.057 H 
ENDBRANCH  50  54
ENDBRANCH  38  39
ENDBRANCH  35  38
ENDBRANCH   5  35
TORSDOF 8
ENDMDL
MODEL 3
REMARK VINA RESULT:     -10.7      2.538     12.684
REMARK SMILES Cn1ccc(-c2cn(-c3cncc(COc4ccc5ccc(N6CC7(COC7)C6)nc5c4)c3)c3ncnc(N)c23)n1
REMARK SMILES IDX 9 1 10 2 11 3 12 4 13 5 33 6 8 10 6 11 7 12 40 13 34 15
REMARK SMILES IDX 38 16 35 17 37 18 36 19 5 21 2 22 3 23 41 24 4 25 1 28 39 32
REMARK SMILES IDX 14 35 15 38 16 39 17 40 32 41 18 42 31 44 19 46 30 48 20 49
REMARK SMILES IDX 22 50 21 51 23 54 24 55 29 56 25 57 26 62 28 63 27 64
REMARK H PARENT 10 7 12 8 33 9 7 14 36 20 3 26 4 27 1 29 1 30 1 31 39 33 39 34
REMARK H PARENT 14 36 14 37 17 43 32 45 18 47 20 52 21 53 24 58 24 59 29 60
REMARK H PARENT 29 61 26 65 26 66 28 67 28 68
REMARK Flexibility Score: inf
ROOT
ATOM      1  C   UNL     1     -45.554  39.015  28.206  1.00  0.00     0.066 A 
ATOM      2  C   UNL     1     -44.710  38.795  29.288  1.00  0.00     0.051 A 
ATOM      3  N   UNL     1     -44.783  37.711  30.104  1.00  0.00    -0.262 NA
ATOM      4  C   UNL     1     -45.742  36.802  29.836  1.00  0.00     0.034 A 
ATOM      5  C   UNL     1     -46.649  36.918  28.791  1.00  0.00     0.010 A 
ATOM      6  C   UNL     1     -46.533  38.040  27.959  1.00  0.00    -0.028 A 
ATOM      7  H   UNL     1     -43.933  39.488  29.590  1.00  0.00     0.086 H 
ATOM      8  H   UNL     1     -45.758  35.952  30.512  1.00  0.00     0.084 H 
ATOM      9  H   UNL     1     -47.213  38.116  27.116  1.00  0.00     0.065 H 
ENDROOT
BRANCH   1  10
ATOM     10  N   UNL     1     -45.445  40.180  27.382  1.00  0.00    -0.299 N 
ATOM     11  C   UNL     1     -44.527  41.763  26.055  1.00  0.00     0.033 A 
ATOM     12  C   UNL     1     -44.276  40.616  26.778  1.00  0.00     0.021 A 
ATOM     13  C   UNL     1     -45.911  42.060  26.192  1.00  0.00     0.071 A 
ATOM     14  H   UNL     1     -43.346  40.078  26.894  1.00  0.00     0.083 H 
ATOM     15  C   UNL     1     -46.451  41.081  27.029  1.00  0.00     0.150 A 
ATOM     16  C   UNL     1     -46.802  43.040  25.716  1.00  0.00     0.137 A 
ATOM     17  N   UNL     1     -47.734  41.037  27.440  1.00  0.00    -0.218 NA
ATOM     18  N   UNL     1     -48.085  43.020  26.124  1.00  0.00    -0.219 NA
ATOM     19  C   UNL     1     -48.475  42.036  26.946  1.00  0.00     0.120 A 
ATOM     20  H   UNL     1     -49.517  42.054  27.247  1.00  0.00     0.106 H 
BRANCH  11  21
ATOM     21  C   UNL     1     -43.535  42.534  25.297  1.00  0.00     0.095 A 
ATOM     22  N   UNL     1     -42.566  43.583  23.737  1.00  0.00    -0.275 N 
ATOM     23  C   UNL     1     -41.716  43.691  24.796  1.00  0.00     0.025 A 
ATOM     24  N   UNL     1     -43.688  42.891  24.015  1.00  0.00    -0.173 NA
ATOM     25  C   UNL     1     -42.321  43.019  25.834  1.00  0.00    -0.016 A 
ATOM     26  H   UNL     1     -40.775  44.219  24.729  1.00  0.00     0.084 H 
ATOM     27  H   UNL     1     -41.931  42.891  26.833  1.00  0.00     0.066 H 
BRANCH  22  28
ATOM     28  C   UNL     1     -42.375  44.121  22.411  1.00  0.00     0.030 C 
ATOM     29  H   UNL     1     -41.820  45.058  22.497  1.00  0.00     0.048 H 
ATOM     30  H   UNL     1     -43.357  44.293  21.965  1.00  0.00     0.048 H 
ATOM     31  H   UNL     1     -41.811  43.406  21.807  1.00  0.00     0.048 H 
ENDBRANCH  22  28
ENDBRANCH  11  21
BRANCH  16  32
ATOM     32  N   UNL     1     -46.447  44.057  24.841  1.00  0.00    -0.383 N 
ATOM     33  H   UNL     1     -45.817  44.741  25.270  1.00  0.00     0.158 HD
ATOM     34  H   UNL     1     -47.253  44.423  24.353  1.00  0.00     0.158 HD
ENDBRANCH  16  32
ENDBRANCH   1  10
BRANCH   5  35
ATOM     35  C   UNL     1     -47.661  35.827  28.557  1.00  0.00     0.115 C 
ATOM     36  H   UNL     1     -48.516  35.904  29.241  1.00  0.00     0.076 H 
ATOM     37  H   UNL     1     -47.172  34.872  28.785  1.00  0.00     0.076 H 
BRANCH  35  38
ATOM     38  O   UNL     1     -48.100  35.734  27.198  1.00  0.00    -0.489 OA
BRANCH  38  39
ATOM     39  C   UNL     1     -47.781  34.610  26.485  1.00  0.00     0.122 A 
ATOM     40  C   UNL     1     -46.746  34.781  25.568  1.00  0.00    -0.019 A 
ATOM     41  C   UNL     1     -48.409  33.367  26.584  1.00  0.00     0.007 A 
ATOM     42  C   UNL     1     -46.332  33.716  24.771  1.00  0.00    -0.049 A 
ATOM     43  H   UNL     1     -46.256  35.747  25.477  1.00  0.00     0.066 H 
ATOM     44  C   UNL     1     -48.016  32.288  25.801  1.00  0.00     0.076 A 
ATOM     45  H   UNL     1     -49.238  33.200  27.264  1.00  0.00     0.069 H 
ATOM     46  C   UNL     1     -46.962  32.469  24.885  1.00  0.00     0.001 A 
ATOM     47  H   UNL     1     -45.520  33.866  24.063  1.00  0.00     0.063 H 
ATOM     48  N   UNL     1     -48.652  31.112  25.942  1.00  0.00    -0.231 NA
ATOM     49  C   UNL     1     -46.583  31.375  24.104  1.00  0.00    -0.049 A 
ATOM     50  C   UNL     1     -48.275  30.057  25.185  1.00  0.00     0.129 A 
ATOM     51  C   UNL     1     -47.247  30.162  24.255  1.00  0.00    -0.019 A 
ATOM     52  H   UNL     1     -45.781  31.459  23.377  1.00  0.00     0.063 H 
ATOM     53  H   UNL     1     -46.967  29.313  23.640  1.00  0.00     0.066 H 
BRANCH  50  54
ATOM     54  N   UNL     1     -48.967  28.841  25.337  1.00  0.00    -0.355 N 
ATOM     55  C   UNL     1     -48.995  27.735  24.412  1.00  0.00     0.031 C 
ATOM     56  C   UNL     1     -48.882  27.987  26.498  1.00  0.00     0.031 C 
ATOM     57  C   UNL     1     -49.344  26.895  25.597  1.00  0.00     0.052 C 
ATOM     58  H   UNL     1     -49.756  27.849  23.637  1.00  0.00     0.050 H 
ATOM     59  H   UNL     1     -48.015  27.538  23.965  1.00  0.00     0.050 H 
ATOM     60  H   UNL     1     -49.559  28.298  27.299  1.00  0.00     0.050 H 
ATOM     61  H   UNL     1     -47.859  27.886  26.875  1.00  0.00     0.050 H 
ATOM     62  C   UNL     1     -48.817  25.511  25.726  1.00  0.00     0.058 C 
ATOM     63  C   UNL     1     -50.722  26.340  25.730  1.00  0.00     0.058 C 
ATOM     64  O   UNL     1     -50.178  24.983  25.725  1.00  0.00    -0.380 OA
ATOM     65  H   UNL     1     -48.242  25.127  24.879  1.00  0.00     0.057 H 
ATOM     66  H   UNL     1     -48.306  25.271  26.663  1.00  0.00     0.057 H 
ATOM     67  H   UNL     1     -51.400  26.496  24.887  1.00  0.00     0.057 H 
ATOM     68  H   UNL     1     -51.244  26.544  26.669  1.00  0.00     0.057 H 
ENDBRANCH  50  54
ENDBRANCH  38  39
ENDBRANCH  35  38
ENDBRANCH   5  35
TORSDOF 8
ENDMDL
MODEL 4
REMARK VINA RESULT:     -10.6      2.473     12.844
REMARK SMILES Cn1ccc(-c2cn(-c3cncc(COc4ccc5ccc(N6CC7(COC7)C6)nc5c4)c3)c3ncnc(N)c23)n1
REMARK SMILES IDX 9 1 10 2 11 3 12 4 13 5 33 6 8 10 6 11 7 12 40 13 34 15
REMARK SMILES IDX 38 16 35 17 37 18 36 19 5 21 2 22 3 23 41 24 4 25 1 28 39 32
REMARK SMILES IDX 14 35 15 38 16 39 17 40 32 41 18 42 31 44 19 46 30 48 20 49
REMARK SMILES IDX 22 50 21 51 23 54 24 55 29 56 25 57 26 62 28 63 27 64
REMARK H PARENT 10 7 12 8 33 9 7 14 36 20 3 26 4 27 1 29 1 30 1 31 39 33 39 34
REMARK H PARENT 14 36 14 37 17 43 32 45 18 47 20 52 21 53 24 58 24 59 29 60
REMARK H PARENT 29 61 26 65 26 66 28 67 28 68
REMARK Flexibility Score: inf
ROOT
ATOM      1  C   UNL     1     -45.362  38.533  28.878  1.00  0.00     0.066 A 
ATOM      2  C   UNL     1     -44.889  38.074  30.102  1.00  0.00     0.051 A 
ATOM      3  N   UNL     1     -45.382  36.987  30.750  1.00  0.00    -0.262 NA
ATOM      4  C   UNL     1     -46.397  36.326  30.160  1.00  0.00     0.034 A 
ATOM      5  C   UNL     1     -46.960  36.695  28.946  1.00  0.00     0.010 A 
ATOM      6  C   UNL     1     -46.415  37.811  28.296  1.00  0.00    -0.028 A 
ATOM      7  H   UNL     1     -44.097  38.563  30.658  1.00  0.00     0.086 H 
ATOM      8  H   UNL     1     -46.755  35.462  30.714  1.00  0.00     0.084 H 
ATOM      9  H   UNL     1     -46.823  38.080  27.326  1.00  0.00     0.065 H 
ENDROOT
BRANCH   1  10
ATOM     10  N   UNL     1     -44.816  39.692  28.238  1.00  0.00    -0.299 N 
ATOM     11  C   UNL     1     -44.613  41.428  26.807  1.00  0.00     0.033 A 
ATOM     12  C   UNL     1     -45.399  40.356  27.171  1.00  0.00     0.021 A 
ATOM     13  C   UNL     1     -43.494  41.456  27.684  1.00  0.00     0.071 A 
ATOM     14  H   UNL     1     -46.338  40.029  26.749  1.00  0.00     0.083 H 
ATOM     15  C   UNL     1     -43.633  40.364  28.545  1.00  0.00     0.150 A 
ATOM     16  C   UNL     1     -42.359  42.266  27.875  1.00  0.00     0.137 A 
ATOM     17  N   UNL     1     -42.747  40.017  29.500  1.00  0.00    -0.218 NA
ATOM     18  N   UNL     1     -41.458  41.929  28.816  1.00  0.00    -0.219 NA
ATOM     19  C   UNL     1     -41.697  40.844  29.565  1.00  0.00     0.120 A 
ATOM     20  H   UNL     1     -40.948  40.610  30.315  1.00  0.00     0.106 H 
BRANCH  11  21
ATOM     21  C   UNL     1     -44.886  42.357  25.704  1.00  0.00     0.095 A 
ATOM     22  N   UNL     1     -44.693  43.467  23.914  1.00  0.00    -0.275 N 
ATOM     23  C   UNL     1     -45.915  43.822  24.403  1.00  0.00     0.025 A 
ATOM     24  N   UNL     1     -44.047  42.568  24.681  1.00  0.00    -0.173 NA
ATOM     25  C   UNL     1     -46.073  43.112  25.571  1.00  0.00    -0.016 A 
ATOM     26  H   UNL     1     -46.553  44.533  23.898  1.00  0.00     0.084 H 
ATOM     27  H   UNL     1     -46.925  43.145  26.235  1.00  0.00     0.066 H 
BRANCH  22  28
ATOM     28  C   UNL     1     -44.068  43.949  22.706  1.00  0.00     0.030 C 
ATOM     29  H   UNL     1     -44.704  44.725  22.275  1.00  0.00     0.048 H 
ATOM     30  H   UNL     1     -43.961  43.109  22.015  1.00  0.00     0.048 H 
ATOM     31  H   UNL     1     -43.085  44.362  22.946  1.00  0.00     0.048 H 
ENDBRANCH  22  28
ENDBRANCH  11  21
BRANCH  16  32
ATOM     32  N   UNL     1     -42.089  43.413  27.142  1.00  0.00    -0.383 N 
ATOM     33  H   UNL     1     -41.460  43.235  26.354  1.00  0.00     0.158 HD
ATOM     34  H   UNL     1     -41.857  44.191  27.745  1.00  0.00     0.158 HD
ENDBRANCH  16  32
ENDBRANCH   1  10
BRANCH   5  35
ATOM     35  C   UNL     1     -48.071  35.865  28.354  1.00  0.00     0.115 C 
ATOM     36  H   UNL     1     -49.056  36.160  28.740  1.00  0.00     0.076 H 
ATOM     37  H   UNL     1     -47.913  34.829  28.678  1.00  0.00     0.076 H 
BRANCH  35  38
ATOM     38  O   UNL     1     -48.067  35.841  26.923  1.00  0.00    -0.489 OA
BRANCH  38  39
ATOM     39  C   UNL     1     -47.763  34.665  26.293  1.00  0.00     0.122 A 
ATOM     40  C   UNL     1     -46.695  34.747  25.401  1.00  0.00    -0.019 A 
ATOM     41  C   UNL     1     -48.433  33.450  26.447  1.00  0.00     0.007 A 
ATOM     42  C   UNL     1     -46.290  33.622  24.685  1.00  0.00    -0.049 A 
ATOM     43  H   UNL     1     -46.172  35.690  25.266  1.00  0.00     0.066 H 
ATOM     44  C   UNL     1     -48.050  32.312  25.745  1.00  0.00     0.076 A 
ATOM     45  H   UNL     1     -49.288  33.350  27.108  1.00  0.00     0.069 H 
ATOM     46  C   UNL     1     -46.964  32.404  24.856  1.00  0.00     0.001 A 
ATOM     47  H   UNL     1     -45.453  33.704  23.997  1.00  0.00     0.063 H 
ATOM     48  N   UNL     1     -48.727  31.167  25.938  1.00  0.00    -0.231 NA
ATOM     49  C   UNL     1     -46.595  31.252  24.157  1.00  0.00    -0.049 A 
ATOM     50  C   UNL     1     -48.361  30.056  25.260  1.00  0.00     0.129 A 
ATOM     51  C   UNL     1     -47.301  30.071  24.360  1.00  0.00    -0.019 A 
ATOM     52  H   UNL     1     -45.768  31.267  23.452  1.00  0.00     0.063 H 
ATOM     53  H   UNL     1     -47.029  29.178  23.808  1.00  0.00     0.066 H 
BRANCH  50  54
ATOM     54  N   UNL     1     -49.095  28.873  25.464  1.00  0.00    -0.355 N 
ATOM     55  C   UNL     1     -49.362  27.837  24.497  1.00  0.00     0.031 C 
ATOM     56  C   UNL     1     -48.863  27.937  26.539  1.00  0.00     0.031 C 
ATOM     57  C   UNL     1     -49.551  26.938  25.674  1.00  0.00     0.052 C 
ATOM     58  H   UNL     1     -50.240  28.048  23.881  1.00  0.00     0.050 H 
ATOM     59  H   UNL     1     -48.494  27.618  23.868  1.00  0.00     0.050 H 
ATOM     60  H   UNL     1     -49.364  28.228  27.466  1.00  0.00     0.050 H 
ATOM     61  H   UNL     1     -47.799  27.752  26.716  1.00  0.00     0.050 H 
ATOM     62  C   UNL     1     -49.104  25.521  25.623  1.00  0.00     0.058 C 
ATOM     63  C   UNL     1     -50.918  26.453  26.023  1.00  0.00     0.058 C 
ATOM     64  O   UNL     1     -50.476  25.071  25.839  1.00  0.00    -0.380 OA
ATOM     65  H   UNL     1     -48.717  25.165  24.666  1.00  0.00     0.057 H 
ATOM     66  H   UNL     1     -48.453  25.188  26.436  1.00  0.00     0.057 H 
ATOM     67  H   UNL     1     -51.724  26.705  25.328  1.00  0.00     0.057 H 
ATOM     68  H   UNL     1     -51.249  26.620  27.052  1.00  0.00     0.057 H 
ENDBRANCH  50  54
ENDBRANCH  38  39
ENDBRANCH  35  38
ENDBRANCH   5  35
TORSDOF 8
ENDMDL
MODEL 5
REMARK VINA RESULT:     -10.0      1.285      3.206
REMARK SMILES Cn1ccc(-c2cn(-c3cncc(COc4ccc5ccc(N6CC7(COC7)C6)nc5c4)c3)c3ncnc(N)c23)n1
REMARK SMILES IDX 9 1 10 2 11 3 12 4 13 5 33 6 8 10 6 11 7 12 40 13 34 15
REMARK SMILES IDX 38 16 35 17 37 18 36 19 5 21 2 22 3 23 41 24 4 25 1 28 39 32
REMARK SMILES IDX 14 35 15 38 16 39 17 40 32 41 18 42 31 44 19 46 30 48 20 49
REMARK SMILES IDX 22 50 21 51 23 54 24 55 29 56 25 57 26 62 28 63 27 64
REMARK H PARENT 10 7 12 8 33 9 7 14 36 20 3 26 4 27 1 29 1 30 1 31 39 33 39 34
REMARK H PARENT 14 36 14 37 17 43 32 45 18 47 20 52 21 53 24 58 24 59 29 60
REMARK H PARENT 29 61 26 65 26 66 28 67 28 68
REMARK Flexibility Score: inf
ROOT
ATOM      1  C   UNL     1     -47.724  32.360  25.346  1.00  0.00     0.066 A 
ATOM      2  C   UNL     1     -46.358  32.432  25.595  1.00  0.00     0.051 A 
ATOM      3  N   UNL     1     -45.758  33.457  26.255  1.00  0.00    -0.262 NA
ATOM      4  C   UNL     1     -46.548  34.460  26.685  1.00  0.00     0.034 A 
ATOM      5  C   UNL     1     -47.921  34.505  26.486  1.00  0.00     0.010 A 
ATOM      6  C   UNL     1     -48.510  33.423  25.816  1.00  0.00    -0.028 A 
ATOM      7  H   UNL     1     -45.649  31.685  25.259  1.00  0.00     0.086 H 
ATOM      8  H   UNL     1     -46.023  35.254  27.211  1.00  0.00     0.084 H 
ATOM      9  H   UNL     1     -49.589  33.432  25.694  1.00  0.00     0.065 H 
ENDROOT
BRANCH   1  10
ATOM     10  N   UNL     1     -48.309  31.264  24.635  1.00  0.00    -0.299 N 
ATOM     11  C   UNL     1     -49.269  30.092  22.958  1.00  0.00     0.033 A 
ATOM     12  C   UNL     1     -48.775  31.324  23.331  1.00  0.00     0.021 A 
ATOM     13  C   UNL     1     -49.098  29.211  24.061  1.00  0.00     0.071 A 
ATOM     14  H   UNL     1     -48.716  32.234  22.752  1.00  0.00     0.083 H 
ATOM     15  C   UNL     1     -48.522  29.962  25.089  1.00  0.00     0.150 A 
ATOM     16  C   UNL     1     -49.357  27.856  24.342  1.00  0.00     0.137 A 
ATOM     17  N   UNL     1     -48.242  29.496  26.322  1.00  0.00    -0.218 NA
ATOM     18  N   UNL     1     -49.094  27.375  25.571  1.00  0.00    -0.219 NA
ATOM     19  C   UNL     1     -48.559  28.205  26.478  1.00  0.00     0.120 A 
ATOM     20  H   UNL     1     -48.358  27.776  27.454  1.00  0.00     0.106 H 
BRANCH  11  21
ATOM     21  C   UNL     1     -49.871  29.766  21.661  1.00  0.00     0.095 A 
ATOM     22  N   UNL     1     -51.224  29.084  20.184  1.00  0.00    -0.275 N 
ATOM     23  C   UNL     1     -50.182  29.603  19.475  1.00  0.00     0.025 A 
ATOM     24  N   UNL     1     -51.067  29.179  21.518  1.00  0.00    -0.173 NA
ATOM     25  C   UNL     1     -49.282  30.060  20.410  1.00  0.00    -0.016 A 
ATOM     26  H   UNL     1     -50.163  29.603  18.394  1.00  0.00     0.084 H 
ATOM     27  H   UNL     1     -48.330  30.530  20.212  1.00  0.00     0.066 H 
BRANCH  22  28
ATOM     28  C   UNL     1     -52.419  28.476  19.651  1.00  0.00     0.030 C 
ATOM     29  H   UNL     1     -52.815  29.124  18.867  1.00  0.00     0.048 H 
ATOM     30  H   UNL     1     -53.141  28.367  20.464  1.00  0.00     0.048 H 
ATOM     31  H   UNL     1     -52.173  27.495  19.237  1.00  0.00     0.048 H 
ENDBRANCH  22  28
ENDBRANCH  11  21
BRANCH  16  32
ATOM     32  N   UNL     1     -49.882  26.957  23.425  1.00  0.00    -0.383 N 
ATOM     33  H   UNL     1     -49.239  26.187  23.219  1.00  0.00     0.158 HD
ATOM     34  H   UNL     1     -50.292  27.433  22.634  1.00  0.00     0.158 HD
ENDBRANCH  16  32
ENDBRANCH   1  10
BRANCH   5  35
ATOM     35  C   UNL     1     -48.719  35.658  27.038  1.00  0.00     0.115 C 
ATOM     36  H   UNL     1     -49.799  35.514  26.902  1.00  0.00     0.076 H 
ATOM     37  H   UNL     1     -48.454  36.548  26.454  1.00  0.00     0.076 H 
BRANCH  35  38
ATOM     38  O   UNL     1     -48.411  35.968  28.400  1.00  0.00    -0.489 OA
BRANCH  38  39
ATOM     39  C   UNL     1     -47.305  36.731  28.661  1.00  0.00     0.122 A 
ATOM     40  C   UNL     1     -46.532  36.282  29.730  1.00  0.00    -0.019 A 
ATOM     41  C   UNL     1     -46.927  37.891  27.983  1.00  0.00     0.007 A 
ATOM     42  C   UNL     1     -45.384  36.976  30.107  1.00  0.00    -0.049 A 
ATOM     43  H   UNL     1     -46.822  35.384  30.270  1.00  0.00     0.066 H 
ATOM     44  C   UNL     1     -45.787  38.603  28.338  1.00  0.00     0.076 A 
ATOM     45  H   UNL     1     -47.516  38.291  27.165  1.00  0.00     0.069 H 
ATOM     46  C   UNL     1     -45.007  38.135  29.412  1.00  0.00     0.001 A 
ATOM     47  H   UNL     1     -44.791  36.610  30.940  1.00  0.00     0.063 H 
ATOM     48  N   UNL     1     -45.466  39.711  27.647  1.00  0.00    -0.231 NA
ATOM     49  C   UNL     1     -43.867  38.864  29.757  1.00  0.00    -0.049 A 
ATOM     50  C   UNL     1     -44.359  40.409  27.985  1.00  0.00     0.129 A 
ATOM     51  C   UNL     1     -43.544  40.011  29.038  1.00  0.00    -0.019 A 
ATOM     52  H   UNL     1     -43.232  38.553  30.582  1.00  0.00     0.063 H 
ATOM     53  H   UNL     1     -42.668  40.590  29.311  1.00  0.00     0.066 H 
BRANCH  50  54
ATOM     54  N   UNL     1     -44.053  41.575  27.259  1.00  0.00    -0.355 N 
ATOM     55  C   UNL     1     -43.047  42.558  27.575  1.00  0.00     0.031 C 
ATOM     56  C   UNL     1     -43.774  41.611  25.842  1.00  0.00     0.031 C 
ATOM     57  C   UNL     1     -43.077  42.898  26.122  1.00  0.00     0.052 C 
ATOM     58  H   UNL     1     -43.403  43.318  28.275  1.00  0.00     0.050 H 
ATOM     59  H   UNL     1     -42.118  42.106  27.937  1.00  0.00     0.050 H 
ATOM     60  H   UNL     1     -44.682  41.653  25.235  1.00  0.00     0.050 H 
ATOM     61  H   UNL     1     -43.130  40.788  25.517  1.00  0.00     0.050 H 
ATOM     62  C   UNL     1     -41.829  43.273  25.406  1.00  0.00     0.058 C 
ATOM     63  C   UNL     1     -43.673  44.190  25.676  1.00  0.00     0.058 C 
ATOM     64  O   UNL     1     -42.391  44.583  25.093  1.00  0.00    -0.380 OA
ATOM     65  H   UNL     1     -40.926  43.365  26.015  1.00  0.00     0.057 H 
ATOM     66  H   UNL     1     -41.608  42.715  24.491  1.00  0.00     0.057 H 
ATOM     67  H   UNL     1     -43.980  44.889  26.459  1.00  0.00     0.057 H 
ATOM     68  H   UNL     1     -44.448  44.133  24.906  1.00  0.00     0.057 H 
ENDBRANCH  50  54
ENDBRANCH  38  39
ENDBRANCH  35  38
ENDBRANCH   5  35
TORSDOF 8
ENDMDL
MODEL 6
REMARK VINA RESULT:      -9.9      2.851     12.893
REMARK SMILES Cn1ccc(-c2cn(-c3cncc(COc4ccc5ccc(N6CC7(COC7)C6)nc5c4)c3)c3ncnc(N)c23)n1
REMARK SMILES IDX 9 1 10 2 11 3 12 4 13 5 33 6 8 10 6 11 7 12 40 13 34 15
REMARK SMILES IDX 38 16 35 17 37 18 36 19 5 21 2 22 3 23 41 24 4 25 1 28 39 32
REMARK SMILES IDX 14 35 15 38 16 39 17 40 32 41 18 42 31 44 19 46 30 48 20 49
REMARK SMILES IDX 22 50 21 51 23 54 24 55 29 56 25 57 26 62 28 63 27 64
REMARK H PARENT 10 7 12 8 33 9 7 14 36 20 3 26 4 27 1 29 1 30 1 31 39 33 39 34
REMARK H PARENT 14 36 14 37 17 43 32 45 18 47 20 52 21 53 24 58 24 59 29 60
REMARK H PARENT 29 61 26 65 26 66 28 67 28 68
REMARK Flexibility Score: inf
ROOT
ATOM      1  C   UNL     1     -43.951  41.388  27.414  1.00  0.00     0.066 A 
ATOM      2  C   UNL     1     -42.915  41.631  28.308  1.00  0.00     0.051 A 
ATOM      3  N   UNL     1     -42.594  40.810  29.343  1.00  0.00    -0.262 NA
ATOM      4  C   UNL     1     -43.338  39.699  29.502  1.00  0.00     0.034 A 
ATOM      5  C   UNL     1     -44.404  39.356  28.680  1.00  0.00     0.010 A 
ATOM      6  C   UNL     1     -44.696  40.215  27.612  1.00  0.00    -0.028 A 
ATOM      7  H   UNL     1     -42.287  42.514  28.270  1.00  0.00     0.086 H 
ATOM      8  H   UNL     1     -43.040  39.073  30.339  1.00  0.00     0.084 H 
ATOM      9  H   UNL     1     -45.502  39.932  26.942  1.00  0.00     0.065 H 
ENDROOT
BRANCH   1  10
ATOM     10  N   UNL     1     -44.258  42.289  26.345  1.00  0.00    -0.299 N 
ATOM     11  C   UNL     1     -43.986  43.561  24.496  1.00  0.00     0.033 A 
ATOM     12  C   UNL     1     -43.360  42.699  25.372  1.00  0.00     0.021 A 
ATOM     13  C   UNL     1     -45.337  43.693  24.920  1.00  0.00     0.071 A 
ATOM     14  H   UNL     1     -42.340  42.344  25.361  1.00  0.00     0.083 H 
ATOM     15  C   UNL     1     -45.475  42.915  26.072  1.00  0.00     0.150 A 
ATOM     16  C   UNL     1     -46.487  44.378  24.483  1.00  0.00     0.137 A 
ATOM     17  N   UNL     1     -46.602  42.811  26.803  1.00  0.00    -0.218 NA
ATOM     18  N   UNL     1     -47.619  44.295  25.206  1.00  0.00    -0.219 NA
ATOM     19  C   UNL     1     -47.617  43.529  26.306  1.00  0.00     0.120 A 
ATOM     20  H   UNL     1     -48.550  43.486  26.857  1.00  0.00     0.106 H 
BRANCH  11  21
ATOM     21  C   UNL     1     -43.358  44.224  23.349  1.00  0.00     0.095 A 
ATOM     22  N   UNL     1     -42.855  45.666  21.885  1.00  0.00    -0.275 N 
ATOM     23  C   UNL     1     -42.031  44.613  21.620  1.00  0.00     0.025 A 
ATOM     24  N   UNL     1     -43.668  45.461  22.939  1.00  0.00    -0.173 NA
ATOM     25  C   UNL     1     -42.331  43.655  22.561  1.00  0.00    -0.016 A 
ATOM     26  H   UNL     1     -41.320  44.628  20.806  1.00  0.00     0.084 H 
ATOM     27  H   UNL     1     -41.877  42.679  22.654  1.00  0.00     0.066 H 
BRANCH  22  28
ATOM     28  C   UNL     1     -42.925  46.916  21.167  1.00  0.00     0.030 C 
ATOM     29  H   UNL     1     -42.121  47.563  21.525  1.00  0.00     0.048 H 
ATOM     30  H   UNL     1     -43.900  47.370  21.360  1.00  0.00     0.048 H 
ATOM     31  H   UNL     1     -42.806  46.728  20.098  1.00  0.00     0.048 H 
ENDBRANCH  22  28
ENDBRANCH  11  21
BRANCH  16  32
ATOM     32  N   UNL     1     -46.541  45.156  23.336  1.00  0.00    -0.383 N 
ATOM     33  H   UNL     1     -45.612  45.378  22.968  1.00  0.00     0.158 HD
ATOM     34  H   UNL     1     -47.185  45.928  23.443  1.00  0.00     0.158 HD
ENDBRANCH  16  32
ENDBRANCH   1  10
BRANCH   5  35
ATOM     35  C   UNL     1     -45.151  38.070  28.923  1.00  0.00     0.115 C 
ATOM     36  H   UNL     1     -46.219  38.243  29.109  1.00  0.00     0.076 H 
ATOM     37  H   UNL     1     -44.748  37.626  29.842  1.00  0.00     0.076 H 
BRANCH  35  38
ATOM     38  O   UNL     1     -44.961  37.094  27.894  1.00  0.00    -0.489 OA
BRANCH  38  39
ATOM     39  C   UNL     1     -46.029  36.323  27.522  1.00  0.00     0.122 A 
ATOM     40  C   UNL     1     -47.273  36.867  27.838  1.00  0.00    -0.019 A 
ATOM     41  C   UNL     1     -45.967  35.073  26.904  1.00  0.00     0.007 A 
ATOM     42  C   UNL     1     -48.441  36.177  27.523  1.00  0.00    -0.049 A 
ATOM     43  H   UNL     1     -47.333  37.836  28.327  1.00  0.00     0.066 H 
ATOM     44  C   UNL     1     -47.117  34.362  26.579  1.00  0.00     0.076 A 
ATOM     45  H   UNL     1     -45.019  34.600  26.668  1.00  0.00     0.069 H 
ATOM     46  C   UNL     1     -48.368  34.927  26.892  1.00  0.00     0.001 A 
ATOM     47  H   UNL     1     -49.403  36.619  27.773  1.00  0.00     0.063 H 
ATOM     48  N   UNL     1     -46.998  33.166  25.979  1.00  0.00    -0.231 NA
ATOM     49  C   UNL     1     -49.513  34.198  26.561  1.00  0.00    -0.049 A 
ATOM     50  C   UNL     1     -48.112  32.469  25.658  1.00  0.00     0.129 A 
ATOM     51  C   UNL     1     -49.382  32.960  25.942  1.00  0.00    -0.019 A 
ATOM     52  H   UNL     1     -50.504  34.582  26.786  1.00  0.00     0.063 H 
ATOM     53  H   UNL     1     -50.267  32.382  25.697  1.00  0.00     0.066 H 
BRANCH  50  54
ATOM     54  N   UNL     1     -47.963  31.211  25.047  1.00  0.00    -0.355 N 
ATOM     55  C   UNL     1     -48.609  29.978  25.425  1.00  0.00     0.031 C 
ATOM     56  C   UNL     1     -48.113  30.961  23.632  1.00  0.00     0.031 C 
ATOM     57  C   UNL     1     -48.365  29.545  24.017  1.00  0.00     0.052 C 
ATOM     58  H   UNL     1     -48.074  29.444  26.214  1.00  0.00     0.050 H 
ATOM     59  H   UNL     1     -49.659  30.122  25.701  1.00  0.00     0.050 H 
ATOM     60  H   UNL     1     -47.200  31.174  23.069  1.00  0.00     0.050 H 
ATOM     61  H   UNL     1     -48.967  31.490  23.197  1.00  0.00     0.050 H 
ATOM     62  C   UNL     1     -49.365  28.714  23.296  1.00  0.00     0.058 C 
ATOM     63  C   UNL     1     -47.345  28.494  23.732  1.00  0.00     0.058 C 
ATOM     64  O   UNL     1     -48.381  27.646  23.144  1.00  0.00    -0.380 OA
ATOM     65  H   UNL     1     -50.228  28.377  23.875  1.00  0.00     0.057 H 
ATOM     66  H   UNL     1     -49.691  29.085  22.320  1.00  0.00     0.057 H 
ATOM     67  H   UNL     1     -46.882  28.008  24.596  1.00  0.00     0.057 H 
ATOM     68  H   UNL     1     -46.580  28.741  22.991  1.00  0.00     0.057 H 
ENDBRANCH  50  54
ENDBRANCH  38  39
ENDBRANCH  35  38
ENDBRANCH   5  35
TORSDOF 8
ENDMDL
MODEL 7
REMARK VINA RESULT:      -9.6      2.428      3.389
REMARK SMILES Cn1ccc(-c2cn(-c3cncc(COc4ccc5ccc(N6CC7(COC7)C6)nc5c4)c3)c3ncnc(N)c23)n1
REMARK SMILES IDX 9 1 10 2 11 3 12 4 13 5 33 6 8 10 6 11 7 12 40 13 34 15
REMARK SMILES IDX 38 16 35 17 37 18 36 19 5 21 2 22 3 23 41 24 4 25 1 28 39 32
REMARK SMILES IDX 14 35 15 38 16 39 17 40 32 41 18 42 31 44 19 46 30 48 20 49
REMARK SMILES IDX 22 50 21 51 23 54 24 55 29 56 25 57 26 62 28 63 27 64
REMARK H PARENT 10 7 12 8 33 9 7 14 36 20 3 26 4 27 1 29 1 30 1 31 39 33 39 34
REMARK H PARENT 14 36 14 37 17 43 32 45 18 47 20 52 21 53 24 58 24 59 29 60
REMARK H PARENT 29 61 26 65 26 66 28 67 28 68
REMARK Flexibility Score: inf
ROOT
ATOM      1  C   UNL     1     -47.531  32.987  26.059  1.00  0.00     0.066 A 
ATOM      2  C   UNL     1     -46.534  32.664  26.971  1.00  0.00     0.051 A 
ATOM      3  N   UNL     1     -46.097  33.498  27.951  1.00  0.00    -0.262 NA
ATOM      4  C   UNL     1     -46.673  34.714  28.026  1.00  0.00     0.034 A 
ATOM      5  C   UNL     1     -47.670  35.154  27.165  1.00  0.00     0.010 A 
ATOM      6  C   UNL     1     -48.109  34.261  26.178  1.00  0.00    -0.028 A 
ATOM      7  H   UNL     1     -45.999  31.721  26.963  1.00  0.00     0.086 H 
ATOM      8  H   UNL     1     -46.294  35.344  28.827  1.00  0.00     0.084 H 
ATOM      9  H   UNL     1     -48.916  34.583  25.528  1.00  0.00     0.065 H 
ENDROOT
BRANCH   1  10
ATOM     10  N   UNL     1     -47.950  32.076  25.037  1.00  0.00    -0.299 N 
ATOM     11  C   UNL     1     -49.235  30.603  23.903  1.00  0.00     0.033 A 
ATOM     12  C   UNL     1     -49.152  31.387  25.034  1.00  0.00     0.021 A 
ATOM     13  C   UNL     1     -48.047  30.812  23.151  1.00  0.00     0.071 A 
ATOM     14  H   UNL     1     -49.873  31.507  25.830  1.00  0.00     0.083 H 
ATOM     15  C   UNL     1     -47.262  31.709  23.879  1.00  0.00     0.150 A 
ATOM     16  C   UNL     1     -47.511  30.358  21.930  1.00  0.00     0.137 A 
ATOM     17  N   UNL     1     -46.032  32.128  23.521  1.00  0.00    -0.218 NA
ATOM     18  N   UNL     1     -46.280  30.756  21.561  1.00  0.00    -0.219 NA
ATOM     19  C   UNL     1     -45.620  31.605  22.360  1.00  0.00     0.120 A 
ATOM     20  H   UNL     1     -44.633  31.905  22.022  1.00  0.00     0.106 H 
BRANCH  11  21
ATOM     21  C   UNL     1     -50.347  29.711  23.557  1.00  0.00     0.095 A 
ATOM     22  N   UNL     1     -51.447  28.023  22.912  1.00  0.00    -0.275 N 
ATOM     23  C   UNL     1     -52.398  28.920  23.297  1.00  0.00     0.025 A 
ATOM     24  N   UNL     1     -50.187  28.474  23.067  1.00  0.00    -0.173 NA
ATOM     25  C   UNL     1     -51.713  30.033  23.728  1.00  0.00    -0.016 A 
ATOM     26  H   UNL     1     -53.455  28.702  23.234  1.00  0.00     0.084 H 
ATOM     27  H   UNL     1     -52.143  30.950  24.102  1.00  0.00     0.066 H 
BRANCH  22  28
ATOM     28  C   UNL     1     -51.666  26.700  22.379  1.00  0.00     0.030 C 
ATOM     29  H   UNL     1     -50.707  26.179  22.348  1.00  0.00     0.048 H 
ATOM     30  H   UNL     1     -52.084  26.799  21.374  1.00  0.00     0.048 H 
ATOM     31  H   UNL     1     -52.365  26.161  23.022  1.00  0.00     0.048 H 
ENDBRANCH  22  28
ENDBRANCH  11  21
BRANCH  16  32
ATOM     32  N   UNL     1     -48.172  29.503  21.060  1.00  0.00    -0.383 N 
ATOM     33  H   UNL     1     -47.736  29.472  20.134  1.00  0.00     0.158 HD
ATOM     34  H   UNL     1     -49.172  29.646  21.089  1.00  0.00     0.158 HD
ENDBRANCH  16  32
ENDBRANCH   1  10
BRANCH   5  35
ATOM     35  C   UNL     1     -48.274  36.521  27.357  1.00  0.00     0.115 C 
ATOM     36  H   UNL     1     -49.350  36.471  27.569  1.00  0.00     0.076 H 
ATOM     37  H   UNL     1     -48.175  37.059  26.406  1.00  0.00     0.076 H 
BRANCH  35  38
ATOM     38  O   UNL     1     -47.596  37.314  28.336  1.00  0.00    -0.489 OA
BRANCH  38  39
ATOM     39  C   UNL     1     -46.852  38.381  27.909  1.00  0.00     0.122 A 
ATOM     40  C   UNL     1     -45.475  38.223  28.059  1.00  0.00    -0.019 A 
ATOM     41  C   UNL     1     -47.350  39.576  27.386  1.00  0.00     0.007 A 
ATOM     42  C   UNL     1     -44.606  39.241  27.672  1.00  0.00    -0.049 A 
ATOM     43  H   UNL     1     -45.077  37.301  28.473  1.00  0.00     0.066 H 
ATOM     44  C   UNL     1     -46.505  40.608  26.992  1.00  0.00     0.076 A 
ATOM     45  H   UNL     1     -48.416  39.751  27.280  1.00  0.00     0.069 H 
ATOM     46  C   UNL     1     -45.116  40.433  27.138  1.00  0.00     0.001 A 
ATOM     47  H   UNL     1     -43.535  39.099  27.793  1.00  0.00     0.063 H 
ATOM     48  N   UNL     1     -47.039  41.734  26.489  1.00  0.00    -0.231 NA
ATOM     49  C   UNL     1     -44.283  41.480  26.741  1.00  0.00    -0.049 A 
ATOM     50  C   UNL     1     -46.225  42.741  26.103  1.00  0.00     0.129 A 
ATOM     51  C   UNL     1     -44.843  42.643  26.222  1.00  0.00    -0.019 A 
ATOM     52  H   UNL     1     -43.203  41.403  26.837  1.00  0.00     0.063 H 
ATOM     53  H   UNL     1     -44.201  43.467  25.927  1.00  0.00     0.066 H 
BRANCH  50  54
ATOM     54  N   UNL     1     -46.807  43.918  25.596  1.00  0.00    -0.355 N 
ATOM     55  C   UNL     1     -46.410  44.647  24.417  1.00  0.00     0.031 C 
ATOM     56  C   UNL     1     -48.218  44.092  25.340  1.00  0.00     0.031 C 
ATOM     57  C   UNL     1     -47.805  45.178  24.407  1.00  0.00     0.052 C 
ATOM     58  H   UNL     1     -45.604  45.358  24.610  1.00  0.00     0.050 H 
ATOM     59  H   UNL     1     -46.149  43.986  23.583  1.00  0.00     0.050 H 
ATOM     60  H   UNL     1     -48.775  44.382  26.234  1.00  0.00     0.050 H 
ATOM     61  H   UNL     1     -48.673  43.215  24.869  1.00  0.00     0.050 H 
ATOM     62  C   UNL     1     -48.519  45.408  23.124  1.00  0.00     0.058 C 
ATOM     63  C   UNL     1     -48.055  46.606  24.756  1.00  0.00     0.058 C 
ATOM     64  O   UNL     1     -48.637  46.830  23.434  1.00  0.00    -0.380 OA
ATOM     65  H   UNL     1     -47.943  45.249  22.210  1.00  0.00     0.057 H 
ATOM     66  H   UNL     1     -49.506  44.947  23.028  1.00  0.00     0.057 H 
ATOM     67  H   UNL     1     -47.176  47.238  24.912  1.00  0.00     0.057 H 
ATOM     68  H   UNL     1     -48.793  46.797  25.541  1.00  0.00     0.057 H 
ENDBRANCH  50  54
ENDBRANCH  38  39
ENDBRANCH  35  38
ENDBRANCH   5  35
TORSDOF 8
ENDMDL
