MODEL 1
REMARK VINA RESULT:      -8.5      0.000      0.000
REMARK SMILES Nc1ncnc2c1ncn2[C@@H]1O[C@H](C(=O)NCCCCN2CCCC2)[C@@H](O)[C@H]1O
REMARK SMILES IDX 17 1 16 4 14 5 15 6 13 8 11 9 12 10 28 11 26 13 10 17 2 18
REMARK SMILES IDX 3 19 7 20 4 21 6 22 8 23 5 24 9 26 1 28 29 31 27 33 18 35
REMARK SMILES IDX 19 38 20 41 21 44 22 45 25 46 23 47 24 50
REMARK H PARENT 17 2 17 3 16 7 11 12 28 14 13 15 26 16 4 25 9 27 1 29 1 30
REMARK H PARENT 29 32 27 34 18 36 18 37 19 39 19 40 20 42 20 43 22 48 22 49
REMARK H PARENT 25 51 25 52 23 53 23 54 24 55 24 56
REMARK Flexibility Score: inf
ROOT
ATOM      1  C   UNL     1     -46.308  33.912  25.587  1.00  0.00     0.017 C 
ATOM      2  H   UNL     1     -45.478  34.625  25.632  1.00  0.00     0.049 H 
ATOM      3  H   UNL     1     -47.120  34.376  25.017  1.00  0.00     0.049 H 
ENDROOT
BRANCH   1   4
ATOM      4  N   UNL     1     -45.915  32.725  24.852  1.00  0.00    -0.354 N 
ATOM      5  C   UNL     1     -46.832  31.933  24.192  1.00  0.00     0.252 C 
ATOM      6  O   UNL     1     -48.042  32.139  24.206  1.00  0.00    -0.272 OA
ATOM      7  H   UNL     1     -44.932  32.481  24.833  1.00  0.00     0.163 HD
BRANCH   5   8
ATOM      8  C   UNL     1     -46.209  30.803  23.365  1.00  0.00     0.167 C 
ATOM      9  C   UNL     1     -47.597  28.981  22.917  1.00  0.00     0.166 C 
ATOM     10  O   UNL     1     -46.623  29.510  23.839  1.00  0.00    -0.339 OA
ATOM     11  C   UNL     1     -47.972  30.107  21.947  1.00  0.00     0.128 C 
ATOM     12  H   UNL     1     -47.140  28.130  22.396  1.00  0.00     0.088 H 
ATOM     13  C   UNL     1     -46.696  30.929  21.928  1.00  0.00     0.120 C 
ATOM     14  H   UNL     1     -48.807  30.708  22.328  1.00  0.00     0.068 H 
ATOM     15  H   UNL     1     -45.118  30.852  23.447  1.00  0.00     0.074 H 
ATOM     16  H   UNL     1     -46.867  31.956  21.589  1.00  0.00     0.066 H 
BRANCH   9  17
ATOM     17  N   UNL     1     -48.739  28.456  23.641  1.00  0.00    -0.285 N 
ATOM     18  C   UNL     1     -50.182  26.315  26.007  1.00  0.00     0.155 A 
ATOM     19  N   UNL     1     -49.133  25.555  26.395  1.00  0.00    -0.217 NA
ATOM     20  C   UNL     1     -49.968  27.303  25.033  1.00  0.00     0.150 A 
ATOM     21  C   UNL     1     -47.923  25.798  25.844  1.00  0.00     0.120 A 
ATOM     22  C   UNL     1     -48.674  27.437  24.556  1.00  0.00     0.167 A 
ATOM     23  N   UNL     1     -50.813  28.198  24.410  1.00  0.00    -0.231 NA
ATOM     24  N   UNL     1     -47.594  26.716  24.908  1.00  0.00    -0.216 NA
ATOM     25  H   UNL     1     -47.112  25.168  26.200  1.00  0.00     0.106 H 
ATOM     26  C   UNL     1     -50.042  28.868  23.575  1.00  0.00     0.099 A 
ATOM     27  H   UNL     1     -50.375  29.653  22.907  1.00  0.00     0.104 H 
BRANCH  18  28
ATOM     28  N   UNL     1     -51.423  26.065  26.577  1.00  0.00    -0.382 N 
ATOM     29  H   UNL     1     -51.374  25.467  27.394  1.00  0.00     0.158 HD
ATOM     30  H   UNL     1     -51.992  26.899  26.636  1.00  0.00     0.158 HD
ENDBRANCH  18  28
ENDBRANCH   9  17
BRANCH  11  31
ATOM     31  O   UNL     1     -48.286  29.666  20.625  1.00  0.00    -0.386 OA
ATOM     32  H   UNL     1     -49.034  30.227  20.319  1.00  0.00     0.211 HD
ENDBRANCH  11  31
BRANCH  13  33
ATOM     33  O   UNL     1     -45.749  30.343  21.025  1.00  0.00    -0.387 OA
ATOM     34  H   UNL     1     -46.159  29.497  20.738  1.00  0.00     0.211 HD
ENDBRANCH  13  33
ENDBRANCH   5   8
ENDBRANCH   1   4
BRANCH   1  35
ATOM     35  C   UNL     1     -46.803  33.572  26.993  1.00  0.00    -0.034 C 
ATOM     36  H   UNL     1     -47.848  33.898  27.083  1.00  0.00     0.029 H 
ATOM     37  H   UNL     1     -46.792  32.484  27.134  1.00  0.00     0.029 H 
BRANCH  35  38
ATOM     38  C   UNL     1     -45.973  34.238  28.096  1.00  0.00    -0.039 C 
ATOM     39  H   UNL     1     -45.046  33.672  28.247  1.00  0.00     0.028 H 
ATOM     40  H   UNL     1     -46.529  34.203  29.038  1.00  0.00     0.028 H 
BRANCH  38  41
ATOM     41  C   UNL     1     -45.638  35.692  27.736  1.00  0.00    -0.002 C 
ATOM     42  H   UNL     1     -44.591  35.863  28.017  1.00  0.00     0.043 H 
ATOM     43  H   UNL     1     -45.704  35.838  26.651  1.00  0.00     0.043 H 
BRANCH  41  44
ATOM     44  N   UNL     1     -46.492  36.640  28.470  1.00  0.00    -0.303 NA
ATOM     45  C   UNL     1     -46.150  36.672  29.902  1.00  0.00    -0.002 C 
ATOM     46  C   UNL     1     -46.305  38.034  28.039  1.00  0.00    -0.002 C 
ATOM     47  C   UNL     1     -44.987  37.642  30.029  1.00  0.00    -0.039 C 
ATOM     48  H   UNL     1     -45.923  35.687  30.324  1.00  0.00     0.043 H 
ATOM     49  H   UNL     1     -47.014  37.060  30.456  1.00  0.00     0.043 H 
ATOM     50  C   UNL     1     -45.116  38.568  28.827  1.00  0.00    -0.039 C 
ATOM     51  H   UNL     1     -46.175  38.164  26.961  1.00  0.00     0.043 H 
ATOM     52  H   UNL     1     -47.204  38.602  28.313  1.00  0.00     0.043 H 
ATOM     53  H   UNL     1     -45.024  38.195  30.973  1.00  0.00     0.028 H 
ATOM     54  H   UNL     1     -44.030  37.111  29.988  1.00  0.00     0.028 H 
ATOM     55  H   UNL     1     -45.276  39.607  29.133  1.00  0.00     0.028 H 
ATOM     56  H   UNL     1     -44.199  38.530  28.227  1.00  0.00     0.028 H 
ENDBRANCH  41  44
ENDBRANCH  38  41
ENDBRANCH  35  38
ENDBRANCH   1  35
TORSDOF 10
ENDMDL
MODEL 2
REMARK VINA RESULT:      -8.2      4.260     11.602
REMARK SMILES Nc1ncnc2c1ncn2[C@@H]1O[C@H](C(=O)NCCCCN2CCCC2)[C@@H](O)[C@H]1O
REMARK SMILES IDX 17 1 16 4 14 5 15 6 13 8 11 9 12 10 28 11 26 13 10 17 2 18
REMARK SMILES IDX 3 19 7 20 4 21 6 22 8 23 5 24 9 26 1 28 29 31 27 33 18 35
REMARK SMILES IDX 19 38 20 41 21 44 22 45 25 46 23 47 24 50
REMARK H PARENT 17 2 17 3 16 7 11 12 28 14 13 15 26 16 4 25 9 27 1 29 1 30
REMARK H PARENT 29 32 27 34 18 36 18 37 19 39 19 40 20 42 20 43 22 48 22 49
REMARK H PARENT 25 51 25 52 23 53 23 54 24 55 24 56
REMARK Flexibility Score: inf
ROOT
ATOM      1  C   UNL     1     -46.380  33.991  25.579  1.00  0.00     0.017 C 
ATOM      2  H   UNL     1     -46.382  34.702  24.746  1.00  0.00     0.049 H 
ATOM      3  H   UNL     1     -45.666  33.195  25.341  1.00  0.00     0.049 H 
ENDROOT
BRANCH   1   4
ATOM      4  N   UNL     1     -45.897  34.630  26.788  1.00  0.00    -0.354 N 
ATOM      5  C   UNL     1     -46.134  35.962  27.060  1.00  0.00     0.252 C 
ATOM      6  O   UNL     1     -46.728  36.716  26.294  1.00  0.00    -0.272 OA
ATOM      7  H   UNL     1     -45.368  34.069  27.444  1.00  0.00     0.163 HD
BRANCH   5   8
ATOM      8  C   UNL     1     -45.659  36.418  28.444  1.00  0.00     0.167 C 
ATOM      9  C   UNL     1     -45.186  38.692  28.663  1.00  0.00     0.166 C 
ATOM     10  O   UNL     1     -44.618  37.406  28.347  1.00  0.00    -0.339 OA
ATOM     11  C   UNL     1     -46.707  38.519  28.734  1.00  0.00     0.128 C 
ATOM     12  H   UNL     1     -44.769  39.018  29.624  1.00  0.00     0.088 H 
ATOM     13  C   UNL     1     -46.830  37.070  29.167  1.00  0.00     0.120 C 
ATOM     14  H   UNL     1     -47.178  38.665  27.753  1.00  0.00     0.068 H 
ATOM     15  H   UNL     1     -45.251  35.559  28.988  1.00  0.00     0.074 H 
ATOM     16  H   UNL     1     -47.810  36.645  28.931  1.00  0.00     0.066 H 
BRANCH   9  17
ATOM     17  N   UNL     1     -44.774  39.677  27.681  1.00  0.00    -0.285 N 
ATOM     18  C   UNL     1     -42.655  42.229  26.561  1.00  0.00     0.155 A 
ATOM     19  N   UNL     1     -41.844  42.427  27.626  1.00  0.00    -0.217 NA
ATOM     20  C   UNL     1     -43.662  41.256  26.659  1.00  0.00     0.150 A 
ATOM     21  C   UNL     1     -42.028  41.663  28.724  1.00  0.00     0.120 A 
ATOM     22  C   UNL     1     -43.732  40.550  27.849  1.00  0.00     0.167 A 
ATOM     23  N   UNL     1     -44.651  40.846  25.789  1.00  0.00    -0.231 NA
ATOM     24  N   UNL     1     -42.953  40.699  28.936  1.00  0.00    -0.216 NA
ATOM     25  H   UNL     1     -41.342  41.853  29.546  1.00  0.00     0.106 H 
ATOM     26  C   UNL     1     -45.304  39.903  26.439  1.00  0.00     0.099 A 
ATOM     27  H   UNL     1     -46.161  39.357  26.060  1.00  0.00     0.104 H 
BRANCH  18  28
ATOM     28  N   UNL     1     -42.463  43.014  25.432  1.00  0.00    -0.382 N 
ATOM     29  H   UNL     1     -43.312  43.162  24.899  1.00  0.00     0.158 HD
ATOM     30  H   UNL     1     -41.878  43.817  25.619  1.00  0.00     0.158 HD
ENDBRANCH  18  28
ENDBRANCH   9  17
BRANCH  11  31
ATOM     31  O   UNL     1     -47.354  39.368  29.685  1.00  0.00    -0.386 OA
ATOM     32  H   UNL     1     -48.206  38.930  29.909  1.00  0.00     0.211 HD
ENDBRANCH  11  31
BRANCH  13  33
ATOM     33  O   UNL     1     -46.660  36.968  30.587  1.00  0.00    -0.387 OA
ATOM     34  H   UNL     1     -46.047  36.212  30.718  1.00  0.00     0.211 HD
ENDBRANCH  13  33
ENDBRANCH   5   8
ENDBRANCH   1   4
BRANCH   1  35
ATOM     35  C   UNL     1     -47.770  33.385  25.773  1.00  0.00    -0.034 C 
ATOM     36  H   UNL     1     -48.135  33.662  26.770  1.00  0.00     0.029 H 
ATOM     37  H   UNL     1     -48.465  33.820  25.043  1.00  0.00     0.029 H 
BRANCH  35  38
ATOM     38  C   UNL     1     -47.780  31.858  25.640  1.00  0.00    -0.039 C 
ATOM     39  H   UNL     1     -48.192  31.415  26.555  1.00  0.00     0.028 H 
ATOM     40  H   UNL     1     -46.752  31.497  25.541  1.00  0.00     0.028 H 
BRANCH  38  41
ATOM     41  C   UNL     1     -48.613  31.413  24.430  1.00  0.00    -0.002 C 
ATOM     42  H   UNL     1     -48.982  30.403  24.643  1.00  0.00     0.043 H 
ATOM     43  H   UNL     1     -49.495  32.057  24.319  1.00  0.00     0.043 H 
BRANCH  41  44
ATOM     44  N   UNL     1     -47.803  31.378  23.201  1.00  0.00    -0.303 NA
ATOM     45  C   UNL     1     -46.516  30.699  23.427  1.00  0.00    -0.002 C 
ATOM     46  C   UNL     1     -48.424  30.591  22.125  1.00  0.00    -0.002 C 
ATOM     47  C   UNL     1     -46.797  29.214  23.268  1.00  0.00    -0.039 C 
ATOM     48  H   UNL     1     -46.054  30.939  24.391  1.00  0.00     0.043 H 
ATOM     49  H   UNL     1     -45.811  31.025  22.652  1.00  0.00     0.043 H 
ATOM     50  C   UNL     1     -48.027  29.142  22.373  1.00  0.00    -0.039 C 
ATOM     51  H   UNL     1     -49.508  30.711  22.040  1.00  0.00     0.043 H 
ATOM     52  H   UNL     1     -48.001  30.923  21.168  1.00  0.00     0.043 H 
ATOM     53  H   UNL     1     -45.944  28.686  22.830  1.00  0.00     0.028 H 
ATOM     54  H   UNL     1     -47.016  28.753  24.238  1.00  0.00     0.028 H 
ATOM     55  H   UNL     1     -47.812  28.622  21.434  1.00  0.00     0.028 H 
ATOM     56  H   UNL     1     -48.829  28.598  22.885  1.00  0.00     0.028 H 
ENDBRANCH  41  44
ENDBRANCH  38  41
ENDBRANCH  35  38
ENDBRANCH   1  35
TORSDOF 10
ENDMDL
MODEL 3
REMARK VINA RESULT:      -8.0      7.735     11.465
REMARK SMILES Nc1ncnc2c1ncn2[C@@H]1O[C@H](C(=O)NCCCCN2CCCC2)[C@@H](O)[C@H]1O
REMARK SMILES IDX 17 1 16 4 14 5 15 6 13 8 11 9 12 10 28 11 26 13 10 17 2 18
REMARK SMILES IDX 3 19 7 20 4 21 6 22 8 23 5 24 9 26 1 28 29 31 27 33 18 35
REMARK SMILES IDX 19 38 20 41 21 44 22 45 25 46 23 47 24 50
REMARK H PARENT 17 2 17 3 16 7 11 12 28 14 13 15 26 16 4 25 9 27 1 29 1 30
REMARK H PARENT 29 32 27 34 18 36 18 37 19 39 19 40 20 42 20 43 22 48 22 49
REMARK H PARENT 25 51 25 52 23 53 23 54 24 55 24 56
REMARK Flexibility Score: inf
ROOT
ATOM      1  C   UNL     1     -49.973  37.405  27.807  1.00  0.00     0.017 C 
ATOM      2  H   UNL     1     -49.839  37.467  26.722  1.00  0.00     0.049 H 
ATOM      3  H   UNL     1     -50.781  36.693  28.006  1.00  0.00     0.049 H 
ENDROOT
BRANCH   1   4
ATOM      4  N   UNL     1     -48.783  36.863  28.433  1.00  0.00    -0.354 N 
ATOM      5  C   UNL     1     -47.605  36.678  27.737  1.00  0.00     0.252 C 
ATOM      6  O   UNL     1     -47.482  36.914  26.538  1.00  0.00    -0.272 OA
ATOM      7  H   UNL     1     -48.832  36.615  29.414  1.00  0.00     0.163 HD
BRANCH   5   8
ATOM      8  C   UNL     1     -46.426  36.222  28.603  1.00  0.00     0.167 C 
ATOM      9  C   UNL     1     -44.939  37.894  29.264  1.00  0.00     0.166 C 
ATOM     10  O   UNL     1     -45.213  36.909  28.249  1.00  0.00    -0.339 OA
ATOM     11  C   UNL     1     -46.170  37.975  30.173  1.00  0.00     0.128 C 
ATOM     12  H   UNL     1     -44.047  37.571  29.816  1.00  0.00     0.088 H 
ATOM     13  C   UNL     1     -46.728  36.569  30.055  1.00  0.00     0.120 C 
ATOM     14  H   UNL     1     -46.900  38.706  29.802  1.00  0.00     0.068 H 
ATOM     15  H   UNL     1     -46.257  35.151  28.450  1.00  0.00     0.074 H 
ATOM     16  H   UNL     1     -47.786  36.515  30.329  1.00  0.00     0.066 H 
BRANCH   9  17
ATOM     17  N   UNL     1     -44.605  39.166  28.652  1.00  0.00    -0.285 N 
ATOM     18  C   UNL     1     -42.564  41.991  28.306  1.00  0.00     0.155 A 
ATOM     19  N   UNL     1     -41.661  41.825  29.300  1.00  0.00    -0.217 NA
ATOM     20  C   UNL     1     -43.570  41.023  28.148  1.00  0.00     0.150 A 
ATOM     21  C   UNL     1     -41.756  40.724  30.077  1.00  0.00     0.120 A 
ATOM     22  C   UNL     1     -43.542  39.949  29.021  1.00  0.00     0.167 A 
ATOM     23  N   UNL     1     -44.636  40.919  27.279  1.00  0.00    -0.231 NA
ATOM     24  N   UNL     1     -42.669  39.729  30.021  1.00  0.00    -0.216 NA
ATOM     25  H   UNL     1     -40.998  40.633  30.851  1.00  0.00     0.106 H 
ATOM     26  C   UNL     1     -45.239  39.797  27.616  1.00  0.00     0.099 A 
ATOM     27  H   UNL     1     -46.132  39.398  27.147  1.00  0.00     0.104 H 
BRANCH  18  28
ATOM     28  N   UNL     1     -42.464  43.121  27.506  1.00  0.00    -0.382 N 
ATOM     29  H   UNL     1     -41.645  43.683  27.710  1.00  0.00     0.158 HD
ATOM     30  H   UNL     1     -42.670  42.924  26.536  1.00  0.00     0.158 HD
ENDBRANCH  18  28
ENDBRANCH   9  17
BRANCH  11  31
ATOM     31  O   UNL     1     -45.877  38.269  31.540  1.00  0.00    -0.386 OA
ATOM     32  H   UNL     1     -44.966  37.934  31.704  1.00  0.00     0.211 HD
ENDBRANCH  11  31
BRANCH  13  33
ATOM     33  O   UNL     1     -46.022  35.686  30.937  1.00  0.00    -0.387 OA
ATOM     34  H   UNL     1     -45.116  35.622  30.563  1.00  0.00     0.211 HD
ENDBRANCH  13  33
ENDBRANCH   5   8
ENDBRANCH   1   4
BRANCH   1  35
ATOM     35  C   UNL     1     -50.347  38.771  28.382  1.00  0.00    -0.034 C 
ATOM     36  H   UNL     1     -51.330  39.058  27.986  1.00  0.00     0.029 H 
ATOM     37  H   UNL     1     -50.448  38.696  29.472  1.00  0.00     0.029 H 
BRANCH  35  38
ATOM     38  C   UNL     1     -49.328  39.863  28.038  1.00  0.00    -0.039 C 
ATOM     39  H   UNL     1     -48.709  39.533  27.196  1.00  0.00     0.028 H 
ATOM     40  H   UNL     1     -48.659  40.015  28.891  1.00  0.00     0.028 H 
BRANCH  38  41
ATOM     41  C   UNL     1     -50.029  41.181  27.679  1.00  0.00    -0.002 C 
ATOM     42  H   UNL     1     -51.090  40.952  27.520  1.00  0.00     0.043 H 
ATOM     43  H   UNL     1     -49.977  41.879  28.524  1.00  0.00     0.043 H 
BRANCH  41  44
ATOM     44  N   UNL     1     -49.475  41.768  26.449  1.00  0.00    -0.303 NA
ATOM     45  C   UNL     1     -50.334  42.849  25.936  1.00  0.00    -0.002 C 
ATOM     46  C   UNL     1     -48.178  42.430  26.660  1.00  0.00    -0.002 C 
ATOM     47  C   UNL     1     -49.927  44.099  26.699  1.00  0.00    -0.039 C 
ATOM     48  H   UNL     1     -51.406  42.637  26.017  1.00  0.00     0.043 H 
ATOM     49  H   UNL     1     -50.120  42.985  24.868  1.00  0.00     0.043 H 
ATOM     50  C   UNL     1     -48.492  43.841  27.137  1.00  0.00    -0.039 C 
ATOM     51  H   UNL     1     -47.505  41.905  27.345  1.00  0.00     0.043 H 
ATOM     52  H   UNL     1     -47.656  42.481  25.695  1.00  0.00     0.043 H 
ATOM     53  H   UNL     1     -50.008  44.996  26.077  1.00  0.00     0.028 H 
ATOM     54  H   UNL     1     -50.564  44.243  27.580  1.00  0.00     0.028 H 
ATOM     55  H   UNL     1     -47.801  44.571  26.702  1.00  0.00     0.028 H 
ATOM     56  H   UNL     1     -48.416  43.913  28.228  1.00  0.00     0.028 H 
ENDBRANCH  41  44
ENDBRANCH  38  41
ENDBRANCH  35  38
ENDBRANCH   1  35
TORSDOF 10
ENDMDL
MODEL 4
REMARK VINA RESULT:      -7.8      1.303      2.189
REMARK SMILES Nc1ncnc2c1ncn2[C@@H]1O[C@H](C(=O)NCCCCN2CCCC2)[C@@H](O)[C@H]1O
REMARK SMILES IDX 17 1 16 4 14 5 15 6 13 8 11 9 12 10 28 11 26 13 10 17 2 18
REMARK SMILES IDX 3 19 7 20 4 21 6 22 8 23 5 24 9 26 1 28 29 31 27 33 18 35
REMARK SMILES IDX 19 38 20 41 21 44 22 45 25 46 23 47 24 50
REMARK H PARENT 17 2 17 3 16 7 11 12 28 14 13 15 26 16 4 25 9 27 1 29 1 30
REMARK H PARENT 29 32 27 34 18 36 18 37 19 39 19 40 20 42 20 43 22 48 22 49
REMARK H PARENT 25 51 25 52 23 53 23 54 24 55 24 56
REMARK Flexibility Score: inf
ROOT
ATOM      1  C   UNL     1     -46.606  32.619  26.361  1.00  0.00     0.017 C 
ATOM      2  H   UNL     1     -47.532  32.481  26.928  1.00  0.00     0.049 H 
ATOM      3  H   UNL     1     -45.801  32.110  26.901  1.00  0.00     0.049 H 
ENDROOT
BRANCH   1   4
ATOM      4  N   UNL     1     -46.706  31.973  25.066  1.00  0.00    -0.354 N 
ATOM      5  C   UNL     1     -47.919  31.756  24.445  1.00  0.00     0.252 C 
ATOM      6  O   UNL     1     -49.001  32.049  24.947  1.00  0.00    -0.272 OA
ATOM      7  H   UNL     1     -45.849  31.675  24.616  1.00  0.00     0.163 HD
BRANCH   5   8
ATOM      8  C   UNL     1     -47.808  31.182  23.028  1.00  0.00     0.167 C 
ATOM      9  C   UNL     1     -47.758  28.855  22.871  1.00  0.00     0.166 C 
ATOM     10  O   UNL     1     -46.941  30.036  22.988  1.00  0.00    -0.339 OA
ATOM     11  C   UNL     1     -49.215  29.280  23.081  1.00  0.00     0.128 C 
ATOM     12  H   UNL     1     -47.598  28.432  21.871  1.00  0.00     0.088 H 
ATOM     13  C   UNL     1     -49.188  30.714  22.586  1.00  0.00     0.120 C 
ATOM     14  H   UNL     1     -49.498  29.248  24.141  1.00  0.00     0.068 H 
ATOM     15  H   UNL     1     -47.385  31.941  22.361  1.00  0.00     0.074 H 
ATOM     16  H   UNL     1     -50.021  31.307  22.976  1.00  0.00     0.066 H 
BRANCH   9  17
ATOM     17  N   UNL     1     -47.322  27.847  23.819  1.00  0.00    -0.285 N 
ATOM     18  C   UNL     1     -47.937  25.519  26.361  1.00  0.00     0.155 A 
ATOM     19  N   UNL     1     -49.251  25.709  26.623  1.00  0.00    -0.217 NA
ATOM     20  C   UNL     1     -47.330  26.311  25.373  1.00  0.00     0.150 A 
ATOM     21  C   UNL     1     -49.922  26.636  25.904  1.00  0.00     0.120 A 
ATOM     22  C   UNL     1     -48.144  27.222  24.720  1.00  0.00     0.167 A 
ATOM     23  N   UNL     1     -46.036  26.389  24.904  1.00  0.00    -0.231 NA
ATOM     24  N   UNL     1     -49.453  27.451  24.933  1.00  0.00    -0.216 NA
ATOM     25  H   UNL     1     -50.977  26.740  26.145  1.00  0.00     0.106 H 
ATOM     26  C   UNL     1     -46.066  27.327  23.978  1.00  0.00     0.099 A 
ATOM     27  H   UNL     1     -45.214  27.665  23.400  1.00  0.00     0.104 H 
BRANCH  18  28
ATOM     28  N   UNL     1     -47.250  24.564  27.098  1.00  0.00    -0.382 N 
ATOM     29  H   UNL     1     -46.874  24.925  27.967  1.00  0.00     0.158 HD
ATOM     30  H   UNL     1     -47.738  23.678  27.127  1.00  0.00     0.158 HD
ENDBRANCH  18  28
ENDBRANCH   9  17
BRANCH  11  31
ATOM     31  O   UNL     1     -50.165  28.523  22.328  1.00  0.00    -0.386 OA
ATOM     32  H   UNL     1     -49.925  28.644  21.381  1.00  0.00     0.211 HD
ENDBRANCH  11  31
BRANCH  13  33
ATOM     33  O   UNL     1     -49.291  30.741  21.156  1.00  0.00    -0.387 OA
ATOM     34  H   UNL     1     -49.965  30.061  20.935  1.00  0.00     0.211 HD
ENDBRANCH  13  33
ENDBRANCH   5   8
ENDBRANCH   1   4
BRANCH   1  35
ATOM     35  C   UNL     1     -46.271  34.105  26.230  1.00  0.00    -0.034 C 
ATOM     36  H   UNL     1     -45.221  34.251  26.513  1.00  0.00     0.029 H 
ATOM     37  H   UNL     1     -46.368  34.413  25.181  1.00  0.00     0.029 H 
BRANCH  35  38
ATOM     38  C   UNL     1     -47.157  34.997  27.107  1.00  0.00    -0.039 C 
ATOM     39  H   UNL     1     -48.155  34.550  27.192  1.00  0.00     0.028 H 
ATOM     40  H   UNL     1     -47.279  35.972  26.624  1.00  0.00     0.028 H 
BRANCH  38  41
ATOM     41  C   UNL     1     -46.550  35.176  28.506  1.00  0.00    -0.002 C 
ATOM     42  H   UNL     1     -46.909  34.343  29.124  1.00  0.00     0.043 H 
ATOM     43  H   UNL     1     -45.458  35.089  28.458  1.00  0.00     0.043 H 
BRANCH  41  44
ATOM     44  N   UNL     1     -46.973  36.445  29.119  1.00  0.00    -0.303 NA
ATOM     45  C   UNL     1     -46.089  36.823  30.234  1.00  0.00    -0.002 C 
ATOM     46  C   UNL     1     -46.874  37.590  28.199  1.00  0.00    -0.002 C 
ATOM     47  C   UNL     1     -44.906  37.538  29.603  1.00  0.00    -0.039 C 
ATOM     48  H   UNL     1     -45.784  35.978  30.861  1.00  0.00     0.043 H 
ATOM     49  H   UNL     1     -46.633  37.518  30.887  1.00  0.00     0.043 H 
ATOM     50  C   UNL     1     -45.436  38.082  28.283  1.00  0.00    -0.039 C 
ATOM     51  H   UNL     1     -47.175  37.373  27.169  1.00  0.00     0.043 H 
ATOM     52  H   UNL     1     -47.549  38.378  28.557  1.00  0.00     0.043 H 
ATOM     53  H   UNL     1     -44.526  38.336  30.247  1.00  0.00     0.028 H 
ATOM     54  H   UNL     1     -44.084  36.838  29.413  1.00  0.00     0.028 H 
ATOM     55  H   UNL     1     -45.387  39.175  28.248  1.00  0.00     0.028 H 
ATOM     56  H   UNL     1     -44.838  37.690  27.452  1.00  0.00     0.028 H 
ENDBRANCH  41  44
ENDBRANCH  38  41
ENDBRANCH  35  38
ENDBRANCH   1  35
TORSDOF 10
ENDMDL
MODEL 5
REMARK VINA RESULT:      -7.7      1.629      2.419
REMARK SMILES Nc1ncnc2c1ncn2[C@@H]1O[C@H](C(=O)NCCCCN2CCCC2)[C@@H](O)[C@H]1O
REMARK SMILES IDX 17 1 16 4 14 5 15 6 13 8 11 9 12 10 28 11 26 13 10 17 2 18
REMARK SMILES IDX 3 19 7 20 4 21 6 22 8 23 5 24 9 26 1 28 29 31 27 33 18 35
REMARK SMILES IDX 19 38 20 41 21 44 22 45 25 46 23 47 24 50
REMARK H PARENT 17 2 17 3 16 7 11 12 28 14 13 15 26 16 4 25 9 27 1 29 1 30
REMARK H PARENT 29 32 27 34 18 36 18 37 19 39 19 40 20 42 20 43 22 48 22 49
REMARK H PARENT 25 51 25 52 23 53 23 54 24 55 24 56
REMARK Flexibility Score: inf
ROOT
ATOM      1  C   UNL     1     -46.768  32.586  25.487  1.00  0.00     0.017 C 
ATOM      2  H   UNL     1     -47.198  32.285  26.448  1.00  0.00     0.049 H 
ATOM      3  H   UNL     1     -45.811  32.068  25.369  1.00  0.00     0.049 H 
ENDROOT
BRANCH   1   4
ATOM      4  N   UNL     1     -47.614  32.144  24.395  1.00  0.00    -0.354 N 
ATOM      5  C   UNL     1     -47.205  31.187  23.490  1.00  0.00     0.252 C 
ATOM      6  O   UNL     1     -46.092  30.667  23.508  1.00  0.00    -0.272 OA
ATOM      7  H   UNL     1     -48.532  32.562  24.305  1.00  0.00     0.163 HD
BRANCH   5   8
ATOM      8  C   UNL     1     -48.286  30.759  22.492  1.00  0.00     0.167 C 
ATOM      9  C   UNL     1     -49.688  29.027  23.186  1.00  0.00     0.166 C 
ATOM     10  O   UNL     1     -48.466  29.332  22.486  1.00  0.00    -0.339 OA
ATOM     11  C   UNL     1     -50.168  30.318  23.858  1.00  0.00     0.128 C 
ATOM     12  H   UNL     1     -50.414  28.656  22.452  1.00  0.00     0.088 H 
ATOM     13  C   UNL     1     -49.611  31.374  22.921  1.00  0.00     0.120 C 
ATOM     14  H   UNL     1     -49.740  30.436  24.862  1.00  0.00     0.068 H 
ATOM     15  H   UNL     1     -47.987  31.060  21.482  1.00  0.00     0.074 H 
ATOM     16  H   UNL     1     -49.530  32.355  23.399  1.00  0.00     0.066 H 
BRANCH   9  17
ATOM     17  N   UNL     1     -49.468  27.947  24.129  1.00  0.00    -0.285 N 
ATOM     18  C   UNL     1     -47.386  25.723  25.856  1.00  0.00     0.155 A 
ATOM     19  N   UNL     1     -46.173  25.972  25.311  1.00  0.00    -0.217 NA
ATOM     20  C   UNL     1     -48.493  26.448  25.384  1.00  0.00     0.150 A 
ATOM     21  C   UNL     1     -46.080  26.923  24.355  1.00  0.00     0.120 A 
ATOM     22  C   UNL     1     -48.246  27.389  24.399  1.00  0.00     0.167 A 
ATOM     23  N   UNL     1     -49.835  26.408  25.696  1.00  0.00    -0.231 NA
ATOM     24  N   UNL     1     -47.065  27.683  23.825  1.00  0.00    -0.216 NA
ATOM     25  H   UNL     1     -45.082  27.092  23.960  1.00  0.00     0.106 H 
ATOM     26  C   UNL     1     -50.392  27.315  24.918  1.00  0.00     0.099 A 
ATOM     27  H   UNL     1     -51.449  27.551  24.886  1.00  0.00     0.104 H 
BRANCH  18  28
ATOM     28  N   UNL     1     -47.478  24.748  26.840  1.00  0.00    -0.382 N 
ATOM     29  H   UNL     1     -46.882  24.930  27.640  1.00  0.00     0.158 HD
ATOM     30  H   UNL     1     -48.435  24.473  27.018  1.00  0.00     0.158 HD
ENDBRANCH  18  28
ENDBRANCH   9  17
BRANCH  11  31
ATOM     31  O   UNL     1     -51.589  30.444  23.945  1.00  0.00    -0.386 OA
ATOM     32  H   UNL     1     -51.775  30.857  24.818  1.00  0.00     0.211 HD
ENDBRANCH  11  31
BRANCH  13  33
ATOM     33  O   UNL     1     -50.479  31.531  21.790  1.00  0.00    -0.387 OA
ATOM     34  H   UNL     1     -51.156  30.826  21.887  1.00  0.00     0.211 HD
ENDBRANCH  13  33
ENDBRANCH   5   8
ENDBRANCH   1   4
BRANCH   1  35
ATOM     35  C   UNL     1     -46.536  34.097  25.451  1.00  0.00    -0.034 C 
ATOM     36  H   UNL     1     -45.510  34.300  25.785  1.00  0.00     0.029 H 
ATOM     37  H   UNL     1     -46.614  34.456  24.416  1.00  0.00     0.029 H 
BRANCH  35  38
ATOM     38  C   UNL     1     -47.516  34.874  26.336  1.00  0.00    -0.039 C 
ATOM     39  H   UNL     1     -47.639  34.351  27.292  1.00  0.00     0.028 H 
ATOM     40  H   UNL     1     -48.498  34.899  25.853  1.00  0.00     0.028 H 
BRANCH  38  41
ATOM     41  C   UNL     1     -47.018  36.304  26.590  1.00  0.00    -0.002 C 
ATOM     42  H   UNL     1     -45.924  36.286  26.510  1.00  0.00     0.043 H 
ATOM     43  H   UNL     1     -47.384  36.977  25.805  1.00  0.00     0.043 H 
BRANCH  41  44
ATOM     44  N   UNL     1     -47.393  36.774  27.933  1.00  0.00    -0.303 NA
ATOM     45  C   UNL     1     -46.608  36.094  28.978  1.00  0.00    -0.002 C 
ATOM     46  C   UNL     1     -47.092  38.199  28.149  1.00  0.00    -0.002 C 
ATOM     47  C   UNL     1     -45.304  36.867  29.086  1.00  0.00    -0.039 C 
ATOM     48  H   UNL     1     -46.451  35.027  28.787  1.00  0.00     0.043 H 
ATOM     49  H   UNL     1     -47.158  36.166  29.925  1.00  0.00     0.043 H 
ATOM     50  C   UNL     1     -45.635  38.266  28.583  1.00  0.00    -0.039 C 
ATOM     51  H   UNL     1     -47.295  38.842  27.288  1.00  0.00     0.043 H 
ATOM     52  H   UNL     1     -47.730  38.565  28.964  1.00  0.00     0.043 H 
ATOM     53  H   UNL     1     -44.929  36.884  30.114  1.00  0.00     0.028 H 
ATOM     54  H   UNL     1     -44.531  36.417  28.453  1.00  0.00     0.028 H 
ATOM     55  H   UNL     1     -45.486  39.020  29.362  1.00  0.00     0.028 H 
ATOM     56  H   UNL     1     -44.985  38.521  27.737  1.00  0.00     0.028 H 
ENDBRANCH  41  44
ENDBRANCH  38  41
ENDBRANCH  35  38
ENDBRANCH   1  35
TORSDOF 10
ENDMDL
MODEL 6
REMARK VINA RESULT:      -7.6      3.240     10.687
REMARK SMILES Nc1ncnc2c1ncn2[C@@H]1O[C@H](C(=O)NCCCCN2CCCC2)[C@@H](O)[C@H]1O
REMARK SMILES IDX 17 1 16 4 14 5 15 6 13 8 11 9 12 10 28 11 26 13 10 17 2 18
REMARK SMILES IDX 3 19 7 20 4 21 6 22 8 23 5 24 9 26 1 28 29 31 27 33 18 35
REMARK SMILES IDX 19 38 20 41 21 44 22 45 25 46 23 47 24 50
REMARK H PARENT 17 2 17 3 16 7 11 12 28 14 13 15 26 16 4 25 9 27 1 29 1 30
REMARK H PARENT 29 32 27 34 18 36 18 37 19 39 19 40 20 42 20 43 22 48 22 49
REMARK H PARENT 25 51 25 52 23 53 23 54 24 55 24 56
REMARK Flexibility Score: inf
ROOT
ATOM      1  C   UNL     1     -46.458  32.550  24.649  1.00  0.00     0.017 C 
ATOM      2  H   UNL     1     -46.307  33.253  23.824  1.00  0.00     0.049 H 
ATOM      3  H   UNL     1     -45.872  31.650  24.436  1.00  0.00     0.049 H 
ENDROOT
BRANCH   1   4
ATOM      4  N   UNL     1     -45.933  33.100  25.884  1.00  0.00    -0.354 N 
ATOM      5  C   UNL     1     -46.100  34.426  26.227  1.00  0.00     0.252 C 
ATOM      6  O   UNL     1     -46.662  35.248  25.508  1.00  0.00    -0.272 OA
ATOM      7  H   UNL     1     -45.428  32.479  26.505  1.00  0.00     0.163 HD
BRANCH   5   8
ATOM      8  C   UNL     1     -45.591  34.784  27.628  1.00  0.00     0.167 C 
ATOM      9  C   UNL     1     -45.940  36.989  28.307  1.00  0.00     0.166 C 
ATOM     10  O   UNL     1     -45.010  36.099  27.659  1.00  0.00    -0.339 OA
ATOM     11  C   UNL     1     -47.260  36.231  28.479  1.00  0.00     0.128 C 
ATOM     12  H   UNL     1     -45.510  37.281  29.274  1.00  0.00     0.088 H 
ATOM     13  C   UNL     1     -46.776  34.796  28.585  1.00  0.00     0.120 C 
ATOM     14  H   UNL     1     -47.912  36.349  27.604  1.00  0.00     0.068 H 
ATOM     15  H   UNL     1     -44.815  34.071  27.925  1.00  0.00     0.074 H 
ATOM     16  H   UNL     1     -47.562  34.072  28.352  1.00  0.00     0.066 H 
BRANCH   9  17
ATOM     17  N   UNL     1     -46.085  38.210  27.537  1.00  0.00    -0.285 N 
ATOM     18  C   UNL     1     -45.018  41.400  26.567  1.00  0.00     0.155 A 
ATOM     19  N   UNL     1     -43.955  41.614  27.377  1.00  0.00    -0.217 NA
ATOM     20  C   UNL     1     -45.718  40.189  26.688  1.00  0.00     0.150 A 
ATOM     21  C   UNL     1     -43.605  40.643  28.248  1.00  0.00     0.120 A 
ATOM     22  C   UNL     1     -45.244  39.288  27.626  1.00  0.00     0.167 A 
ATOM     23  N   UNL     1     -46.837  39.691  26.054  1.00  0.00    -0.231 NA
ATOM     24  N   UNL     1     -44.193  39.443  28.453  1.00  0.00    -0.216 NA
ATOM     25  H   UNL     1     -42.737  40.860  28.865  1.00  0.00     0.106 H 
ATOM     26  C   UNL     1     -47.033  38.505  26.595  1.00  0.00     0.099 A 
ATOM     27  H   UNL     1     -47.840  37.826  26.343  1.00  0.00     0.104 H 
BRANCH  18  28
ATOM     28  N   UNL     1     -45.374  42.399  25.671  1.00  0.00    -0.382 N 
ATOM     29  H   UNL     1     -45.709  43.242  26.124  1.00  0.00     0.158 HD
ATOM     30  H   UNL     1     -44.701  42.501  24.923  1.00  0.00     0.158 HD
ENDBRANCH  18  28
ENDBRANCH   9  17
BRANCH  11  31
ATOM     31  O   UNL     1     -47.995  36.584  29.653  1.00  0.00    -0.386 OA
ATOM     32  H   UNL     1     -48.943  36.599  29.389  1.00  0.00     0.211 HD
ENDBRANCH  11  31
BRANCH  13  33
ATOM     33  O   UNL     1     -46.340  34.524  29.924  1.00  0.00    -0.387 OA
ATOM     34  H   UNL     1     -47.162  34.504  30.461  1.00  0.00     0.211 HD
ENDBRANCH  13  33
ENDBRANCH   5   8
ENDBRANCH   1   4
BRANCH   1  35
ATOM     35  C   UNL     1     -47.935  32.177  24.776  1.00  0.00    -0.034 C 
ATOM     36  H   UNL     1     -48.488  33.057  25.128  1.00  0.00     0.029 H 
ATOM     37  H   UNL     1     -48.335  31.919  23.786  1.00  0.00     0.029 H 
BRANCH  35  38
ATOM     38  C   UNL     1     -48.177  31.012  25.742  1.00  0.00    -0.039 C 
ATOM     39  H   UNL     1     -48.611  31.394  26.674  1.00  0.00     0.028 H 
ATOM     40  H   UNL     1     -47.218  30.550  25.999  1.00  0.00     0.028 H 
BRANCH  38  41
ATOM     41  C   UNL     1     -49.116  29.966  25.125  1.00  0.00    -0.002 C 
ATOM     42  H   UNL     1     -49.444  29.305  25.937  1.00  0.00     0.043 H 
ATOM     43  H   UNL     1     -50.015  30.452  24.727  1.00  0.00     0.043 H 
BRANCH  41  44
ATOM     44  N   UNL     1     -48.429  29.163  24.101  1.00  0.00    -0.303 NA
ATOM     45  C   UNL     1     -47.879  27.922  24.672  1.00  0.00    -0.002 C 
ATOM     46  C   UNL     1     -49.333  28.683  23.043  1.00  0.00    -0.002 C 
ATOM     47  C   UNL     1     -49.023  26.921  24.670  1.00  0.00    -0.039 C 
ATOM     48  H   UNL     1     -47.436  28.052  25.666  1.00  0.00     0.043 H 
ATOM     49  H   UNL     1     -47.076  27.563  24.015  1.00  0.00     0.043 H 
ATOM     50  C   UNL     1     -49.958  27.398  23.566  1.00  0.00    -0.039 C 
ATOM     51  H   UNL     1     -50.089  29.409  22.728  1.00  0.00     0.043 H 
ATOM     52  H   UNL     1     -48.732  28.458  22.153  1.00  0.00     0.043 H 
ATOM     53  H   UNL     1     -48.668  25.902  24.489  1.00  0.00     0.028 H 
ATOM     54  H   UNL     1     -49.549  26.929  25.631  1.00  0.00     0.028 H 
ATOM     55  H   UNL     1     -50.057  26.651  22.772  1.00  0.00     0.028 H 
ATOM     56  H   UNL     1     -50.956  27.586  23.979  1.00  0.00     0.028 H 
ENDBRANCH  41  44
ENDBRANCH  38  41
ENDBRANCH  35  38
ENDBRANCH   1  35
TORSDOF 10
ENDMDL
MODEL 7
REMARK VINA RESULT:      -7.4      4.548     11.856
REMARK SMILES Nc1ncnc2c1ncn2[C@@H]1O[C@H](C(=O)NCCCCN2CCCC2)[C@@H](O)[C@H]1O
REMARK SMILES IDX 17 1 16 4 14 5 15 6 13 8 11 9 12 10 28 11 26 13 10 17 2 18
REMARK SMILES IDX 3 19 7 20 4 21 6 22 8 23 5 24 9 26 1 28 29 31 27 33 18 35
REMARK SMILES IDX 19 38 20 41 21 44 22 45 25 46 23 47 24 50
REMARK H PARENT 17 2 17 3 16 7 11 12 28 14 13 15 26 16 4 25 9 27 1 29 1 30
REMARK H PARENT 29 32 27 34 18 36 18 37 19 39 19 40 20 42 20 43 22 48 22 49
REMARK H PARENT 25 51 25 52 23 53 23 54 24 55 24 56
REMARK Flexibility Score: inf
ROOT
ATOM      1  C   UNL     1     -46.105  34.655  26.536  1.00  0.00     0.017 C 
ATOM      2  H   UNL     1     -45.171  35.033  26.107  1.00  0.00     0.049 H 
ATOM      3  H   UNL     1     -45.849  33.875  27.263  1.00  0.00     0.049 H 
ENDROOT
BRANCH   1   4
ATOM      4  N   UNL     1     -46.782  35.702  27.276  1.00  0.00    -0.354 N 
ATOM      5  C   UNL     1     -46.096  36.620  28.044  1.00  0.00     0.252 C 
ATOM      6  O   UNL     1     -44.878  36.602  28.197  1.00  0.00    -0.272 OA
ATOM      7  H   UNL     1     -47.792  35.748  27.219  1.00  0.00     0.163 HD
BRANCH   5   8
ATOM      8  C   UNL     1     -46.974  37.726  28.640  1.00  0.00     0.167 C 
ATOM      9  C   UNL     1     -46.400  39.911  28.056  1.00  0.00     0.166 C 
ATOM     10  O   UNL     1     -46.194  38.869  29.030  1.00  0.00    -0.339 OA
ATOM     11  C   UNL     1     -47.169  39.297  26.881  1.00  0.00     0.128 C 
ATOM     12  H   UNL     1     -46.969  40.716  28.538  1.00  0.00     0.088 H 
ATOM     13  C   UNL     1     -47.952  38.196  27.571  1.00  0.00     0.120 C 
ATOM     14  H   UNL     1     -46.490  38.870  26.131  1.00  0.00     0.068 H 
ATOM     15  H   UNL     1     -47.478  37.346  29.536  1.00  0.00     0.074 H 
ATOM     16  H   UNL     1     -48.281  37.418  26.875  1.00  0.00     0.066 H 
BRANCH   9  17
ATOM     17  N   UNL     1     -45.128  40.486  27.660  1.00  0.00    -0.285 N 
ATOM     18  C   UNL     1     -43.207  42.931  26.049  1.00  0.00     0.155 A 
ATOM     19  N   UNL     1     -44.147  43.688  25.438  1.00  0.00    -0.217 NA
ATOM     20  C   UNL     1     -43.627  41.822  26.802  1.00  0.00     0.150 A 
ATOM     21  C   UNL     1     -45.446  43.355  25.600  1.00  0.00     0.120 A 
ATOM     22  C   UNL     1     -44.993  41.602  26.877  1.00  0.00     0.167 A 
ATOM     23  N   UNL     1     -42.938  40.852  27.499  1.00  0.00    -0.231 NA
ATOM     24  N   UNL     1     -45.971  42.322  26.297  1.00  0.00    -0.216 NA
ATOM     25  H   UNL     1     -46.160  44.004  25.099  1.00  0.00     0.106 H 
ATOM     26  C   UNL     1     -43.870  40.063  27.995  1.00  0.00     0.099 A 
ATOM     27  H   UNL     1     -43.690  39.179  28.596  1.00  0.00     0.104 H 
BRANCH  18  28
ATOM     28  N   UNL     1     -41.873  43.276  25.884  1.00  0.00    -0.382 N 
ATOM     29  H   UNL     1     -41.378  42.663  25.246  1.00  0.00     0.158 HD
ATOM     30  H   UNL     1     -41.746  44.273  25.774  1.00  0.00     0.158 HD
ENDBRANCH  18  28
ENDBRANCH   9  17
BRANCH  11  31
ATOM     31  O   UNL     1     -48.067  40.198  26.229  1.00  0.00    -0.386 OA
ATOM     32  H   UNL     1     -48.974  39.912  26.480  1.00  0.00     0.211 HD
ENDBRANCH  11  31
BRANCH  13  33
ATOM     33  O   UNL     1     -49.132  38.741  28.177  1.00  0.00    -0.387 OA
ATOM     34  H   UNL     1     -49.871  38.190  27.838  1.00  0.00     0.211 HD
ENDBRANCH  13  33
ENDBRANCH   5   8
ENDBRANCH   1   4
BRANCH   1  35
ATOM     35  C   UNL     1     -46.997  34.060  25.446  1.00  0.00    -0.034 C 
ATOM     36  H   UNL     1     -47.535  34.879  24.951  1.00  0.00     0.029 H 
ATOM     37  H   UNL     1     -46.372  33.578  24.683  1.00  0.00     0.029 H 
BRANCH  35  38
ATOM     38  C   UNL     1     -48.010  33.048  25.989  1.00  0.00    -0.039 C 
ATOM     39  H   UNL     1     -49.027  33.403  25.785  1.00  0.00     0.028 H 
ATOM     40  H   UNL     1     -47.905  32.978  27.076  1.00  0.00     0.028 H 
BRANCH  38  41
ATOM     41  C   UNL     1     -47.809  31.666  25.352  1.00  0.00    -0.002 C 
ATOM     42  H   UNL     1     -46.888  31.245  25.774  1.00  0.00     0.043 H 
ATOM     43  H   UNL     1     -48.626  30.993  25.639  1.00  0.00     0.043 H 
BRANCH  41  44
ATOM     44  N   UNL     1     -47.666  31.762  23.890  1.00  0.00    -0.303 NA
ATOM     45  C   UNL     1     -46.455  31.066  23.423  1.00  0.00    -0.002 C 
ATOM     46  C   UNL     1     -48.752  31.089  23.161  1.00  0.00    -0.002 C 
ATOM     47  C   UNL     1     -46.846  29.606  23.275  1.00  0.00    -0.039 C 
ATOM     48  H   UNL     1     -45.586  31.205  24.076  1.00  0.00     0.043 H 
ATOM     49  H   UNL     1     -46.178  31.474  22.442  1.00  0.00     0.043 H 
ATOM     50  C   UNL     1     -48.353  29.624  23.057  1.00  0.00    -0.039 C 
ATOM     51  H   UNL     1     -49.744  31.214  23.605  1.00  0.00     0.043 H 
ATOM     52  H   UNL     1     -48.809  31.521  22.153  1.00  0.00     0.043 H 
ATOM     53  H   UNL     1     -46.321  29.129  22.441  1.00  0.00     0.028 H 
ATOM     54  H   UNL     1     -46.609  29.045  24.186  1.00  0.00     0.028 H 
ATOM     55  H   UNL     1     -48.624  29.205  22.082  1.00  0.00     0.028 H 
ATOM     56  H   UNL     1     -48.849  29.026  23.830  1.00  0.00     0.028 H 
ENDBRANCH  41  44
ENDBRANCH  38  41
ENDBRANCH  35  38
ENDBRANCH   1  35
TORSDOF 10
ENDMDL
