MODEL 1
REMARK VINA RESULT:      -9.7      0.000      0.000
REMARK SMILES Nc1ncnc2c1c(-n1ccc(C(F)(F)F)n1)cn2[C@@H]1O[C@H](COc2ccc3ccc(N4CCC4)nc3c2)[C@@H](O)[C@@H]1F
REMARK SMILES IDX 20 1 21 2 22 3 39 4 41 5 42 6 19 11 2 12 3 13 7 14 4 15 6 16
REMARK SMILES IDX 8 17 5 18 18 20 1 22 9 25 10 26 17 27 11 28 12 30 13 32
REMARK SMILES IDX 14 33 15 34 16 35 23 36 24 39 25 40 26 41 38 42 27 43 37 45
REMARK SMILES IDX 28 47 36 49 29 50 31 51 30 52 32 55 33 56 35 57 34 58 40 65
REMARK H PARENT 20 7 22 8 39 9 41 10 4 19 18 21 1 23 1 24 10 29 11 31 23 37
REMARK H PARENT 23 38 26 44 38 46 27 48 29 53 30 54 33 59 33 60 35 61 35 62
REMARK H PARENT 34 63 34 64 40 66
REMARK Flexibility Score: inf
ROOT
ATOM      1  C   UNL     1     -45.213  37.907  27.909  1.00  0.00     0.170 C 
ATOM      2  O   UNL     1     -45.613  36.933  26.926  1.00  0.00    -0.345 OA
ATOM      3  C   UNL     1     -46.316  35.855  27.578  1.00  0.00     0.123 C 
ATOM      4  C   UNL     1     -46.640  36.337  28.990  1.00  0.00     0.119 C 
ATOM      5  C   UNL     1     -45.512  37.307  29.274  1.00  0.00     0.173 C 
ATOM      6  F   UNL     1     -45.901  38.222  30.192  1.00  0.00    -0.239 F 
ATOM      7  H   UNL     1     -44.137  38.065  27.791  1.00  0.00     0.088 H 
ATOM      8  H   UNL     1     -45.634  34.996  27.591  1.00  0.00     0.067 H 
ATOM      9  H   UNL     1     -47.606  36.848  29.043  1.00  0.00     0.066 H 
ATOM     10  H   UNL     1     -44.639  36.778  29.673  1.00  0.00     0.074 H 
ENDROOT
BRANCH   1  11
ATOM     11  N   UNL     1     -45.891  39.154  27.594  1.00  0.00    -0.301 N 
ATOM     12  C   UNL     1     -45.800  42.401  26.175  1.00  0.00     0.138 A 
ATOM     13  N   UNL     1     -44.493  42.523  25.872  1.00  0.00    -0.219 NA
ATOM     14  C   UNL     1     -46.272  41.195  26.720  1.00  0.00     0.087 A 
ATOM     15  C   UNL     1     -43.671  41.496  26.146  1.00  0.00     0.120 A 
ATOM     16  C   UNL     1     -45.295  40.235  26.992  1.00  0.00     0.149 A 
ATOM     17  C   UNL     1     -47.510  40.621  27.140  1.00  0.00     0.096 A 
ATOM     18  N   UNL     1     -43.982  40.327  26.721  1.00  0.00    -0.218 NA
ATOM     19  H   UNL     1     -42.629  41.637  25.877  1.00  0.00     0.106 H 
ATOM     20  C   UNL     1     -47.226  39.413  27.749  1.00  0.00     0.035 A 
ATOM     21  H   UNL     1     -47.904  38.695  28.188  1.00  0.00     0.084 H 
BRANCH  12  22
ATOM     22  N   UNL     1     -46.565  43.546  25.981  1.00  0.00    -0.383 N 
ATOM     23  H   UNL     1     -46.873  43.658  25.021  1.00  0.00     0.158 HD
ATOM     24  H   UNL     1     -47.324  43.546  26.657  1.00  0.00     0.158 HD
ENDBRANCH  12  22
BRANCH  17  25
ATOM     25  N   UNL     1     -48.844  41.101  26.991  1.00  0.00    -0.238 N 
ATOM     26  C   UNL     1     -49.954  40.764  27.727  1.00  0.00     0.031 A 
ATOM     27  N   UNL     1     -49.145  42.050  26.065  1.00  0.00    -0.163 NA
ATOM     28  C   UNL     1     -51.005  41.509  27.252  1.00  0.00    -0.011 A 
ATOM     29  H   UNL     1     -49.897  40.080  28.559  1.00  0.00     0.084 H 
ATOM     30  C   UNL     1     -50.457  42.307  26.220  1.00  0.00     0.166 A 
ATOM     31  H   UNL     1     -52.024  41.512  27.617  1.00  0.00     0.066 H 
BRANCH  30  32
ATOM     32  C   UNL     1     -51.197  43.297  25.362  1.00  0.00     0.435 C 
ATOM     33  F   UNL     1     -50.538  44.472  25.187  1.00  0.00    -0.164 F 
ATOM     34  F   UNL     1     -51.430  42.795  24.116  1.00  0.00    -0.164 F 
ATOM     35  F   UNL     1     -52.423  43.605  25.870  1.00  0.00    -0.164 F 
ENDBRANCH  30  32
ENDBRANCH  17  25
ENDBRANCH   1  11
BRANCH   3  36
ATOM     36  C   UNL     1     -47.587  35.474  26.802  1.00  0.00     0.117 C 
ATOM     37  H   UNL     1     -48.377  36.201  27.025  1.00  0.00     0.073 H 
ATOM     38  H   UNL     1     -47.415  35.523  25.721  1.00  0.00     0.073 H 
BRANCH  36  39
ATOM     39  O   UNL     1     -48.082  34.183  27.205  1.00  0.00    -0.491 OA
BRANCH  39  40
ATOM     40  C   UNL     1     -47.765  33.206  26.295  1.00  0.00     0.121 A 
ATOM     41  C   UNL     1     -46.810  33.506  25.331  1.00  0.00    -0.019 A 
ATOM     42  C   UNL     1     -48.344  31.936  26.342  1.00  0.00     0.007 A 
ATOM     43  C   UNL     1     -46.495  32.559  24.361  1.00  0.00    -0.049 A 
ATOM     44  H   UNL     1     -46.345  34.487  25.312  1.00  0.00     0.066 H 
ATOM     45  C   UNL     1     -48.039  30.970  25.392  1.00  0.00     0.076 A 
ATOM     46  H   UNL     1     -49.055  31.689  27.125  1.00  0.00     0.069 H 
ATOM     47  C   UNL     1     -47.114  31.299  24.381  1.00  0.00     0.001 A 
ATOM     48  H   UNL     1     -45.773  32.812  23.589  1.00  0.00     0.063 H 
ATOM     49  N   UNL     1     -48.629  29.763  25.461  1.00  0.00    -0.231 NA
ATOM     50  C   UNL     1     -46.839  30.332  23.411  1.00  0.00    -0.049 A 
ATOM     51  C   UNL     1     -48.344  28.828  24.527  1.00  0.00     0.129 A 
ATOM     52  C   UNL     1     -47.465  29.092  23.482  1.00  0.00    -0.019 A 
ATOM     53  H   UNL     1     -46.145  30.535  22.601  1.00  0.00     0.063 H 
ATOM     54  H   UNL     1     -47.261  28.343  22.726  1.00  0.00     0.066 H 
BRANCH  51  55
ATOM     55  N   UNL     1     -48.981  27.577  24.617  1.00  0.00    -0.356 N 
ATOM     56  C   UNL     1     -50.329  27.402  25.089  1.00  0.00     0.021 C 
ATOM     57  C   UNL     1     -48.517  26.424  25.332  1.00  0.00     0.021 C 
ATOM     58  C   UNL     1     -49.967  25.927  25.297  1.00  0.00    -0.018 C 
ATOM     59  H   UNL     1     -50.535  27.959  26.009  1.00  0.00     0.049 H 
ATOM     60  H   UNL     1     -51.091  27.604  24.336  1.00  0.00     0.049 H 
ATOM     61  H   UNL     1     -47.797  25.823  24.772  1.00  0.00     0.049 H 
ATOM     62  H   UNL     1     -48.134  26.663  26.330  1.00  0.00     0.049 H 
ATOM     63  H   UNL     1     -50.337  25.470  26.218  1.00  0.00     0.030 H 
ATOM     64  H   UNL     1     -50.203  25.279  24.445  1.00  0.00     0.030 H 
ENDBRANCH  51  55
ENDBRANCH  39  40
ENDBRANCH  36  39
ENDBRANCH   3  36
BRANCH   4  65
ATOM     65  O   UNL     1     -46.675  35.258  29.919  1.00  0.00    -0.387 OA
ATOM     66  H   UNL     1     -47.421  35.424  30.525  1.00  0.00     0.211 HD
ENDBRANCH   4  65
TORSDOF 9
ENDMDL
MODEL 2
REMARK VINA RESULT:      -9.5      2.190      3.066
REMARK SMILES Nc1ncnc2c1c(-n1ccc(C(F)(F)F)n1)cn2[C@@H]1O[C@H](COc2ccc3ccc(N4CCC4)nc3c2)[C@@H](O)[C@@H]1F
REMARK SMILES IDX 20 1 21 2 22 3 39 4 41 5 42 6 19 11 2 12 3 13 7 14 4 15 6 16
REMARK SMILES IDX 8 17 5 18 18 20 1 22 9 25 10 26 17 27 11 28 12 30 13 32
REMARK SMILES IDX 14 33 15 34 16 35 23 36 24 39 25 40 26 41 38 42 27 43 37 45
REMARK SMILES IDX 28 47 36 49 29 50 31 51 30 52 32 55 33 56 35 57 34 58 40 65
REMARK H PARENT 20 7 22 8 39 9 41 10 4 19 18 21 1 23 1 24 10 29 11 31 23 37
REMARK H PARENT 23 38 26 44 38 46 27 48 29 53 30 54 33 59 33 60 35 61 35 62
REMARK H PARENT 34 63 34 64 40 66
REMARK Flexibility Score: inf
ROOT
ATOM      1  C   UNL     1     -44.711  37.634  29.278  1.00  0.00     0.170 C 
ATOM      2  O   UNL     1     -44.839  36.804  28.107  1.00  0.00    -0.345 OA
ATOM      3  C   UNL     1     -46.167  36.245  28.060  1.00  0.00     0.123 C 
ATOM      4  C   UNL     1     -47.001  37.013  29.082  1.00  0.00     0.119 C 
ATOM      5  C   UNL     1     -45.967  37.424  30.109  1.00  0.00     0.173 C 
ATOM      6  F   UNL     1     -46.374  38.536  30.764  1.00  0.00    -0.239 F 
ATOM      7  H   UNL     1     -43.829  37.289  29.827  1.00  0.00     0.088 H 
ATOM      8  H   UNL     1     -46.072  35.186  28.330  1.00  0.00     0.067 H 
ATOM      9  H   UNL     1     -47.480  37.896  28.647  1.00  0.00     0.066 H 
ATOM     10  H   UNL     1     -45.822  36.629  30.849  1.00  0.00     0.074 H 
ENDROOT
BRANCH   1  11
ATOM     11  N   UNL     1     -44.460  38.995  28.828  1.00  0.00    -0.301 N 
ATOM     12  C   UNL     1     -42.416  41.890  28.862  1.00  0.00     0.138 A 
ATOM     13  N   UNL     1     -41.506  41.563  29.801  1.00  0.00    -0.219 NA
ATOM     14  C   UNL     1     -43.399  40.954  28.499  1.00  0.00     0.087 A 
ATOM     15  C   UNL     1     -41.599  40.362  30.396  1.00  0.00     0.120 A 
ATOM     16  C   UNL     1     -43.400  39.767  29.235  1.00  0.00     0.149 A 
ATOM     17  C   UNL     1     -44.486  40.845  27.581  1.00  0.00     0.096 A 
ATOM     18  N   UNL     1     -42.522  39.413  30.189  1.00  0.00    -0.218 NA
ATOM     19  H   UNL     1     -40.840  40.139  31.139  1.00  0.00     0.106 H 
ATOM     20  C   UNL     1     -45.164  39.675  27.871  1.00  0.00     0.035 A 
ATOM     21  H   UNL     1     -46.035  39.255  27.390  1.00  0.00     0.084 H 
BRANCH  12  22
ATOM     22  N   UNL     1     -42.334  43.193  28.383  1.00  0.00    -0.383 N 
ATOM     23  H   UNL     1     -42.740  43.301  27.460  1.00  0.00     0.158 HD
ATOM     24  H   UNL     1     -42.727  43.819  29.079  1.00  0.00     0.158 HD
ENDBRANCH  12  22
BRANCH  17  25
ATOM     25  N   UNL     1     -44.878  41.703  26.513  1.00  0.00    -0.238 N 
ATOM     26  C   UNL     1     -44.335  41.794  25.254  1.00  0.00     0.031 A 
ATOM     27  N   UNL     1     -45.946  42.536  26.642  1.00  0.00    -0.163 NA
ATOM     28  C   UNL     1     -45.066  42.723  24.556  1.00  0.00    -0.011 A 
ATOM     29  H   UNL     1     -43.525  41.155  24.938  1.00  0.00     0.084 H 
ATOM     30  C   UNL     1     -46.069  43.157  25.455  1.00  0.00     0.166 A 
ATOM     31  H   UNL     1     -44.927  43.027  23.527  1.00  0.00     0.066 H 
BRANCH  30  32
ATOM     32  C   UNL     1     -47.131  44.189  25.185  1.00  0.00     0.435 C 
ATOM     33  F   UNL     1     -46.993  45.323  25.920  1.00  0.00    -0.164 F 
ATOM     34  F   UNL     1     -47.127  44.573  23.877  1.00  0.00    -0.164 F 
ATOM     35  F   UNL     1     -48.385  43.713  25.426  1.00  0.00    -0.164 F 
ENDBRANCH  30  32
ENDBRANCH  17  25
ENDBRANCH   1  11
BRANCH   3  36
ATOM     36  C   UNL     1     -46.761  36.350  26.646  1.00  0.00     0.117 C 
ATOM     37  H   UNL     1     -47.057  37.389  26.456  1.00  0.00     0.073 H 
ATOM     38  H   UNL     1     -46.013  36.097  25.887  1.00  0.00     0.073 H 
BRANCH  36  39
ATOM     39  O   UNL     1     -47.950  35.547  26.513  1.00  0.00    -0.491 OA
BRANCH  39  40
ATOM     40  C   UNL     1     -47.686  34.337  25.920  1.00  0.00     0.121 A 
ATOM     41  C   UNL     1     -46.424  34.149  25.370  1.00  0.00    -0.019 A 
ATOM     42  C   UNL     1     -48.627  33.306  25.895  1.00  0.00     0.007 A 
ATOM     43  C   UNL     1     -46.133  32.954  24.718  1.00  0.00    -0.049 A 
ATOM     44  H   UNL     1     -45.687  34.945  25.412  1.00  0.00     0.066 H 
ATOM     45  C   UNL     1     -48.357  32.101  25.261  1.00  0.00     0.076 A 
ATOM     46  H   UNL     1     -49.596  33.439  26.368  1.00  0.00     0.069 H 
ATOM     47  C   UNL     1     -47.097  31.936  24.651  1.00  0.00     0.001 A 
ATOM     48  H   UNL     1     -45.156  32.826  24.259  1.00  0.00     0.063 H 
ATOM     49  N   UNL     1     -49.295  31.136  25.243  1.00  0.00    -0.231 NA
ATOM     50  C   UNL     1     -46.848  30.733  23.987  1.00  0.00    -0.049 A 
ATOM     51  C   UNL     1     -49.039  29.969  24.612  1.00  0.00     0.129 A 
ATOM     52  C   UNL     1     -47.829  29.747  23.962  1.00  0.00    -0.019 A 
ATOM     53  H   UNL     1     -45.900  30.556  23.489  1.00  0.00     0.063 H 
ATOM     54  H   UNL     1     -47.643  28.816  23.439  1.00  0.00     0.066 H 
BRANCH  51  55
ATOM     55  N   UNL     1     -50.040  28.980  24.600  1.00  0.00    -0.356 N 
ATOM     56  C   UNL     1     -49.773  27.578  24.420  1.00  0.00     0.021 C 
ATOM     57  C   UNL     1     -51.190  28.932  23.745  1.00  0.00     0.021 C 
ATOM     58  C   UNL     1     -51.257  27.434  24.066  1.00  0.00    -0.018 C 
ATOM     59  H   UNL     1     -49.081  27.377  23.595  1.00  0.00     0.049 H 
ATOM     60  H   UNL     1     -49.447  27.070  25.329  1.00  0.00     0.049 H 
ATOM     61  H   UNL     1     -52.029  29.532  24.107  1.00  0.00     0.049 H 
ATOM     62  H   UNL     1     -50.961  29.172  22.702  1.00  0.00     0.049 H 
ATOM     63  H   UNL     1     -51.485  26.776  23.225  1.00  0.00     0.030 H 
ATOM     64  H   UNL     1     -51.901  27.182  24.916  1.00  0.00     0.030 H 
ENDBRANCH  51  55
ENDBRANCH  39  40
ENDBRANCH  36  39
ENDBRANCH   3  36
BRANCH   4  65
ATOM     65  O   UNL     1     -48.028  36.200  29.640  1.00  0.00    -0.387 OA
ATOM     66  H   UNL     1     -48.879  36.637  29.447  1.00  0.00     0.211 HD
ENDBRANCH   4  65
TORSDOF 9
ENDMDL
MODEL 3
REMARK VINA RESULT:      -9.4      2.571      4.762
REMARK SMILES Nc1ncnc2c1c(-n1ccc(C(F)(F)F)n1)cn2[C@@H]1O[C@H](COc2ccc3ccc(N4CCC4)nc3c2)[C@@H](O)[C@@H]1F
REMARK SMILES IDX 20 1 21 2 22 3 39 4 41 5 42 6 19 11 2 12 3 13 7 14 4 15 6 16
REMARK SMILES IDX 8 17 5 18 18 20 1 22 9 25 10 26 17 27 11 28 12 30 13 32
REMARK SMILES IDX 14 33 15 34 16 35 23 36 24 39 25 40 26 41 38 42 27 43 37 45
REMARK SMILES IDX 28 47 36 49 29 50 31 51 30 52 32 55 33 56 35 57 34 58 40 65
REMARK H PARENT 20 7 22 8 39 9 41 10 4 19 18 21 1 23 1 24 10 29 11 31 23 37
REMARK H PARENT 23 38 26 44 38 46 27 48 29 53 30 54 33 59 33 60 35 61 35 62
REMARK H PARENT 34 63 34 64 40 66
REMARK Flexibility Score: inf
ROOT
ATOM      1  C   UNL     1     -47.978  36.572  28.585  1.00  0.00     0.170 C 
ATOM      2  O   UNL     1     -46.920  35.611  28.400  1.00  0.00    -0.345 OA
ATOM      3  C   UNL     1     -47.371  34.569  27.510  1.00  0.00     0.123 C 
ATOM      4  C   UNL     1     -48.659  35.073  26.865  1.00  0.00     0.119 C 
ATOM      5  C   UNL     1     -49.221  35.994  27.928  1.00  0.00     0.173 C 
ATOM      6  F   UNL     1     -50.018  36.930  27.363  1.00  0.00    -0.239 F 
ATOM      7  H   UNL     1     -48.133  36.682  29.663  1.00  0.00     0.088 H 
ATOM      8  H   UNL     1     -47.549  33.681  28.129  1.00  0.00     0.067 H 
ATOM      9  H   UNL     1     -48.472  35.627  25.940  1.00  0.00     0.066 H 
ATOM     10  H   UNL     1     -49.823  35.428  28.649  1.00  0.00     0.074 H 
ENDROOT
BRANCH   1  11
ATOM     11  N   UNL     1     -47.510  37.846  28.063  1.00  0.00    -0.301 N 
ATOM     12  C   UNL     1     -48.154  41.245  27.286  1.00  0.00     0.138 A 
ATOM     13  N   UNL     1     -49.478  41.327  27.528  1.00  0.00    -0.219 NA
ATOM     14  C   UNL     1     -47.481  40.036  27.538  1.00  0.00     0.087 A 
ATOM     15  C   UNL     1     -50.122  40.230  27.959  1.00  0.00     0.120 A 
ATOM     16  C   UNL     1     -48.289  38.971  27.939  1.00  0.00     0.149 A 
ATOM     17  C   UNL     1     -46.153  39.517  27.473  1.00  0.00     0.096 A 
ATOM     18  N   UNL     1     -49.612  39.010  28.173  1.00  0.00    -0.218 NA
ATOM     19  H   UNL     1     -51.185  40.346  28.148  1.00  0.00     0.106 H 
ATOM     20  C   UNL     1     -46.224  38.157  27.715  1.00  0.00     0.035 A 
ATOM     21  H   UNL     1     -45.426  37.430  27.751  1.00  0.00     0.084 H 
BRANCH  12  22
ATOM     22  N   UNL     1     -47.580  42.379  26.723  1.00  0.00    -0.383 N 
ATOM     23  H   UNL     1     -48.267  43.061  26.422  1.00  0.00     0.158 HD
ATOM     24  H   UNL     1     -46.893  42.750  27.373  1.00  0.00     0.158 HD
ENDBRANCH  12  22
BRANCH  17  25
ATOM     25  N   UNL     1     -44.916  40.182  27.238  1.00  0.00    -0.238 N 
ATOM     26  C   UNL     1     -44.457  40.732  26.065  1.00  0.00     0.031 A 
ATOM     27  N   UNL     1     -44.033  40.394  28.251  1.00  0.00    -0.163 NA
ATOM     28  C   UNL     1     -43.236  41.303  26.328  1.00  0.00    -0.011 A 
ATOM     29  H   UNL     1     -45.054  40.731  25.167  1.00  0.00     0.084 H 
ATOM     30  C   UNL     1     -43.010  41.078  27.707  1.00  0.00     0.166 A 
ATOM     31  H   UNL     1     -42.603  41.843  25.636  1.00  0.00     0.066 H 
BRANCH  30  32
ATOM     32  C   UNL     1     -41.801  41.496  28.498  1.00  0.00     0.435 C 
ATOM     33  F   UNL     1     -41.529  40.685  29.554  1.00  0.00    -0.164 F 
ATOM     34  F   UNL     1     -40.681  41.507  27.721  1.00  0.00    -0.164 F 
ATOM     35  F   UNL     1     -41.919  42.760  28.992  1.00  0.00    -0.164 F 
ENDBRANCH  30  32
ENDBRANCH  17  25
ENDBRANCH   1  11
BRANCH   3  36
ATOM     36  C   UNL     1     -46.299  34.240  26.457  1.00  0.00     0.117 C 
ATOM     37  H   UNL     1     -45.588  35.072  26.395  1.00  0.00     0.073 H 
ATOM     38  H   UNL     1     -45.721  33.357  26.750  1.00  0.00     0.073 H 
BRANCH  36  39
ATOM     39  O   UNL     1     -46.879  34.087  25.147  1.00  0.00    -0.491 OA
BRANCH  39  40
ATOM     40  C   UNL     1     -46.916  32.773  24.754  1.00  0.00     0.121 A 
ATOM     41  C   UNL     1     -46.036  32.371  23.758  1.00  0.00    -0.019 A 
ATOM     42  C   UNL     1     -47.776  31.848  25.350  1.00  0.00     0.007 A 
ATOM     43  C   UNL     1     -46.075  31.057  23.298  1.00  0.00    -0.049 A 
ATOM     44  H   UNL     1     -45.352  33.087  23.312  1.00  0.00     0.066 H 
ATOM     45  C   UNL     1     -47.827  30.530  24.918  1.00  0.00     0.076 A 
ATOM     46  H   UNL     1     -48.430  32.155  26.162  1.00  0.00     0.069 H 
ATOM     47  C   UNL     1     -46.974  30.140  23.866  1.00  0.00     0.001 A 
ATOM     48  H   UNL     1     -45.409  30.757  22.494  1.00  0.00     0.063 H 
ATOM     49  N   UNL     1     -48.680  29.671  25.506  1.00  0.00    -0.231 NA
ATOM     50  C   UNL     1     -47.057  28.821  23.416  1.00  0.00    -0.049 A 
ATOM     51  C   UNL     1     -48.741  28.392  25.075  1.00  0.00     0.129 A 
ATOM     52  C   UNL     1     -47.952  27.944  24.020  1.00  0.00    -0.019 A 
ATOM     53  H   UNL     1     -46.433  28.469  22.600  1.00  0.00     0.063 H 
ATOM     54  H   UNL     1     -48.026  26.922  23.667  1.00  0.00     0.066 H 
BRANCH  51  55
ATOM     55  N   UNL     1     -49.648  27.517  25.701  1.00  0.00    -0.356 N 
ATOM     56  C   UNL     1     -49.294  26.203  26.168  1.00  0.00     0.021 C 
ATOM     57  C   UNL     1     -50.901  27.058  25.176  1.00  0.00     0.021 C 
ATOM     58  C   UNL     1     -50.796  25.901  26.177  1.00  0.00    -0.018 C 
ATOM     59  H   UNL     1     -48.713  25.631  25.437  1.00  0.00     0.049 H 
ATOM     60  H   UNL     1     -48.801  26.198  27.141  1.00  0.00     0.049 H 
ATOM     61  H   UNL     1     -51.726  27.754  25.342  1.00  0.00     0.049 H 
ATOM     62  H   UNL     1     -50.844  26.765  24.122  1.00  0.00     0.049 H 
ATOM     63  H   UNL     1     -51.088  24.917  25.801  1.00  0.00     0.030 H 
ATOM     64  H   UNL     1     -51.289  26.088  27.137  1.00  0.00     0.030 H 
ENDBRANCH  51  55
ENDBRANCH  39  40
ENDBRANCH  36  39
ENDBRANCH   3  36
BRANCH   4  65
ATOM     65  O   UNL     1     -49.544  34.002  26.552  1.00  0.00    -0.387 OA
ATOM     66  H   UNL     1     -50.056  34.272  25.766  1.00  0.00     0.211 HD
ENDBRANCH   4  65
TORSDOF 9
ENDMDL
MODEL 4
REMARK VINA RESULT:      -9.1      5.774      9.849
REMARK SMILES Nc1ncnc2c1c(-n1ccc(C(F)(F)F)n1)cn2[C@@H]1O[C@H](COc2ccc3ccc(N4CCC4)nc3c2)[C@@H](O)[C@@H]1F
REMARK SMILES IDX 20 1 21 2 22 3 39 4 41 5 42 6 19 11 2 12 3 13 7 14 4 15 6 16
REMARK SMILES IDX 8 17 5 18 18 20 1 22 9 25 10 26 17 27 11 28 12 30 13 32
REMARK SMILES IDX 14 33 15 34 16 35 23 36 24 39 25 40 26 41 38 42 27 43 37 45
REMARK SMILES IDX 28 47 36 49 29 50 31 51 30 52 32 55 33 56 35 57 34 58 40 65
REMARK H PARENT 20 7 22 8 39 9 41 10 4 19 18 21 1 23 1 24 10 29 11 31 23 37
REMARK H PARENT 23 38 26 44 38 46 27 48 29 53 30 54 33 59 33 60 35 61 35 62
REMARK H PARENT 34 63 34 64 40 66
REMARK Flexibility Score: inf
ROOT
ATOM      1  C   UNL     1     -42.894  43.543  26.629  1.00  0.00     0.170 C 
ATOM      2  O   UNL     1     -44.018  44.253  26.073  1.00  0.00    -0.345 OA
ATOM      3  C   UNL     1     -43.809  44.446  24.659  1.00  0.00     0.123 C 
ATOM      4  C   UNL     1     -42.648  43.539  24.261  1.00  0.00     0.119 C 
ATOM      5  C   UNL     1     -41.839  43.461  25.538  1.00  0.00     0.173 C 
ATOM      6  F   UNL     1     -41.119  42.315  25.568  1.00  0.00    -0.239 F 
ATOM      7  H   UNL     1     -42.524  44.131  27.474  1.00  0.00     0.088 H 
ATOM      8  H   UNL     1     -43.561  45.505  24.519  1.00  0.00     0.067 H 
ATOM      9  H   UNL     1     -42.984  42.542  23.960  1.00  0.00     0.066 H 
ATOM     10  H   UNL     1     -41.138  44.301  25.603  1.00  0.00     0.074 H 
ENDROOT
BRANCH   1  11
ATOM     11  N   UNL     1     -43.386  42.274  27.142  1.00  0.00    -0.301 N 
ATOM     12  C   UNL     1     -43.247  39.715  29.592  1.00  0.00     0.138 A 
ATOM     13  N   UNL     1     -42.177  40.097  30.315  1.00  0.00    -0.219 NA
ATOM     14  C   UNL     1     -43.684  40.523  28.527  1.00  0.00     0.087 A 
ATOM     15  C   UNL     1     -41.530  41.220  29.964  1.00  0.00     0.120 A 
ATOM     16  C   UNL     1     -42.886  41.635  28.251  1.00  0.00     0.149 A 
ATOM     17  C   UNL     1     -44.733  40.544  27.559  1.00  0.00     0.096 A 
ATOM     18  N   UNL     1     -41.803  42.037  28.937  1.00  0.00    -0.218 NA
ATOM     19  H   UNL     1     -40.679  41.492  30.580  1.00  0.00     0.106 H 
ATOM     20  C   UNL     1     -44.468  41.576  26.678  1.00  0.00     0.035 A 
ATOM     21  H   UNL     1     -45.037  41.900  25.819  1.00  0.00     0.084 H 
BRANCH  12  22
ATOM     22  N   UNL     1     -43.788  38.480  29.934  1.00  0.00    -0.383 N 
ATOM     23  H   UNL     1     -43.357  38.074  30.757  1.00  0.00     0.158 HD
ATOM     24  H   UNL     1     -44.797  38.578  30.006  1.00  0.00     0.158 HD
ENDBRANCH  12  22
BRANCH  17  25
ATOM     25  N   UNL     1     -45.893  39.725  27.442  1.00  0.00    -0.238 N 
ATOM     26  C   UNL     1     -47.210  40.117  27.411  1.00  0.00     0.031 A 
ATOM     27  N   UNL     1     -45.784  38.378  27.283  1.00  0.00    -0.163 NA
ATOM     28  C   UNL     1     -47.972  38.988  27.241  1.00  0.00    -0.011 A 
ATOM     29  H   UNL     1     -47.493  41.158  27.447  1.00  0.00     0.084 H 
ATOM     30  C   UNL     1     -47.044  37.923  27.156  1.00  0.00     0.166 A 
ATOM     31  H   UNL     1     -49.049  38.932  27.152  1.00  0.00     0.066 H 
BRANCH  30  32
ATOM     32  C   UNL     1     -47.365  36.464  26.982  1.00  0.00     0.435 C 
ATOM     33  F   UNL     1     -46.847  35.919  25.850  1.00  0.00    -0.164 F 
ATOM     34  F   UNL     1     -46.886  35.724  28.022  1.00  0.00    -0.164 F 
ATOM     35  F   UNL     1     -48.707  36.232  26.952  1.00  0.00    -0.164 F 
ENDBRANCH  30  32
ENDBRANCH  17  25
ENDBRANCH   1  11
BRANCH   3  36
ATOM     36  C   UNL     1     -45.084  44.120  23.863  1.00  0.00     0.117 C 
ATOM     37  H   UNL     1     -44.803  43.760  22.866  1.00  0.00     0.073 H 
ATOM     38  H   UNL     1     -45.647  43.310  24.339  1.00  0.00     0.073 H 
BRANCH  36  39
ATOM     39  O   UNL     1     -45.897  45.294  23.669  1.00  0.00    -0.491 OA
BRANCH  39  40
ATOM     40  C   UNL     1     -47.142  45.152  24.230  1.00  0.00     0.121 A 
ATOM     41  C   UNL     1     -48.056  46.181  24.042  1.00  0.00    -0.019 A 
ATOM     42  C   UNL     1     -47.507  44.004  24.936  1.00  0.00     0.007 A 
ATOM     43  C   UNL     1     -49.313  46.096  24.635  1.00  0.00    -0.049 A 
ATOM     44  H   UNL     1     -47.777  47.062  23.472  1.00  0.00     0.066 H 
ATOM     45  C   UNL     1     -48.758  43.891  25.528  1.00  0.00     0.076 A 
ATOM     46  H   UNL     1     -46.806  43.181  25.041  1.00  0.00     0.069 H 
ATOM     47  C   UNL     1     -49.662  44.962  25.386  1.00  0.00     0.001 A 
ATOM     48  H   UNL     1     -50.012  46.919  24.514  1.00  0.00     0.063 H 
ATOM     49  N   UNL     1     -49.069  42.776  26.214  1.00  0.00    -0.231 NA
ATOM     50  C   UNL     1     -50.905  44.852  26.012  1.00  0.00    -0.049 A 
ATOM     51  C   UNL     1     -50.281  42.672  26.803  1.00  0.00     0.129 A 
ATOM     52  C   UNL     1     -51.212  43.703  26.732  1.00  0.00    -0.019 A 
ATOM     53  H   UNL     1     -51.637  45.653  25.947  1.00  0.00     0.063 H 
ATOM     54  H   UNL     1     -52.172  43.618  27.228  1.00  0.00     0.066 H 
BRANCH  51  55
ATOM     55  N   UNL     1     -50.577  41.499  27.524  1.00  0.00    -0.356 N 
ATOM     56  C   UNL     1     -51.855  40.842  27.483  1.00  0.00     0.021 C 
ATOM     57  C   UNL     1     -50.454  41.307  28.939  1.00  0.00     0.021 C 
ATOM     58  C   UNL     1     -51.430  40.135  28.775  1.00  0.00    -0.018 C 
ATOM     59  H   UNL     1     -52.697  41.535  27.594  1.00  0.00     0.049 H 
ATOM     60  H   UNL     1     -51.996  40.201  26.612  1.00  0.00     0.049 H 
ATOM     61  H   UNL     1     -49.444  41.040  29.258  1.00  0.00     0.049 H 
ATOM     62  H   UNL     1     -50.838  42.149  29.523  1.00  0.00     0.049 H 
ATOM     63  H   UNL     1     -52.199  40.043  29.545  1.00  0.00     0.030 H 
ATOM     64  H   UNL     1     -50.947  39.163  28.620  1.00  0.00     0.030 H 
ENDBRANCH  51  55
ENDBRANCH  39  40
ENDBRANCH  36  39
ENDBRANCH   3  36
BRANCH   4  65
ATOM     65  O   UNL     1     -41.902  44.084  23.177  1.00  0.00    -0.387 OA
ATOM     66  H   UNL     1     -42.463  44.022  22.382  1.00  0.00     0.211 HD
ENDBRANCH   4  65
TORSDOF 9
ENDMDL
MODEL 5
REMARK VINA RESULT:      -9.0      3.435      5.923
REMARK SMILES Nc1ncnc2c1c(-n1ccc(C(F)(F)F)n1)cn2[C@@H]1O[C@H](COc2ccc3ccc(N4CCC4)nc3c2)[C@@H](O)[C@@H]1F
REMARK SMILES IDX 20 1 21 2 22 3 39 4 41 5 42 6 19 11 2 12 3 13 7 14 4 15 6 16
REMARK SMILES IDX 8 17 5 18 18 20 1 22 9 25 10 26 17 27 11 28 12 30 13 32
REMARK SMILES IDX 14 33 15 34 16 35 23 36 24 39 25 40 26 41 38 42 27 43 37 45
REMARK SMILES IDX 28 47 36 49 29 50 31 51 30 52 32 55 33 56 35 57 34 58 40 65
REMARK H PARENT 20 7 22 8 39 9 41 10 4 19 18 21 1 23 1 24 10 29 11 31 23 37
REMARK H PARENT 23 38 26 44 38 46 27 48 29 53 30 54 33 59 33 60 35 61 35 62
REMARK H PARENT 34 63 34 64 40 66
REMARK Flexibility Score: inf
ROOT
ATOM      1  C   UNL     1     -44.277  43.085  25.341  1.00  0.00     0.170 C 
ATOM      2  O   UNL     1     -44.212  41.647  25.394  1.00  0.00    -0.345 OA
ATOM      3  C   UNL     1     -43.434  41.246  26.540  1.00  0.00     0.123 C 
ATOM      4  C   UNL     1     -43.273  42.486  27.414  1.00  0.00     0.119 C 
ATOM      5  C   UNL     1     -43.325  43.611  26.402  1.00  0.00     0.173 C 
ATOM      6  F   UNL     1     -43.750  44.752  26.992  1.00  0.00    -0.239 F 
ATOM      7  H   UNL     1     -43.943  43.390  24.344  1.00  0.00     0.088 H 
ATOM      8  H   UNL     1     -42.469  40.893  26.158  1.00  0.00     0.067 H 
ATOM      9  H   UNL     1     -44.084  42.590  28.142  1.00  0.00     0.066 H 
ATOM     10  H   UNL     1     -42.330  43.798  25.982  1.00  0.00     0.074 H 
ENDROOT
BRANCH   1  11
ATOM     11  N   UNL     1     -45.674  43.468  25.486  1.00  0.00    -0.301 N 
ATOM     12  C   UNL     1     -48.494  45.237  24.266  1.00  0.00     0.138 A 
ATOM     13  N   UNL     1     -47.955  45.919  23.237  1.00  0.00    -0.219 NA
ATOM     14  C   UNL     1     -47.690  44.344  24.997  1.00  0.00     0.087 A 
ATOM     15  C   UNL     1     -46.648  45.757  22.971  1.00  0.00     0.120 A 
ATOM     16  C   UNL     1     -46.342  44.315  24.636  1.00  0.00     0.149 A 
ATOM     17  C   UNL     1     -47.823  43.426  26.083  1.00  0.00     0.096 A 
ATOM     18  N   UNL     1     -45.766  44.993  23.628  1.00  0.00    -0.218 NA
ATOM     19  H   UNL     1     -46.261  46.321  22.128  1.00  0.00     0.106 H 
ATOM     20  C   UNL     1     -46.557  42.979  26.410  1.00  0.00     0.035 A 
ATOM     21  H   UNL     1     -46.259  42.276  27.175  1.00  0.00     0.084 H 
BRANCH  12  22
ATOM     22  N   UNL     1     -49.816  45.549  24.561  1.00  0.00    -0.383 N 
ATOM     23  H   UNL     1     -50.444  44.762  24.442  1.00  0.00     0.158 HD
ATOM     24  H   UNL     1     -49.851  45.964  25.487  1.00  0.00     0.158 HD
ENDBRANCH  12  22
BRANCH  17  25
ATOM     25  N   UNL     1     -48.989  42.967  26.761  1.00  0.00    -0.238 N 
ATOM     26  C   UNL     1     -50.164  42.508  26.215  1.00  0.00     0.031 A 
ATOM     27  N   UNL     1     -49.021  42.887  28.118  1.00  0.00    -0.163 NA
ATOM     28  C   UNL     1     -50.981  42.133  27.252  1.00  0.00    -0.011 A 
ATOM     29  H   UNL     1     -50.298  42.424  25.148  1.00  0.00     0.084 H 
ATOM     30  C   UNL     1     -50.228  42.377  28.425  1.00  0.00     0.166 A 
ATOM     31  H   UNL     1     -51.974  41.707  27.183  1.00  0.00     0.066 H 
BRANCH  30  32
ATOM     32  C   UNL     1     -50.675  42.147  29.843  1.00  0.00     0.435 C 
ATOM     33  F   UNL     1     -50.838  40.837  30.162  1.00  0.00    -0.164 F 
ATOM     34  F   UNL     1     -49.776  42.654  30.734  1.00  0.00    -0.164 F 
ATOM     35  F   UNL     1     -51.856  42.769  30.118  1.00  0.00    -0.164 F 
ENDBRANCH  30  32
ENDBRANCH  17  25
ENDBRANCH   1  11
BRANCH   3  36
ATOM     36  C   UNL     1     -44.122  40.099  27.301  1.00  0.00     0.117 C 
ATOM     37  H   UNL     1     -44.328  39.278  26.604  1.00  0.00     0.073 H 
ATOM     38  H   UNL     1     -43.462  39.692  28.075  1.00  0.00     0.073 H 
BRANCH  36  39
ATOM     39  O   UNL     1     -45.389  40.515  27.845  1.00  0.00    -0.491 OA
BRANCH  39  40
ATOM     40  C   UNL     1     -46.334  39.524  27.756  1.00  0.00     0.121 A 
ATOM     41  C   UNL     1     -47.626  39.823  28.172  1.00  0.00    -0.019 A 
ATOM     42  C   UNL     1     -46.037  38.265  27.232  1.00  0.00     0.007 A 
ATOM     43  C   UNL     1     -48.602  38.832  28.142  1.00  0.00    -0.049 A 
ATOM     44  H   UNL     1     -47.859  40.811  28.557  1.00  0.00     0.066 H 
ATOM     45  C   UNL     1     -46.995  37.261  27.180  1.00  0.00     0.076 A 
ATOM     46  H   UNL     1     -45.038  38.048  26.863  1.00  0.00     0.069 H 
ATOM     47  C   UNL     1     -48.289  37.550  27.659  1.00  0.00     0.001 A 
ATOM     48  H   UNL     1     -49.602  39.061  28.501  1.00  0.00     0.063 H 
ATOM     49  N   UNL     1     -46.667  36.055  26.684  1.00  0.00    -0.231 NA
ATOM     50  C   UNL     1     -49.236  36.525  27.634  1.00  0.00    -0.049 A 
ATOM     51  C   UNL     1     -47.595  35.074  26.648  1.00  0.00     0.129 A 
ATOM     52  C   UNL     1     -48.883  35.277  27.133  1.00  0.00    -0.019 A 
ATOM     53  H   UNL     1     -50.245  36.687  28.002  1.00  0.00     0.063 H 
ATOM     54  H   UNL     1     -49.613  34.476  27.120  1.00  0.00     0.066 H 
BRANCH  51  55
ATOM     55  N   UNL     1     -47.223  33.818  26.132  1.00  0.00    -0.356 N 
ATOM     56  C   UNL     1     -46.293  33.646  25.049  1.00  0.00     0.021 C 
ATOM     57  C   UNL     1     -48.100  32.806  25.620  1.00  0.00     0.021 C 
ATOM     58  C   UNL     1     -46.875  32.237  24.894  1.00  0.00    -0.018 C 
ATOM     59  H   UNL     1     -46.487  34.320  24.207  1.00  0.00     0.049 H 
ATOM     60  H   UNL     1     -45.246  33.700  25.352  1.00  0.00     0.049 H 
ATOM     61  H   UNL     1     -48.530  32.166  26.394  1.00  0.00     0.049 H 
ATOM     62  H   UNL     1     -48.882  33.204  24.965  1.00  0.00     0.049 H 
ATOM     63  H   UNL     1     -47.042  31.900  23.868  1.00  0.00     0.030 H 
ATOM     64  H   UNL     1     -46.337  31.462  25.452  1.00  0.00     0.030 H 
ENDBRANCH  51  55
ENDBRANCH  39  40
ENDBRANCH  36  39
ENDBRANCH   3  36
BRANCH   4  65
ATOM     65  O   UNL     1     -42.047  42.463  28.139  1.00  0.00    -0.387 OA
ATOM     66  H   UNL     1     -41.352  42.795  27.540  1.00  0.00     0.211 HD
ENDBRANCH   4  65
TORSDOF 9
ENDMDL
MODEL 6
REMARK VINA RESULT:      -8.8      1.502      2.152
REMARK SMILES Nc1ncnc2c1c(-n1ccc(C(F)(F)F)n1)cn2[C@@H]1O[C@H](COc2ccc3ccc(N4CCC4)nc3c2)[C@@H](O)[C@@H]1F
REMARK SMILES IDX 20 1 21 2 22 3 39 4 41 5 42 6 19 11 2 12 3 13 7 14 4 15 6 16
REMARK SMILES IDX 8 17 5 18 18 20 1 22 9 25 10 26 17 27 11 28 12 30 13 32
REMARK SMILES IDX 14 33 15 34 16 35 23 36 24 39 25 40 26 41 38 42 27 43 37 45
REMARK SMILES IDX 28 47 36 49 29 50 31 51 30 52 32 55 33 56 35 57 34 58 40 65
REMARK H PARENT 20 7 22 8 39 9 41 10 4 19 18 21 1 23 1 24 10 29 11 31 23 37
REMARK H PARENT 23 38 26 44 38 46 27 48 29 53 30 54 33 59 33 60 35 61 35 62
REMARK H PARENT 34 63 34 64 40 66
REMARK Flexibility Score: inf
ROOT
ATOM      1  C   UNL     1     -44.936  38.196  28.944  1.00  0.00     0.170 C 
ATOM      2  O   UNL     1     -44.631  37.246  27.904  1.00  0.00    -0.345 OA
ATOM      3  C   UNL     1     -45.238  35.977  28.223  1.00  0.00     0.123 C 
ATOM      4  C   UNL     1     -46.227  36.239  29.356  1.00  0.00     0.119 C 
ATOM      5  C   UNL     1     -45.607  37.423  30.067  1.00  0.00     0.173 C 
ATOM      6  F   UNL     1     -46.560  38.131  30.716  1.00  0.00    -0.239 F 
ATOM      7  H   UNL     1     -43.987  38.619  29.286  1.00  0.00     0.088 H 
ATOM      8  H   UNL     1     -44.427  35.311  28.540  1.00  0.00     0.067 H 
ATOM      9  H   UNL     1     -47.225  36.495  28.985  1.00  0.00     0.066 H 
ATOM     10  H   UNL     1     -44.873  37.086  30.808  1.00  0.00     0.074 H 
ENDROOT
BRANCH   1  11
ATOM     11  N   UNL     1     -45.719  39.267  28.346  1.00  0.00    -0.301 N 
ATOM     12  C   UNL     1     -45.914  42.039  26.145  1.00  0.00     0.138 A 
ATOM     13  N   UNL     1     -44.625  42.178  25.777  1.00  0.00    -0.219 NA
ATOM     14  C   UNL     1     -46.278  40.980  26.995  1.00  0.00     0.087 A 
ATOM     15  C   UNL     1     -43.718  41.321  26.275  1.00  0.00     0.120 A 
ATOM     16  C   UNL     1     -45.222  40.199  27.468  1.00  0.00     0.149 A 
ATOM     17  C   UNL     1     -47.459  40.441  27.589  1.00  0.00     0.096 A 
ATOM     18  N   UNL     1     -43.924  40.318  27.138  1.00  0.00    -0.218 NA
ATOM     19  H   UNL     1     -42.695  41.467  25.944  1.00  0.00     0.106 H 
ATOM     20  C   UNL     1     -47.069  39.454  28.475  1.00  0.00     0.035 A 
ATOM     21  H   UNL     1     -47.679  38.823  29.104  1.00  0.00     0.084 H 
BRANCH  12  22
ATOM     22  N   UNL     1     -46.773  43.035  25.693  1.00  0.00    -0.383 N 
ATOM     23  H   UNL     1     -47.190  43.569  26.446  1.00  0.00     0.158 HD
ATOM     24  H   UNL     1     -46.278  43.604  25.012  1.00  0.00     0.158 HD
ENDBRANCH  12  22
BRANCH  17  25
ATOM     25  N   UNL     1     -48.829  40.763  27.368  1.00  0.00    -0.238 N 
ATOM     26  C   UNL     1     -49.941  40.145  27.888  1.00  0.00     0.031 A 
ATOM     27  N   UNL     1     -49.181  41.831  26.603  1.00  0.00    -0.163 NA
ATOM     28  C   UNL     1     -51.042  40.828  27.434  1.00  0.00    -0.011 A 
ATOM     29  H   UNL     1     -49.861  39.323  28.581  1.00  0.00     0.084 H 
ATOM     30  C   UNL     1     -50.525  41.880  26.641  1.00  0.00     0.166 A 
ATOM     31  H   UNL     1     -52.080  40.626  27.665  1.00  0.00     0.066 H 
BRANCH  30  32
ATOM     32  C   UNL     1     -51.321  42.917  25.896  1.00  0.00     0.435 C 
ATOM     33  F   UNL     1     -51.806  42.485  24.703  1.00  0.00    -0.164 F 
ATOM     34  F   UNL     1     -52.396  43.332  26.623  1.00  0.00    -0.164 F 
ATOM     35  F   UNL     1     -50.593  44.041  25.641  1.00  0.00    -0.164 F 
ENDBRANCH  30  32
ENDBRANCH  17  25
ENDBRANCH   1  11
BRANCH   3  36
ATOM     36  C   UNL     1     -45.932  35.372  26.991  1.00  0.00     0.117 C 
ATOM     37  H   UNL     1     -45.772  36.029  26.129  1.00  0.00     0.073 H 
ATOM     38  H   UNL     1     -45.491  34.403  26.730  1.00  0.00     0.073 H 
BRANCH  36  39
ATOM     39  O   UNL     1     -47.356  35.274  27.185  1.00  0.00    -0.491 OA
BRANCH  39  40
ATOM     40  C   UNL     1     -47.897  34.227  26.482  1.00  0.00     0.121 A 
ATOM     41  C   UNL     1     -49.278  34.073  26.513  1.00  0.00    -0.019 A 
ATOM     42  C   UNL     1     -47.108  33.359  25.725  1.00  0.00     0.007 A 
ATOM     43  C   UNL     1     -49.862  32.996  25.852  1.00  0.00    -0.049 A 
ATOM     44  H   UNL     1     -49.891  34.764  27.084  1.00  0.00     0.066 H 
ATOM     45  C   UNL     1     -47.667  32.284  25.048  1.00  0.00     0.076 A 
ATOM     46  H   UNL     1     -46.034  33.510  25.664  1.00  0.00     0.069 H 
ATOM     47  C   UNL     1     -49.061  32.096  25.131  1.00  0.00     0.001 A 
ATOM     48  H   UNL     1     -50.939  32.860  25.909  1.00  0.00     0.063 H 
ATOM     49  N   UNL     1     -46.873  31.459  24.342  1.00  0.00    -0.231 NA
ATOM     50  C   UNL     1     -49.610  30.992  24.474  1.00  0.00    -0.049 A 
ATOM     51  C   UNL     1     -47.415  30.403  23.695  1.00  0.00     0.129 A 
ATOM     52  C   UNL     1     -48.779  30.137  23.758  1.00  0.00    -0.019 A 
ATOM     53  H   UNL     1     -50.676  30.791  24.514  1.00  0.00     0.063 H 
ATOM     54  H   UNL     1     -49.199  29.274  23.255  1.00  0.00     0.066 H 
BRANCH  51  55
ATOM     55  N   UNL     1     -46.560  29.550  22.971  1.00  0.00    -0.356 N 
ATOM     56  C   UNL     1     -46.059  28.303  23.484  1.00  0.00     0.021 C 
ATOM     57  C   UNL     1     -45.293  29.892  22.395  1.00  0.00     0.021 C 
ATOM     58  C   UNL     1     -44.989  28.389  22.390  1.00  0.00    -0.018 C 
ATOM     59  H   UNL     1     -45.678  28.384  24.508  1.00  0.00     0.049 H 
ATOM     60  H   UNL     1     -46.764  27.475  23.399  1.00  0.00     0.049 H 
ATOM     61  H   UNL     1     -45.372  30.361  21.412  1.00  0.00     0.049 H 
ATOM     62  H   UNL     1     -44.663  30.489  23.062  1.00  0.00     0.049 H 
ATOM     63  H   UNL     1     -43.977  28.105  22.689  1.00  0.00     0.030 H 
ATOM     64  H   UNL     1     -45.254  27.876  21.458  1.00  0.00     0.030 H 
ENDBRANCH  51  55
ENDBRANCH  39  40
ENDBRANCH  36  39
ENDBRANCH   3  36
BRANCH   4  65
ATOM     65  O   UNL     1     -46.365  35.105  30.206  1.00  0.00    -0.387 OA
ATOM     66  H   UNL     1     -45.781  34.408  29.853  1.00  0.00     0.211 HD
ENDBRANCH   4  65
TORSDOF 9
ENDMDL
MODEL 7
REMARK VINA RESULT:      -8.7      2.404      4.097
REMARK SMILES Nc1ncnc2c1c(-n1ccc(C(F)(F)F)n1)cn2[C@@H]1O[C@H](COc2ccc3ccc(N4CCC4)nc3c2)[C@@H](O)[C@@H]1F
REMARK SMILES IDX 20 1 21 2 22 3 39 4 41 5 42 6 19 11 2 12 3 13 7 14 4 15 6 16
REMARK SMILES IDX 8 17 5 18 18 20 1 22 9 25 10 26 17 27 11 28 12 30 13 32
REMARK SMILES IDX 14 33 15 34 16 35 23 36 24 39 25 40 26 41 38 42 27 43 37 45
REMARK SMILES IDX 28 47 36 49 29 50 31 51 30 52 32 55 33 56 35 57 34 58 40 65
REMARK H PARENT 20 7 22 8 39 9 41 10 4 19 18 21 1 23 1 24 10 29 11 31 23 37
REMARK H PARENT 23 38 26 44 38 46 27 48 29 53 30 54 33 59 33 60 35 61 35 62
REMARK H PARENT 34 63 34 64 40 66
REMARK Flexibility Score: inf
ROOT
ATOM      1  C   UNL     1     -43.699  41.484  26.134  1.00  0.00     0.170 C 
ATOM      2  O   UNL     1     -44.335  40.224  25.843  1.00  0.00    -0.345 OA
ATOM      3  C   UNL     1     -44.472  39.464  27.061  1.00  0.00     0.123 C 
ATOM      4  C   UNL     1     -44.192  40.429  28.211  1.00  0.00     0.119 C 
ATOM      5  C   UNL     1     -43.239  41.423  27.582  1.00  0.00     0.173 C 
ATOM      6  F   UNL     1     -43.313  42.613  28.222  1.00  0.00    -0.239 F 
ATOM      7  H   UNL     1     -42.839  41.576  25.464  1.00  0.00     0.088 H 
ATOM      8  H   UNL     1     -43.726  38.661  27.018  1.00  0.00     0.067 H 
ATOM      9  H   UNL     1     -45.098  40.935  28.558  1.00  0.00     0.066 H 
ATOM     10  H   UNL     1     -42.206  41.065  27.653  1.00  0.00     0.074 H 
ENDROOT
BRANCH   1  11
ATOM     11  N   UNL     1     -44.645  42.540  25.805  1.00  0.00    -0.301 N 
ATOM     12  C   UNL     1     -45.534  45.319  23.792  1.00  0.00     0.138 A 
ATOM     13  N   UNL     1     -44.414  45.487  23.062  1.00  0.00    -0.219 NA
ATOM     14  C   UNL     1     -45.610  44.247  24.699  1.00  0.00     0.087 A 
ATOM     15  C   UNL     1     -43.384  44.649  23.260  1.00  0.00     0.120 A 
ATOM     16  C   UNL     1     -44.447  43.487  24.831  1.00  0.00     0.149 A 
ATOM     17  C   UNL     1     -46.553  43.679  25.608  1.00  0.00     0.096 A 
ATOM     18  N   UNL     1     -43.307  43.637  24.135  1.00  0.00    -0.218 NA
ATOM     19  H   UNL     1     -42.507  44.819  22.644  1.00  0.00     0.106 H 
ATOM     20  C   UNL     1     -45.900  42.696  26.329  1.00  0.00     0.035 A 
ATOM     21  H   UNL     1     -46.285  42.049  27.103  1.00  0.00     0.084 H 
BRANCH  12  22
ATOM     22  N   UNL     1     -46.508  46.297  23.625  1.00  0.00    -0.383 N 
ATOM     23  H   UNL     1     -46.177  47.227  23.856  1.00  0.00     0.158 HD
ATOM     24  H   UNL     1     -46.885  46.219  22.685  1.00  0.00     0.158 HD
ENDBRANCH  12  22
BRANCH  17  25
ATOM     25  N   UNL     1     -47.933  43.973  25.805  1.00  0.00    -0.238 N 
ATOM     26  C   UNL     1     -48.494  45.127  26.296  1.00  0.00     0.031 A 
ATOM     27  N   UNL     1     -48.895  43.081  25.445  1.00  0.00    -0.163 NA
ATOM     28  C   UNL     1     -49.858  44.969  26.263  1.00  0.00    -0.011 A 
ATOM     29  H   UNL     1     -47.892  45.981  26.565  1.00  0.00     0.084 H 
ATOM     30  C   UNL     1     -50.069  43.681  25.716  1.00  0.00     0.166 A 
ATOM     31  H   UNL     1     -50.608  45.692  26.556  1.00  0.00     0.066 H 
BRANCH  30  32
ATOM     32  C   UNL     1     -51.396  43.013  25.479  1.00  0.00     0.435 C 
ATOM     33  F   UNL     1     -51.717  42.880  24.165  1.00  0.00    -0.164 F 
ATOM     34  F   UNL     1     -51.420  41.758  26.011  1.00  0.00    -0.164 F 
ATOM     35  F   UNL     1     -52.424  43.684  26.070  1.00  0.00    -0.164 F 
ENDBRANCH  30  32
ENDBRANCH  17  25
ENDBRANCH   1  11
BRANCH   3  36
ATOM     36  C   UNL     1     -45.874  38.842  27.171  1.00  0.00     0.117 C 
ATOM     37  H   UNL     1     -46.556  39.569  27.625  1.00  0.00     0.073 H 
ATOM     38  H   UNL     1     -46.278  38.612  26.179  1.00  0.00     0.073 H 
BRANCH  36  39
ATOM     39  O   UNL     1     -45.869  37.682  28.026  1.00  0.00    -0.491 OA
BRANCH  39  40
ATOM     40  C   UNL     1     -46.700  36.696  27.556  1.00  0.00     0.121 A 
ATOM     41  C   UNL     1     -48.060  36.824  27.805  1.00  0.00    -0.019 A 
ATOM     42  C   UNL     1     -46.217  35.614  26.819  1.00  0.00     0.007 A 
ATOM     43  C   UNL     1     -48.931  35.822  27.386  1.00  0.00    -0.049 A 
ATOM     44  H   UNL     1     -48.435  37.680  28.359  1.00  0.00     0.066 H 
ATOM     45  C   UNL     1     -47.065  34.606  26.380  1.00  0.00     0.076 A 
ATOM     46  H   UNL     1     -45.158  35.540  26.584  1.00  0.00     0.069 H 
ATOM     47  C   UNL     1     -48.437  34.709  26.686  1.00  0.00     0.001 A 
ATOM     48  H   UNL     1     -49.990  35.910  27.614  1.00  0.00     0.063 H 
ATOM     49  N   UNL     1     -46.561  33.570  25.685  1.00  0.00    -0.231 NA
ATOM     50  C   UNL     1     -49.276  33.674  26.270  1.00  0.00    -0.049 A 
ATOM     51  C   UNL     1     -47.384  32.581  25.271  1.00  0.00     0.129 A 
ATOM     52  C   UNL     1     -48.744  32.600  25.565  1.00  0.00    -0.019 A 
ATOM     53  H   UNL     1     -50.340  33.695  26.489  1.00  0.00     0.063 H 
ATOM     54  H   UNL     1     -49.391  31.790  25.248  1.00  0.00     0.066 H 
BRANCH  51  55
ATOM     55  N   UNL     1     -46.830  31.504  24.555  1.00  0.00    -0.356 N 
ATOM     56  C   UNL     1     -46.177  31.647  23.281  1.00  0.00     0.021 C 
ATOM     57  C   UNL     1     -47.505  30.308  24.143  1.00  0.00     0.021 C 
ATOM     58  C   UNL     1     -46.386  30.139  23.108  1.00  0.00    -0.018 C 
ATOM     59  H   UNL     1     -46.739  32.274  22.580  1.00  0.00     0.049 H 
ATOM     60  H   UNL     1     -45.141  31.980  23.350  1.00  0.00     0.049 H 
ATOM     61  H   UNL     1     -47.551  29.542  24.920  1.00  0.00     0.049 H 
ATOM     62  H   UNL     1     -48.498  30.498  23.723  1.00  0.00     0.049 H 
ATOM     63  H   UNL     1     -46.701  29.811  22.114  1.00  0.00     0.030 H 
ATOM     64  H   UNL     1     -45.545  29.524  23.448  1.00  0.00     0.030 H 
ENDBRANCH  51  55
ENDBRANCH  39  40
ENDBRANCH  36  39
ENDBRANCH   3  36
BRANCH   4  65
ATOM     65  O   UNL     1     -43.619  39.761  29.331  1.00  0.00    -0.387 OA
ATOM     66  H   UNL     1     -43.512  38.823  29.083  1.00  0.00     0.211 HD
ENDBRANCH   4  65
TORSDOF 9
ENDMDL
