MODEL 1
REMARK VINA RESULT:      -9.9      0.000      0.000
REMARK SMILES CNc1ccc2ccc(OC[C@H]3O[C@@H](n4cc(Br)c5c(N)ncnc54)C[C@@H]3O)cc2n1
REMARK SMILES IDX 11 1 10 4 9 5 3 6 4 7 31 8 5 9 30 11 6 12 29 14 7 15 8 17
REMARK SMILES IDX 2 20 1 22 12 26 13 27 27 28 14 30 26 31 28 36 15 38 16 39
REMARK SMILES IDX 25 40 17 41 19 43 24 44 18 45 20 46 23 47 22 48 21 50
REMARK H PARENT 11 2 11 3 4 10 5 13 29 16 7 18 8 19 2 21 1 23 1 24 1 25 12 29
REMARK H PARENT 27 32 14 33 26 34 26 35 28 37 16 42 23 49 21 51 21 52
REMARK Flexibility Score: inf
ROOT
ATOM      1  C   UNL     1     -46.188  35.556  26.883  1.00  0.00     0.117 C 
ATOM      2  H   UNL     1     -45.918  36.304  26.126  1.00  0.00     0.073 H 
ATOM      3  H   UNL     1     -45.474  34.725  26.820  1.00  0.00     0.073 H 
ENDROOT
BRANCH   1   4
ATOM      4  O   UNL     1     -47.523  35.092  26.675  1.00  0.00    -0.491 OA
BRANCH   4   5
ATOM      5  C   UNL     1     -47.673  33.916  25.992  1.00  0.00     0.121 A 
ATOM      6  C   UNL     1     -46.382  30.573  22.860  1.00  0.00     0.126 A 
ATOM      7  C   UNL     1     -47.512  29.811  23.135  1.00  0.00    -0.019 A 
ATOM      8  N   UNL     1     -46.146  31.740  23.494  1.00  0.00    -0.231 NA
ATOM      9  C   UNL     1     -48.436  30.270  24.068  1.00  0.00    -0.049 A 
ATOM     10  H   UNL     1     -47.669  28.861  22.636  1.00  0.00     0.066 H 
ATOM     11  C   UNL     1     -47.032  32.190  24.399  1.00  0.00     0.076 A 
ATOM     12  C   UNL     1     -48.207  31.484  24.721  1.00  0.00     0.001 A 
ATOM     13  H   UNL     1     -49.320  29.676  24.283  1.00  0.00     0.063 H 
ATOM     14  C   UNL     1     -46.787  33.397  25.045  1.00  0.00     0.007 A 
ATOM     15  C   UNL     1     -49.103  31.994  25.672  1.00  0.00    -0.049 A 
ATOM     16  H   UNL     1     -45.872  33.916  24.777  1.00  0.00     0.069 H 
ATOM     17  C   UNL     1     -48.832  33.208  26.302  1.00  0.00    -0.019 A 
ATOM     18  H   UNL     1     -50.010  31.453  25.927  1.00  0.00     0.063 H 
ATOM     19  H   UNL     1     -49.529  33.597  27.040  1.00  0.00     0.066 H 
BRANCH   6  20
ATOM     20  N   UNL     1     -45.457  30.063  21.930  1.00  0.00    -0.373 N 
ATOM     21  H   UNL     1     -44.803  30.799  21.681  1.00  0.00     0.161 HD
BRANCH  20  22
ATOM     22  C   UNL     1     -44.774  28.857  22.367  1.00  0.00     0.005 C 
ATOM     23  H   UNL     1     -44.634  28.844  23.453  1.00  0.00     0.045 H 
ATOM     24  H   UNL     1     -45.388  27.988  22.107  1.00  0.00     0.045 H 
ATOM     25  H   UNL     1     -43.806  28.738  21.868  1.00  0.00     0.045 H 
ENDBRANCH  20  22
ENDBRANCH   6  20
ENDBRANCH   4   5
ENDBRANCH   1   4
BRANCH   1  26
ATOM     26  C   UNL     1     -46.095  36.183  28.273  1.00  0.00     0.120 C 
ATOM     27  O   UNL     1     -44.825  36.828  28.463  1.00  0.00    -0.348 OA
ATOM     28  C   UNL     1     -47.155  37.253  28.514  1.00  0.00     0.088 C 
ATOM     29  H   UNL     1     -46.194  35.389  29.024  1.00  0.00     0.067 H 
ATOM     30  C   UNL     1     -45.046  38.016  29.263  1.00  0.00     0.138 C 
ATOM     31  C   UNL     1     -46.523  38.042  29.636  1.00  0.00     0.022 C 
ATOM     32  H   UNL     1     -47.293  37.893  27.635  1.00  0.00     0.063 H 
ATOM     33  H   UNL     1     -44.400  37.958  30.145  1.00  0.00     0.085 H 
ATOM     34  H   UNL     1     -46.679  37.522  30.591  1.00  0.00     0.034 H 
ATOM     35  H   UNL     1     -46.952  39.042  29.744  1.00  0.00     0.034 H 
BRANCH  28  36
ATOM     36  O   UNL     1     -48.409  36.723  28.902  1.00  0.00    -0.390 OA
ATOM     37  H   UNL     1     -49.091  37.217  28.408  1.00  0.00     0.211 HD
ENDBRANCH  28  36
BRANCH  30  38
ATOM     38  N   UNL     1     -44.628  39.193  28.504  1.00  0.00    -0.304 N 
ATOM     39  C   UNL     1     -45.185  39.680  27.347  1.00  0.00     0.023 A 
ATOM     40  C   UNL     1     -43.576  39.999  28.877  1.00  0.00     0.148 A 
ATOM     41  C   UNL     1     -44.481  40.807  26.997  1.00  0.00     0.049 A 
ATOM     42  H   UNL     1     -46.021  39.186  26.868  1.00  0.00     0.083 H 
ATOM     43  C   UNL     1     -43.459  41.029  27.951  1.00  0.00     0.075 A 
ATOM     44  N   UNL     1     -42.808  39.809  29.964  1.00  0.00    -0.218 NA
ATOM     45  Br  UNL     1     -44.820  41.871  25.488  1.00  0.00    -0.048 Br
ATOM     46  C   UNL     1     -42.433  41.960  28.179  1.00  0.00     0.137 A 
ATOM     47  C   UNL     1     -41.863  40.757  30.073  1.00  0.00     0.120 A 
ATOM     48  N   UNL     1     -41.634  41.798  29.253  1.00  0.00    -0.219 NA
ATOM     49  H   UNL     1     -41.200  40.673  30.929  1.00  0.00     0.106 H 
BRANCH  46  50
ATOM     50  N   UNL     1     -42.169  43.047  27.362  1.00  0.00    -0.383 N 
ATOM     51  H   UNL     1     -41.328  42.977  26.804  1.00  0.00     0.158 HD
ATOM     52  H   UNL     1     -42.330  43.922  27.846  1.00  0.00     0.158 HD
ENDBRANCH  46  50
ENDBRANCH  30  38
ENDBRANCH   1  26
TORSDOF 8
ENDMDL
MODEL 2
REMARK VINA RESULT:      -9.1      5.612     11.634
REMARK SMILES CNc1ccc2ccc(OC[C@H]3O[C@@H](n4cc(Br)c5c(N)ncnc54)C[C@@H]3O)cc2n1
REMARK SMILES IDX 11 1 10 4 9 5 3 6 4 7 31 8 5 9 30 11 6 12 29 14 7 15 8 17
REMARK SMILES IDX 2 20 1 22 12 26 13 27 27 28 14 30 26 31 28 36 15 38 16 39
REMARK SMILES IDX 25 40 17 41 19 43 24 44 18 45 20 46 23 47 22 48 21 50
REMARK H PARENT 11 2 11 3 4 10 5 13 29 16 7 18 8 19 2 21 1 23 1 24 1 25 12 29
REMARK H PARENT 27 32 14 33 26 34 26 35 28 37 16 42 23 49 21 51 21 52
REMARK Flexibility Score: inf
ROOT
ATOM      1  C   UNL     1     -46.727  31.524  23.934  1.00  0.00     0.117 C 
ATOM      2  H   UNL     1     -45.869  30.967  24.333  1.00  0.00     0.073 H 
ATOM      3  H   UNL     1     -46.359  32.457  23.490  1.00  0.00     0.073 H 
ENDROOT
BRANCH   1   4
ATOM      4  O   UNL     1     -47.674  31.795  24.968  1.00  0.00    -0.491 OA
BRANCH   4   5
ATOM      5  C   UNL     1     -47.635  33.040  25.537  1.00  0.00     0.121 A 
ATOM      6  C   UNL     1     -49.456  36.725  27.935  1.00  0.00     0.126 A 
ATOM      7  C   UNL     1     -48.268  37.441  27.833  1.00  0.00    -0.019 A 
ATOM      8  N   UNL     1     -49.582  35.487  27.414  1.00  0.00    -0.231 NA
ATOM      9  C   UNL     1     -47.188  36.879  27.160  1.00  0.00    -0.049 A 
ATOM     10  H   UNL     1     -48.177  38.423  28.283  1.00  0.00     0.066 H 
ATOM     11  C   UNL     1     -48.542  34.936  26.764  1.00  0.00     0.076 A 
ATOM     12  C   UNL     1     -47.312  35.602  26.607  1.00  0.00     0.001 A 
ATOM     13  H   UNL     1     -46.259  37.437  27.079  1.00  0.00     0.063 H 
ATOM     14  C   UNL     1     -48.679  33.662  26.225  1.00  0.00     0.007 A 
ATOM     15  C   UNL     1     -46.256  34.987  25.919  1.00  0.00    -0.049 A 
ATOM     16  H   UNL     1     -49.638  33.173  26.366  1.00  0.00     0.069 H 
ATOM     17  C   UNL     1     -46.422  33.709  25.387  1.00  0.00    -0.019 A 
ATOM     18  H   UNL     1     -45.302  35.494  25.796  1.00  0.00     0.063 H 
ATOM     19  H   UNL     1     -45.599  33.236  24.857  1.00  0.00     0.066 H 
BRANCH   6  20
ATOM     20  N   UNL     1     -50.518  37.314  28.646  1.00  0.00    -0.373 N 
ATOM     21  H   UNL     1     -50.299  37.297  29.637  1.00  0.00     0.161 HD
BRANCH  20  22
ATOM     22  C   UNL     1     -50.873  38.649  28.193  1.00  0.00     0.005 C 
ATOM     23  H   UNL     1     -51.861  38.948  28.557  1.00  0.00     0.045 H 
ATOM     24  H   UNL     1     -50.147  39.364  28.595  1.00  0.00     0.045 H 
ATOM     25  H   UNL     1     -50.842  38.726  27.100  1.00  0.00     0.045 H 
ENDBRANCH  20  22
ENDBRANCH   6  20
ENDBRANCH   4   5
ENDBRANCH   1   4
BRANCH   1  26
ATOM     26  C   UNL     1     -47.408  30.695  22.847  1.00  0.00     0.120 C 
ATOM     27  O   UNL     1     -47.052  29.307  22.957  1.00  0.00    -0.348 OA
ATOM     28  C   UNL     1     -48.931  30.749  22.925  1.00  0.00     0.088 C 
ATOM     29  H   UNL     1     -47.076  31.060  21.866  1.00  0.00     0.067 H 
ATOM     30  C   UNL     1     -48.214  28.521  22.598  1.00  0.00     0.138 C 
ATOM     31  C   UNL     1     -49.306  29.494  22.175  1.00  0.00     0.022 C 
ATOM     32  H   UNL     1     -49.286  30.690  23.961  1.00  0.00     0.063 H 
ATOM     33  H   UNL     1     -47.929  27.843  21.785  1.00  0.00     0.085 H 
ATOM     34  H   UNL     1     -49.250  29.676  21.093  1.00  0.00     0.034 H 
ATOM     35  H   UNL     1     -50.326  29.162  22.389  1.00  0.00     0.034 H 
BRANCH  28  36
ATOM     36  O   UNL     1     -49.484  31.899  22.312  1.00  0.00    -0.390 OA
ATOM     37  H   UNL     1     -48.997  32.670  22.662  1.00  0.00     0.211 HD
ENDBRANCH  28  36
BRANCH  30  38
ATOM     38  N   UNL     1     -48.601  27.686  23.733  1.00  0.00    -0.304 N 
ATOM     39  C   UNL     1     -47.769  27.000  24.585  1.00  0.00     0.023 A 
ATOM     40  C   UNL     1     -49.909  27.477  24.107  1.00  0.00     0.148 A 
ATOM     41  C   UNL     1     -48.565  26.364  25.508  1.00  0.00     0.049 A 
ATOM     42  H   UNL     1     -46.695  27.014  24.462  1.00  0.00     0.083 H 
ATOM     43  C   UNL     1     -49.922  26.652  25.227  1.00  0.00     0.075 A 
ATOM     44  N   UNL     1     -50.981  27.999  23.487  1.00  0.00    -0.218 NA
ATOM     45  Br  UNL     1     -47.944  25.280  26.909  1.00  0.00    -0.048 Br
ATOM     46  C   UNL     1     -51.183  26.336  25.755  1.00  0.00     0.137 A 
ATOM     47  C   UNL     1     -52.127  27.625  24.078  1.00  0.00     0.120 A 
ATOM     48  N   UNL     1     -52.284  26.832  25.154  1.00  0.00    -0.219 NA
ATOM     49  H   UNL     1     -53.041  28.008  23.635  1.00  0.00     0.106 H 
BRANCH  46  50
ATOM     50  N   UNL     1     -51.387  25.529  26.862  1.00  0.00    -0.383 N 
ATOM     51  H   UNL     1     -50.955  25.850  27.719  1.00  0.00     0.158 HD
ATOM     52  H   UNL     1     -51.281  24.549  26.631  1.00  0.00     0.158 HD
ENDBRANCH  46  50
ENDBRANCH  30  38
ENDBRANCH   1  26
TORSDOF 8
ENDMDL
MODEL 3
REMARK VINA RESULT:      -9.0      3.436     10.412
REMARK SMILES CNc1ccc2ccc(OC[C@H]3O[C@@H](n4cc(Br)c5c(N)ncnc54)C[C@@H]3O)cc2n1
REMARK SMILES IDX 11 1 10 4 9 5 3 6 4 7 31 8 5 9 30 11 6 12 29 14 7 15 8 17
REMARK SMILES IDX 2 20 1 22 12 26 13 27 27 28 14 30 26 31 28 36 15 38 16 39
REMARK SMILES IDX 25 40 17 41 19 43 24 44 18 45 20 46 23 47 22 48 21 50
REMARK H PARENT 11 2 11 3 4 10 5 13 29 16 7 18 8 19 2 21 1 23 1 24 1 25 12 29
REMARK H PARENT 27 32 14 33 26 34 26 35 28 37 16 42 23 49 21 51 21 52
REMARK Flexibility Score: inf
ROOT
ATOM      1  C   UNL     1     -46.473  33.266  26.429  1.00  0.00     0.117 C 
ATOM      2  H   UNL     1     -46.025  32.302  26.704  1.00  0.00     0.073 H 
ATOM      3  H   UNL     1     -45.692  33.898  25.989  1.00  0.00     0.073 H 
ENDROOT
BRANCH   1   4
ATOM      4  O   UNL     1     -47.047  33.897  27.575  1.00  0.00    -0.491 OA
BRANCH   4   5
ATOM      5  C   UNL     1     -47.068  35.265  27.587  1.00  0.00     0.121 A 
ATOM      6  C   UNL     1     -45.086  39.590  27.712  1.00  0.00     0.126 A 
ATOM      7  C   UNL     1     -46.328  40.214  27.663  1.00  0.00    -0.019 A 
ATOM      8  N   UNL     1     -44.969  38.246  27.694  1.00  0.00    -0.231 NA
ATOM      9  C   UNL     1     -47.480  39.437  27.616  1.00  0.00    -0.049 A 
ATOM     10  H   UNL     1     -46.400  41.295  27.649  1.00  0.00     0.066 H 
ATOM     11  C   UNL     1     -46.078  37.488  27.645  1.00  0.00     0.076 A 
ATOM     12  C   UNL     1     -47.371  38.044  27.608  1.00  0.00     0.001 A 
ATOM     13  H   UNL     1     -48.452  39.922  27.577  1.00  0.00     0.063 H 
ATOM     14  C   UNL     1     -45.951  36.104  27.633  1.00  0.00     0.007 A 
ATOM     15  C   UNL     1     -48.499  37.212  27.560  1.00  0.00    -0.049 A 
ATOM     16  H   UNL     1     -44.942  35.706  27.660  1.00  0.00     0.069 H 
ATOM     17  C   UNL     1     -48.342  35.827  27.550  1.00  0.00    -0.019 A 
ATOM     18  H   UNL     1     -49.500  37.634  27.528  1.00  0.00     0.063 H 
ATOM     19  H   UNL     1     -49.220  35.187  27.510  1.00  0.00     0.066 H 
BRANCH   6  20
ATOM     20  N   UNL     1     -43.941  40.408  27.732  1.00  0.00    -0.373 N 
ATOM     21  H   UNL     1     -44.204  41.348  27.450  1.00  0.00     0.161 HD
BRANCH  20  22
ATOM     22  C   UNL     1     -43.224  40.402  28.996  1.00  0.00     0.005 C 
ATOM     23  H   UNL     1     -43.906  40.290  29.845  1.00  0.00     0.045 H 
ATOM     24  H   UNL     1     -42.541  39.546  29.012  1.00  0.00     0.045 H 
ATOM     25  H   UNL     1     -42.621  41.308  29.122  1.00  0.00     0.045 H 
ENDBRANCH  20  22
ENDBRANCH   6  20
ENDBRANCH   4   5
ENDBRANCH   1   4
BRANCH   1  26
ATOM     26  C   UNL     1     -47.569  33.039  25.391  1.00  0.00     0.120 C 
ATOM     27  O   UNL     1     -47.113  32.174  24.338  1.00  0.00    -0.348 OA
ATOM     28  C   UNL     1     -48.813  32.377  25.974  1.00  0.00     0.088 C 
ATOM     29  H   UNL     1     -47.840  34.007  24.948  1.00  0.00     0.067 H 
ATOM     30  C   UNL     1     -48.228  31.344  23.931  1.00  0.00     0.138 C 
ATOM     31  C   UNL     1     -49.442  31.792  24.733  1.00  0.00     0.022 C 
ATOM     32  H   UNL     1     -48.554  31.578  26.679  1.00  0.00     0.063 H 
ATOM     33  H   UNL     1     -48.374  31.476  22.853  1.00  0.00     0.085 H 
ATOM     34  H   UNL     1     -49.986  32.574  24.187  1.00  0.00     0.034 H 
ATOM     35  H   UNL     1     -50.163  31.000  24.956  1.00  0.00     0.034 H 
BRANCH  28  36
ATOM     36  O   UNL     1     -49.688  33.290  26.612  1.00  0.00    -0.390 OA
ATOM     37  H   UNL     1     -50.598  32.992  26.421  1.00  0.00     0.211 HD
ENDBRANCH  28  36
BRANCH  30  38
ATOM     38  N   UNL     1     -47.888  29.939  24.145  1.00  0.00    -0.304 N 
ATOM     39  C   UNL     1     -48.588  29.016  24.883  1.00  0.00     0.023 A 
ATOM     40  C   UNL     1     -46.773  29.340  23.605  1.00  0.00     0.148 A 
ATOM     41  C   UNL     1     -47.909  27.824  24.795  1.00  0.00     0.049 A 
ATOM     42  H   UNL     1     -49.495  29.280  25.410  1.00  0.00     0.083 H 
ATOM     43  C   UNL     1     -46.759  28.004  23.991  1.00  0.00     0.075 A 
ATOM     44  N   UNL     1     -45.866  29.957  22.828  1.00  0.00    -0.218 NA
ATOM     45  Br  UNL     1     -48.426  26.220  25.621  1.00  0.00    -0.048 Br
ATOM     46  C   UNL     1     -45.686  27.230  23.521  1.00  0.00     0.137 A 
ATOM     47  C   UNL     1     -44.890  29.119  22.444  1.00  0.00     0.120 A 
ATOM     48  N   UNL     1     -44.749  27.815  22.747  1.00  0.00    -0.219 NA
ATOM     49  H   UNL     1     -44.116  29.544  21.812  1.00  0.00     0.106 H 
BRANCH  46  50
ATOM     50  N   UNL     1     -45.509  25.886  23.805  1.00  0.00    -0.383 N 
ATOM     51  H   UNL     1     -46.325  25.406  24.162  1.00  0.00     0.158 HD
ATOM     52  H   UNL     1     -44.631  25.721  24.282  1.00  0.00     0.158 HD
ENDBRANCH  46  50
ENDBRANCH  30  38
ENDBRANCH   1  26
TORSDOF 8
ENDMDL
MODEL 4
REMARK VINA RESULT:      -9.0      3.074      9.860
REMARK SMILES CNc1ccc2ccc(OC[C@H]3O[C@@H](n4cc(Br)c5c(N)ncnc54)C[C@@H]3O)cc2n1
REMARK SMILES IDX 11 1 10 4 9 5 3 6 4 7 31 8 5 9 30 11 6 12 29 14 7 15 8 17
REMARK SMILES IDX 2 20 1 22 12 26 13 27 27 28 14 30 26 31 28 36 15 38 16 39
REMARK SMILES IDX 25 40 17 41 19 43 24 44 18 45 20 46 23 47 22 48 21 50
REMARK H PARENT 11 2 11 3 4 10 5 13 29 16 7 18 8 19 2 21 1 23 1 24 1 25 12 29
REMARK H PARENT 27 32 14 33 26 34 26 35 28 37 16 42 23 49 21 51 21 52
REMARK Flexibility Score: inf
ROOT
ATOM      1  C   UNL     1     -48.787  35.211  26.852  1.00  0.00     0.117 C 
ATOM      2  H   UNL     1     -48.461  35.799  25.985  1.00  0.00     0.073 H 
ATOM      3  H   UNL     1     -49.835  34.923  26.703  1.00  0.00     0.073 H 
ENDROOT
BRANCH   1   4
ATOM      4  O   UNL     1     -48.636  35.965  28.055  1.00  0.00    -0.491 OA
BRANCH   4   5
ATOM      5  C   UNL     1     -47.593  36.850  28.108  1.00  0.00     0.121 A 
ATOM      6  C   UNL     1     -44.886  40.399  26.457  1.00  0.00     0.126 A 
ATOM      7  C   UNL     1     -44.058  40.351  27.573  1.00  0.00    -0.019 A 
ATOM      8  N   UNL     1     -45.944  39.573  26.326  1.00  0.00    -0.231 NA
ATOM      9  C   UNL     1     -44.310  39.415  28.570  1.00  0.00    -0.049 A 
ATOM     10  H   UNL     1     -43.230  41.044  27.674  1.00  0.00     0.066 H 
ATOM     11  C   UNL     1     -46.196  38.667  27.287  1.00  0.00     0.076 A 
ATOM     12  C   UNL     1     -45.396  38.547  28.439  1.00  0.00     0.001 A 
ATOM     13  H   UNL     1     -43.664  39.376  29.443  1.00  0.00     0.063 H 
ATOM     14  C   UNL     1     -47.284  37.813  27.144  1.00  0.00     0.007 A 
ATOM     15  C   UNL     1     -45.698  37.585  29.414  1.00  0.00    -0.049 A 
ATOM     16  H   UNL     1     -47.883  37.932  26.246  1.00  0.00     0.069 H 
ATOM     17  C   UNL     1     -46.794  36.741  29.244  1.00  0.00    -0.019 A 
ATOM     18  H   UNL     1     -45.087  37.488  30.308  1.00  0.00     0.063 H 
ATOM     19  H   UNL     1     -47.025  35.999  30.004  1.00  0.00     0.066 H 
BRANCH   6  20
ATOM     20  N   UNL     1     -44.617  41.377  25.482  1.00  0.00    -0.373 N 
ATOM     21  H   UNL     1     -44.628  40.940  24.566  1.00  0.00     0.161 HD
BRANCH  20  22
ATOM     22  C   UNL     1     -45.493  42.536  25.539  1.00  0.00     0.005 C 
ATOM     23  H   UNL     1     -46.290  42.475  24.791  1.00  0.00     0.045 H 
ATOM     24  H   UNL     1     -45.972  42.569  26.523  1.00  0.00     0.045 H 
ATOM     25  H   UNL     1     -44.935  43.470  25.410  1.00  0.00     0.045 H 
ENDBRANCH  20  22
ENDBRANCH   6  20
ENDBRANCH   4   5
ENDBRANCH   1   4
BRANCH   1  26
ATOM     26  C   UNL     1     -47.938  33.945  26.954  1.00  0.00     0.120 C 
ATOM     27  O   UNL     1     -48.726  32.772  26.690  1.00  0.00    -0.348 OA
ATOM     28  C   UNL     1     -46.789  33.917  25.951  1.00  0.00     0.088 C 
ATOM     29  H   UNL     1     -47.539  33.870  27.974  1.00  0.00     0.067 H 
ATOM     30  C   UNL     1     -47.891  31.826  25.980  1.00  0.00     0.138 C 
ATOM     31  C   UNL     1     -46.500  32.437  25.880  1.00  0.00     0.022 C 
ATOM     32  H   UNL     1     -47.100  34.288  24.967  1.00  0.00     0.063 H 
ATOM     33  H   UNL     1     -47.888  30.886  26.542  1.00  0.00     0.085 H 
ATOM     34  H   UNL     1     -45.892  32.134  26.743  1.00  0.00     0.034 H 
ATOM     35  H   UNL     1     -45.938  32.158  24.983  1.00  0.00     0.034 H 
BRANCH  28  36
ATOM     36  O   UNL     1     -45.652  34.643  26.380  1.00  0.00    -0.390 OA
ATOM     37  H   UNL     1     -45.219  34.994  25.578  1.00  0.00     0.211 HD
ENDBRANCH  28  36
BRANCH  30  38
ATOM     38  N   UNL     1     -48.485  31.542  24.676  1.00  0.00    -0.304 N 
ATOM     39  C   UNL     1     -49.787  31.751  24.290  1.00  0.00     0.023 A 
ATOM     40  C   UNL     1     -47.778  31.007  23.622  1.00  0.00     0.148 A 
ATOM     41  C   UNL     1     -49.893  31.353  22.979  1.00  0.00     0.049 A 
ATOM     42  H   UNL     1     -50.523  32.153  24.973  1.00  0.00     0.083 H 
ATOM     43  C   UNL     1     -48.635  30.880  22.535  1.00  0.00     0.075 A 
ATOM     44  N   UNL     1     -46.475  30.678  23.656  1.00  0.00    -0.218 NA
ATOM     45  Br  UNL     1     -51.462  31.418  21.950  1.00  0.00    -0.048 Br
ATOM     46  C   UNL     1     -48.078  30.352  21.360  1.00  0.00     0.137 A 
ATOM     47  C   UNL     1     -46.058  30.184  22.480  1.00  0.00     0.120 A 
ATOM     48  N   UNL     1     -46.776  30.000  21.356  1.00  0.00    -0.219 NA
ATOM     49  H   UNL     1     -45.013  29.894  22.427  1.00  0.00     0.106 H 
BRANCH  46  50
ATOM     50  N   UNL     1     -48.780  30.153  20.182  1.00  0.00    -0.383 N 
ATOM     51  H   UNL     1     -49.073  30.995  19.704  1.00  0.00     0.158 HD
ATOM     52  H   UNL     1     -49.466  29.415  20.280  1.00  0.00     0.158 HD
ENDBRANCH  46  50
ENDBRANCH  30  38
ENDBRANCH   1  26
TORSDOF 8
ENDMDL
MODEL 5
REMARK VINA RESULT:      -8.9      2.138      2.801
REMARK SMILES CNc1ccc2ccc(OC[C@H]3O[C@@H](n4cc(Br)c5c(N)ncnc54)C[C@@H]3O)cc2n1
REMARK SMILES IDX 11 1 10 4 9 5 3 6 4 7 31 8 5 9 30 11 6 12 29 14 7 15 8 17
REMARK SMILES IDX 2 20 1 22 12 26 13 27 27 28 14 30 26 31 28 36 15 38 16 39
REMARK SMILES IDX 25 40 17 41 19 43 24 44 18 45 20 46 23 47 22 48 21 50
REMARK H PARENT 11 2 11 3 4 10 5 13 29 16 7 18 8 19 2 21 1 23 1 24 1 25 12 29
REMARK H PARENT 27 32 14 33 26 34 26 35 28 37 16 42 23 49 21 51 21 52
REMARK Flexibility Score: inf
ROOT
ATOM      1  C   UNL     1     -46.955  35.710  28.663  1.00  0.00     0.117 C 
ATOM      2  H   UNL     1     -46.680  34.661  28.832  1.00  0.00     0.073 H 
ATOM      3  H   UNL     1     -47.607  36.035  29.483  1.00  0.00     0.073 H 
ENDROOT
BRANCH   1   4
ATOM      4  O   UNL     1     -47.616  35.859  27.405  1.00  0.00    -0.491 OA
BRANCH   4   5
ATOM      5  C   UNL     1     -47.771  34.730  26.646  1.00  0.00     0.121 A 
ATOM      6  C   UNL     1     -46.291  31.302  23.695  1.00  0.00     0.126 A 
ATOM      7  C   UNL     1     -47.546  30.704  23.683  1.00  0.00    -0.019 A 
ATOM      8  N   UNL     1     -46.043  32.411  24.423  1.00  0.00    -0.231 NA
ATOM      9  C   UNL     1     -48.580  31.272  24.420  1.00  0.00    -0.049 A 
ATOM     10  H   UNL     1     -47.717  29.797  23.114  1.00  0.00     0.066 H 
ATOM     11  C   UNL     1     -47.037  32.964  25.140  1.00  0.00     0.076 A 
ATOM     12  C   UNL     1     -48.338  32.426  25.168  1.00  0.00     0.001 A 
ATOM     13  H   UNL     1     -49.562  30.805  24.412  1.00  0.00     0.063 H 
ATOM     14  C   UNL     1     -46.778  34.110  25.884  1.00  0.00     0.007 A 
ATOM     15  C   UNL     1     -49.342  33.040  25.931  1.00  0.00    -0.049 A 
ATOM     16  H   UNL     1     -45.765  34.499  25.844  1.00  0.00     0.069 H 
ATOM     17  C   UNL     1     -49.054  34.189  26.666  1.00  0.00    -0.019 A 
ATOM     18  H   UNL     1     -50.348  32.629  25.960  1.00  0.00     0.063 H 
ATOM     19  H   UNL     1     -49.836  34.658  27.257  1.00  0.00     0.066 H 
BRANCH   6  20
ATOM     20  N   UNL     1     -45.263  30.685  22.958  1.00  0.00    -0.373 N 
ATOM     21  H   UNL     1     -44.409  30.703  23.508  1.00  0.00     0.161 HD
BRANCH  20  22
ATOM     22  C   UNL     1     -45.581  29.344  22.496  1.00  0.00     0.005 C 
ATOM     23  H   UNL     1     -45.895  28.698  23.322  1.00  0.00     0.045 H 
ATOM     24  H   UNL     1     -46.417  29.402  21.791  1.00  0.00     0.045 H 
ATOM     25  H   UNL     1     -44.736  28.888  21.969  1.00  0.00     0.045 H 
ENDBRANCH  20  22
ENDBRANCH   6  20
ENDBRANCH   4   5
ENDBRANCH   1   4
BRANCH   1  26
ATOM     26  C   UNL     1     -45.695  36.572  28.663  1.00  0.00     0.120 C 
ATOM     27  O   UNL     1     -45.581  37.319  27.440  1.00  0.00    -0.348 OA
ATOM     28  C   UNL     1     -45.677  37.600  29.790  1.00  0.00     0.088 C 
ATOM     29  H   UNL     1     -44.819  35.916  28.748  1.00  0.00     0.067 H 
ATOM     30  C   UNL     1     -45.010  38.611  27.761  1.00  0.00     0.138 C 
ATOM     31  C   UNL     1     -44.692  38.608  29.250  1.00  0.00     0.022 C 
ATOM     32  H   UNL     1     -46.659  38.067  29.928  1.00  0.00     0.063 H 
ATOM     33  H   UNL     1     -44.112  38.747  27.148  1.00  0.00     0.085 H 
ATOM     34  H   UNL     1     -43.666  38.253  29.415  1.00  0.00     0.034 H 
ATOM     35  H   UNL     1     -44.774  39.584  29.739  1.00  0.00     0.034 H 
BRANCH  28  36
ATOM     36  O   UNL     1     -45.241  37.068  31.027  1.00  0.00    -0.390 OA
ATOM     37  H   UNL     1     -45.911  36.416  31.309  1.00  0.00     0.211 HD
ENDBRANCH  28  36
BRANCH  30  38
ATOM     38  N   UNL     1     -45.949  39.663  27.378  1.00  0.00    -0.304 N 
ATOM     39  C   UNL     1     -47.299  39.706  27.630  1.00  0.00     0.023 A 
ATOM     40  C   UNL     1     -45.578  40.795  26.689  1.00  0.00     0.148 A 
ATOM     41  C   UNL     1     -47.776  40.882  27.102  1.00  0.00     0.049 A 
ATOM     42  H   UNL     1     -47.805  38.903  28.151  1.00  0.00     0.083 H 
ATOM     43  C   UNL     1     -46.706  41.588  26.503  1.00  0.00     0.075 A 
ATOM     44  N   UNL     1     -44.328  41.074  26.281  1.00  0.00    -0.218 NA
ATOM     45  Br  UNL     1     -49.564  41.450  27.161  1.00  0.00    -0.048 Br
ATOM     46  C   UNL     1     -46.511  42.797  25.818  1.00  0.00     0.137 A 
ATOM     47  C   UNL     1     -44.268  42.250  25.637  1.00  0.00     0.120 A 
ATOM     48  N   UNL     1     -45.273  43.109  25.382  1.00  0.00    -0.219 NA
ATOM     49  H   UNL     1     -43.289  42.547  25.275  1.00  0.00     0.106 H 
BRANCH  46  50
ATOM     50  N   UNL     1     -47.517  43.709  25.541  1.00  0.00    -0.383 N 
ATOM     51  H   UNL     1     -48.443  43.316  25.437  1.00  0.00     0.158 HD
ATOM     52  H   UNL     1     -47.222  44.386  24.848  1.00  0.00     0.158 HD
ENDBRANCH  46  50
ENDBRANCH  30  38
ENDBRANCH   1  26
TORSDOF 8
ENDMDL
MODEL 6
REMARK VINA RESULT:      -8.9      1.508      2.143
REMARK SMILES CNc1ccc2ccc(OC[C@H]3O[C@@H](n4cc(Br)c5c(N)ncnc54)C[C@@H]3O)cc2n1
REMARK SMILES IDX 11 1 10 4 9 5 3 6 4 7 31 8 5 9 30 11 6 12 29 14 7 15 8 17
REMARK SMILES IDX 2 20 1 22 12 26 13 27 27 28 14 30 26 31 28 36 15 38 16 39
REMARK SMILES IDX 25 40 17 41 19 43 24 44 18 45 20 46 23 47 22 48 21 50
REMARK H PARENT 11 2 11 3 4 10 5 13 29 16 7 18 8 19 2 21 1 23 1 24 1 25 12 29
REMARK H PARENT 27 32 14 33 26 34 26 35 28 37 16 42 23 49 21 51 21 52
REMARK Flexibility Score: inf
ROOT
ATOM      1  C   UNL     1     -46.263  35.447  27.306  1.00  0.00     0.117 C 
ATOM      2  H   UNL     1     -46.788  36.004  26.519  1.00  0.00     0.073 H 
ATOM      3  H   UNL     1     -45.224  35.293  26.989  1.00  0.00     0.073 H 
ENDROOT
BRANCH   1   4
ATOM      4  O   UNL     1     -46.908  34.196  27.549  1.00  0.00    -0.491 OA
BRANCH   4   5
ATOM      5  C   UNL     1     -47.175  33.411  26.460  1.00  0.00     0.121 A 
ATOM      6  C   UNL     1     -50.006  30.951  23.530  1.00  0.00     0.126 A 
ATOM      7  C   UNL     1     -48.934  30.584  22.725  1.00  0.00    -0.019 A 
ATOM      8  N   UNL     1     -49.838  31.732  24.618  1.00  0.00    -0.231 NA
ATOM      9  C   UNL     1     -47.653  31.010  23.058  1.00  0.00    -0.049 A 
ATOM     10  H   UNL     1     -49.094  29.980  21.839  1.00  0.00     0.066 H 
ATOM     11  C   UNL     1     -48.603  32.150  24.944  1.00  0.00     0.076 A 
ATOM     12  C   UNL     1     -47.466  31.809  24.188  1.00  0.00     0.001 A 
ATOM     13  H   UNL     1     -46.813  30.723  22.429  1.00  0.00     0.063 H 
ATOM     14  C   UNL     1     -48.435  32.950  26.070  1.00  0.00     0.007 A 
ATOM     15  C   UNL     1     -46.197  32.268  24.570  1.00  0.00    -0.049 A 
ATOM     16  H   UNL     1     -49.330  33.198  26.630  1.00  0.00     0.069 H 
ATOM     17  C   UNL     1     -46.057  33.066  25.704  1.00  0.00    -0.019 A 
ATOM     18  H   UNL     1     -45.315  32.011  23.989  1.00  0.00     0.063 H 
ATOM     19  H   UNL     1     -45.071  33.422  25.993  1.00  0.00     0.066 H 
BRANCH   6  20
ATOM     20  N   UNL     1     -51.291  30.524  23.148  1.00  0.00    -0.373 N 
ATOM     21  H   UNL     1     -51.856  31.338  22.927  1.00  0.00     0.161 HD
BRANCH  20  22
ATOM     22  C   UNL     1     -51.301  29.550  22.069  1.00  0.00     0.005 C 
ATOM     23  H   UNL     1     -51.214  30.033  21.090  1.00  0.00     0.045 H 
ATOM     24  H   UNL     1     -50.436  28.887  22.182  1.00  0.00     0.045 H 
ATOM     25  H   UNL     1     -52.201  28.927  22.096  1.00  0.00     0.045 H 
ENDBRANCH  20  22
ENDBRANCH   6  20
ENDBRANCH   4   5
ENDBRANCH   1   4
BRANCH   1  26
ATOM     26  C   UNL     1     -46.270  36.263  28.597  1.00  0.00     0.120 C 
ATOM     27  O   UNL     1     -44.992  36.883  28.822  1.00  0.00    -0.348 OA
ATOM     28  C   UNL     1     -47.292  37.395  28.580  1.00  0.00     0.088 C 
ATOM     29  H   UNL     1     -46.479  35.590  29.438  1.00  0.00     0.067 H 
ATOM     30  C   UNL     1     -45.228  38.180  29.421  1.00  0.00     0.138 C 
ATOM     31  C   UNL     1     -46.729  38.313  29.637  1.00  0.00     0.022 C 
ATOM     32  H   UNL     1     -47.315  37.906  27.610  1.00  0.00     0.063 H 
ATOM     33  H   UNL     1     -44.670  38.226  30.363  1.00  0.00     0.085 H 
ATOM     34  H   UNL     1     -47.000  37.943  30.635  1.00  0.00     0.034 H 
ATOM     35  H   UNL     1     -47.116  39.334  29.562  1.00  0.00     0.034 H 
BRANCH  28  36
ATOM     36  O   UNL     1     -48.602  36.973  28.910  1.00  0.00    -0.390 OA
ATOM     37  H   UNL     1     -49.079  37.758  29.242  1.00  0.00     0.211 HD
ENDBRANCH  28  36
BRANCH  30  38
ATOM     38  N   UNL     1     -44.681  39.220  28.551  1.00  0.00    -0.304 N 
ATOM     39  C   UNL     1     -45.151  39.608  27.320  1.00  0.00     0.023 A 
ATOM     40  C   UNL     1     -43.579  39.976  28.877  1.00  0.00     0.148 A 
ATOM     41  C   UNL     1     -44.340  40.624  26.875  1.00  0.00     0.049 A 
ATOM     42  H   UNL     1     -46.008  39.130  26.864  1.00  0.00     0.083 H 
ATOM     43  C   UNL     1     -43.339  40.875  27.844  1.00  0.00     0.075 A 
ATOM     44  N   UNL     1     -42.870  39.856  30.014  1.00  0.00    -0.218 NA
ATOM     45  Br  UNL     1     -44.529  41.524  25.239  1.00  0.00    -0.048 Br
ATOM     46  C   UNL     1     -42.245  41.739  28.010  1.00  0.00     0.137 A 
ATOM     47  C   UNL     1     -41.852  40.730  30.057  1.00  0.00     0.120 A 
ATOM     48  N   UNL     1     -41.503  41.644  29.132  1.00  0.00    -0.219 NA
ATOM     49  H   UNL     1     -41.230  40.696  30.946  1.00  0.00     0.106 H 
BRANCH  46  50
ATOM     50  N   UNL     1     -41.857  42.696  27.086  1.00  0.00    -0.383 N 
ATOM     51  H   UNL     1     -41.731  43.629  27.454  1.00  0.00     0.158 HD
ATOM     52  H   UNL     1     -42.377  42.607  26.221  1.00  0.00     0.158 HD
ENDBRANCH  46  50
ENDBRANCH  30  38
ENDBRANCH   1  26
TORSDOF 8
ENDMDL
MODEL 7
REMARK VINA RESULT:      -8.9      2.083      2.958
REMARK SMILES CNc1ccc2ccc(OC[C@H]3O[C@@H](n4cc(Br)c5c(N)ncnc54)C[C@@H]3O)cc2n1
REMARK SMILES IDX 11 1 10 4 9 5 3 6 4 7 31 8 5 9 30 11 6 12 29 14 7 15 8 17
REMARK SMILES IDX 2 20 1 22 12 26 13 27 27 28 14 30 26 31 28 36 15 38 16 39
REMARK SMILES IDX 25 40 17 41 19 43 24 44 18 45 20 46 23 47 22 48 21 50
REMARK H PARENT 11 2 11 3 4 10 5 13 29 16 7 18 8 19 2 21 1 23 1 24 1 25 12 29
REMARK H PARENT 27 32 14 33 26 34 26 35 28 37 16 42 23 49 21 51 21 52
REMARK Flexibility Score: inf
ROOT
ATOM      1  C   UNL     1     -46.135  33.994  26.577  1.00  0.00     0.117 C 
ATOM      2  H   UNL     1     -45.284  34.637  26.320  1.00  0.00     0.073 H 
ATOM      3  H   UNL     1     -45.750  33.031  26.933  1.00  0.00     0.073 H 
ENDROOT
BRANCH   1   4
ATOM      4  O   UNL     1     -46.985  33.810  25.444  1.00  0.00    -0.491 OA
BRANCH   4   5
ATOM      5  C   UNL     1     -47.146  32.529  24.989  1.00  0.00     0.121 A 
ATOM      6  C   UNL     1     -49.101  28.190  24.975  1.00  0.00     0.126 A 
ATOM      7  C   UNL     1     -48.305  27.781  23.912  1.00  0.00    -0.019 A 
ATOM      8  N   UNL     1     -49.020  29.438  25.481  1.00  0.00    -0.231 NA
ATOM      9  C   UNL     1     -47.384  28.670  23.368  1.00  0.00    -0.049 A 
ATOM     10  H   UNL     1     -48.406  26.783  23.500  1.00  0.00     0.066 H 
ATOM     11  C   UNL     1     -48.134  30.304  24.959  1.00  0.00     0.076 A 
ATOM     12  C   UNL     1     -47.282  29.961  23.892  1.00  0.00     0.001 A 
ATOM     13  H   UNL     1     -46.760  28.352  22.537  1.00  0.00     0.063 H 
ATOM     14  C   UNL     1     -48.049  31.587  25.488  1.00  0.00     0.007 A 
ATOM     15  C   UNL     1     -46.373  30.899  23.381  1.00  0.00    -0.049 A 
ATOM     16  H   UNL     1     -48.720  31.822  26.308  1.00  0.00     0.069 H 
ATOM     17  C   UNL     1     -46.308  32.178  23.932  1.00  0.00    -0.019 A 
ATOM     18  H   UNL     1     -45.714  30.642  22.556  1.00  0.00     0.063 H 
ATOM     19  H   UNL     1     -45.603  32.901  23.531  1.00  0.00     0.066 H 
BRANCH   6  20
ATOM     20  N   UNL     1     -50.040  27.272  25.482  1.00  0.00    -0.373 N 
ATOM     21  H   UNL     1     -50.202  27.476  26.463  1.00  0.00     0.161 HD
BRANCH  20  22
ATOM     22  C   UNL     1     -51.283  27.212  24.730  1.00  0.00     0.005 C 
ATOM     23  H   UNL     1     -52.124  26.913  25.365  1.00  0.00     0.045 H 
ATOM     24  H   UNL     1     -51.509  28.210  24.339  1.00  0.00     0.045 H 
ATOM     25  H   UNL     1     -51.204  26.532  23.875  1.00  0.00     0.045 H 
ENDBRANCH  20  22
ENDBRANCH   6  20
ENDBRANCH   4   5
ENDBRANCH   1   4
BRANCH   1  26
ATOM     26  C   UNL     1     -46.943  34.647  27.697  1.00  0.00     0.120 C 
ATOM     27  O   UNL     1     -46.103  35.458  28.534  1.00  0.00    -0.348 OA
ATOM     28  C   UNL     1     -48.041  35.570  27.178  1.00  0.00     0.088 C 
ATOM     29  H   UNL     1     -47.388  33.857  28.317  1.00  0.00     0.067 H 
ATOM     30  C   UNL     1     -46.870  36.617  28.943  1.00  0.00     0.138 C 
ATOM     31  C   UNL     1     -48.275  36.451  28.381  1.00  0.00     0.022 C 
ATOM     32  H   UNL     1     -47.697  36.173  26.330  1.00  0.00     0.063 H 
ATOM     33  H   UNL     1     -46.866  36.658  30.038  1.00  0.00     0.085 H 
ATOM     34  H   UNL     1     -48.912  35.929  29.107  1.00  0.00     0.034 H 
ATOM     35  H   UNL     1     -48.783  37.387  28.128  1.00  0.00     0.034 H 
BRANCH  28  36
ATOM     36  O   UNL     1     -49.222  34.883  26.807  1.00  0.00    -0.390 OA
ATOM     37  H   UNL     1     -49.266  34.076  27.355  1.00  0.00     0.211 HD
ENDBRANCH  28  36
BRANCH  30  38
ATOM     38  N   UNL     1     -46.204  37.828  28.469  1.00  0.00    -0.304 N 
ATOM     39  C   UNL     1     -46.547  38.598  27.385  1.00  0.00     0.023 A 
ATOM     40  C   UNL     1     -45.100  38.375  29.084  1.00  0.00     0.148 A 
ATOM     41  C   UNL     1     -45.655  39.642  27.326  1.00  0.00     0.049 A 
ATOM     42  H   UNL     1     -47.382  38.339  26.747  1.00  0.00     0.083 H 
ATOM     43  C   UNL     1     -44.732  39.523  28.391  1.00  0.00     0.075 A 
ATOM     44  N   UNL     1     -44.499  37.873  30.177  1.00  0.00    -0.218 NA
ATOM     45  Br  UNL     1     -45.661  41.000  26.030  1.00  0.00    -0.048 Br
ATOM     46  C   UNL     1     -43.619  40.220  28.887  1.00  0.00     0.137 A 
ATOM     47  C   UNL     1     -43.450  38.621  30.553  1.00  0.00     0.120 A 
ATOM     48  N   UNL     1     -42.981  39.743  29.975  1.00  0.00    -0.219 NA
ATOM     49  H   UNL     1     -42.910  38.280  31.431  1.00  0.00     0.106 H 
BRANCH  46  50
ATOM     50  N   UNL     1     -43.110  41.380  28.325  1.00  0.00    -0.383 N 
ATOM     51  H   UNL     1     -42.531  41.941  28.936  1.00  0.00     0.158 HD
ATOM     52  H   UNL     1     -43.811  41.865  27.779  1.00  0.00     0.158 HD
ENDBRANCH  46  50
ENDBRANCH  30  38
ENDBRANCH   1  26
TORSDOF 8
ENDMDL
