MODEL 1
REMARK VINA RESULT:      -9.3      0.000      0.000
REMARK SMILES CCc1cc(NCCN(C)C)c2ccc(OCc3cncc(-n4ccc5c(N)ncnc54)n3)cc2n1
REMARK SMILES IDX 3 1 4 2 5 3 12 4 13 5 14 6 15 7 34 8 35 9 36 10 2 15 1 18
REMARK SMILES IDX 6 22 7 24 8 27 9 30 10 31 11 35 16 39 17 40 18 43 19 44
REMARK SMILES IDX 33 45 20 46 22 48 21 49 23 51 24 52 32 53 25 54 26 56 31 57
REMARK SMILES IDX 27 59 30 60 29 61 28 63
REMARK H PARENT 4 11 13 12 14 13 34 14 2 16 2 17 1 19 1 20 1 21 6 23 7 25 7 26
REMARK H PARENT 8 28 8 29 10 32 10 33 10 34 11 36 11 37 11 38 17 41 17 42
REMARK H PARENT 19 47 21 50 24 55 25 58 30 62 28 64 28 65
REMARK Flexibility Score: inf
ROOT
ATOM      1  C   UNL     1     -46.488  30.754  22.060  1.00  0.00     0.043 A 
ATOM      2  C   UNL     1     -47.416  29.745  22.281  1.00  0.00    -0.017 A 
ATOM      3  C   UNL     1     -48.203  29.762  23.434  1.00  0.00     0.045 A 
ATOM      4  C   UNL     1     -47.966  30.796  24.384  1.00  0.00     0.024 A 
ATOM      5  C   UNL     1     -48.628  30.887  25.631  1.00  0.00    -0.047 A 
ATOM      6  C   UNL     1     -48.372  31.935  26.514  1.00  0.00    -0.019 A 
ATOM      7  C   UNL     1     -47.447  32.918  26.186  1.00  0.00     0.122 A 
ATOM      8  C   UNL     1     -46.781  32.830  24.962  1.00  0.00     0.007 A 
ATOM      9  C   UNL     1     -47.009  31.787  24.067  1.00  0.00     0.076 A 
ATOM     10  N   UNL     1     -46.296  31.767  22.931  1.00  0.00    -0.253 NA
ATOM     11  H   UNL     1     -47.519  28.967  21.532  1.00  0.00     0.066 H 
ATOM     12  H   UNL     1     -49.342  30.127  25.935  1.00  0.00     0.063 H 
ATOM     13  H   UNL     1     -48.897  31.978  27.466  1.00  0.00     0.066 H 
ATOM     14  H   UNL     1     -46.058  33.579  24.653  1.00  0.00     0.069 H 
ENDROOT
BRANCH   1  15
ATOM     15  C   UNL     1     -45.670  30.778  20.796  1.00  0.00    -0.013 C 
ATOM     16  H   UNL     1     -44.616  30.937  21.053  1.00  0.00     0.033 H 
ATOM     17  H   UNL     1     -45.725  29.804  20.295  1.00  0.00     0.033 H 
BRANCH  15  18
ATOM     18  C   UNL     1     -46.133  31.878  19.854  1.00  0.00    -0.060 C 
ATOM     19  H   UNL     1     -45.421  31.996  19.031  1.00  0.00     0.023 H 
ATOM     20  H   UNL     1     -47.113  31.646  19.424  1.00  0.00     0.023 H 
ATOM     21  H   UNL     1     -46.215  32.839  20.373  1.00  0.00     0.023 H 
ENDBRANCH  15  18
ENDBRANCH   1  15
BRANCH   3  22
ATOM     22  N   UNL     1     -49.144  28.751  23.721  1.00  0.00    -0.383 N 
ATOM     23  H   UNL     1     -49.834  28.696  22.976  1.00  0.00     0.160 HD
BRANCH  22  24
ATOM     24  C   UNL     1     -48.735  27.416  24.171  1.00  0.00     0.027 C 
ATOM     25  H   UNL     1     -47.980  26.978  23.507  1.00  0.00     0.050 H 
ATOM     26  H   UNL     1     -49.617  26.770  24.091  1.00  0.00     0.050 H 
BRANCH  24  27
ATOM     27  C   UNL     1     -48.268  27.435  25.644  1.00  0.00     0.015 C 
ATOM     28  H   UNL     1     -47.190  27.637  25.657  1.00  0.00     0.045 H 
ATOM     29  H   UNL     1     -48.740  28.280  26.165  1.00  0.00     0.045 H 
BRANCH  27  30
ATOM     30  N   UNL     1     -48.517  26.169  26.368  1.00  0.00    -0.308 NA
BRANCH  30  31
ATOM     31  C   UNL     1     -49.761  25.560  25.885  1.00  0.00    -0.014 C 
ATOM     32  H   UNL     1     -49.680  24.471  25.794  1.00  0.00     0.039 H 
ATOM     33  H   UNL     1     -50.591  25.790  26.563  1.00  0.00     0.039 H 
ATOM     34  H   UNL     1     -50.037  25.970  24.908  1.00  0.00     0.039 H 
ENDBRANCH  30  31
BRANCH  30  35
ATOM     35  C   UNL     1     -47.411  25.222  26.205  1.00  0.00    -0.014 C 
ATOM     36  H   UNL     1     -46.467  25.725  25.967  1.00  0.00     0.039 H 
ATOM     37  H   UNL     1     -47.268  24.623  27.109  1.00  0.00     0.039 H 
ATOM     38  H   UNL     1     -47.631  24.510  25.402  1.00  0.00     0.039 H 
ENDBRANCH  30  35
ENDBRANCH  27  30
ENDBRANCH  24  27
ENDBRANCH  22  24
ENDBRANCH   3  22
BRANCH   7  39
ATOM     39  O   UNL     1     -47.296  33.890  27.136  1.00  0.00    -0.487 OA
BRANCH  39  40
ATOM     40  C   UNL     1     -47.327  35.260  26.726  1.00  0.00     0.132 C 
ATOM     41  H   UNL     1     -48.334  35.589  26.443  1.00  0.00     0.078 H 
ATOM     42  H   UNL     1     -46.734  35.329  25.807  1.00  0.00     0.078 H 
BRANCH  40  43
ATOM     43  C   UNL     1     -46.704  36.164  27.756  1.00  0.00     0.099 A 
ATOM     44  C   UNL     1     -46.768  35.864  29.108  1.00  0.00     0.052 A 
ATOM     45  N   UNL     1     -46.098  37.297  27.323  1.00  0.00    -0.228 NA
ATOM     46  N   UNL     1     -46.222  36.659  30.057  1.00  0.00    -0.259 NA
ATOM     47  H   UNL     1     -47.263  34.971  29.471  1.00  0.00     0.086 H 
ATOM     48  C   UNL     1     -45.574  38.131  28.255  1.00  0.00     0.157 A 
ATOM     49  C   UNL     1     -45.632  37.795  29.602  1.00  0.00     0.070 A 
ATOM     50  H   UNL     1     -45.234  38.420  30.392  1.00  0.00     0.088 H 
BRANCH  48  51
ATOM     51  N   UNL     1     -44.994  39.367  27.827  1.00  0.00    -0.284 N 
ATOM     52  C   UNL     1     -45.346  40.101  26.703  1.00  0.00     0.013 A 
ATOM     53  C   UNL     1     -43.950  40.040  28.458  1.00  0.00     0.151 A 
ATOM     54  C   UNL     1     -44.531  41.209  26.615  1.00  0.00    -0.031 A 
ATOM     55  H   UNL     1     -46.153  39.798  26.051  1.00  0.00     0.082 H 
ATOM     56  C   UNL     1     -43.635  41.170  27.711  1.00  0.00     0.062 A 
ATOM     57  N   UNL     1     -43.315  39.665  29.585  1.00  0.00    -0.218 NA
ATOM     58  H   UNL     1     -44.577  41.967  25.843  1.00  0.00     0.065 H 
ATOM     59  C   UNL     1     -42.579  41.968  28.173  1.00  0.00     0.136 A 
ATOM     60  C   UNL     1     -42.312  40.484  29.919  1.00  0.00     0.120 A 
ATOM     61  N   UNL     1     -41.915  41.603  29.284  1.00  0.00    -0.219 NA
ATOM     62  H   UNL     1     -41.750  40.207  30.806  1.00  0.00     0.106 H 
BRANCH  59  63
ATOM     63  N   UNL     1     -42.145  43.119  27.528  1.00  0.00    -0.383 N 
ATOM     64  H   UNL     1     -42.630  43.962  27.802  1.00  0.00     0.158 HD
ATOM     65  H   UNL     1     -42.073  42.950  26.531  1.00  0.00     0.158 HD
ENDBRANCH  59  63
ENDBRANCH  48  51
ENDBRANCH  40  43
ENDBRANCH  39  40
ENDBRANCH   7  39
TORSDOF 13
ENDMDL
MODEL 2
REMARK VINA RESULT:      -8.8      1.870      2.896
REMARK SMILES CCc1cc(NCCN(C)C)c2ccc(OCc3cncc(-n4ccc5c(N)ncnc54)n3)cc2n1
REMARK SMILES IDX 3 1 4 2 5 3 12 4 13 5 14 6 15 7 34 8 35 9 36 10 2 15 1 18
REMARK SMILES IDX 6 22 7 24 8 27 9 30 10 31 11 35 16 39 17 40 18 43 19 44
REMARK SMILES IDX 33 45 20 46 22 48 21 49 23 51 24 52 32 53 25 54 26 56 31 57
REMARK SMILES IDX 27 59 30 60 29 61 28 63
REMARK H PARENT 4 11 13 12 14 13 34 14 2 16 2 17 1 19 1 20 1 21 6 23 7 25 7 26
REMARK H PARENT 8 28 8 29 10 32 10 33 10 34 11 36 11 37 11 38 17 41 17 42
REMARK H PARENT 19 47 21 50 24 55 25 58 30 62 28 64 28 65
REMARK Flexibility Score: inf
ROOT
ATOM      1  C   UNL     1     -46.442  30.154  23.053  1.00  0.00     0.043 A 
ATOM      2  C   UNL     1     -47.739  29.660  23.031  1.00  0.00    -0.017 A 
ATOM      3  C   UNL     1     -48.738  30.293  23.774  1.00  0.00     0.045 A 
ATOM      4  C   UNL     1     -48.359  31.396  24.591  1.00  0.00     0.024 A 
ATOM      5  C   UNL     1     -49.247  32.076  25.458  1.00  0.00    -0.047 A 
ATOM      6  C   UNL     1     -48.826  33.165  26.219  1.00  0.00    -0.019 A 
ATOM      7  C   UNL     1     -47.510  33.606  26.146  1.00  0.00     0.122 A 
ATOM      8  C   UNL     1     -46.625  32.934  25.301  1.00  0.00     0.007 A 
ATOM      9  C   UNL     1     -47.016  31.835  24.539  1.00  0.00     0.076 A 
ATOM     10  N   UNL     1     -46.086  31.232  23.783  1.00  0.00    -0.253 NA
ATOM     11  H   UNL     1     -47.950  28.793  22.414  1.00  0.00     0.066 H 
ATOM     12  H   UNL     1     -50.278  31.750  25.561  1.00  0.00     0.063 H 
ATOM     13  H   UNL     1     -49.532  33.668  26.877  1.00  0.00     0.066 H 
ATOM     14  H   UNL     1     -45.590  33.246  25.199  1.00  0.00     0.069 H 
ENDROOT
BRANCH   1  15
ATOM     15  C   UNL     1     -45.365  29.515  22.215  1.00  0.00    -0.013 C 
ATOM     16  H   UNL     1     -45.749  29.350  21.202  1.00  0.00     0.033 H 
ATOM     17  H   UNL     1     -44.512  30.197  22.117  1.00  0.00     0.033 H 
BRANCH  15  18
ATOM     18  C   UNL     1     -44.912  28.190  22.808  1.00  0.00    -0.060 C 
ATOM     19  H   UNL     1     -44.149  27.732  22.171  1.00  0.00     0.023 H 
ATOM     20  H   UNL     1     -44.482  28.328  23.805  1.00  0.00     0.023 H 
ATOM     21  H   UNL     1     -45.747  27.487  22.897  1.00  0.00     0.023 H 
ENDBRANCH  15  18
ENDBRANCH   1  15
BRANCH   3  22
ATOM     22  N   UNL     1     -50.067  29.822  23.808  1.00  0.00    -0.383 N 
ATOM     23  H   UNL     1     -50.692  30.568  24.105  1.00  0.00     0.160 HD
BRANCH  22  24
ATOM     24  C   UNL     1     -50.644  29.046  22.705  1.00  0.00     0.027 C 
ATOM     25  H   UNL     1     -51.012  28.070  23.046  1.00  0.00     0.050 H 
ATOM     26  H   UNL     1     -49.828  28.833  22.006  1.00  0.00     0.050 H 
BRANCH  24  27
ATOM     27  C   UNL     1     -51.737  29.848  21.963  1.00  0.00     0.015 C 
ATOM     28  H   UNL     1     -52.227  29.176  21.248  1.00  0.00     0.045 H 
ATOM     29  H   UNL     1     -52.515  30.150  22.676  1.00  0.00     0.045 H 
BRANCH  27  30
ATOM     30  N   UNL     1     -51.221  31.021  21.224  1.00  0.00    -0.308 NA
BRANCH  30  31
ATOM     31  C   UNL     1     -51.566  30.901  19.803  1.00  0.00    -0.014 C 
ATOM     32  H   UNL     1     -51.005  30.100  19.308  1.00  0.00     0.039 H 
ATOM     33  H   UNL     1     -52.637  30.697  19.683  1.00  0.00     0.039 H 
ATOM     34  H   UNL     1     -51.368  31.840  19.277  1.00  0.00     0.039 H 
ENDBRANCH  30  31
BRANCH  30  35
ATOM     35  C   UNL     1     -51.758  32.277  21.754  1.00  0.00    -0.014 C 
ATOM     36  H   UNL     1     -51.839  32.264  22.847  1.00  0.00     0.039 H 
ATOM     37  H   UNL     1     -51.134  33.127  21.462  1.00  0.00     0.039 H 
ATOM     38  H   UNL     1     -52.752  32.475  21.339  1.00  0.00     0.039 H 
ENDBRANCH  30  35
ENDBRANCH  27  30
ENDBRANCH  24  27
ENDBRANCH  22  24
ENDBRANCH   3  22
BRANCH   7  39
ATOM     39  O   UNL     1     -47.232  34.686  26.938  1.00  0.00    -0.487 OA
BRANCH  39  40
ATOM     40  C   UNL     1     -45.977  34.730  27.621  1.00  0.00     0.132 C 
ATOM     41  H   UNL     1     -45.127  34.592  26.941  1.00  0.00     0.078 H 
ATOM     42  H   UNL     1     -45.951  33.863  28.292  1.00  0.00     0.078 H 
BRANCH  40  43
ATOM     43  C   UNL     1     -45.840  35.975  28.456  1.00  0.00     0.099 A 
ATOM     44  C   UNL     1     -46.239  35.998  29.783  1.00  0.00     0.052 A 
ATOM     45  N   UNL     1     -45.334  37.084  27.863  1.00  0.00    -0.228 NA
ATOM     46  N   UNL     1     -46.132  37.102  30.558  1.00  0.00    -0.259 NA
ATOM     47  H   UNL     1     -46.661  35.123  30.266  1.00  0.00     0.086 H 
ATOM     48  C   UNL     1     -45.250  38.216  28.605  1.00  0.00     0.157 A 
ATOM     49  C   UNL     1     -45.636  38.205  29.939  1.00  0.00     0.070 A 
ATOM     50  H   UNL     1     -45.595  39.076  30.581  1.00  0.00     0.088 H 
BRANCH  48  51
ATOM     51  N   UNL     1     -44.788  39.417  27.981  1.00  0.00    -0.284 N 
ATOM     52  C   UNL     1     -45.260  39.971  26.798  1.00  0.00     0.013 A 
ATOM     53  C   UNL     1     -43.758  40.234  28.443  1.00  0.00     0.151 A 
ATOM     54  C   UNL     1     -44.535  41.106  26.510  1.00  0.00    -0.031 A 
ATOM     55  H   UNL     1     -46.081  39.532  26.249  1.00  0.00     0.082 H 
ATOM     56  C   UNL     1     -43.572  41.271  27.536  1.00  0.00     0.062 A 
ATOM     57  N   UNL     1     -43.030  40.054  29.562  1.00  0.00    -0.218 NA
ATOM     58  H   UNL     1     -44.682  41.749  25.651  1.00  0.00     0.065 H 
ATOM     59  C   UNL     1     -42.549  42.190  27.815  1.00  0.00     0.136 A 
ATOM     60  C   UNL     1     -42.070  40.973  29.715  1.00  0.00     0.120 A 
ATOM     61  N   UNL     1     -41.794  42.019  28.914  1.00  0.00    -0.219 NA
ATOM     62  H   UNL     1     -41.436  40.854  30.589  1.00  0.00     0.106 H 
BRANCH  59  63
ATOM     63  N   UNL     1     -42.241  43.269  26.997  1.00  0.00    -0.383 N 
ATOM     64  H   UNL     1     -41.253  43.466  26.918  1.00  0.00     0.158 HD
ATOM     65  H   UNL     1     -42.837  44.056  27.224  1.00  0.00     0.158 HD
ENDBRANCH  59  63
ENDBRANCH  48  51
ENDBRANCH  40  43
ENDBRANCH  39  40
ENDBRANCH   7  39
TORSDOF 13
ENDMDL
MODEL 3
REMARK VINA RESULT:      -8.7      2.353     12.112
REMARK SMILES CCc1cc(NCCN(C)C)c2ccc(OCc3cncc(-n4ccc5c(N)ncnc54)n3)cc2n1
REMARK SMILES IDX 3 1 4 2 5 3 12 4 13 5 14 6 15 7 34 8 35 9 36 10 2 15 1 18
REMARK SMILES IDX 6 22 7 24 8 27 9 30 10 31 11 35 16 39 17 40 18 43 19 44
REMARK SMILES IDX 33 45 20 46 22 48 21 49 23 51 24 52 32 53 25 54 26 56 31 57
REMARK SMILES IDX 27 59 30 60 29 61 28 63
REMARK H PARENT 4 11 13 12 14 13 34 14 2 16 2 17 1 19 1 20 1 21 6 23 7 25 7 26
REMARK H PARENT 8 28 8 29 10 32 10 33 10 34 11 36 11 37 11 38 17 41 17 42
REMARK H PARENT 19 47 21 50 24 55 25 58 30 62 28 64 28 65
REMARK Flexibility Score: inf
ROOT
ATOM      1  C   UNL     1     -43.576  40.082  28.790  1.00  0.00     0.043 A 
ATOM      2  C   UNL     1     -43.966  40.868  27.713  1.00  0.00    -0.017 A 
ATOM      3  C   UNL     1     -45.028  40.461  26.904  1.00  0.00     0.045 A 
ATOM      4  C   UNL     1     -45.631  39.201  27.183  1.00  0.00     0.024 A 
ATOM      5  C   UNL     1     -46.657  38.627  26.395  1.00  0.00    -0.047 A 
ATOM      6  C   UNL     1     -47.226  37.399  26.728  1.00  0.00    -0.019 A 
ATOM      7  C   UNL     1     -46.789  36.704  27.849  1.00  0.00     0.122 A 
ATOM      8  C   UNL     1     -45.770  37.258  28.625  1.00  0.00     0.007 A 
ATOM      9  C   UNL     1     -45.175  38.477  28.308  1.00  0.00     0.076 A 
ATOM     10  N   UNL     1     -44.178  38.913  29.093  1.00  0.00    -0.253 NA
ATOM     11  H   UNL     1     -43.438  41.798  27.537  1.00  0.00     0.066 H 
ATOM     12  H   UNL     1     -47.012  39.128  25.499  1.00  0.00     0.063 H 
ATOM     13  H   UNL     1     -48.014  36.983  26.104  1.00  0.00     0.066 H 
ATOM     14  H   UNL     1     -45.400  36.761  29.518  1.00  0.00     0.069 H 
ENDROOT
BRANCH   1  15
ATOM     15  C   UNL     1     -42.467  40.533  29.705  1.00  0.00    -0.013 C 
ATOM     16  H   UNL     1     -42.903  41.007  30.592  1.00  0.00     0.033 H 
ATOM     17  H   UNL     1     -41.900  39.666  30.063  1.00  0.00     0.033 H 
BRANCH  15  18
ATOM     18  C   UNL     1     -41.537  41.516  29.010  1.00  0.00    -0.060 C 
ATOM     19  H   UNL     1     -42.089  42.094  28.261  1.00  0.00     0.023 H 
ATOM     20  H   UNL     1     -41.098  42.219  29.724  1.00  0.00     0.023 H 
ATOM     21  H   UNL     1     -40.717  40.998  28.502  1.00  0.00     0.023 H 
ENDBRANCH  15  18
ENDBRANCH   1  15
BRANCH   3  22
ATOM     22  N   UNL     1     -45.451  41.206  25.783  1.00  0.00    -0.383 N 
ATOM     23  H   UNL     1     -46.206  40.717  25.306  1.00  0.00     0.160 HD
BRANCH  22  24
ATOM     24  C   UNL     1     -45.712  42.647  25.862  1.00  0.00     0.027 C 
ATOM     25  H   UNL     1     -45.755  42.993  26.902  1.00  0.00     0.050 H 
ATOM     26  H   UNL     1     -46.714  42.811  25.448  1.00  0.00     0.050 H 
BRANCH  24  27
ATOM     27  C   UNL     1     -44.693  43.452  25.025  1.00  0.00     0.015 C 
ATOM     28  H   UNL     1     -44.200  42.761  24.331  1.00  0.00     0.045 H 
ATOM     29  H   UNL     1     -45.228  44.178  24.399  1.00  0.00     0.045 H 
BRANCH  27  30
ATOM     30  N   UNL     1     -43.652  44.125  25.833  1.00  0.00    -0.308 NA
BRANCH  30  31
ATOM     31  C   UNL     1     -42.325  43.798  25.300  1.00  0.00    -0.014 C 
ATOM     32  H   UNL     1     -41.627  44.639  25.384  1.00  0.00     0.039 H 
ATOM     33  H   UNL     1     -41.897  42.939  25.831  1.00  0.00     0.039 H 
ATOM     34  H   UNL     1     -42.394  43.508  24.246  1.00  0.00     0.039 H 
ENDBRANCH  30  31
BRANCH  30  35
ATOM     35  C   UNL     1     -43.831  45.579  25.849  1.00  0.00    -0.014 C 
ATOM     36  H   UNL     1     -43.067  46.096  25.257  1.00  0.00     0.039 H 
ATOM     37  H   UNL     1     -44.817  45.860  25.467  1.00  0.00     0.039 H 
ATOM     38  H   UNL     1     -43.785  45.960  26.876  1.00  0.00     0.039 H 
ENDBRANCH  30  35
ENDBRANCH  27  30
ENDBRANCH  24  27
ENDBRANCH  22  24
ENDBRANCH   3  22
BRANCH   7  39
ATOM     39  O   UNL     1     -47.435  35.519  28.065  1.00  0.00    -0.487 OA
BRANCH  39  40
ATOM     40  C   UNL     1     -48.355  35.048  27.076  1.00  0.00     0.132 C 
ATOM     41  H   UNL     1     -48.767  35.864  26.469  1.00  0.00     0.078 H 
ATOM     42  H   UNL     1     -49.213  34.630  27.615  1.00  0.00     0.078 H 
BRANCH  40  43
ATOM     43  C   UNL     1     -47.754  33.958  26.229  1.00  0.00     0.099 A 
ATOM     44  C   UNL     1     -46.463  34.062  25.734  1.00  0.00     0.052 A 
ATOM     45  N   UNL     1     -48.524  32.880  25.944  1.00  0.00    -0.228 NA
ATOM     46  N   UNL     1     -45.898  33.101  24.967  1.00  0.00    -0.259 NA
ATOM     47  H   UNL     1     -45.842  34.926  25.940  1.00  0.00     0.086 H 
ATOM     48  C   UNL     1     -47.996  31.918  25.147  1.00  0.00     0.157 A 
ATOM     49  C   UNL     1     -46.692  32.036  24.683  1.00  0.00     0.070 A 
ATOM     50  H   UNL     1     -46.216  31.304  24.042  1.00  0.00     0.088 H 
BRANCH  48  51
ATOM     51  N   UNL     1     -48.814  30.806  24.773  1.00  0.00    -0.284 N 
ATOM     52  C   UNL     1     -48.882  29.575  25.412  1.00  0.00     0.013 A 
ATOM     53  C   UNL     1     -49.674  30.757  23.678  1.00  0.00     0.151 A 
ATOM     54  C   UNL     1     -49.756  28.759  24.727  1.00  0.00    -0.031 A 
ATOM     55  H   UNL     1     -48.319  29.365  26.311  1.00  0.00     0.082 H 
ATOM     56  C   UNL     1     -50.249  29.492  23.620  1.00  0.00     0.062 A 
ATOM     57  N   UNL     1     -49.904  31.744  22.791  1.00  0.00    -0.218 NA
ATOM     58  H   UNL     1     -50.012  27.742  24.996  1.00  0.00     0.065 H 
ATOM     59  C   UNL     1     -51.129  29.237  22.558  1.00  0.00     0.136 A 
ATOM     60  C   UNL     1     -50.739  31.384  21.810  1.00  0.00     0.120 A 
ATOM     61  N   UNL     1     -51.358  30.199  21.648  1.00  0.00    -0.219 NA
ATOM     62  H   UNL     1     -50.934  32.137  21.054  1.00  0.00     0.106 H 
BRANCH  59  63
ATOM     63  N   UNL     1     -51.768  28.019  22.366  1.00  0.00    -0.383 N 
ATOM     64  H   UNL     1     -51.318  27.233  22.814  1.00  0.00     0.158 HD
ATOM     65  H   UNL     1     -52.001  27.902  21.386  1.00  0.00     0.158 HD
ENDBRANCH  59  63
ENDBRANCH  48  51
ENDBRANCH  40  43
ENDBRANCH  39  40
ENDBRANCH   7  39
TORSDOF 13
ENDMDL
MODEL 4
REMARK VINA RESULT:      -8.7      2.622     12.030
REMARK SMILES CCc1cc(NCCN(C)C)c2ccc(OCc3cncc(-n4ccc5c(N)ncnc54)n3)cc2n1
REMARK SMILES IDX 3 1 4 2 5 3 12 4 13 5 14 6 15 7 34 8 35 9 36 10 2 15 1 18
REMARK SMILES IDX 6 22 7 24 8 27 9 30 10 31 11 35 16 39 17 40 18 43 19 44
REMARK SMILES IDX 33 45 20 46 22 48 21 49 23 51 24 52 32 53 25 54 26 56 31 57
REMARK SMILES IDX 27 59 30 60 29 61 28 63
REMARK H PARENT 4 11 13 12 14 13 34 14 2 16 2 17 1 19 1 20 1 21 6 23 7 25 7 26
REMARK H PARENT 8 28 8 29 10 32 10 33 10 34 11 36 11 37 11 38 17 41 17 42
REMARK H PARENT 19 47 21 50 24 55 25 58 30 62 28 64 28 65
REMARK Flexibility Score: inf
ROOT
ATOM      1  C   UNL     1     -42.990  41.307  28.312  1.00  0.00     0.043 A 
ATOM      2  C   UNL     1     -43.446  42.075  27.248  1.00  0.00    -0.017 A 
ATOM      3  C   UNL     1     -44.596  41.692  26.556  1.00  0.00     0.045 A 
ATOM      4  C   UNL     1     -45.223  40.471  26.935  1.00  0.00     0.024 A 
ATOM      5  C   UNL     1     -46.343  39.921  26.267  1.00  0.00    -0.047 A 
ATOM      6  C   UNL     1     -46.931  38.732  26.696  1.00  0.00    -0.019 A 
ATOM      7  C   UNL     1     -46.420  38.053  27.796  1.00  0.00     0.122 A 
ATOM      8  C   UNL     1     -45.309  38.584  28.453  1.00  0.00     0.007 A 
ATOM      9  C   UNL     1     -44.695  39.763  28.038  1.00  0.00     0.076 A 
ATOM     10  N   UNL     1     -43.610  40.177  28.711  1.00  0.00    -0.253 NA
ATOM     11  H   UNL     1     -42.897  42.974  26.990  1.00  0.00     0.066 H 
ATOM     12  H   UNL     1     -46.760  40.408  25.391  1.00  0.00     0.063 H 
ATOM     13  H   UNL     1     -47.791  38.333  26.163  1.00  0.00     0.066 H 
ATOM     14  H   UNL     1     -44.879  38.098  29.325  1.00  0.00     0.069 H 
ENDROOT
BRANCH   1  15
ATOM     15  C   UNL     1     -41.781  41.735  29.102  1.00  0.00    -0.013 C 
ATOM     16  H   UNL     1     -40.922  41.820  28.426  1.00  0.00     0.033 H 
ATOM     17  H   UNL     1     -41.943  42.735  29.524  1.00  0.00     0.033 H 
BRANCH  15  18
ATOM     18  C   UNL     1     -41.460  40.745  30.210  1.00  0.00    -0.060 C 
ATOM     19  H   UNL     1     -40.451  40.341  30.076  1.00  0.00     0.023 H 
ATOM     20  H   UNL     1     -41.506  41.222  31.194  1.00  0.00     0.023 H 
ATOM     21  H   UNL     1     -42.164  39.906  30.210  1.00  0.00     0.023 H 
ENDBRANCH  15  18
ENDBRANCH   1  15
BRANCH   3  22
ATOM     22  N   UNL     1     -45.091  42.420  25.453  1.00  0.00    -0.383 N 
ATOM     23  H   UNL     1     -45.493  41.783  24.769  1.00  0.00     0.160 HD
BRANCH  22  24
ATOM     24  C   UNL     1     -45.922  43.616  25.623  1.00  0.00     0.027 C 
ATOM     25  H   UNL     1     -45.580  44.230  26.466  1.00  0.00     0.050 H 
ATOM     26  H   UNL     1     -46.927  43.270  25.891  1.00  0.00     0.050 H 
BRANCH  24  27
ATOM     27  C   UNL     1     -46.012  44.432  24.313  1.00  0.00     0.015 C 
ATOM     28  H   UNL     1     -45.590  43.824  23.504  1.00  0.00     0.045 H 
ATOM     29  H   UNL     1     -47.068  44.590  24.055  1.00  0.00     0.045 H 
BRANCH  27  30
ATOM     30  N   UNL     1     -45.286  45.720  24.358  1.00  0.00    -0.308 NA
BRANCH  30  31
ATOM     31  C   UNL     1     -44.297  45.767  23.275  1.00  0.00    -0.014 C 
ATOM     32  H   UNL     1     -43.604  46.609  23.385  1.00  0.00     0.039 H 
ATOM     33  H   UNL     1     -43.713  44.840  23.246  1.00  0.00     0.039 H 
ATOM     34  H   UNL     1     -44.794  45.851  22.303  1.00  0.00     0.039 H 
ENDBRANCH  30  31
BRANCH  30  35
ATOM     35  C   UNL     1     -46.196  46.862  24.242  1.00  0.00    -0.014 C 
ATOM     36  H   UNL     1     -45.762  47.679  23.654  1.00  0.00     0.039 H 
ATOM     37  H   UNL     1     -47.144  46.566  23.781  1.00  0.00     0.039 H 
ATOM     38  H   UNL     1     -46.452  47.252  25.234  1.00  0.00     0.039 H 
ENDBRANCH  30  35
ENDBRANCH  27  30
ENDBRANCH  24  27
ENDBRANCH  22  24
ENDBRANCH   3  22
BRANCH   7  39
ATOM     39  O   UNL     1     -47.093  36.906  28.113  1.00  0.00    -0.487 OA
BRANCH  39  40
ATOM     40  C   UNL     1     -47.837  36.241  27.089  1.00  0.00     0.132 C 
ATOM     41  H   UNL     1     -47.763  36.753  26.121  1.00  0.00     0.078 H 
ATOM     42  H   UNL     1     -48.895  36.311  27.370  1.00  0.00     0.078 H 
BRANCH  40  43
ATOM     43  C   UNL     1     -47.472  34.785  26.990  1.00  0.00     0.099 A 
ATOM     44  C   UNL     1     -46.546  34.216  27.851  1.00  0.00     0.052 A 
ATOM     45  N   UNL     1     -48.059  34.048  26.016  1.00  0.00    -0.228 NA
ATOM     46  N   UNL     1     -46.194  32.911  27.784  1.00  0.00    -0.259 NA
ATOM     47  H   UNL     1     -46.056  34.796  28.624  1.00  0.00     0.086 H 
ATOM     48  C   UNL     1     -47.698  32.745  25.901  1.00  0.00     0.157 A 
ATOM     49  C   UNL     1     -46.784  32.195  26.791  1.00  0.00     0.070 A 
ATOM     50  H   UNL     1     -46.455  31.165  26.750  1.00  0.00     0.088 H 
BRANCH  48  51
ATOM     51  N   UNL     1     -48.250  31.967  24.835  1.00  0.00    -0.284 N 
ATOM     52  C   UNL     1     -49.556  31.507  24.735  1.00  0.00     0.013 A 
ATOM     53  C   UNL     1     -47.559  31.513  23.714  1.00  0.00     0.151 A 
ATOM     54  C   UNL     1     -49.685  30.763  23.582  1.00  0.00    -0.031 A 
ATOM     55  H   UNL     1     -50.304  31.745  25.478  1.00  0.00     0.082 H 
ATOM     56  C   UNL     1     -48.423  30.748  22.939  1.00  0.00     0.062 A 
ATOM     57  N   UNL     1     -46.263  31.737  23.422  1.00  0.00    -0.218 NA
ATOM     58  H   UNL     1     -50.592  30.282  23.240  1.00  0.00     0.065 H 
ATOM     59  C   UNL     1     -47.898  30.173  21.773  1.00  0.00     0.136 A 
ATOM     60  C   UNL     1     -45.864  31.122  22.304  1.00  0.00     0.120 A 
ATOM     61  N   UNL     1     -46.602  30.364  21.471  1.00  0.00    -0.219 NA
ATOM     62  H   UNL     1     -44.818  31.250  22.040  1.00  0.00     0.106 H 
BRANCH  59  63
ATOM     63  N   UNL     1     -48.638  29.377  20.907  1.00  0.00    -0.383 N 
ATOM     64  H   UNL     1     -49.286  29.885  20.321  1.00  0.00     0.158 HD
ATOM     65  H   UNL     1     -49.017  28.582  21.408  1.00  0.00     0.158 HD
ENDBRANCH  59  63
ENDBRANCH  48  51
ENDBRANCH  40  43
ENDBRANCH  39  40
ENDBRANCH   7  39
TORSDOF 13
ENDMDL
MODEL 5
REMARK VINA RESULT:      -8.6      2.656     11.511
REMARK SMILES CCc1cc(NCCN(C)C)c2ccc(OCc3cncc(-n4ccc5c(N)ncnc54)n3)cc2n1
REMARK SMILES IDX 3 1 4 2 5 3 12 4 13 5 14 6 15 7 34 8 35 9 36 10 2 15 1 18
REMARK SMILES IDX 6 22 7 24 8 27 9 30 10 31 11 35 16 39 17 40 18 43 19 44
REMARK SMILES IDX 33 45 20 46 22 48 21 49 23 51 24 52 32 53 25 54 26 56 31 57
REMARK SMILES IDX 27 59 30 60 29 61 28 63
REMARK H PARENT 4 11 13 12 14 13 34 14 2 16 2 17 1 19 1 20 1 21 6 23 7 25 7 26
REMARK H PARENT 8 28 8 29 10 32 10 33 10 34 11 36 11 37 11 38 17 41 17 42
REMARK H PARENT 19 47 21 50 24 55 25 58 30 62 28 64 28 65
REMARK Flexibility Score: inf
ROOT
ATOM      1  C   UNL     1     -45.540  38.212  28.311  1.00  0.00     0.043 A 
ATOM      2  C   UNL     1     -46.835  38.654  28.545  1.00  0.00    -0.017 A 
ATOM      3  C   UNL     1     -47.918  37.825  28.243  1.00  0.00     0.045 A 
ATOM      4  C   UNL     1     -47.642  36.568  27.633  1.00  0.00     0.024 A 
ATOM      5  C   UNL     1     -48.643  35.668  27.198  1.00  0.00    -0.047 A 
ATOM      6  C   UNL     1     -48.315  34.439  26.627  1.00  0.00    -0.019 A 
ATOM      7  C   UNL     1     -46.984  34.073  26.466  1.00  0.00     0.122 A 
ATOM      8  C   UNL     1     -45.991  34.961  26.883  1.00  0.00     0.007 A 
ATOM      9  C   UNL     1     -46.291  36.199  27.445  1.00  0.00     0.076 A 
ATOM     10  N   UNL     1     -45.268  37.000  27.783  1.00  0.00    -0.253 NA
ATOM     11  H   UNL     1     -46.973  39.638  28.978  1.00  0.00     0.066 H 
ATOM     12  H   UNL     1     -49.695  35.924  27.286  1.00  0.00     0.063 H 
ATOM     13  H   UNL     1     -49.106  33.767  26.302  1.00  0.00     0.066 H 
ATOM     14  H   UNL     1     -44.936  34.717  26.790  1.00  0.00     0.069 H 
ENDROOT
BRANCH   1  15
ATOM     15  C   UNL     1     -44.360  39.073  28.681  1.00  0.00    -0.013 C 
ATOM     16  H   UNL     1     -44.538  39.523  29.664  1.00  0.00     0.033 H 
ATOM     17  H   UNL     1     -43.461  38.453  28.781  1.00  0.00     0.033 H 
BRANCH  15  18
ATOM     18  C   UNL     1     -44.128  40.171  27.654  1.00  0.00    -0.060 C 
ATOM     19  H   UNL     1     -43.326  39.884  26.968  1.00  0.00     0.023 H 
ATOM     20  H   UNL     1     -45.030  40.358  27.063  1.00  0.00     0.023 H 
ATOM     21  H   UNL     1     -43.843  41.112  28.136  1.00  0.00     0.023 H 
ENDBRANCH  15  18
ENDBRANCH   1  15
BRANCH   3  22
ATOM     22  N   UNL     1     -49.256  38.230  28.437  1.00  0.00    -0.383 N 
ATOM     23  H   UNL     1     -49.552  38.007  29.385  1.00  0.00     0.160 HD
BRANCH  22  24
ATOM     24  C   UNL     1     -49.734  39.553  28.024  1.00  0.00     0.027 C 
ATOM     25  H   UNL     1     -50.401  39.489  27.156  1.00  0.00     0.050 H 
ATOM     26  H   UNL     1     -48.857  40.117  27.689  1.00  0.00     0.050 H 
BRANCH  24  27
ATOM     27  C   UNL     1     -50.389  40.310  29.202  1.00  0.00     0.015 C 
ATOM     28  H   UNL     1     -50.059  39.839  30.135  1.00  0.00     0.045 H 
ATOM     29  H   UNL     1     -50.007  41.339  29.230  1.00  0.00     0.045 H 
BRANCH  27  30
ATOM     30  N   UNL     1     -51.868  40.302  29.171  1.00  0.00    -0.308 NA
BRANCH  30  31
ATOM     31  C   UNL     1     -52.332  40.162  27.786  1.00  0.00    -0.014 C 
ATOM     32  H   UNL     1     -51.749  39.421  27.227  1.00  0.00     0.039 H 
ATOM     33  H   UNL     1     -53.386  39.862  27.761  1.00  0.00     0.039 H 
ATOM     34  H   UNL     1     -52.270  41.121  27.260  1.00  0.00     0.039 H 
ENDBRANCH  30  31
BRANCH  30  35
ATOM     35  C   UNL     1     -52.424  39.219  29.986  1.00  0.00    -0.014 C 
ATOM     36  H   UNL     1     -51.644  38.571  30.401  1.00  0.00     0.039 H 
ATOM     37  H   UNL     1     -53.024  39.614  30.811  1.00  0.00     0.039 H 
ATOM     38  H   UNL     1     -53.103  38.599  29.389  1.00  0.00     0.039 H 
ENDBRANCH  30  35
ENDBRANCH  27  30
ENDBRANCH  24  27
ENDBRANCH  22  24
ENDBRANCH   3  22
BRANCH   7  39
ATOM     39  O   UNL     1     -46.802  32.842  25.900  1.00  0.00    -0.487 OA
BRANCH  39  40
ATOM     40  C   UNL     1     -46.091  32.754  24.662  1.00  0.00     0.132 C 
ATOM     41  H   UNL     1     -45.004  32.762  24.805  1.00  0.00     0.078 H 
ATOM     42  H   UNL     1     -46.314  33.671  24.104  1.00  0.00     0.078 H 
BRANCH  40  43
ATOM     43  C   UNL     1     -46.547  31.580  23.839  1.00  0.00     0.099 A 
ATOM     44  C   UNL     1     -46.079  31.382  22.549  1.00  0.00     0.052 A 
ATOM     45  N   UNL     1     -47.449  30.731  24.389  1.00  0.00    -0.228 NA
ATOM     46  N   UNL     1     -46.473  30.339  21.782  1.00  0.00    -0.259 NA
ATOM     47  H   UNL     1     -45.369  32.061  22.090  1.00  0.00     0.086 H 
ATOM     48  C   UNL     1     -47.891  29.697  23.630  1.00  0.00     0.157 A 
ATOM     49  C   UNL     1     -47.388  29.509  22.349  1.00  0.00     0.070 A 
ATOM     50  H   UNL     1     -47.702  28.705  21.695  1.00  0.00     0.088 H 
BRANCH  48  51
ATOM     51  N   UNL     1     -48.897  28.831  24.162  1.00  0.00    -0.284 N 
ATOM     52  C   UNL     1     -50.270  28.965  24.010  1.00  0.00     0.013 A 
ATOM     53  C   UNL     1     -48.671  27.706  24.953  1.00  0.00     0.151 A 
ATOM     54  C   UNL     1     -50.902  27.955  24.702  1.00  0.00    -0.031 A 
ATOM     55  H   UNL     1     -50.706  29.756  23.415  1.00  0.00     0.082 H 
ATOM     56  C   UNL     1     -49.900  27.164  25.315  1.00  0.00     0.062 A 
ATOM     57  N   UNL     1     -47.476  27.223  25.341  1.00  0.00    -0.218 NA
ATOM     58  H   UNL     1     -51.972  27.804  24.761  1.00  0.00     0.065 H 
ATOM     59  C   UNL     1     -49.880  26.034  26.145  1.00  0.00     0.136 A 
ATOM     60  C   UNL     1     -47.577  26.160  26.147  1.00  0.00     0.120 A 
ATOM     61  N   UNL     1     -48.700  25.545  26.563  1.00  0.00    -0.219 NA
ATOM     62  H   UNL     1     -46.640  25.750  26.510  1.00  0.00     0.106 H 
BRANCH  59  63
ATOM     63  N   UNL     1     -51.026  25.391  26.596  1.00  0.00    -0.383 N 
ATOM     64  H   UNL     1     -50.859  24.505  27.052  1.00  0.00     0.158 HD
ATOM     65  H   UNL     1     -51.731  25.392  25.868  1.00  0.00     0.158 HD
ENDBRANCH  59  63
ENDBRANCH  48  51
ENDBRANCH  40  43
ENDBRANCH  39  40
ENDBRANCH   7  39
TORSDOF 13
ENDMDL
MODEL 6
REMARK VINA RESULT:      -8.3      1.697      2.001
REMARK SMILES CCc1cc(NCCN(C)C)c2ccc(OCc3cncc(-n4ccc5c(N)ncnc54)n3)cc2n1
REMARK SMILES IDX 3 1 4 2 5 3 12 4 13 5 14 6 15 7 34 8 35 9 36 10 2 15 1 18
REMARK SMILES IDX 6 22 7 24 8 27 9 30 10 31 11 35 16 39 17 40 18 43 19 44
REMARK SMILES IDX 33 45 20 46 22 48 21 49 23 51 24 52 32 53 25 54 26 56 31 57
REMARK SMILES IDX 27 59 30 60 29 61 28 63
REMARK H PARENT 4 11 13 12 14 13 34 14 2 16 2 17 1 19 1 20 1 21 6 23 7 25 7 26
REMARK H PARENT 8 28 8 29 10 32 10 33 10 34 11 36 11 37 11 38 17 41 17 42
REMARK H PARENT 19 47 21 50 24 55 25 58 30 62 28 64 28 65
REMARK Flexibility Score: inf
ROOT
ATOM      1  C   UNL     1     -46.389  30.550  22.821  1.00  0.00     0.043 A 
ATOM      2  C   UNL     1     -47.665  30.009  22.739  1.00  0.00    -0.017 A 
ATOM      3  C   UNL     1     -48.696  30.535  23.520  1.00  0.00     0.045 A 
ATOM      4  C   UNL     1     -48.370  31.577  24.434  1.00  0.00     0.024 A 
ATOM      5  C   UNL     1     -49.294  32.144  25.345  1.00  0.00    -0.047 A 
ATOM      6  C   UNL     1     -48.925  33.178  26.203  1.00  0.00    -0.019 A 
ATOM      7  C   UNL     1     -47.627  33.675  26.186  1.00  0.00     0.122 A 
ATOM      8  C   UNL     1     -46.707  33.114  25.299  1.00  0.00     0.007 A 
ATOM      9  C   UNL     1     -47.046  32.072  24.439  1.00  0.00     0.076 A 
ATOM     10  N   UNL     1     -46.084  31.573  23.647  1.00  0.00    -0.253 NA
ATOM     11  H   UNL     1     -47.834  29.192  22.047  1.00  0.00     0.066 H 
ATOM     12  H   UNL     1     -50.311  31.769  25.405  1.00  0.00     0.063 H 
ATOM     13  H   UNL     1     -49.657  33.594  26.892  1.00  0.00     0.066 H 
ATOM     14  H   UNL     1     -45.684  33.475  25.238  1.00  0.00     0.069 H 
ENDROOT
BRANCH   1  15
ATOM     15  C   UNL     1     -45.279  30.028  21.946  1.00  0.00    -0.013 C 
ATOM     16  H   UNL     1     -45.671  29.846  20.939  1.00  0.00     0.033 H 
ATOM     17  H   UNL     1     -44.495  30.788  21.842  1.00  0.00     0.033 H 
BRANCH  15  18
ATOM     18  C   UNL     1     -44.690  28.741  22.502  1.00  0.00    -0.060 C 
ATOM     19  H   UNL     1     -45.199  28.461  23.429  1.00  0.00     0.023 H 
ATOM     20  H   UNL     1     -44.801  27.916  21.791  1.00  0.00     0.023 H 
ATOM     21  H   UNL     1     -43.623  28.853  22.720  1.00  0.00     0.023 H 
ENDBRANCH  15  18
ENDBRANCH   1  15
BRANCH   3  22
ATOM     22  N   UNL     1     -50.005  30.011  23.495  1.00  0.00    -0.383 N 
ATOM     23  H   UNL     1     -50.627  30.652  23.006  1.00  0.00     0.160 HD
BRANCH  22  24
ATOM     24  C   UNL     1     -50.277  28.617  23.127  1.00  0.00     0.027 C 
ATOM     25  H   UNL     1     -49.740  28.328  22.215  1.00  0.00     0.050 H 
ATOM     26  H   UNL     1     -51.343  28.556  22.882  1.00  0.00     0.050 H 
BRANCH  24  27
ATOM     27  C   UNL     1     -49.982  27.656  24.301  1.00  0.00     0.015 C 
ATOM     28  H   UNL     1     -49.107  27.052  24.035  1.00  0.00     0.045 H 
ATOM     29  H   UNL     1     -49.689  28.240  25.185  1.00  0.00     0.045 H 
BRANCH  27  30
ATOM     30  N   UNL     1     -51.101  26.745  24.624  1.00  0.00    -0.308 NA
BRANCH  30  31
ATOM     31  C   UNL     1     -51.066  26.407  26.052  1.00  0.00    -0.014 C 
ATOM     32  H   UNL     1     -50.081  26.589  26.496  1.00  0.00     0.039 H 
ATOM     33  H   UNL     1     -51.809  26.995  26.605  1.00  0.00     0.039 H 
ATOM     34  H   UNL     1     -51.327  25.354  26.206  1.00  0.00     0.039 H 
ENDBRANCH  30  31
BRANCH  30  35
ATOM     35  C   UNL     1     -52.400  27.336  24.292  1.00  0.00    -0.014 C 
ATOM     36  H   UNL     1     -53.184  26.579  24.185  1.00  0.00     0.039 H 
ATOM     37  H   UNL     1     -52.712  28.057  25.054  1.00  0.00     0.039 H 
ATOM     38  H   UNL     1     -52.336  27.899  23.353  1.00  0.00     0.039 H 
ENDBRANCH  30  35
ENDBRANCH  27  30
ENDBRANCH  24  27
ENDBRANCH  22  24
ENDBRANCH   3  22
BRANCH   7  39
ATOM     39  O   UNL     1     -47.401  34.692  27.072  1.00  0.00    -0.487 OA
BRANCH  39  40
ATOM     40  C   UNL     1     -46.481  35.725  26.710  1.00  0.00     0.132 C 
ATOM     41  H   UNL     1     -46.215  35.693  25.647  1.00  0.00     0.078 H 
ATOM     42  H   UNL     1     -45.547  35.518  27.245  1.00  0.00     0.078 H 
BRANCH  40  43
ATOM     43  C   UNL     1     -46.973  37.083  27.132  1.00  0.00     0.099 A 
ATOM     44  C   UNL     1     -48.206  37.242  27.745  1.00  0.00     0.052 A 
ATOM     45  N   UNL     1     -46.183  38.154  26.872  1.00  0.00    -0.228 NA
ATOM     46  N   UNL     1     -48.678  38.450  28.132  1.00  0.00    -0.259 NA
ATOM     47  H   UNL     1     -48.856  36.398  27.945  1.00  0.00     0.086 H 
ATOM     48  C   UNL     1     -46.646  39.381  27.215  1.00  0.00     0.157 A 
ATOM     49  C   UNL     1     -47.876  39.510  27.849  1.00  0.00     0.070 A 
ATOM     50  H   UNL     1     -48.299  40.461  28.144  1.00  0.00     0.088 H 
BRANCH  48  51
ATOM     51  N   UNL     1     -45.862  40.531  26.885  1.00  0.00    -0.284 N 
ATOM     52  C   UNL     1     -46.155  41.483  25.917  1.00  0.00     0.013 A 
ATOM     53  C   UNL     1     -44.647  40.886  27.467  1.00  0.00     0.151 A 
ATOM     54  C   UNL     1     -45.138  42.412  25.876  1.00  0.00    -0.031 A 
ATOM     55  H   UNL     1     -47.063  41.444  25.332  1.00  0.00     0.082 H 
ATOM     56  C   UNL     1     -44.173  42.034  26.842  1.00  0.00     0.062 A 
ATOM     57  N   UNL     1     -44.005  40.228  28.451  1.00  0.00    -0.218 NA
ATOM     58  H   UNL     1     -45.095  43.272  25.220  1.00  0.00     0.065 H 
ATOM     59  C   UNL     1     -42.935  42.532  27.273  1.00  0.00     0.136 A 
ATOM     60  C   UNL     1     -42.826  40.776  28.765  1.00  0.00     0.120 A 
ATOM     61  N   UNL     1     -42.264  41.881  28.239  1.00  0.00    -0.219 NA
ATOM     62  H   UNL     1     -42.256  40.265  29.535  1.00  0.00     0.106 H 
BRANCH  59  63
ATOM     63  N   UNL     1     -42.332  43.662  26.735  1.00  0.00    -0.383 N 
ATOM     64  H   UNL     1     -41.456  43.917  27.170  1.00  0.00     0.158 HD
ATOM     65  H   UNL     1     -43.014  44.404  26.636  1.00  0.00     0.158 HD
ENDBRANCH  59  63
ENDBRANCH  48  51
ENDBRANCH  40  43
ENDBRANCH  39  40
ENDBRANCH   7  39
TORSDOF 13
ENDMDL
MODEL 7
REMARK VINA RESULT:      -8.3      1.735      2.554
REMARK SMILES CCc1cc(NCCN(C)C)c2ccc(OCc3cncc(-n4ccc5c(N)ncnc54)n3)cc2n1
REMARK SMILES IDX 3 1 4 2 5 3 12 4 13 5 14 6 15 7 34 8 35 9 36 10 2 15 1 18
REMARK SMILES IDX 6 22 7 24 8 27 9 30 10 31 11 35 16 39 17 40 18 43 19 44
REMARK SMILES IDX 33 45 20 46 22 48 21 49 23 51 24 52 32 53 25 54 26 56 31 57
REMARK SMILES IDX 27 59 30 60 29 61 28 63
REMARK H PARENT 4 11 13 12 14 13 34 14 2 16 2 17 1 19 1 20 1 21 6 23 7 25 7 26
REMARK H PARENT 8 28 8 29 10 32 10 33 10 34 11 36 11 37 11 38 17 41 17 42
REMARK H PARENT 19 47 21 50 24 55 25 58 30 62 28 64 28 65
REMARK Flexibility Score: inf
ROOT
ATOM      1  C   UNL     1     -50.826  30.428  23.072  1.00  0.00     0.043 A 
ATOM      2  C   UNL     1     -49.735  29.656  22.697  1.00  0.00    -0.017 A 
ATOM      3  C   UNL     1     -48.485  29.892  23.272  1.00  0.00     0.045 A 
ATOM      4  C   UNL     1     -48.368  30.980  24.184  1.00  0.00     0.024 A 
ATOM      5  C   UNL     1     -47.148  31.385  24.775  1.00  0.00    -0.047 A 
ATOM      6  C   UNL     1     -47.096  32.445  25.679  1.00  0.00    -0.019 A 
ATOM      7  C   UNL     1     -48.254  33.136  26.017  1.00  0.00     0.122 A 
ATOM      8  C   UNL     1     -49.459  32.750  25.430  1.00  0.00     0.007 A 
ATOM      9  C   UNL     1     -49.537  31.702  24.514  1.00  0.00     0.076 A 
ATOM     10  N   UNL     1     -50.735  31.426  23.976  1.00  0.00    -0.253 NA
ATOM     11  H   UNL     1     -49.888  28.867  21.969  1.00  0.00     0.066 H 
ATOM     12  H   UNL     1     -46.217  30.886  24.521  1.00  0.00     0.063 H 
ATOM     13  H   UNL     1     -46.143  32.734  26.117  1.00  0.00     0.066 H 
ATOM     14  H   UNL     1     -50.394  33.249  25.669  1.00  0.00     0.069 H 
ENDROOT
BRANCH   1  15
ATOM     15  C   UNL     1     -52.192  30.151  22.501  1.00  0.00    -0.013 C 
ATOM     16  H   UNL     1     -52.955  30.516  23.198  1.00  0.00     0.033 H 
ATOM     17  H   UNL     1     -52.330  30.712  21.569  1.00  0.00     0.033 H 
BRANCH  15  18
ATOM     18  C   UNL     1     -52.401  28.665  22.253  1.00  0.00    -0.060 C 
ATOM     19  H   UNL     1     -51.709  28.078  22.866  1.00  0.00     0.023 H 
ATOM     20  H   UNL     1     -53.421  28.360  22.508  1.00  0.00     0.023 H 
ATOM     21  H   UNL     1     -52.228  28.408  21.203  1.00  0.00     0.023 H 
ENDBRANCH  15  18
ENDBRANCH   1  15
BRANCH   3  22
ATOM     22  N   UNL     1     -47.337  29.155  22.912  1.00  0.00    -0.383 N 
ATOM     23  H   UNL     1     -46.576  29.790  22.680  1.00  0.00     0.160 HD
BRANCH  22  24
ATOM     24  C   UNL     1     -46.862  28.019  23.709  1.00  0.00     0.027 C 
ATOM     25  H   UNL     1     -45.935  28.259  24.244  1.00  0.00     0.050 H 
ATOM     26  H   UNL     1     -46.604  27.222  23.003  1.00  0.00     0.050 H 
BRANCH  24  27
ATOM     27  C   UNL     1     -47.962  27.499  24.662  1.00  0.00     0.015 C 
ATOM     28  H   UNL     1     -48.195  28.295  25.380  1.00  0.00     0.045 H 
ATOM     29  H   UNL     1     -48.885  27.327  24.092  1.00  0.00     0.045 H 
BRANCH  27  30
ATOM     30  N   UNL     1     -47.578  26.286  25.415  1.00  0.00    -0.308 NA
BRANCH  30  31
ATOM     31  C   UNL     1     -46.176  25.955  25.138  1.00  0.00    -0.014 C 
ATOM     32  H   UNL     1     -45.814  25.129  25.760  1.00  0.00     0.039 H 
ATOM     33  H   UNL     1     -46.047  25.678  24.085  1.00  0.00     0.039 H 
ATOM     34  H   UNL     1     -45.533  26.825  25.310  1.00  0.00     0.039 H 
ENDBRANCH  30  31
BRANCH  30  35
ATOM     35  C   UNL     1     -47.765  26.459  26.858  1.00  0.00    -0.014 C 
ATOM     36  H   UNL     1     -48.713  26.035  27.206  1.00  0.00     0.039 H 
ATOM     37  H   UNL     1     -46.949  25.995  27.420  1.00  0.00     0.039 H 
ATOM     38  H   UNL     1     -47.747  27.522  27.122  1.00  0.00     0.039 H 
ENDBRANCH  30  35
ENDBRANCH  27  30
ENDBRANCH  24  27
ENDBRANCH  22  24
ENDBRANCH   3  22
BRANCH   7  39
ATOM     39  O   UNL     1     -48.064  34.147  26.918  1.00  0.00    -0.487 OA
BRANCH  39  40
ATOM     40  C   UNL     1     -46.918  34.990  26.772  1.00  0.00     0.132 C 
ATOM     41  H   UNL     1     -46.498  34.951  25.760  1.00  0.00     0.078 H 
ATOM     42  H   UNL     1     -46.137  34.577  27.423  1.00  0.00     0.078 H 
BRANCH  40  43
ATOM     43  C   UNL     1     -47.202  36.400  27.215  1.00  0.00     0.099 A 
ATOM     44  C   UNL     1     -48.472  36.785  27.613  1.00  0.00     0.052 A 
ATOM     45  N   UNL     1     -46.181  37.291  27.189  1.00  0.00    -0.228 NA
ATOM     46  N   UNL     1     -48.760  38.046  28.012  1.00  0.00    -0.259 NA
ATOM     47  H   UNL     1     -49.303  36.088  27.623  1.00  0.00     0.086 H 
ATOM     48  C   UNL     1     -46.448  38.571  27.548  1.00  0.00     0.157 A 
ATOM     49  C   UNL     1     -47.725  38.925  27.965  1.00  0.00     0.070 A 
ATOM     50  H   UNL     1     -48.001  39.930  28.261  1.00  0.00     0.088 H 
BRANCH  48  51
ATOM     51  N   UNL     1     -45.405  39.545  27.459  1.00  0.00    -0.284 N 
ATOM     52  C   UNL     1     -45.204  40.452  26.427  1.00  0.00     0.013 A 
ATOM     53  C   UNL     1     -44.386  39.737  28.390  1.00  0.00     0.151 A 
ATOM     54  C   UNL     1     -44.072  41.193  26.692  1.00  0.00    -0.031 A 
ATOM     55  H   UNL     1     -45.878  40.520  25.586  1.00  0.00     0.082 H 
ATOM     56  C   UNL     1     -43.540  40.737  27.922  1.00  0.00     0.062 A 
ATOM     57  N   UNL     1     -44.210  39.061  29.541  1.00  0.00    -0.218 NA
ATOM     58  H   UNL     1     -43.673  41.980  26.065  1.00  0.00     0.065 H 
ATOM     59  C   UNL     1     -42.426  41.054  28.714  1.00  0.00     0.136 A 
ATOM     60  C   UNL     1     -43.107  39.428  30.202  1.00  0.00     0.120 A 
ATOM     61  N   UNL     1     -42.217  40.378  29.857  1.00  0.00    -0.219 NA
ATOM     62  H   UNL     1     -42.906  38.891  31.124  1.00  0.00     0.106 H 
BRANCH  59  63
ATOM     63  N   UNL     1     -41.490  42.022  28.371  1.00  0.00    -0.383 N 
ATOM     64  H   UNL     1     -40.568  41.661  28.173  1.00  0.00     0.158 HD
ATOM     65  H   UNL     1     -41.536  42.794  29.026  1.00  0.00     0.158 HD
ENDBRANCH  59  63
ENDBRANCH  48  51
ENDBRANCH  40  43
ENDBRANCH  39  40
ENDBRANCH   7  39
TORSDOF 13
ENDMDL
