MODEL 1
REMARK VINA RESULT:     -10.7      0.000      0.000
REMARK SMILES CCc1cc(N)c2ccc(OC[C@H]3O[C@@H](n4cc(Br)c5c(N)ncnc54)[C@@H](F)[C@@H]3O)cc2n1
REMARK SMILES IDX 12 1 11 4 10 5 3 6 4 7 33 8 5 9 32 11 7 12 31 13 8 14 9 16
REMARK SMILES IDX 2 19 1 22 6 26 13 29 14 30 29 31 15 33 27 34 28 37 30 39
REMARK SMILES IDX 16 41 17 42 26 43 18 44 20 46 25 47 19 48 21 49 24 50 23 51
REMARK SMILES IDX 22 53
REMARK H PARENT 12 2 12 3 4 10 31 15 8 17 9 18 2 20 2 21 1 23 1 24 1 25 6 27
REMARK H PARENT 6 28 13 32 29 35 15 36 27 38 30 40 17 45 24 52 22 54 22 55
REMARK Flexibility Score: inf
ROOT
ATOM      1  C   UNL     1     -47.388  36.290  27.222  1.00  0.00     0.117 C 
ATOM      2  H   UNL     1     -48.003  37.168  27.447  1.00  0.00     0.073 H 
ATOM      3  H   UNL     1     -46.949  36.518  26.243  1.00  0.00     0.073 H 
ENDROOT
BRANCH   1   4
ATOM      4  O   UNL     1     -48.272  35.170  27.172  1.00  0.00    -0.491 OA
BRANCH   4   5
ATOM      5  C   UNL     1     -47.945  34.103  26.386  1.00  0.00     0.121 A 
ATOM      6  C   UNL     1     -48.723  29.873  24.371  1.00  0.00     0.043 A 
ATOM      7  C   UNL     1     -47.527  29.897  23.668  1.00  0.00    -0.017 A 
ATOM      8  N   UNL     1     -49.083  30.857  25.224  1.00  0.00    -0.253 NA
ATOM      9  C   UNL     1     -46.642  30.958  23.861  1.00  0.00     0.043 A 
ATOM     10  H   UNL     1     -47.283  29.090  22.985  1.00  0.00     0.066 H 
ATOM     11  C   UNL     1     -48.276  31.918  25.362  1.00  0.00     0.076 A 
ATOM     12  C   UNL     1     -47.045  32.039  24.683  1.00  0.00     0.023 A 
ATOM     13  C   UNL     1     -48.695  32.942  26.205  1.00  0.00     0.007 A 
ATOM     14  C   UNL     1     -46.290  33.220  24.863  1.00  0.00    -0.047 A 
ATOM     15  H   UNL     1     -49.645  32.794  26.709  1.00  0.00     0.069 H 
ATOM     16  C   UNL     1     -46.739  34.236  25.706  1.00  0.00    -0.019 A 
ATOM     17  H   UNL     1     -45.349  33.365  24.341  1.00  0.00     0.063 H 
ATOM     18  H   UNL     1     -46.141  35.136  25.832  1.00  0.00     0.066 H 
BRANCH   6  19
ATOM     19  C   UNL     1     -49.675  28.713  24.226  1.00  0.00    -0.013 C 
ATOM     20  H   UNL     1     -49.364  27.907  24.902  1.00  0.00     0.033 H 
ATOM     21  H   UNL     1     -50.681  29.015  24.540  1.00  0.00     0.033 H 
BRANCH  19  22
ATOM     22  C   UNL     1     -49.706  28.191  22.798  1.00  0.00    -0.060 C 
ATOM     23  H   UNL     1     -49.577  27.105  22.790  1.00  0.00     0.023 H 
ATOM     24  H   UNL     1     -50.659  28.424  22.310  1.00  0.00     0.023 H 
ATOM     25  H   UNL     1     -48.904  28.634  22.197  1.00  0.00     0.023 H 
ENDBRANCH  19  22
ENDBRANCH   6  19
BRANCH   9  26
ATOM     26  N   UNL     1     -45.476  31.005  23.069  1.00  0.00    -0.398 N 
ATOM     27  H   UNL     1     -45.474  30.335  22.306  1.00  0.00     0.156 HD
ATOM     28  H   UNL     1     -44.617  30.951  23.606  1.00  0.00     0.156 HD
ENDBRANCH   9  26
ENDBRANCH   4   5
ENDBRANCH   1   4
BRANCH   1  29
ATOM     29  C   UNL     1     -46.316  36.120  28.308  1.00  0.00     0.123 C 
ATOM     30  O   UNL     1     -45.157  36.896  27.936  1.00  0.00    -0.345 OA
ATOM     31  C   UNL     1     -46.769  36.609  29.688  1.00  0.00     0.119 C 
ATOM     32  H   UNL     1     -46.002  35.073  28.364  1.00  0.00     0.067 H 
ATOM     33  C   UNL     1     -44.998  37.951  28.918  1.00  0.00     0.169 C 
ATOM     34  C   UNL     1     -46.305  38.047  29.693  1.00  0.00     0.173 C 
ATOM     35  H   UNL     1     -47.844  36.509  29.858  1.00  0.00     0.066 H 
ATOM     36  H   UNL     1     -44.169  37.645  29.567  1.00  0.00     0.088 H 
ATOM     37  F   UNL     1     -47.221  38.793  29.015  1.00  0.00    -0.239 F 
ATOM     38  H   UNL     1     -46.176  38.478  30.689  1.00  0.00     0.074 H 
BRANCH  31  39
ATOM     39  O   UNL     1     -46.089  35.896  30.728  1.00  0.00    -0.387 OA
ATOM     40  H   UNL     1     -46.032  34.961  30.454  1.00  0.00     0.211 HD
ENDBRANCH  31  39
BRANCH  33  41
ATOM     41  N   UNL     1     -44.611  39.190  28.265  1.00  0.00    -0.302 N 
ATOM     42  C   UNL     1     -45.146  39.733  27.122  1.00  0.00     0.023 A 
ATOM     43  C   UNL     1     -43.615  40.011  28.740  1.00  0.00     0.148 A 
ATOM     44  C   UNL     1     -44.475  40.908  26.877  1.00  0.00     0.049 A 
ATOM     45  H   UNL     1     -45.946  39.242  26.585  1.00  0.00     0.083 H 
ATOM     46  C   UNL     1     -43.501  41.104  27.886  1.00  0.00     0.075 A 
ATOM     47  N   UNL     1     -42.890  39.779  29.847  1.00  0.00    -0.218 NA
ATOM     48  Br  UNL     1     -44.806  42.065  25.437  1.00  0.00    -0.048 Br
ATOM     49  C   UNL     1     -42.524  42.054  28.219  1.00  0.00     0.137 A 
ATOM     50  C   UNL     1     -41.993  40.756  30.062  1.00  0.00     0.120 A 
ATOM     51  N   UNL     1     -41.778  41.863  29.327  1.00  0.00    -0.219 NA
ATOM     52  H   UNL     1     -41.363  40.641  30.939  1.00  0.00     0.106 H 
BRANCH  49  53
ATOM     53  N   UNL     1     -42.272  43.204  27.488  1.00  0.00    -0.383 N 
ATOM     54  H   UNL     1     -41.726  43.004  26.659  1.00  0.00     0.158 HD
ATOM     55  H   UNL     1     -42.006  44.013  28.031  1.00  0.00     0.158 HD
ENDBRANCH  49  53
ENDBRANCH  33  41
ENDBRANCH   1  29
TORSDOF 9
ENDMDL
MODEL 2
REMARK VINA RESULT:      -9.5      3.080     10.018
REMARK SMILES CCc1cc(N)c2ccc(OC[C@H]3O[C@@H](n4cc(Br)c5c(N)ncnc54)[C@@H](F)[C@@H]3O)cc2n1
REMARK SMILES IDX 12 1 11 4 10 5 3 6 4 7 33 8 5 9 32 11 7 12 31 13 8 14 9 16
REMARK SMILES IDX 2 19 1 22 6 26 13 29 14 30 29 31 15 33 27 34 28 37 30 39
REMARK SMILES IDX 16 41 17 42 26 43 18 44 20 46 25 47 19 48 21 49 24 50 23 51
REMARK SMILES IDX 22 53
REMARK H PARENT 12 2 12 3 4 10 31 15 8 17 9 18 2 20 2 21 1 23 1 24 1 25 6 27
REMARK H PARENT 6 28 13 32 29 35 15 36 27 38 30 40 17 45 24 52 22 54 22 55
REMARK Flexibility Score: inf
ROOT
ATOM      1  C   UNL     1     -47.984  35.627  26.575  1.00  0.00     0.117 C 
ATOM      2  H   UNL     1     -47.195  35.915  25.870  1.00  0.00     0.073 H 
ATOM      3  H   UNL     1     -48.871  35.500  25.942  1.00  0.00     0.073 H 
ENDROOT
BRANCH   1   4
ATOM      4  O   UNL     1     -48.125  36.706  27.498  1.00  0.00    -0.491 OA
BRANCH   4   5
ATOM      5  C   UNL     1     -47.086  37.577  27.663  1.00  0.00     0.121 A 
ATOM      6  C   UNL     1     -44.319  41.227  26.408  1.00  0.00     0.043 A 
ATOM      7  C   UNL     1     -43.558  41.154  27.566  1.00  0.00    -0.017 A 
ATOM      8  N   UNL     1     -45.316  40.356  26.139  1.00  0.00    -0.253 NA
ATOM      9  C   UNL     1     -43.804  40.130  28.481  1.00  0.00     0.043 A 
ATOM     10  H   UNL     1     -42.774  41.881  27.746  1.00  0.00     0.066 H 
ATOM     11  C   UNL     1     -45.612  39.413  27.045  1.00  0.00     0.076 A 
ATOM     12  C   UNL     1     -44.903  39.265  28.256  1.00  0.00     0.023 A 
ATOM     13  C   UNL     1     -46.678  38.564  26.768  1.00  0.00     0.007 A 
ATOM     14  C   UNL     1     -45.323  38.268  29.164  1.00  0.00    -0.047 A 
ATOM     15  H   UNL     1     -47.182  38.716  25.819  1.00  0.00     0.069 H 
ATOM     16  C   UNL     1     -46.402  37.435  28.866  1.00  0.00    -0.019 A 
ATOM     17  H   UNL     1     -44.822  38.134  30.117  1.00  0.00     0.063 H 
ATOM     18  H   UNL     1     -46.708  36.673  29.579  1.00  0.00     0.066 H 
BRANCH   6  19
ATOM     19  C   UNL     1     -44.042  42.288  25.374  1.00  0.00    -0.013 C 
ATOM     20  H   UNL     1     -43.207  42.912  25.715  1.00  0.00     0.033 H 
ATOM     21  H   UNL     1     -43.720  41.820  24.436  1.00  0.00     0.033 H 
BRANCH  19  22
ATOM     22  C   UNL     1     -45.261  43.163  25.131  1.00  0.00    -0.060 C 
ATOM     23  H   UNL     1     -46.143  42.542  24.948  1.00  0.00     0.023 H 
ATOM     24  H   UNL     1     -45.470  43.804  25.994  1.00  0.00     0.023 H 
ATOM     25  H   UNL     1     -45.116  43.812  24.260  1.00  0.00     0.023 H 
ENDBRANCH  19  22
ENDBRANCH   6  19
BRANCH   9  26
ATOM     26  N   UNL     1     -43.079  40.130  29.691  1.00  0.00    -0.398 N 
ATOM     27  H   UNL     1     -43.165  40.994  30.218  1.00  0.00     0.156 HD
ATOM     28  H   UNL     1     -42.105  39.863  29.582  1.00  0.00     0.156 HD
ENDBRANCH   9  26
ENDBRANCH   4   5
ENDBRANCH   1   4
BRANCH   1  29
ATOM     29  C   UNL     1     -47.591  34.322  27.281  1.00  0.00     0.123 C 
ATOM     30  O   UNL     1     -48.419  33.254  26.773  1.00  0.00    -0.345 OA
ATOM     31  C   UNL     1     -46.131  33.919  27.043  1.00  0.00     0.119 C 
ATOM     32  H   UNL     1     -47.788  34.402  28.355  1.00  0.00     0.067 H 
ATOM     33  C   UNL     1     -47.558  32.323  26.070  1.00  0.00     0.169 C 
ATOM     34  C   UNL     1     -46.232  33.031  25.825  1.00  0.00     0.173 C 
ATOM     35  H   UNL     1     -45.460  34.769  26.894  1.00  0.00     0.066 H 
ATOM     36  H   UNL     1     -47.434  31.458  26.733  1.00  0.00     0.088 H 
ATOM     37  F   UNL     1     -46.300  33.827  24.721  1.00  0.00    -0.239 F 
ATOM     38  H   UNL     1     -45.398  32.336  25.700  1.00  0.00     0.074 H 
BRANCH  31  39
ATOM     39  O   UNL     1     -45.630  33.148  28.142  1.00  0.00    -0.387 OA
ATOM     40  H   UNL     1     -44.916  32.579  27.799  1.00  0.00     0.211 HD
ENDBRANCH  31  39
BRANCH  33  41
ATOM     41  N   UNL     1     -48.207  31.857  24.857  1.00  0.00    -0.302 N 
ATOM     42  C   UNL     1     -49.536  31.968  24.526  1.00  0.00     0.023 A 
ATOM     43  C   UNL     1     -47.534  31.220  23.841  1.00  0.00     0.148 A 
ATOM     44  C   UNL     1     -49.697  31.392  23.288  1.00  0.00     0.049 A 
ATOM     45  H   UNL     1     -50.246  32.439  25.193  1.00  0.00     0.083 H 
ATOM     46  C   UNL     1     -48.445  30.911  22.835  1.00  0.00     0.075 A 
ATOM     47  N   UNL     1     -46.217  30.956  23.838  1.00  0.00    -0.218 NA
ATOM     48  Br  UNL     1     -51.319  31.271  22.352  1.00  0.00    -0.048 Br
ATOM     49  C   UNL     1     -47.928  30.251  21.710  1.00  0.00     0.137 A 
ATOM     50  C   UNL     1     -45.842  30.328  22.712  1.00  0.00     0.120 A 
ATOM     51  N   UNL     1     -46.609  29.973  21.664  1.00  0.00    -0.219 NA
ATOM     52  H   UNL     1     -44.789  30.075  22.634  1.00  0.00     0.106 H 
BRANCH  49  53
ATOM     53  N   UNL     1     -48.685  29.868  20.614  1.00  0.00    -0.383 N 
ATOM     54  H   UNL     1     -48.714  28.860  20.517  1.00  0.00     0.158 HD
ATOM     55  H   UNL     1     -48.535  30.408  19.773  1.00  0.00     0.158 HD
ENDBRANCH  49  53
ENDBRANCH  33  41
ENDBRANCH   1  29
TORSDOF 9
ENDMDL
MODEL 3
REMARK VINA RESULT:      -9.2      2.977     10.020
REMARK SMILES CCc1cc(N)c2ccc(OC[C@H]3O[C@@H](n4cc(Br)c5c(N)ncnc54)[C@@H](F)[C@@H]3O)cc2n1
REMARK SMILES IDX 12 1 11 4 10 5 3 6 4 7 33 8 5 9 32 11 7 12 31 13 8 14 9 16
REMARK SMILES IDX 2 19 1 22 6 26 13 29 14 30 29 31 15 33 27 34 28 37 30 39
REMARK SMILES IDX 16 41 17 42 26 43 18 44 20 46 25 47 19 48 21 49 24 50 23 51
REMARK SMILES IDX 22 53
REMARK H PARENT 12 2 12 3 4 10 31 15 8 17 9 18 2 20 2 21 1 23 1 24 1 25 6 27
REMARK H PARENT 6 28 13 32 29 35 15 36 27 38 30 40 17 45 24 52 22 54 22 55
REMARK Flexibility Score: inf
ROOT
ATOM      1  C   UNL     1     -47.876  36.297  27.092  1.00  0.00     0.117 C 
ATOM      2  H   UNL     1     -47.326  36.586  26.189  1.00  0.00     0.073 H 
ATOM      3  H   UNL     1     -48.893  36.099  26.731  1.00  0.00     0.073 H 
ENDROOT
BRANCH   1   4
ATOM      4  O   UNL     1     -47.823  37.413  27.980  1.00  0.00    -0.491 OA
BRANCH   4   5
ATOM      5  C   UNL     1     -47.034  38.480  27.658  1.00  0.00     0.121 A 
ATOM      6  C   UNL     1     -43.111  41.142  27.940  1.00  0.00     0.043 A 
ATOM      7  C   UNL     1     -43.549  42.035  26.973  1.00  0.00    -0.017 A 
ATOM      8  N   UNL     1     -43.865  40.104  28.364  1.00  0.00    -0.253 NA
ATOM      9  C   UNL     1     -44.826  41.882  26.431  1.00  0.00     0.043 A 
ATOM     10  H   UNL     1     -42.906  42.849  26.655  1.00  0.00     0.066 H 
ATOM     11  C   UNL     1     -45.063  39.902  27.797  1.00  0.00     0.076 A 
ATOM     12  C   UNL     1     -45.591  40.749  26.799  1.00  0.00     0.023 A 
ATOM     13  C   UNL     1     -45.795  38.795  28.213  1.00  0.00     0.007 A 
ATOM     14  C   UNL     1     -46.844  40.422  26.235  1.00  0.00    -0.047 A 
ATOM     15  H   UNL     1     -45.346  38.183  28.989  1.00  0.00     0.069 H 
ATOM     16  C   UNL     1     -47.553  39.300  26.663  1.00  0.00    -0.019 A 
ATOM     17  H   UNL     1     -47.277  41.032  25.447  1.00  0.00     0.063 H 
ATOM     18  H   UNL     1     -48.517  39.068  26.215  1.00  0.00     0.066 H 
BRANCH   6  19
ATOM     19  C   UNL     1     -41.759  41.312  28.585  1.00  0.00    -0.013 C 
ATOM     20  H   UNL     1     -41.007  40.785  27.986  1.00  0.00     0.033 H 
ATOM     21  H   UNL     1     -41.475  42.371  28.582  1.00  0.00     0.033 H 
BRANCH  19  22
ATOM     22  C   UNL     1     -41.746  40.770  30.005  1.00  0.00    -0.060 C 
ATOM     23  H   UNL     1     -41.295  39.773  30.024  1.00  0.00     0.023 H 
ATOM     24  H   UNL     1     -41.167  41.417  30.673  1.00  0.00     0.023 H 
ATOM     25  H   UNL     1     -42.761  40.692  30.410  1.00  0.00     0.023 H 
ENDBRANCH  19  22
ENDBRANCH   6  19
BRANCH   9  26
ATOM     26  N   UNL     1     -45.213  42.748  25.387  1.00  0.00    -0.398 N 
ATOM     27  H   UNL     1     -45.376  42.273  24.503  1.00  0.00     0.156 HD
ATOM     28  H   UNL     1     -44.595  43.544  25.267  1.00  0.00     0.156 HD
ENDBRANCH   9  26
ENDBRANCH   4   5
ENDBRANCH   1   4
BRANCH   1  29
ATOM     29  C   UNL     1     -47.230  35.048  27.709  1.00  0.00     0.123 C 
ATOM     30  O   UNL     1     -48.052  33.903  27.396  1.00  0.00    -0.345 OA
ATOM     31  C   UNL     1     -45.825  34.762  27.169  1.00  0.00     0.119 C 
ATOM     32  H   UNL     1     -47.203  35.140  28.799  1.00  0.00     0.067 H 
ATOM     33  C   UNL     1     -47.281  33.029  26.534  1.00  0.00     0.169 C 
ATOM     34  C   UNL     1     -46.104  33.838  26.007  1.00  0.00     0.173 C 
ATOM     35  H   UNL     1     -45.277  35.661  26.873  1.00  0.00     0.066 H 
ATOM     36  H   UNL     1     -46.945  32.195  27.162  1.00  0.00     0.088 H 
ATOM     37  F   UNL     1     -46.472  34.596  24.936  1.00  0.00    -0.239 F 
ATOM     38  H   UNL     1     -45.258  33.211  25.712  1.00  0.00     0.074 H 
BRANCH  31  39
ATOM     39  O   UNL     1     -45.038  34.065  28.142  1.00  0.00    -0.387 OA
ATOM     40  H   UNL     1     -44.125  34.404  28.078  1.00  0.00     0.211 HD
ENDBRANCH  31  39
BRANCH  33  41
ATOM     41  N   UNL     1     -48.129  32.479  25.490  1.00  0.00    -0.302 N 
ATOM     42  C   UNL     1     -49.495  32.583  25.383  1.00  0.00     0.023 A 
ATOM     43  C   UNL     1     -47.641  31.755  24.428  1.00  0.00     0.148 A 
ATOM     44  C   UNL     1     -49.866  31.914  24.240  1.00  0.00     0.049 A 
ATOM     45  H   UNL     1     -50.079  33.116  26.121  1.00  0.00     0.083 H 
ATOM     46  C   UNL     1     -48.710  31.381  23.620  1.00  0.00     0.075 A 
ATOM     47  N   UNL     1     -46.343  31.472  24.221  1.00  0.00    -0.218 NA
ATOM     48  Br  UNL     1     -51.624  31.745  23.607  1.00  0.00    -0.048 Br
ATOM     49  C   UNL     1     -48.395  30.628  22.479  1.00  0.00     0.137 A 
ATOM     50  C   UNL     1     -46.167  30.752  23.101  1.00  0.00     0.120 A 
ATOM     51  N   UNL     1     -47.103  30.328  22.231  1.00  0.00    -0.219 NA
ATOM     52  H   UNL     1     -45.144  30.478  22.865  1.00  0.00     0.106 H 
BRANCH  49  53
ATOM     53  N   UNL     1     -49.329  30.172  21.562  1.00  0.00    -0.383 N 
ATOM     54  H   UNL     1     -48.967  29.398  21.018  1.00  0.00     0.158 HD
ATOM     55  H   UNL     1     -49.832  30.891  21.062  1.00  0.00     0.158 HD
ENDBRANCH  49  53
ENDBRANCH  33  41
ENDBRANCH   1  29
TORSDOF 9
ENDMDL
MODEL 4
REMARK VINA RESULT:      -9.0      1.638      2.534
REMARK SMILES CCc1cc(N)c2ccc(OC[C@H]3O[C@@H](n4cc(Br)c5c(N)ncnc54)[C@@H](F)[C@@H]3O)cc2n1
REMARK SMILES IDX 12 1 11 4 10 5 3 6 4 7 33 8 5 9 32 11 7 12 31 13 8 14 9 16
REMARK SMILES IDX 2 19 1 22 6 26 13 29 14 30 29 31 15 33 27 34 28 37 30 39
REMARK SMILES IDX 16 41 17 42 26 43 18 44 20 46 25 47 19 48 21 49 24 50 23 51
REMARK SMILES IDX 22 53
REMARK H PARENT 12 2 12 3 4 10 31 15 8 17 9 18 2 20 2 21 1 23 1 24 1 25 6 27
REMARK H PARENT 6 28 13 32 29 35 15 36 27 38 30 40 17 45 24 52 22 54 22 55
REMARK Flexibility Score: inf
ROOT
ATOM      1  C   UNL     1     -45.857  35.084  27.446  1.00  0.00     0.117 C 
ATOM      2  H   UNL     1     -46.110  35.397  26.427  1.00  0.00     0.073 H 
ATOM      3  H   UNL     1     -44.790  35.324  27.540  1.00  0.00     0.073 H 
ENDROOT
BRANCH   1   4
ATOM      4  O   UNL     1     -46.105  33.681  27.519  1.00  0.00    -0.491 OA
BRANCH   4   5
ATOM      5  C   UNL     1     -46.710  33.059  26.465  1.00  0.00     0.121 A 
ATOM      6  C   UNL     1     -46.826  31.128  22.127  1.00  0.00     0.043 A 
ATOM      7  C   UNL     1     -48.157  30.754  22.240  1.00  0.00    -0.017 A 
ATOM      8  N   UNL     1     -46.179  31.810  23.097  1.00  0.00    -0.253 NA
ATOM      9  C   UNL     1     -48.873  31.114  23.383  1.00  0.00     0.043 A 
ATOM     10  H   UNL     1     -48.634  30.199  21.440  1.00  0.00     0.066 H 
ATOM     11  C   UNL     1     -46.834  32.096  24.232  1.00  0.00     0.076 A 
ATOM     12  C   UNL     1     -48.185  31.749  24.446  1.00  0.00     0.023 A 
ATOM     13  C   UNL     1     -46.129  32.751  25.236  1.00  0.00     0.007 A 
ATOM     14  C   UNL     1     -48.769  32.057  25.694  1.00  0.00    -0.047 A 
ATOM     15  H   UNL     1     -45.096  33.003  25.015  1.00  0.00     0.069 H 
ATOM     16  C   UNL     1     -48.036  32.705  26.688  1.00  0.00    -0.019 A 
ATOM     17  H   UNL     1     -49.798  31.787  25.911  1.00  0.00     0.063 H 
ATOM     18  H   UNL     1     -48.506  32.934  27.642  1.00  0.00     0.066 H 
BRANCH   6  19
ATOM     19  C   UNL     1     -46.042  30.803  20.882  1.00  0.00    -0.013 C 
ATOM     20  H   UNL     1     -44.986  30.672  21.148  1.00  0.00     0.033 H 
ATOM     21  H   UNL     1     -46.381  29.847  20.466  1.00  0.00     0.033 H 
BRANCH  19  22
ATOM     22  C   UNL     1     -46.168  31.902  19.839  1.00  0.00    -0.060 C 
ATOM     23  H   UNL     1     -46.251  32.878  20.326  1.00  0.00     0.023 H 
ATOM     24  H   UNL     1     -45.295  31.925  19.178  1.00  0.00     0.023 H 
ATOM     25  H   UNL     1     -47.057  31.757  19.215  1.00  0.00     0.023 H 
ENDBRANCH  19  22
ENDBRANCH   6  19
BRANCH   9  26
ATOM     26  N   UNL     1     -50.197  30.645  23.514  1.00  0.00    -0.398 N 
ATOM     27  H   UNL     1     -50.581  30.262  22.655  1.00  0.00     0.156 HD
ATOM     28  H   UNL     1     -50.829  31.322  23.929  1.00  0.00     0.156 HD
ENDBRANCH   9  26
ENDBRANCH   4   5
ENDBRANCH   1   4
BRANCH   1  29
ATOM     29  C   UNL     1     -46.713  35.867  28.452  1.00  0.00     0.123 C 
ATOM     30  O   UNL     1     -45.963  37.017  28.899  1.00  0.00    -0.345 OA
ATOM     31  C   UNL     1     -48.027  36.382  27.857  1.00  0.00     0.119 C 
ATOM     32  H   UNL     1     -46.916  35.249  29.333  1.00  0.00     0.067 H 
ATOM     33  C   UNL     1     -46.657  38.203  28.437  1.00  0.00     0.169 C 
ATOM     34  C   UNL     1     -47.646  37.760  27.367  1.00  0.00     0.173 C 
ATOM     35  H   UNL     1     -48.430  35.747  27.063  1.00  0.00     0.066 H 
ATOM     36  H   UNL     1     -47.172  38.619  29.311  1.00  0.00     0.088 H 
ATOM     37  F   UNL     1     -47.031  37.628  26.158  1.00  0.00    -0.239 F 
ATOM     38  H   UNL     1     -48.486  38.450  27.255  1.00  0.00     0.074 H 
BRANCH  31  39
ATOM     39  O   UNL     1     -49.031  36.509  28.872  1.00  0.00    -0.387 OA
ATOM     40  H   UNL     1     -49.899  36.391  28.442  1.00  0.00     0.211 HD
ENDBRANCH  31  39
BRANCH  33  41
ATOM     41  N   UNL     1     -45.701  39.196  27.977  1.00  0.00    -0.302 N 
ATOM     42  C   UNL     1     -45.774  39.959  26.837  1.00  0.00     0.023 A 
ATOM     43  C   UNL     1     -44.552  39.509  28.665  1.00  0.00     0.148 A 
ATOM     44  C   UNL     1     -44.656  40.759  26.811  1.00  0.00     0.049 A 
ATOM     45  H   UNL     1     -46.604  39.867  26.149  1.00  0.00     0.083 H 
ATOM     46  C   UNL     1     -43.868  40.491  27.956  1.00  0.00     0.075 A 
ATOM     47  N   UNL     1     -44.176  38.951  29.828  1.00  0.00    -0.218 NA
ATOM     48  Br  UNL     1     -44.249  42.008  25.470  1.00  0.00    -0.048 Br
ATOM     49  C   UNL     1     -42.660  40.935  28.516  1.00  0.00     0.137 A 
ATOM     50  C   UNL     1     -43.011  39.458  30.265  1.00  0.00     0.120 A 
ATOM     51  N   UNL     1     -42.250  40.406  29.687  1.00  0.00    -0.219 NA
ATOM     52  H   UNL     1     -42.635  39.055  31.200  1.00  0.00     0.106 H 
BRANCH  49  53
ATOM     53  N   UNL     1     -41.849  41.907  27.951  1.00  0.00    -0.383 N 
ATOM     54  H   UNL     1     -42.390  42.582  27.425  1.00  0.00     0.158 HD
ATOM     55  H   UNL     1     -40.997  41.567  27.527  1.00  0.00     0.158 HD
ENDBRANCH  49  53
ENDBRANCH  33  41
ENDBRANCH   1  29
TORSDOF 9
ENDMDL
MODEL 5
REMARK VINA RESULT:      -8.9      2.024      2.547
REMARK SMILES CCc1cc(N)c2ccc(OC[C@H]3O[C@@H](n4cc(Br)c5c(N)ncnc54)[C@@H](F)[C@@H]3O)cc2n1
REMARK SMILES IDX 12 1 11 4 10 5 3 6 4 7 33 8 5 9 32 11 7 12 31 13 8 14 9 16
REMARK SMILES IDX 2 19 1 22 6 26 13 29 14 30 29 31 15 33 27 34 28 37 30 39
REMARK SMILES IDX 16 41 17 42 26 43 18 44 20 46 25 47 19 48 21 49 24 50 23 51
REMARK SMILES IDX 22 53
REMARK H PARENT 12 2 12 3 4 10 31 15 8 17 9 18 2 20 2 21 1 23 1 24 1 25 6 27
REMARK H PARENT 6 28 13 32 29 35 15 36 27 38 30 40 17 45 24 52 22 54 22 55
REMARK Flexibility Score: inf
ROOT
ATOM      1  C   UNL     1     -46.687  35.187  26.266  1.00  0.00     0.117 C 
ATOM      2  H   UNL     1     -47.225  36.036  25.829  1.00  0.00     0.073 H 
ATOM      3  H   UNL     1     -45.936  34.932  25.509  1.00  0.00     0.073 H 
ENDROOT
BRANCH   1   4
ATOM      4  O   UNL     1     -47.645  34.146  26.453  1.00  0.00    -0.491 OA
BRANCH   4   5
ATOM      5  C   UNL     1     -47.535  33.004  25.713  1.00  0.00     0.121 A 
ATOM      6  C   UNL     1     -48.879  28.674  24.297  1.00  0.00     0.043 A 
ATOM      7  C   UNL     1     -47.867  28.580  23.353  1.00  0.00    -0.017 A 
ATOM      8  N   UNL     1     -49.009  29.740  25.116  1.00  0.00    -0.253 NA
ATOM      9  C   UNL     1     -46.925  29.605  23.256  1.00  0.00     0.043 A 
ATOM     10  H   UNL     1     -47.806  27.709  22.708  1.00  0.00     0.066 H 
ATOM     11  C   UNL     1     -48.156  30.766  24.982  1.00  0.00     0.076 A 
ATOM     12  C   UNL     1     -47.101  30.768  24.045  1.00  0.00     0.023 A 
ATOM     13  C   UNL     1     -48.346  31.874  25.802  1.00  0.00     0.007 A 
ATOM     14  C   UNL     1     -46.286  31.917  23.953  1.00  0.00    -0.047 A 
ATOM     15  H   UNL     1     -49.166  31.816  26.510  1.00  0.00     0.069 H 
ATOM     16  C   UNL     1     -46.503  33.019  24.780  1.00  0.00    -0.019 A 
ATOM     17  H   UNL     1     -45.478  31.972  23.230  1.00  0.00     0.063 H 
ATOM     18  H   UNL     1     -45.862  33.894  24.693  1.00  0.00     0.066 H 
BRANCH   6  19
ATOM     19  C   UNL     1     -49.878  27.559  24.464  1.00  0.00    -0.013 C 
ATOM     20  H   UNL     1     -50.876  27.928  24.197  1.00  0.00     0.033 H 
ATOM     21  H   UNL     1     -49.649  26.744  23.766  1.00  0.00     0.033 H 
BRANCH  19  22
ATOM     22  C   UNL     1     -49.898  27.035  25.891  1.00  0.00    -0.060 C 
ATOM     23  H   UNL     1     -50.912  26.733  26.169  1.00  0.00     0.023 H 
ATOM     24  H   UNL     1     -49.241  26.166  26.005  1.00  0.00     0.023 H 
ATOM     25  H   UNL     1     -49.565  27.802  26.599  1.00  0.00     0.023 H 
ENDBRANCH  19  22
ENDBRANCH   6  19
BRANCH   9  26
ATOM     26  N   UNL     1     -45.960  29.528  22.230  1.00  0.00    -0.398 N 
ATOM     27  H   UNL     1     -45.328  30.322  22.205  1.00  0.00     0.156 HD
ATOM     28  H   UNL     1     -46.355  29.345  21.312  1.00  0.00     0.156 HD
ENDBRANCH   9  26
ENDBRANCH   4   5
ENDBRANCH   1   4
BRANCH   1  29
ATOM     29  C   UNL     1     -46.044  35.614  27.593  1.00  0.00     0.123 C 
ATOM     30  O   UNL     1     -45.660  37.002  27.494  1.00  0.00    -0.345 OA
ATOM     31  C   UNL     1     -46.988  35.486  28.793  1.00  0.00     0.119 C 
ATOM     32  H   UNL     1     -45.130  35.036  27.770  1.00  0.00     0.067 H 
ATOM     33  C   UNL     1     -46.465  37.751  28.440  1.00  0.00     0.169 C 
ATOM     34  C   UNL     1     -47.623  36.855  28.856  1.00  0.00     0.173 C 
ATOM     35  H   UNL     1     -47.722  34.682  28.691  1.00  0.00     0.066 H 
ATOM     36  H   UNL     1     -45.809  37.978  29.289  1.00  0.00     0.088 H 
ATOM     37  F   UNL     1     -48.630  36.901  27.939  1.00  0.00    -0.239 F 
ATOM     38  H   UNL     1     -48.034  37.120  29.834  1.00  0.00     0.074 H 
BRANCH  31  39
ATOM     39  O   UNL     1     -46.249  35.258  30.000  1.00  0.00    -0.387 OA
ATOM     40  H   UNL     1     -45.626  34.527  29.828  1.00  0.00     0.211 HD
ENDBRANCH  31  39
BRANCH  33  41
ATOM     41  N   UNL     1     -46.880  39.015  27.856  1.00  0.00    -0.302 N 
ATOM     42  C   UNL     1     -48.147  39.544  27.829  1.00  0.00     0.023 A 
ATOM     43  C   UNL     1     -46.010  39.877  27.232  1.00  0.00     0.148 A 
ATOM     44  C   UNL     1     -48.069  40.753  27.178  1.00  0.00     0.049 A 
ATOM     45  H   UNL     1     -48.987  39.021  28.267  1.00  0.00     0.083 H 
ATOM     46  C   UNL     1     -46.727  40.984  26.790  1.00  0.00     0.075 A 
ATOM     47  N   UNL     1     -44.690  39.668  27.088  1.00  0.00    -0.218 NA
ATOM     48  Br  UNL     1     -49.514  41.909  26.862  1.00  0.00    -0.048 Br
ATOM     49  C   UNL     1     -45.993  41.976  26.123  1.00  0.00     0.137 A 
ATOM     50  C   UNL     1     -44.097  40.684  26.440  1.00  0.00     0.120 A 
ATOM     51  N   UNL     1     -44.664  41.809  25.965  1.00  0.00    -0.219 NA
ATOM     52  H   UNL     1     -43.028  40.590  26.281  1.00  0.00     0.106 H 
BRANCH  49  53
ATOM     53  N   UNL     1     -46.539  43.145  25.618  1.00  0.00    -0.383 N 
ATOM     54  H   UNL     1     -46.322  43.941  26.206  1.00  0.00     0.158 HD
ATOM     55  H   UNL     1     -47.488  43.069  25.278  1.00  0.00     0.158 HD
ENDBRANCH  49  53
ENDBRANCH  33  41
ENDBRANCH   1  29
TORSDOF 9
ENDMDL
MODEL 6
REMARK VINA RESULT:      -8.7      4.732     11.240
REMARK SMILES CCc1cc(N)c2ccc(OC[C@H]3O[C@@H](n4cc(Br)c5c(N)ncnc54)[C@@H](F)[C@@H]3O)cc2n1
REMARK SMILES IDX 12 1 11 4 10 5 3 6 4 7 33 8 5 9 32 11 7 12 31 13 8 14 9 16
REMARK SMILES IDX 2 19 1 22 6 26 13 29 14 30 29 31 15 33 27 34 28 37 30 39
REMARK SMILES IDX 16 41 17 42 26 43 18 44 20 46 25 47 19 48 21 49 24 50 23 51
REMARK SMILES IDX 22 53
REMARK H PARENT 12 2 12 3 4 10 31 15 8 17 9 18 2 20 2 21 1 23 1 24 1 25 6 27
REMARK H PARENT 6 28 13 32 29 35 15 36 27 38 30 40 17 45 24 52 22 54 22 55
REMARK Flexibility Score: inf
ROOT
ATOM      1  C   UNL     1     -46.842  32.192  23.682  1.00  0.00     0.117 C 
ATOM      2  H   UNL     1     -46.198  33.072  23.572  1.00  0.00     0.073 H 
ATOM      3  H   UNL     1     -47.715  32.423  23.059  1.00  0.00     0.073 H 
ENDROOT
BRANCH   1   4
ATOM      4  O   UNL     1     -47.173  32.095  25.066  1.00  0.00    -0.491 OA
BRANCH   4   5
ATOM      5  C   UNL     1     -47.426  33.238  25.769  1.00  0.00     0.121 A 
ATOM      6  C   UNL     1     -46.248  37.383  27.766  1.00  0.00     0.043 A 
ATOM      7  C   UNL     1     -47.546  37.646  28.179  1.00  0.00    -0.017 A 
ATOM      8  N   UNL     1     -45.906  36.242  27.130  1.00  0.00    -0.253 NA
ATOM      9  C   UNL     1     -48.539  36.691  27.960  1.00  0.00     0.043 A 
ATOM     10  H   UNL     1     -47.777  38.581  28.678  1.00  0.00     0.066 H 
ATOM     11  C   UNL     1     -46.865  35.349  26.846  1.00  0.00     0.076 A 
ATOM     12  C   UNL     1     -48.215  35.530  27.216  1.00  0.00     0.023 A 
ATOM     13  C   UNL     1     -46.496  34.207  26.143  1.00  0.00     0.007 A 
ATOM     14  C   UNL     1     -49.155  34.549  26.829  1.00  0.00    -0.047 A 
ATOM     15  H   UNL     1     -45.444  34.113  25.892  1.00  0.00     0.069 H 
ATOM     16  C   UNL     1     -48.760  33.418  26.116  1.00  0.00    -0.019 A 
ATOM     17  H   UNL     1     -50.208  34.660  27.071  1.00  0.00     0.063 H 
ATOM     18  H   UNL     1     -49.501  32.675  25.829  1.00  0.00     0.066 H 
BRANCH   6  19
ATOM     19  C   UNL     1     -45.142  38.371  28.037  1.00  0.00    -0.013 C 
ATOM     20  H   UNL     1     -45.071  38.542  29.118  1.00  0.00     0.033 H 
ATOM     21  H   UNL     1     -44.180  37.949  27.723  1.00  0.00     0.033 H 
BRANCH  19  22
ATOM     22  C   UNL     1     -45.389  39.694  27.331  1.00  0.00    -0.060 C 
ATOM     23  H   UNL     1     -44.438  40.153  27.045  1.00  0.00     0.023 H 
ATOM     24  H   UNL     1     -45.987  39.556  26.424  1.00  0.00     0.023 H 
ATOM     25  H   UNL     1     -45.924  40.396  27.981  1.00  0.00     0.023 H 
ENDBRANCH  19  22
ENDBRANCH   6  19
BRANCH   9  26
ATOM     26  N   UNL     1     -49.866  37.018  28.308  1.00  0.00    -0.398 N 
ATOM     27  H   UNL     1     -50.179  36.588  29.173  1.00  0.00     0.156 HD
ATOM     28  H   UNL     1     -50.533  36.862  27.559  1.00  0.00     0.156 HD
ENDBRANCH   9  26
ENDBRANCH   4   5
ENDBRANCH   1   4
BRANCH   1  29
ATOM     29  C   UNL     1     -46.097  30.945  23.186  1.00  0.00     0.123 C 
ATOM     30  O   UNL     1     -46.573  29.799  23.925  1.00  0.00    -0.345 OA
ATOM     31  C   UNL     1     -46.324  30.654  21.698  1.00  0.00     0.119 C 
ATOM     32  H   UNL     1     -45.026  31.042  23.391  1.00  0.00     0.067 H 
ATOM     33  C   UNL     1     -47.247  28.920  22.990  1.00  0.00     0.169 C 
ATOM     34  C   UNL     1     -47.514  29.724  21.725  1.00  0.00     0.173 C 
ATOM     35  H   UNL     1     -46.499  31.551  21.097  1.00  0.00     0.066 H 
ATOM     36  H   UNL     1     -46.559  28.088  22.798  1.00  0.00     0.088 H 
ATOM     37  F   UNL     1     -48.642  30.479  21.855  1.00  0.00    -0.239 F 
ATOM     38  H   UNL     1     -47.619  29.096  20.837  1.00  0.00     0.074 H 
BRANCH  31  39
ATOM     39  O   UNL     1     -45.202  29.960  21.139  1.00  0.00    -0.387 OA
ATOM     40  H   UNL     1     -45.366  29.004  21.246  1.00  0.00     0.211 HD
ENDBRANCH  31  39
BRANCH  33  41
ATOM     41  N   UNL     1     -48.446  28.367  23.597  1.00  0.00    -0.302 N 
ATOM     42  C   UNL     1     -49.750  28.625  23.254  1.00  0.00     0.023 A 
ATOM     43  C   UNL     1     -48.415  27.469  24.639  1.00  0.00     0.148 A 
ATOM     44  C   UNL     1     -50.547  27.881  24.092  1.00  0.00     0.049 A 
ATOM     45  H   UNL     1     -49.998  29.310  22.454  1.00  0.00     0.083 H 
ATOM     46  C   UNL     1     -49.725  27.143  24.977  1.00  0.00     0.075 A 
ATOM     47  N   UNL     1     -47.297  26.995  25.214  1.00  0.00    -0.218 NA
ATOM     48  Br  UNL     1     -52.423  27.850  24.059  1.00  0.00    -0.048 Br
ATOM     49  C   UNL     1     -49.886  26.230  26.031  1.00  0.00     0.137 A 
ATOM     50  C   UNL     1     -47.578  26.132  26.203  1.00  0.00     0.120 A 
ATOM     51  N   UNL     1     -48.788  25.725  26.631  1.00  0.00    -0.219 NA
ATOM     52  H   UNL     1     -46.725  25.706  26.722  1.00  0.00     0.106 H 
BRANCH  49  53
ATOM     53  N   UNL     1     -51.113  25.790  26.502  1.00  0.00    -0.383 N 
ATOM     54  H   UNL     1     -51.763  26.558  26.617  1.00  0.00     0.158 HD
ATOM     55  H   UNL     1     -51.072  25.105  27.243  1.00  0.00     0.158 HD
ENDBRANCH  49  53
ENDBRANCH  33  41
ENDBRANCH   1  29
TORSDOF 9
ENDMDL
MODEL 7
REMARK VINA RESULT:      -8.6      5.167     11.299
REMARK SMILES CCc1cc(N)c2ccc(OC[C@H]3O[C@@H](n4cc(Br)c5c(N)ncnc54)[C@@H](F)[C@@H]3O)cc2n1
REMARK SMILES IDX 12 1 11 4 10 5 3 6 4 7 33 8 5 9 32 11 7 12 31 13 8 14 9 16
REMARK SMILES IDX 2 19 1 22 6 26 13 29 14 30 29 31 15 33 27 34 28 37 30 39
REMARK SMILES IDX 16 41 17 42 26 43 18 44 20 46 25 47 19 48 21 49 24 50 23 51
REMARK SMILES IDX 22 53
REMARK H PARENT 12 2 12 3 4 10 31 15 8 17 9 18 2 20 2 21 1 23 1 24 1 25 6 27
REMARK H PARENT 6 28 13 32 29 35 15 36 27 38 30 40 17 45 24 52 22 54 22 55
REMARK Flexibility Score: inf
ROOT
ATOM      1  C   UNL     1     -46.479  31.410  24.115  1.00  0.00     0.117 C 
ATOM      2  H   UNL     1     -45.821  30.719  24.654  1.00  0.00     0.073 H 
ATOM      3  H   UNL     1     -45.835  32.270  23.892  1.00  0.00     0.073 H 
ENDROOT
BRANCH   1   4
ATOM      4  O   UNL     1     -47.543  31.745  25.005  1.00  0.00    -0.491 OA
BRANCH   4   5
ATOM      5  C   UNL     1     -47.575  32.992  25.560  1.00  0.00     0.121 A 
ATOM      6  C   UNL     1     -49.625  36.593  27.882  1.00  0.00     0.043 A 
ATOM      7  C   UNL     1     -48.472  37.364  27.868  1.00  0.00    -0.017 A 
ATOM      8  N   UNL     1     -49.692  35.380  27.290  1.00  0.00    -0.253 NA
ATOM      9  C   UNL     1     -47.342  36.893  27.199  1.00  0.00     0.043 A 
ATOM     10  H   UNL     1     -48.459  38.329  28.365  1.00  0.00     0.066 H 
ATOM     11  C   UNL     1     -48.592  34.883  26.708  1.00  0.00     0.076 A 
ATOM     12  C   UNL     1     -47.370  35.587  26.652  1.00  0.00     0.023 A 
ATOM     13  C   UNL     1     -48.674  33.610  26.154  1.00  0.00     0.007 A 
ATOM     14  C   UNL     1     -46.257  34.955  26.054  1.00  0.00    -0.047 A 
ATOM     15  H   UNL     1     -49.639  33.117  26.217  1.00  0.00     0.069 H 
ATOM     16  C   UNL     1     -46.363  33.673  25.515  1.00  0.00    -0.019 A 
ATOM     17  H   UNL     1     -45.291  35.450  26.011  1.00  0.00     0.063 H 
ATOM     18  H   UNL     1     -45.493  33.206  25.059  1.00  0.00     0.066 H 
BRANCH   6  19
ATOM     19  C   UNL     1     -50.878  37.098  28.549  1.00  0.00    -0.013 C 
ATOM     20  H   UNL     1     -51.312  36.292  29.154  1.00  0.00     0.033 H 
ATOM     21  H   UNL     1     -50.630  37.910  29.242  1.00  0.00     0.033 H 
BRANCH  19  22
ATOM     22  C   UNL     1     -51.901  37.572  27.530  1.00  0.00    -0.060 C 
ATOM     23  H   UNL     1     -52.730  36.861  27.467  1.00  0.00     0.023 H 
ATOM     24  H   UNL     1     -52.313  38.549  27.804  1.00  0.00     0.023 H 
ATOM     25  H   UNL     1     -51.455  37.664  26.533  1.00  0.00     0.023 H 
ENDBRANCH  19  22
ENDBRANCH   6  19
BRANCH   9  26
ATOM     26  N   UNL     1     -46.157  37.654  27.276  1.00  0.00    -0.398 N 
ATOM     27  H   UNL     1     -46.229  38.460  27.890  1.00  0.00     0.156 HD
ATOM     28  H   UNL     1     -45.782  37.916  26.369  1.00  0.00     0.156 HD
ENDBRANCH   9  26
ENDBRANCH   4   5
ENDBRANCH   1   4
BRANCH   1  29
ATOM     29  C   UNL     1     -46.997  30.734  22.837  1.00  0.00     0.123 C 
ATOM     30  O   UNL     1     -47.093  29.314  23.074  1.00  0.00    -0.345 OA
ATOM     31  C   UNL     1     -48.386  31.222  22.414  1.00  0.00     0.119 C 
ATOM     32  H   UNL     1     -46.282  30.880  22.020  1.00  0.00     0.067 H 
ATOM     33  C   UNL     1     -48.495  28.949  23.007  1.00  0.00     0.169 C 
ATOM     34  C   UNL     1     -49.302  30.237  23.103  1.00  0.00     0.173 C 
ATOM     35  H   UNL     1     -48.592  32.259  22.694  1.00  0.00     0.066 H 
ATOM     36  H   UNL     1     -48.640  28.458  22.037  1.00  0.00     0.088 H 
ATOM     37  F   UNL     1     -49.448  30.626  24.401  1.00  0.00    -0.239 F 
ATOM     38  H   UNL     1     -50.294  30.150  22.655  1.00  0.00     0.074 H 
BRANCH  31  39
ATOM     39  O   UNL     1     -48.557  31.105  20.996  1.00  0.00    -0.387 OA
ATOM     40  H   UNL     1     -48.722  32.000  20.646  1.00  0.00     0.211 HD
ENDBRANCH  31  39
BRANCH  33  41
ATOM     41  N   UNL     1     -48.812  27.980  24.042  1.00  0.00    -0.302 N 
ATOM     42  C   UNL     1     -47.928  27.271  24.819  1.00  0.00     0.023 A 
ATOM     43  C   UNL     1     -50.099  27.643  24.389  1.00  0.00     0.148 A 
ATOM     44  C   UNL     1     -48.672  26.478  25.660  1.00  0.00     0.049 A 
ATOM     45  H   UNL     1     -46.859  27.386  24.705  1.00  0.00     0.083 H 
ATOM     46  C   UNL     1     -50.048  26.696  25.406  1.00  0.00     0.075 A 
ATOM     47  N   UNL     1     -51.207  28.159  23.829  1.00  0.00    -0.218 NA
ATOM     48  Br  UNL     1     -47.970  25.302  26.944  1.00  0.00    -0.048 Br
ATOM     49  C   UNL     1     -51.281  26.233  25.888  1.00  0.00     0.137 A 
ATOM     50  C   UNL     1     -52.321  27.643  24.373  1.00  0.00     0.120 A 
ATOM     51  N   UNL     1     -52.418  26.730  25.358  1.00  0.00    -0.219 NA
ATOM     52  H   UNL     1     -53.261  28.007  23.971  1.00  0.00     0.106 H 
BRANCH  49  53
ATOM     53  N   UNL     1     -51.423  25.294  26.897  1.00  0.00    -0.383 N 
ATOM     54  H   UNL     1     -50.826  24.490  26.743  1.00  0.00     0.158 HD
ATOM     55  H   UNL     1     -52.372  25.113  27.192  1.00  0.00     0.158 HD
ENDBRANCH  49  53
ENDBRANCH  33  41
ENDBRANCH   1  29
TORSDOF 9
ENDMDL
