MODEL 1
REMARK VINA RESULT:      -9.7      0.000      0.000
REMARK SMILES CNc1ccc2ccc(OCc3cc(OC)cc(-n4cc(Cl)c5c(N)ncnc54)c3)cc2n1
REMARK SMILES IDX 11 1 10 4 9 5 3 6 4 7 33 8 5 9 32 11 6 12 31 14 7 15 8 17
REMARK SMILES IDX 2 20 1 22 12 26 13 27 30 28 14 29 18 31 17 33 15 35 16 36
REMARK SMILES IDX 19 40 20 41 29 42 21 43 23 45 28 46 22 47 24 48 27 49 26 50
REMARK SMILES IDX 25 52
REMARK H PARENT 11 2 11 3 4 10 5 13 31 16 7 18 8 19 2 21 1 23 1 24 1 25 13 30
REMARK H PARENT 30 32 17 34 16 37 16 38 16 39 20 44 27 51 25 53 25 54
REMARK Flexibility Score: inf
ROOT
ATOM      1  C   UNL     1     -46.091  34.245  27.194  1.00  0.00     0.114 C 
ATOM      2  H   UNL     1     -45.347  34.011  27.965  1.00  0.00     0.076 H 
ATOM      3  H   UNL     1     -45.621  34.236  26.203  1.00  0.00     0.076 H 
ENDROOT
BRANCH   1   4
ATOM      4  O   UNL     1     -47.152  33.290  27.258  1.00  0.00    -0.489 OA
BRANCH   4   5
ATOM      5  C   UNL     1     -47.394  32.551  26.132  1.00  0.00     0.122 A 
ATOM      6  C   UNL     1     -46.521  31.065  21.695  1.00  0.00     0.126 A 
ATOM      7  C   UNL     1     -47.616  30.208  21.716  1.00  0.00    -0.019 A 
ATOM      8  N   UNL     1     -46.200  31.827  22.761  1.00  0.00    -0.231 NA
ATOM      9  C   UNL     1     -48.415  30.149  22.852  1.00  0.00    -0.049 A 
ATOM     10  H   UNL     1     -47.840  29.582  20.859  1.00  0.00     0.066 H 
ATOM     11  C   UNL     1     -46.966  31.773  23.865  1.00  0.00     0.076 A 
ATOM     12  C   UNL     1     -48.099  30.941  23.957  1.00  0.00     0.001 A 
ATOM     13  H   UNL     1     -49.271  29.479  22.870  1.00  0.00     0.063 H 
ATOM     14  C   UNL     1     -46.634  32.564  24.959  1.00  0.00     0.007 A 
ATOM     15  C   UNL     1     -48.869  30.921  25.130  1.00  0.00    -0.049 A 
ATOM     16  H   UNL     1     -45.756  33.193  24.859  1.00  0.00     0.069 H 
ATOM     17  C   UNL     1     -48.514  31.726  26.210  1.00  0.00    -0.019 A 
ATOM     18  H   UNL     1     -49.744  30.280  25.210  1.00  0.00     0.063 H 
ATOM     19  H   UNL     1     -49.110  31.706  27.118  1.00  0.00     0.066 H 
BRANCH   6  20
ATOM     20  N   UNL     1     -45.720  31.080  20.539  1.00  0.00    -0.373 N 
ATOM     21  H   UNL     1     -45.600  30.126  20.210  1.00  0.00     0.161 HD
BRANCH  20  22
ATOM     22  C   UNL     1     -46.206  31.958  19.487  1.00  0.00     0.005 C 
ATOM     23  H   UNL     1     -45.563  32.836  19.365  1.00  0.00     0.045 H 
ATOM     24  H   UNL     1     -47.206  32.315  19.756  1.00  0.00     0.045 H 
ATOM     25  H   UNL     1     -46.295  31.429  18.531  1.00  0.00     0.045 H 
ENDBRANCH  20  22
ENDBRANCH   6  20
ENDBRANCH   4   5
ENDBRANCH   1   4
BRANCH   1  26
ATOM     26  C   UNL     1     -46.653  35.630  27.432  1.00  0.00    -0.005 A 
ATOM     27  C   UNL     1     -48.021  35.811  27.688  1.00  0.00    -0.013 A 
ATOM     28  C   UNL     1     -45.815  36.756  27.341  1.00  0.00    -0.031 A 
ATOM     29  C   UNL     1     -48.539  37.090  27.872  1.00  0.00     0.121 A 
ATOM     30  H   UNL     1     -48.654  34.930  27.740  1.00  0.00     0.067 H 
ATOM     31  C   UNL     1     -46.317  38.052  27.521  1.00  0.00     0.051 A 
ATOM     32  H   UNL     1     -44.771  36.581  27.105  1.00  0.00     0.065 H 
ATOM     33  C   UNL     1     -47.690  38.199  27.787  1.00  0.00     0.004 A 
ATOM     34  H   UNL     1     -48.145  39.170  27.959  1.00  0.00     0.068 H 
BRANCH  29  35
ATOM     35  O   UNL     1     -49.847  37.395  28.136  1.00  0.00    -0.497 OA
BRANCH  35  36
ATOM     36  C   UNL     1     -50.835  36.565  27.538  1.00  0.00     0.078 C 
ATOM     37  H   UNL     1     -50.327  35.688  27.124  1.00  0.00     0.067 H 
ATOM     38  H   UNL     1     -51.555  36.211  28.283  1.00  0.00     0.067 H 
ATOM     39  H   UNL     1     -51.337  37.078  26.713  1.00  0.00     0.067 H 
ENDBRANCH  35  36
ENDBRANCH  29  35
BRANCH  31  40
ATOM     40  N   UNL     1     -45.466  39.209  27.433  1.00  0.00    -0.299 N 
ATOM     41  C   UNL     1     -45.530  40.163  26.430  1.00  0.00     0.030 A 
ATOM     42  C   UNL     1     -44.439  39.597  28.302  1.00  0.00     0.151 A 
ATOM     43  C   UNL     1     -44.568  41.119  26.648  1.00  0.00     0.072 A 
ATOM     44  H   UNL     1     -46.234  40.092  25.616  1.00  0.00     0.084 H 
ATOM     45  C   UNL     1     -43.870  40.777  27.825  1.00  0.00     0.080 A 
ATOM     46  N   UNL     1     -44.057  38.969  29.433  1.00  0.00    -0.218 NA
ATOM     47  Cl  UNL     1     -44.282  42.478  25.665  1.00  0.00    -0.082 Cl
ATOM     48  C   UNL     1     -42.812  41.325  28.568  1.00  0.00     0.137 A 
ATOM     49  C   UNL     1     -43.050  39.586  30.063  1.00  0.00     0.120 A 
ATOM     50  N   UNL     1     -42.419  40.712  29.699  1.00  0.00    -0.219 NA
ATOM     51  H   UNL     1     -42.702  39.121  30.980  1.00  0.00     0.106 H 
BRANCH  48  52
ATOM     52  N   UNL     1     -42.137  42.483  28.221  1.00  0.00    -0.383 N 
ATOM     53  H   UNL     1     -41.833  43.067  28.989  1.00  0.00     0.158 HD
ATOM     54  H   UNL     1     -41.476  42.323  27.471  1.00  0.00     0.158 HD
ENDBRANCH  48  52
ENDBRANCH  31  40
ENDBRANCH   1  26
TORSDOF 9
ENDMDL
MODEL 2
REMARK VINA RESULT:      -9.6      2.121      2.864
REMARK SMILES CNc1ccc2ccc(OCc3cc(OC)cc(-n4cc(Cl)c5c(N)ncnc54)c3)cc2n1
REMARK SMILES IDX 11 1 10 4 9 5 3 6 4 7 33 8 5 9 32 11 6 12 31 14 7 15 8 17
REMARK SMILES IDX 2 20 1 22 12 26 13 27 30 28 14 29 18 31 17 33 15 35 16 36
REMARK SMILES IDX 19 40 20 41 29 42 21 43 23 45 28 46 22 47 24 48 27 49 26 50
REMARK SMILES IDX 25 52
REMARK H PARENT 11 2 11 3 4 10 5 13 31 16 7 18 8 19 2 21 1 23 1 24 1 25 13 30
REMARK H PARENT 30 32 17 34 16 37 16 38 16 39 20 44 27 51 25 53 25 54
REMARK Flexibility Score: inf
ROOT
ATOM      1  C   UNL     1     -46.943  33.994  25.897  1.00  0.00     0.114 C 
ATOM      2  H   UNL     1     -45.880  33.788  26.073  1.00  0.00     0.076 H 
ATOM      3  H   UNL     1     -47.123  34.146  24.826  1.00  0.00     0.076 H 
ENDROOT
BRANCH   1   4
ATOM      4  O   UNL     1     -47.723  32.901  26.387  1.00  0.00    -0.489 OA
BRANCH   4   5
ATOM      5  C   UNL     1     -47.872  31.821  25.562  1.00  0.00     0.122 A 
ATOM      6  C   UNL     1     -49.469  27.493  24.389  1.00  0.00     0.126 A 
ATOM      7  C   UNL     1     -48.862  27.555  23.140  1.00  0.00    -0.019 A 
ATOM      8  N   UNL     1     -49.384  28.514  25.268  1.00  0.00    -0.231 NA
ATOM      9  C   UNL     1     -48.130  28.685  22.792  1.00  0.00    -0.049 A 
ATOM     10  H   UNL     1     -48.967  26.737  22.436  1.00  0.00     0.066 H 
ATOM     11  C   UNL     1     -48.680  29.611  24.937  1.00  0.00     0.076 A 
ATOM     12  C   UNL     1     -48.026  29.742  23.698  1.00  0.00     0.001 A 
ATOM     13  H   UNL     1     -47.655  28.735  21.815  1.00  0.00     0.063 H 
ATOM     14  C   UNL     1     -48.590  30.657  25.848  1.00  0.00     0.007 A 
ATOM     15  C   UNL     1     -47.301  30.906  23.399  1.00  0.00    -0.049 A 
ATOM     16  H   UNL     1     -49.106  30.528  26.794  1.00  0.00     0.069 H 
ATOM     17  C   UNL     1     -47.226  31.938  24.332  1.00  0.00    -0.019 A 
ATOM     18  H   UNL     1     -46.794  31.016  22.443  1.00  0.00     0.063 H 
ATOM     19  H   UNL     1     -46.666  32.840  24.098  1.00  0.00     0.066 H 
BRANCH   6  20
ATOM     20  N   UNL     1     -50.224  26.347  24.696  1.00  0.00    -0.373 N 
ATOM     21  H   UNL     1     -50.175  25.701  23.913  1.00  0.00     0.161 HD
BRANCH  20  22
ATOM     22  C   UNL     1     -49.856  25.707  25.949  1.00  0.00     0.005 C 
ATOM     23  H   UNL     1     -50.560  24.913  26.219  1.00  0.00     0.045 H 
ATOM     24  H   UNL     1     -49.878  26.455  26.749  1.00  0.00     0.045 H 
ATOM     25  H   UNL     1     -48.838  25.302  25.910  1.00  0.00     0.045 H 
ENDBRANCH  20  22
ENDBRANCH   6  20
ENDBRANCH   4   5
ENDBRANCH   1   4
BRANCH   1  26
ATOM     26  C   UNL     1     -47.345  35.259  26.623  1.00  0.00    -0.005 A 
ATOM     27  C   UNL     1     -48.622  35.379  27.193  1.00  0.00    -0.013 A 
ATOM     28  C   UNL     1     -46.460  36.350  26.682  1.00  0.00    -0.031 A 
ATOM     29  C   UNL     1     -49.000  36.557  27.830  1.00  0.00     0.121 A 
ATOM     30  H   UNL     1     -49.297  34.531  27.124  1.00  0.00     0.067 H 
ATOM     31  C   UNL     1     -46.822  37.545  27.318  1.00  0.00     0.051 A 
ATOM     32  H   UNL     1     -45.496  36.235  26.199  1.00  0.00     0.065 H 
ATOM     33  C   UNL     1     -48.103  37.630  27.889  1.00  0.00     0.004 A 
ATOM     34  H   UNL     1     -48.444  38.516  28.415  1.00  0.00     0.068 H 
BRANCH  29  35
ATOM     35  O   UNL     1     -50.207  36.793  28.431  1.00  0.00    -0.497 OA
BRANCH  35  36
ATOM     36  C   UNL     1     -51.368  36.649  27.622  1.00  0.00     0.078 C 
ATOM     37  H   UNL     1     -51.344  37.436  26.862  1.00  0.00     0.067 H 
ATOM     38  H   UNL     1     -51.368  35.685  27.101  1.00  0.00     0.067 H 
ATOM     39  H   UNL     1     -52.281  36.782  28.210  1.00  0.00     0.067 H 
ENDBRANCH  35  36
ENDBRANCH  29  35
BRANCH  31  40
ATOM     40  N   UNL     1     -45.921  38.665  27.385  1.00  0.00    -0.299 N 
ATOM     41  C   UNL     1     -45.864  39.692  26.457  1.00  0.00     0.030 A 
ATOM     42  C   UNL     1     -44.953  38.941  28.360  1.00  0.00     0.151 A 
ATOM     43  C   UNL     1     -44.885  40.584  26.822  1.00  0.00     0.072 A 
ATOM     44  H   UNL     1     -46.501  39.713  25.586  1.00  0.00     0.084 H 
ATOM     45  C   UNL     1     -44.300  40.125  28.022  1.00  0.00     0.080 A 
ATOM     46  N   UNL     1     -44.691  38.215  29.467  1.00  0.00    -0.218 NA
ATOM     47  Cl  UNL     1     -44.465  41.997  25.972  1.00  0.00    -0.082 Cl
ATOM     48  C   UNL     1     -43.286  40.568  28.885  1.00  0.00     0.137 A 
ATOM     49  C   UNL     1     -43.716  38.738  30.219  1.00  0.00     0.120 A 
ATOM     50  N   UNL     1     -43.012  39.856  29.993  1.00  0.00    -0.219 NA
ATOM     51  H   UNL     1     -43.463  38.191  31.123  1.00  0.00     0.106 H 
BRANCH  48  52
ATOM     52  N   UNL     1     -42.538  41.715  28.682  1.00  0.00    -0.383 N 
ATOM     53  H   UNL     1     -41.567  41.669  28.963  1.00  0.00     0.158 HD
ATOM     54  H   UNL     1     -42.741  42.144  27.788  1.00  0.00     0.158 HD
ENDBRANCH  48  52
ENDBRANCH  31  40
ENDBRANCH   1  26
TORSDOF 9
ENDMDL
MODEL 3
REMARK VINA RESULT:      -9.4      2.069      3.059
REMARK SMILES CNc1ccc2ccc(OCc3cc(OC)cc(-n4cc(Cl)c5c(N)ncnc54)c3)cc2n1
REMARK SMILES IDX 11 1 10 4 9 5 3 6 4 7 33 8 5 9 32 11 6 12 31 14 7 15 8 17
REMARK SMILES IDX 2 20 1 22 12 26 13 27 30 28 14 29 18 31 17 33 15 35 16 36
REMARK SMILES IDX 19 40 20 41 29 42 21 43 23 45 28 46 22 47 24 48 27 49 26 50
REMARK SMILES IDX 25 52
REMARK H PARENT 11 2 11 3 4 10 5 13 31 16 7 18 8 19 2 21 1 23 1 24 1 25 13 30
REMARK H PARENT 30 32 17 34 16 37 16 38 16 39 20 44 27 51 25 53 25 54
REMARK Flexibility Score: inf
ROOT
ATOM      1  C   UNL     1     -46.683  34.556  27.444  1.00  0.00     0.114 C 
ATOM      2  H   UNL     1     -46.377  34.062  28.374  1.00  0.00     0.076 H 
ATOM      3  H   UNL     1     -45.877  34.494  26.703  1.00  0.00     0.076 H 
ENDROOT
BRANCH   1   4
ATOM      4  O   UNL     1     -47.871  33.937  26.948  1.00  0.00    -0.489 OA
BRANCH   4   5
ATOM      5  C   UNL     1     -47.714  32.903  26.066  1.00  0.00     0.122 A 
ATOM      6  C   UNL     1     -48.787  28.673  24.164  1.00  0.00     0.126 A 
ATOM      7  C   UNL     1     -47.771  28.787  23.221  1.00  0.00    -0.019 A 
ATOM      8  N   UNL     1     -49.022  29.646  25.069  1.00  0.00    -0.231 NA
ATOM      9  C   UNL     1     -46.962  29.918  23.221  1.00  0.00    -0.049 A 
ATOM     10  H   UNL     1     -47.617  28.007  22.483  1.00  0.00     0.066 H 
ATOM     11  C   UNL     1     -48.246  30.745  25.074  1.00  0.00     0.076 A 
ATOM     12  C   UNL     1     -47.190  30.925  24.160  1.00  0.00     0.001 A 
ATOM     13  H   UNL     1     -46.169  30.007  22.484  1.00  0.00     0.063 H 
ATOM     14  C   UNL     1     -48.489  31.741  26.012  1.00  0.00     0.007 A 
ATOM     15  C   UNL     1     -46.405  32.088  24.206  1.00  0.00    -0.049 A 
ATOM     16  H   UNL     1     -49.310  31.574  26.701  1.00  0.00     0.069 H 
ATOM     17  C   UNL     1     -46.670  33.070  25.158  1.00  0.00    -0.019 A 
ATOM     18  H   UNL     1     -45.589  32.236  23.502  1.00  0.00     0.063 H 
ATOM     19  H   UNL     1     -46.063  33.970  25.189  1.00  0.00     0.066 H 
BRANCH   6  20
ATOM     20  N   UNL     1     -49.602  27.528  24.117  1.00  0.00    -0.373 N 
ATOM     21  H   UNL     1     -49.605  27.165  23.169  1.00  0.00     0.161 HD
BRANCH  20  22
ATOM     22  C   UNL     1     -49.249  26.504  25.087  1.00  0.00     0.005 C 
ATOM     23  H   UNL     1     -49.706  25.540  24.841  1.00  0.00     0.045 H 
ATOM     24  H   UNL     1     -49.623  26.804  26.072  1.00  0.00     0.045 H 
ATOM     25  H   UNL     1     -48.163  26.388  25.173  1.00  0.00     0.045 H 
ENDBRANCH  20  22
ENDBRANCH   6  20
ENDBRANCH   4   5
ENDBRANCH   1   4
BRANCH   1  26
ATOM     26  C   UNL     1     -46.959  36.020  27.711  1.00  0.00    -0.005 A 
ATOM     27  C   UNL     1     -48.276  36.494  27.792  1.00  0.00    -0.013 A 
ATOM     28  C   UNL     1     -45.891  36.929  27.825  1.00  0.00    -0.031 A 
ATOM     29  C   UNL     1     -48.525  37.847  28.004  1.00  0.00     0.121 A 
ATOM     30  H   UNL     1     -49.087  35.779  27.687  1.00  0.00     0.067 H 
ATOM     31  C   UNL     1     -46.121  38.295  28.037  1.00  0.00     0.051 A 
ATOM     32  H   UNL     1     -44.887  36.533  27.721  1.00  0.00     0.065 H 
ATOM     33  C   UNL     1     -47.452  38.738  28.124  1.00  0.00     0.004 A 
ATOM     34  H   UNL     1     -47.705  39.777  28.308  1.00  0.00     0.068 H 
BRANCH  29  35
ATOM     35  O   UNL     1     -49.760  38.429  28.111  1.00  0.00    -0.497 OA
BRANCH  35  36
ATOM     36  C   UNL     1     -49.795  39.847  28.220  1.00  0.00     0.078 C 
ATOM     37  H   UNL     1     -49.524  40.264  27.245  1.00  0.00     0.067 H 
ATOM     38  H   UNL     1     -50.804  40.199  28.463  1.00  0.00     0.067 H 
ATOM     39  H   UNL     1     -49.064  40.207  28.950  1.00  0.00     0.067 H 
ENDBRANCH  35  36
ENDBRANCH  29  35
BRANCH  31  40
ATOM     40  N   UNL     1     -45.035  39.232  28.157  1.00  0.00    -0.299 N 
ATOM     41  C   UNL     1     -44.107  39.239  29.187  1.00  0.00     0.030 A 
ATOM     42  C   UNL     1     -44.702  40.287  27.299  1.00  0.00     0.151 A 
ATOM     43  C   UNL     1     -43.222  40.272  28.995  1.00  0.00     0.072 A 
ATOM     44  H   UNL     1     -44.147  38.530  29.999  1.00  0.00     0.084 H 
ATOM     45  C   UNL     1     -43.583  40.944  27.808  1.00  0.00     0.080 A 
ATOM     46  N   UNL     1     -45.326  40.622  26.150  1.00  0.00    -0.218 NA
ATOM     47  Cl  UNL     1     -41.916  40.659  30.016  1.00  0.00    -0.082 Cl
ATOM     48  C   UNL     1     -43.096  42.042  27.081  1.00  0.00     0.137 A 
ATOM     49  C   UNL     1     -44.769  41.674  25.538  1.00  0.00     0.120 A 
ATOM     50  N   UNL     1     -43.705  42.389  25.933  1.00  0.00    -0.219 NA
ATOM     51  H   UNL     1     -45.233  41.987  24.608  1.00  0.00     0.106 H 
BRANCH  48  52
ATOM     52  N   UNL     1     -42.004  42.803  27.460  1.00  0.00    -0.383 N 
ATOM     53  H   UNL     1     -41.845  43.649  26.928  1.00  0.00     0.158 HD
ATOM     54  H   UNL     1     -41.920  42.866  28.467  1.00  0.00     0.158 HD
ENDBRANCH  48  52
ENDBRANCH  31  40
ENDBRANCH   1  26
TORSDOF 9
ENDMDL
MODEL 4
REMARK VINA RESULT:      -9.2      3.028     10.063
REMARK SMILES CNc1ccc2ccc(OCc3cc(OC)cc(-n4cc(Cl)c5c(N)ncnc54)c3)cc2n1
REMARK SMILES IDX 11 1 10 4 9 5 3 6 4 7 33 8 5 9 32 11 6 12 31 14 7 15 8 17
REMARK SMILES IDX 2 20 1 22 12 26 13 27 30 28 14 29 18 31 17 33 15 35 16 36
REMARK SMILES IDX 19 40 20 41 29 42 21 43 23 45 28 46 22 47 24 48 27 49 26 50
REMARK SMILES IDX 25 52
REMARK H PARENT 11 2 11 3 4 10 5 13 31 16 7 18 8 19 2 21 1 23 1 24 1 25 13 30
REMARK H PARENT 30 32 17 34 16 37 16 38 16 39 20 44 27 51 25 53 25 54
REMARK Flexibility Score: inf
ROOT
ATOM      1  C   UNL     1     -46.630  36.943  26.651  1.00  0.00     0.114 C 
ATOM      2  H   UNL     1     -47.498  37.253  26.056  1.00  0.00     0.076 H 
ATOM      3  H   UNL     1     -45.703  37.205  26.126  1.00  0.00     0.076 H 
ENDROOT
BRANCH   1   4
ATOM      4  O   UNL     1     -46.682  37.580  27.929  1.00  0.00    -0.489 OA
BRANCH   4   5
ATOM      5  C   UNL     1     -45.622  38.374  28.274  1.00  0.00     0.122 A 
ATOM      6  C   UNL     1     -42.474  41.877  27.591  1.00  0.00     0.126 A 
ATOM      7  C   UNL     1     -41.874  41.643  28.823  1.00  0.00    -0.019 A 
ATOM      8  N   UNL     1     -43.529  41.150  27.169  1.00  0.00    -0.231 NA
ATOM      9  C   UNL     1     -42.356  40.621  29.634  1.00  0.00    -0.049 A 
ATOM     10  H   UNL     1     -41.045  42.258  29.157  1.00  0.00     0.066 H 
ATOM     11  C   UNL     1     -44.004  40.163  27.949  1.00  0.00     0.076 A 
ATOM     12  C   UNL     1     -43.441  39.856  29.203  1.00  0.00     0.001 A 
ATOM     13  H   UNL     1     -41.888  40.438  30.598  1.00  0.00     0.063 H 
ATOM     14  C   UNL     1     -45.088  39.413  27.508  1.00  0.00     0.007 A 
ATOM     15  C   UNL     1     -43.969  38.814  29.980  1.00  0.00    -0.049 A 
ATOM     16  H   UNL     1     -45.500  39.674  26.539  1.00  0.00     0.069 H 
ATOM     17  C   UNL     1     -45.055  38.078  29.512  1.00  0.00    -0.019 A 
ATOM     18  H   UNL     1     -43.542  38.572  30.950  1.00  0.00     0.063 H 
ATOM     19  H   UNL     1     -45.465  37.273  30.117  1.00  0.00     0.066 H 
BRANCH   6  20
ATOM     20  N   UNL     1     -41.976  42.935  26.809  1.00  0.00    -0.373 N 
ATOM     21  H   UNL     1     -41.204  42.594  26.244  1.00  0.00     0.161 HD
BRANCH  20  22
ATOM     22  C   UNL     1     -42.982  43.606  26.001  1.00  0.00     0.005 C 
ATOM     23  H   UNL     1     -43.784  42.921  25.705  1.00  0.00     0.045 H 
ATOM     24  H   UNL     1     -42.511  43.979  25.085  1.00  0.00     0.045 H 
ATOM     25  H   UNL     1     -43.407  44.470  26.524  1.00  0.00     0.045 H 
ENDBRANCH  20  22
ENDBRANCH   6  20
ENDBRANCH   4   5
ENDBRANCH   1   4
BRANCH   1  26
ATOM     26  C   UNL     1     -46.652  35.442  26.841  1.00  0.00    -0.005 A 
ATOM     27  C   UNL     1     -45.992  34.852  27.930  1.00  0.00    -0.013 A 
ATOM     28  C   UNL     1     -47.287  34.620  25.893  1.00  0.00    -0.031 A 
ATOM     29  C   UNL     1     -45.986  33.468  28.082  1.00  0.00     0.121 A 
ATOM     30  H   UNL     1     -45.495  35.502  28.643  1.00  0.00     0.067 H 
ATOM     31  C   UNL     1     -47.290  33.225  26.027  1.00  0.00     0.051 A 
ATOM     32  H   UNL     1     -47.754  35.109  25.045  1.00  0.00     0.065 H 
ATOM     33  C   UNL     1     -46.630  32.665  27.134  1.00  0.00     0.004 A 
ATOM     34  H   UNL     1     -46.610  31.594  27.315  1.00  0.00     0.068 H 
BRANCH  29  35
ATOM     35  O   UNL     1     -45.389  32.775  29.101  1.00  0.00    -0.497 OA
BRANCH  35  36
ATOM     36  C   UNL     1     -45.862  31.456  29.345  1.00  0.00     0.078 C 
ATOM     37  H   UNL     1     -45.521  30.821  28.522  1.00  0.00     0.067 H 
ATOM     38  H   UNL     1     -45.441  31.052  30.272  1.00  0.00     0.067 H 
ATOM     39  H   UNL     1     -46.956  31.423  29.359  1.00  0.00     0.067 H 
ENDBRANCH  35  36
ENDBRANCH  29  35
BRANCH  31  40
ATOM     40  N   UNL     1     -47.940  32.377  25.063  1.00  0.00    -0.299 N 
ATOM     41  C   UNL     1     -49.308  32.169  24.988  1.00  0.00     0.030 A 
ATOM     42  C   UNL     1     -47.354  31.615  24.044  1.00  0.00     0.151 A 
ATOM     43  C   UNL     1     -49.581  31.296  23.963  1.00  0.00     0.072 A 
ATOM     44  H   UNL     1     -49.997  32.632  25.677  1.00  0.00     0.084 H 
ATOM     45  C   UNL     1     -48.359  30.936  23.357  1.00  0.00     0.080 A 
ATOM     46  N   UNL     1     -46.042  31.550  23.738  1.00  0.00    -0.218 NA
ATOM     47  Cl  UNL     1     -51.129  30.755  23.510  1.00  0.00    -0.082 Cl
ATOM     48  C   UNL     1     -47.963  30.111  22.292  1.00  0.00     0.137 A 
ATOM     49  C   UNL     1     -45.785  30.743  22.701  1.00  0.00     0.120 A 
ATOM     50  N   UNL     1     -46.659  30.034  21.973  1.00  0.00    -0.219 NA
ATOM     51  H   UNL     1     -44.742  30.653  22.412  1.00  0.00     0.106 H 
BRANCH  48  52
ATOM     52  N   UNL     1     -48.838  29.364  21.522  1.00  0.00    -0.383 N 
ATOM     53  H   UNL     1     -48.414  28.696  20.891  1.00  0.00     0.158 HD
ATOM     54  H   UNL     1     -49.639  29.052  22.056  1.00  0.00     0.158 HD
ENDBRANCH  48  52
ENDBRANCH  31  40
ENDBRANCH   1  26
TORSDOF 9
ENDMDL
MODEL 5
REMARK VINA RESULT:      -9.2      1.805      2.631
REMARK SMILES CNc1ccc2ccc(OCc3cc(OC)cc(-n4cc(Cl)c5c(N)ncnc54)c3)cc2n1
REMARK SMILES IDX 11 1 10 4 9 5 3 6 4 7 33 8 5 9 32 11 6 12 31 14 7 15 8 17
REMARK SMILES IDX 2 20 1 22 12 26 13 27 30 28 14 29 18 31 17 33 15 35 16 36
REMARK SMILES IDX 19 40 20 41 29 42 21 43 23 45 28 46 22 47 24 48 27 49 26 50
REMARK SMILES IDX 25 52
REMARK H PARENT 11 2 11 3 4 10 5 13 31 16 7 18 8 19 2 21 1 23 1 24 1 25 13 30
REMARK H PARENT 30 32 17 34 16 37 16 38 16 39 20 44 27 51 25 53 25 54
REMARK Flexibility Score: inf
ROOT
ATOM      1  C   UNL     1     -46.527  35.516  28.343  1.00  0.00     0.114 C 
ATOM      2  H   UNL     1     -47.491  35.014  28.492  1.00  0.00     0.076 H 
ATOM      3  H   UNL     1     -45.875  35.342  29.207  1.00  0.00     0.076 H 
ENDROOT
BRANCH   1   4
ATOM      4  O   UNL     1     -45.919  35.026  27.146  1.00  0.00    -0.489 OA
BRANCH   4   5
ATOM      5  C   UNL     1     -46.642  34.136  26.399  1.00  0.00     0.122 A 
ATOM      6  C   UNL     1     -47.285  31.014  22.864  1.00  0.00     0.126 A 
ATOM      7  C   UNL     1     -48.605  30.790  23.238  1.00  0.00    -0.019 A 
ATOM      8  N   UNL     1     -46.493  31.868  23.546  1.00  0.00    -0.231 NA
ATOM      9  C   UNL     1     -49.133  31.477  24.327  1.00  0.00    -0.049 A 
ATOM     10  H   UNL     1     -49.217  30.078  22.695  1.00  0.00     0.066 H 
ATOM     11  C   UNL     1     -46.995  32.533  24.601  1.00  0.00     0.076 A 
ATOM     12  C   UNL     1     -48.325  32.371  25.032  1.00  0.00     0.001 A 
ATOM     13  H   UNL     1     -50.164  31.302  24.620  1.00  0.00     0.063 H 
ATOM     14  C   UNL     1     -46.176  33.416  25.296  1.00  0.00     0.007 A 
ATOM     15  C   UNL     1     -48.804  33.089  26.138  1.00  0.00    -0.049 A 
ATOM     16  H   UNL     1     -45.156  33.519  24.942  1.00  0.00     0.069 H 
ATOM     17  C   UNL     1     -47.962  33.968  26.815  1.00  0.00    -0.019 A 
ATOM     18  H   UNL     1     -49.830  32.968  26.478  1.00  0.00     0.063 H 
ATOM     19  H   UNL     1     -48.334  34.522  27.673  1.00  0.00     0.066 H 
BRANCH   6  20
ATOM     20  N   UNL     1     -46.778  30.283  21.775  1.00  0.00    -0.373 N 
ATOM     21  H   UNL     1     -47.542  29.784  21.329  1.00  0.00     0.161 HD
BRANCH  20  22
ATOM     22  C   UNL     1     -46.021  31.078  20.822  1.00  0.00     0.005 C 
ATOM     23  H   UNL     1     -44.965  31.150  21.105  1.00  0.00     0.045 H 
ATOM     24  H   UNL     1     -46.428  32.094  20.805  1.00  0.00     0.045 H 
ATOM     25  H   UNL     1     -46.105  30.676  19.806  1.00  0.00     0.045 H 
ENDBRANCH  20  22
ENDBRANCH   6  20
ENDBRANCH   4   5
ENDBRANCH   1   4
BRANCH   1  26
ATOM     26  C   UNL     1     -46.745  37.009  28.215  1.00  0.00    -0.005 A 
ATOM     27  C   UNL     1     -48.043  37.540  28.176  1.00  0.00    -0.013 A 
ATOM     28  C   UNL     1     -45.643  37.872  28.074  1.00  0.00    -0.031 A 
ATOM     29  C   UNL     1     -48.238  38.910  28.024  1.00  0.00     0.121 A 
ATOM     30  H   UNL     1     -48.881  36.856  28.271  1.00  0.00     0.067 H 
ATOM     31  C   UNL     1     -45.819  39.254  27.918  1.00  0.00     0.051 A 
ATOM     32  H   UNL     1     -44.656  37.422  28.071  1.00  0.00     0.065 H 
ATOM     33  C   UNL     1     -47.131  39.756  27.895  1.00  0.00     0.004 A 
ATOM     34  H   UNL     1     -47.343  40.817  27.799  1.00  0.00     0.068 H 
BRANCH  29  35
ATOM     35  O   UNL     1     -49.448  39.548  27.982  1.00  0.00    -0.497 OA
BRANCH  35  36
ATOM     36  C   UNL     1     -49.424  40.970  27.936  1.00  0.00     0.078 C 
ATOM     37  H   UNL     1     -49.931  41.282  27.017  1.00  0.00     0.067 H 
ATOM     38  H   UNL     1     -49.973  41.401  28.780  1.00  0.00     0.067 H 
ATOM     39  H   UNL     1     -48.399  41.348  27.894  1.00  0.00     0.067 H 
ENDBRANCH  35  36
ENDBRANCH  29  35
BRANCH  31  40
ATOM     40  N   UNL     1     -44.697  40.144  27.777  1.00  0.00    -0.299 N 
ATOM     41  C   UNL     1     -43.624  40.210  28.652  1.00  0.00     0.030 A 
ATOM     42  C   UNL     1     -44.464  41.092  26.773  1.00  0.00     0.151 A 
ATOM     43  C   UNL     1     -42.745  41.174  28.223  1.00  0.00     0.072 A 
ATOM     44  H   UNL     1     -43.564  39.588  29.531  1.00  0.00     0.084 H 
ATOM     45  C   UNL     1     -43.260  41.742  27.039  1.00  0.00     0.080 A 
ATOM     46  N   UNL     1     -45.244  41.340  25.700  1.00  0.00    -0.218 NA
ATOM     47  Cl  UNL     1     -41.288  41.598  28.993  1.00  0.00    -0.082 Cl
ATOM     48  C   UNL     1     -42.854  42.737  26.135  1.00  0.00     0.137 A 
ATOM     49  C   UNL     1     -44.753  42.298  24.904  1.00  0.00     0.120 A 
ATOM     50  N   UNL     1     -43.619  42.997  25.060  1.00  0.00    -0.219 NA
ATOM     51  H   UNL     1     -45.343  42.539  24.025  1.00  0.00     0.106 H 
BRANCH  48  52
ATOM     52  N   UNL     1     -41.693  43.479  26.267  1.00  0.00    -0.383 N 
ATOM     53  H   UNL     1     -41.067  43.469  25.471  1.00  0.00     0.158 HD
ATOM     54  H   UNL     1     -41.864  44.372  26.710  1.00  0.00     0.158 HD
ENDBRANCH  48  52
ENDBRANCH  31  40
ENDBRANCH   1  26
TORSDOF 9
ENDMDL
MODEL 6
REMARK VINA RESULT:      -9.1      1.819      2.558
REMARK SMILES CNc1ccc2ccc(OCc3cc(OC)cc(-n4cc(Cl)c5c(N)ncnc54)c3)cc2n1
REMARK SMILES IDX 11 1 10 4 9 5 3 6 4 7 33 8 5 9 32 11 6 12 31 14 7 15 8 17
REMARK SMILES IDX 2 20 1 22 12 26 13 27 30 28 14 29 18 31 17 33 15 35 16 36
REMARK SMILES IDX 19 40 20 41 29 42 21 43 23 45 28 46 22 47 24 48 27 49 26 50
REMARK SMILES IDX 25 52
REMARK H PARENT 11 2 11 3 4 10 5 13 31 16 7 18 8 19 2 21 1 23 1 24 1 25 13 30
REMARK H PARENT 30 32 17 34 16 37 16 38 16 39 20 44 27 51 25 53 25 54
REMARK Flexibility Score: inf
ROOT
ATOM      1  C   UNL     1     -47.285  36.563  27.864  1.00  0.00     0.114 C 
ATOM      2  H   UNL     1     -48.272  36.110  28.024  1.00  0.00     0.076 H 
ATOM      3  H   UNL     1     -46.633  36.354  28.721  1.00  0.00     0.076 H 
ENDROOT
BRANCH   1   4
ATOM      4  O   UNL     1     -46.716  36.044  26.660  1.00  0.00    -0.489 OA
BRANCH   4   5
ATOM      5  C   UNL     1     -47.179  34.833  26.224  1.00  0.00     0.122 A 
ATOM      6  C   UNL     1     -46.847  30.679  23.924  1.00  0.00     0.126 A 
ATOM      7  C   UNL     1     -48.140  30.319  24.289  1.00  0.00    -0.019 A 
ATOM      8  N   UNL     1     -46.303  31.850  24.314  1.00  0.00    -0.231 NA
ATOM      9  C   UNL     1     -48.902  31.195  25.054  1.00  0.00    -0.049 A 
ATOM     10  H   UNL     1     -48.549  29.360  23.989  1.00  0.00     0.066 H 
ATOM     11  C   UNL     1     -47.032  32.701  25.058  1.00  0.00     0.076 A 
ATOM     12  C   UNL     1     -48.353  32.414  25.454  1.00  0.00     0.001 A 
ATOM     13  H   UNL     1     -49.913  30.915  25.340  1.00  0.00     0.063 H 
ATOM     14  C   UNL     1     -46.469  33.909  25.453  1.00  0.00     0.007 A 
ATOM     15  C   UNL     1     -49.075  33.335  26.228  1.00  0.00    -0.049 A 
ATOM     16  H   UNL     1     -45.450  34.100  25.134  1.00  0.00     0.069 H 
ATOM     17  C   UNL     1     -48.486  34.539  26.608  1.00  0.00    -0.019 A 
ATOM     18  H   UNL     1     -50.095  33.121  26.540  1.00  0.00     0.063 H 
ATOM     19  H   UNL     1     -49.046  35.250  27.210  1.00  0.00     0.066 H 
BRANCH   6  20
ATOM     20  N   UNL     1     -46.097  29.757  23.172  1.00  0.00    -0.373 N 
ATOM     21  H   UNL     1     -46.596  28.873  23.141  1.00  0.00     0.161 HD
BRANCH  20  22
ATOM     22  C   UNL     1     -45.738  30.223  21.842  1.00  0.00     0.005 C 
ATOM     23  H   UNL     1     -45.699  29.399  21.123  1.00  0.00     0.045 H 
ATOM     24  H   UNL     1     -44.740  30.674  21.882  1.00  0.00     0.045 H 
ATOM     25  H   UNL     1     -46.430  30.994  21.486  1.00  0.00     0.045 H 
ENDBRANCH  20  22
ENDBRANCH   6  20
ENDBRANCH   4   5
ENDBRANCH   1   4
BRANCH   1  26
ATOM     26  C   UNL     1     -47.428  38.065  27.740  1.00  0.00    -0.005 A 
ATOM     27  C   UNL     1     -48.636  38.696  28.073  1.00  0.00    -0.013 A 
ATOM     28  C   UNL     1     -46.365  38.834  27.233  1.00  0.00    -0.031 A 
ATOM     29  C   UNL     1     -48.773  40.074  27.925  1.00  0.00     0.121 A 
ATOM     30  H   UNL     1     -49.450  38.084  28.448  1.00  0.00     0.067 H 
ATOM     31  C   UNL     1     -46.484  40.222  27.075  1.00  0.00     0.051 A 
ATOM     32  H   UNL     1     -45.460  38.307  26.952  1.00  0.00     0.065 H 
ATOM     33  C   UNL     1     -47.703  40.826  27.428  1.00  0.00     0.004 A 
ATOM     34  H   UNL     1     -47.860  41.898  27.352  1.00  0.00     0.068 H 
BRANCH  29  35
ATOM     35  O   UNL     1     -49.891  40.805  28.223  1.00  0.00    -0.497 OA
BRANCH  35  36
ATOM     36  C   UNL     1     -49.854  41.579  29.416  1.00  0.00     0.078 C 
ATOM     37  H   UNL     1     -50.883  41.692  29.772  1.00  0.00     0.067 H 
ATOM     38  H   UNL     1     -49.286  41.068  30.199  1.00  0.00     0.067 H 
ATOM     39  H   UNL     1     -49.457  42.581  29.226  1.00  0.00     0.067 H 
ENDBRANCH  35  36
ENDBRANCH  29  35
BRANCH  31  40
ATOM     40  N   UNL     1     -45.401  41.017  26.560  1.00  0.00    -0.299 N 
ATOM     41  C   UNL     1     -45.434  41.722  25.368  1.00  0.00     0.030 A 
ATOM     42  C   UNL     1     -44.140  41.234  27.129  1.00  0.00     0.151 A 
ATOM     43  C   UNL     1     -44.231  42.358  25.180  1.00  0.00     0.072 A 
ATOM     44  H   UNL     1     -46.296  41.711  24.720  1.00  0.00     0.084 H 
ATOM     45  C   UNL     1     -43.401  42.060  26.283  1.00  0.00     0.080 A 
ATOM     46  N   UNL     1     -43.693  40.759  28.311  1.00  0.00    -0.218 NA
ATOM     47  Cl  UNL     1     -43.825  43.336  23.849  1.00  0.00    -0.082 Cl
ATOM     48  C   UNL     1     -42.098  42.392  26.685  1.00  0.00     0.137 A 
ATOM     49  C   UNL     1     -42.445  41.148  28.595  1.00  0.00     0.120 A 
ATOM     50  N   UNL     1     -41.637  41.927  27.860  1.00  0.00    -0.219 NA
ATOM     51  H   UNL     1     -42.035  40.792  29.536  1.00  0.00     0.106 H 
BRANCH  48  52
ATOM     52  N   UNL     1     -41.237  43.190  25.951  1.00  0.00    -0.383 N 
ATOM     53  H   UNL     1     -40.327  42.795  25.753  1.00  0.00     0.158 HD
ATOM     54  H   UNL     1     -41.714  43.659  25.192  1.00  0.00     0.158 HD
ENDBRANCH  48  52
ENDBRANCH  31  40
ENDBRANCH   1  26
TORSDOF 9
ENDMDL
MODEL 7
REMARK VINA RESULT:      -8.9      2.963      9.797
REMARK SMILES CNc1ccc2ccc(OCc3cc(OC)cc(-n4cc(Cl)c5c(N)ncnc54)c3)cc2n1
REMARK SMILES IDX 11 1 10 4 9 5 3 6 4 7 33 8 5 9 32 11 6 12 31 14 7 15 8 17
REMARK SMILES IDX 2 20 1 22 12 26 13 27 30 28 14 29 18 31 17 33 15 35 16 36
REMARK SMILES IDX 19 40 20 41 29 42 21 43 23 45 28 46 22 47 24 48 27 49 26 50
REMARK SMILES IDX 25 52
REMARK H PARENT 11 2 11 3 4 10 5 13 31 16 7 18 8 19 2 21 1 23 1 24 1 25 13 30
REMARK H PARENT 30 32 17 34 16 37 16 38 16 39 20 44 27 51 25 53 25 54
REMARK Flexibility Score: inf
ROOT
ATOM      1  C   UNL     1     -45.330  35.936  28.069  1.00  0.00     0.114 C 
ATOM      2  H   UNL     1     -44.620  36.272  27.303  1.00  0.00     0.076 H 
ATOM      3  H   UNL     1     -44.876  35.147  28.681  1.00  0.00     0.076 H 
ENDROOT
BRANCH   1   4
ATOM      4  O   UNL     1     -45.710  37.048  28.882  1.00  0.00    -0.489 OA
BRANCH   4   5
ATOM      5  C   UNL     1     -44.937  38.174  28.799  1.00  0.00     0.122 A 
ATOM      6  C   UNL     1     -43.299  42.120  26.701  1.00  0.00     0.126 A 
ATOM      7  C   UNL     1     -42.466  42.403  27.777  1.00  0.00    -0.019 A 
ATOM      8  N   UNL     1     -44.103  41.036  26.696  1.00  0.00    -0.231 NA
ATOM      9  C   UNL     1     -42.440  41.540  28.867  1.00  0.00    -0.049 A 
ATOM     10  H   UNL     1     -41.849  43.295  27.774  1.00  0.00     0.066 H 
ATOM     11  C   UNL     1     -44.087  40.198  27.748  1.00  0.00     0.076 A 
ATOM     12  C   UNL     1     -43.260  40.410  28.868  1.00  0.00     0.001 A 
ATOM     13  H   UNL     1     -41.789  41.761  29.708  1.00  0.00     0.063 H 
ATOM     14  C   UNL     1     -44.913  39.080  27.736  1.00  0.00     0.007 A 
ATOM     15  C   UNL     1     -43.276  39.506  29.940  1.00  0.00    -0.049 A 
ATOM     16  H   UNL     1     -45.540  38.945  26.861  1.00  0.00     0.069 H 
ATOM     17  C   UNL     1     -44.112  38.392  29.901  1.00  0.00    -0.019 A 
ATOM     18  H   UNL     1     -42.641  39.663  30.810  1.00  0.00     0.063 H 
ATOM     19  H   UNL     1     -44.125  37.695  30.734  1.00  0.00     0.066 H 
BRANCH   6  20
ATOM     20  N   UNL     1     -43.319  43.029  25.628  1.00  0.00    -0.373 N 
ATOM     21  H   UNL     1     -42.365  43.197  25.321  1.00  0.00     0.161 HD
BRANCH  20  22
ATOM     22  C   UNL     1     -44.180  42.633  24.525  1.00  0.00     0.005 C 
ATOM     23  H   UNL     1     -45.012  42.010  24.866  1.00  0.00     0.045 H 
ATOM     24  H   UNL     1     -43.594  42.042  23.812  1.00  0.00     0.045 H 
ATOM     25  H   UNL     1     -44.567  43.504  23.984  1.00  0.00     0.045 H 
ENDBRANCH  20  22
ENDBRANCH   6  20
ENDBRANCH   4   5
ENDBRANCH   1   4
BRANCH   1  26
ATOM     26  C   UNL     1     -46.562  35.361  27.404  1.00  0.00    -0.005 A 
ATOM     27  C   UNL     1     -47.838  35.848  27.724  1.00  0.00    -0.013 A 
ATOM     28  C   UNL     1     -46.441  34.290  26.501  1.00  0.00    -0.031 A 
ATOM     29  C   UNL     1     -48.971  35.293  27.136  1.00  0.00     0.121 A 
ATOM     30  H   UNL     1     -47.913  36.665  28.435  1.00  0.00     0.067 H 
ATOM     31  C   UNL     1     -47.569  33.716  25.899  1.00  0.00     0.051 A 
ATOM     32  H   UNL     1     -45.442  33.915  26.305  1.00  0.00     0.065 H 
ATOM     33  C   UNL     1     -48.832  34.234  26.231  1.00  0.00     0.004 A 
ATOM     34  H   UNL     1     -49.748  33.854  25.789  1.00  0.00     0.068 H 
BRANCH  29  35
ATOM     35  O   UNL     1     -50.264  35.685  27.356  1.00  0.00    -0.497 OA
BRANCH  35  36
ATOM     36  C   UNL     1     -50.455  36.887  28.093  1.00  0.00     0.078 C 
ATOM     37  H   UNL     1     -49.552  37.060  28.688  1.00  0.00     0.067 H 
ATOM     38  H   UNL     1     -50.581  37.744  27.424  1.00  0.00     0.067 H 
ATOM     39  H   UNL     1     -51.296  36.797  28.787  1.00  0.00     0.067 H 
ENDBRANCH  35  36
ENDBRANCH  29  35
BRANCH  31  40
ATOM     40  N   UNL     1     -47.453  32.622  24.971  1.00  0.00    -0.299 N 
ATOM     41  C   UNL     1     -46.259  32.145  24.455  1.00  0.00     0.030 A 
ATOM     42  C   UNL     1     -48.478  31.845  24.416  1.00  0.00     0.151 A 
ATOM     43  C   UNL     1     -46.516  31.107  23.593  1.00  0.00     0.072 A 
ATOM     44  H   UNL     1     -45.308  32.585  24.712  1.00  0.00     0.084 H 
ATOM     45  C   UNL     1     -47.912  30.905  23.556  1.00  0.00     0.080 A 
ATOM     46  N   UNL     1     -49.799  31.949  24.671  1.00  0.00    -0.218 NA
ATOM     47  Cl  UNL     1     -45.346  30.223  22.730  1.00  0.00    -0.082 Cl
ATOM     48  C   UNL     1     -48.789  30.028  22.897  1.00  0.00     0.137 A 
ATOM     49  C   UNL     1     -50.535  31.056  23.997  1.00  0.00     0.120 A 
ATOM     50  N   UNL     1     -50.109  30.117  23.140  1.00  0.00    -0.219 NA
ATOM     51  H   UNL     1     -51.607  31.096  24.165  1.00  0.00     0.106 H 
BRANCH  48  52
ATOM     52  N   UNL     1     -48.385  29.049  22.005  1.00  0.00    -0.383 N 
ATOM     53  H   UNL     1     -48.473  29.279  21.024  1.00  0.00     0.158 HD
ATOM     54  H   UNL     1     -47.527  28.601  22.301  1.00  0.00     0.158 HD
ENDBRANCH  48  52
ENDBRANCH  31  40
ENDBRANCH   1  26
TORSDOF 9
ENDMDL
