MODEL 1
REMARK VINA RESULT:     -10.4      0.000      0.000
REMARK SMILES CNc1ccc2ccc(OC[C@H]3O[C@@H](n4cc(-c5cccc(C)n5)c5c(N)ncnc54)[C@@H](F)[C@@H]3O)cc2n1
REMARK SMILES IDX 11 1 10 4 9 5 3 6 4 7 38 8 5 9 37 11 6 12 36 14 7 15 8 17
REMARK SMILES IDX 2 20 1 22 12 26 13 27 34 28 14 30 32 31 33 34 35 36 15 38
REMARK SMILES IDX 16 39 31 40 17 41 25 43 30 44 26 45 29 46 28 47 18 49 19 50
REMARK SMILES IDX 24 51 20 52 22 54 21 55 23 58 27 62
REMARK H PARENT 11 2 11 3 4 10 5 13 36 16 7 18 8 19 2 21 1 23 1 24 1 25 12 29
REMARK H PARENT 34 32 14 33 32 35 35 37 16 42 29 48 19 53 20 56 21 57 23 59
REMARK H PARENT 23 60 23 61 27 63 27 64
REMARK Flexibility Score: inf
ROOT
ATOM      1  C   UNL     1     -47.425  36.496  27.208  1.00  0.00     0.117 C 
ATOM      2  H   UNL     1     -46.985  36.753  26.243  1.00  0.00     0.073 H 
ATOM      3  H   UNL     1     -48.024  37.363  27.502  1.00  0.00     0.073 H 
ENDROOT
BRANCH   1   4
ATOM      4  O   UNL     1     -48.257  35.355  26.968  1.00  0.00    -0.491 OA
BRANCH   4   5
ATOM      5  C   UNL     1     -47.783  34.329  26.200  1.00  0.00     0.121 A 
ATOM      6  C   UNL     1     -48.897  29.981  24.587  1.00  0.00     0.126 A 
ATOM      7  C   UNL     1     -47.691  29.876  23.905  1.00  0.00    -0.019 A 
ATOM      8  N   UNL     1     -49.204  31.076  25.313  1.00  0.00    -0.231 NA
ATOM      9  C   UNL     1     -46.784  30.931  23.954  1.00  0.00    -0.049 A 
ATOM     10  H   UNL     1     -47.450  28.976  23.350  1.00  0.00     0.066 H 
ATOM     11  C   UNL     1     -48.333  32.100  25.366  1.00  0.00     0.076 A 
ATOM     12  C   UNL     1     -47.098  32.072  24.693  1.00  0.00     0.001 A 
ATOM     13  H   UNL     1     -45.841  30.848  23.422  1.00  0.00     0.063 H 
ATOM     14  C   UNL     1     -48.647  33.231  26.106  1.00  0.00     0.007 A 
ATOM     15  C   UNL     1     -46.221  33.167  24.778  1.00  0.00    -0.049 A 
ATOM     16  H   UNL     1     -49.601  33.262  26.629  1.00  0.00     0.069 H 
ATOM     17  C   UNL     1     -46.564  34.292  25.529  1.00  0.00    -0.019 A 
ATOM     18  H   UNL     1     -45.265  33.147  24.259  1.00  0.00     0.063 H 
ATOM     19  H   UNL     1     -45.857  35.112  25.563  1.00  0.00     0.066 H 
BRANCH   6  20
ATOM     20  N   UNL     1     -49.779  28.885  24.536  1.00  0.00    -0.373 N 
ATOM     21  H   UNL     1     -50.485  28.999  25.256  1.00  0.00     0.161 HD
BRANCH  20  22
ATOM     22  C   UNL     1     -49.121  27.590  24.627  1.00  0.00     0.005 C 
ATOM     23  H   UNL     1     -49.708  26.881  25.221  1.00  0.00     0.045 H 
ATOM     24  H   UNL     1     -49.020  27.173  23.620  1.00  0.00     0.045 H 
ATOM     25  H   UNL     1     -48.112  27.680  25.045  1.00  0.00     0.045 H 
ENDBRANCH  20  22
ENDBRANCH   6  20
ENDBRANCH   4   5
ENDBRANCH   1   4
BRANCH   1  26
ATOM     26  C   UNL     1     -46.323  36.169  28.228  1.00  0.00     0.123 C 
ATOM     27  O   UNL     1     -45.133  36.957  27.970  1.00  0.00    -0.345 OA
ATOM     28  C   UNL     1     -46.742  36.496  29.666  1.00  0.00     0.119 C 
ATOM     29  H   UNL     1     -46.021  35.121  28.132  1.00  0.00     0.067 H 
ATOM     30  C   UNL     1     -45.002  37.927  29.034  1.00  0.00     0.169 C 
ATOM     31  C   UNL     1     -46.300  37.934  29.827  1.00  0.00     0.173 C 
ATOM     32  H   UNL     1     -47.814  36.362  29.833  1.00  0.00     0.066 H 
ATOM     33  H   UNL     1     -44.198  37.533  29.671  1.00  0.00     0.088 H 
ATOM     34  F   UNL     1     -47.241  38.741  29.274  1.00  0.00    -0.239 F 
ATOM     35  H   UNL     1     -46.148  38.247  30.864  1.00  0.00     0.074 H 
BRANCH  28  36
ATOM     36  O   UNL     1     -46.053  35.673  30.618  1.00  0.00    -0.387 OA
ATOM     37  H   UNL     1     -45.728  36.227  31.352  1.00  0.00     0.211 HD
ENDBRANCH  28  36
BRANCH  30  38
ATOM     38  N   UNL     1     -44.544  39.215  28.544  1.00  0.00    -0.302 N 
ATOM     39  C   UNL     1     -45.139  39.879  27.496  1.00  0.00     0.019 A 
ATOM     40  C   UNL     1     -43.486  39.958  29.005  1.00  0.00     0.148 A 
ATOM     41  C   UNL     1     -44.458  41.064  27.283  1.00  0.00     0.031 A 
ATOM     42  H   UNL     1     -45.997  39.467  26.978  1.00  0.00     0.083 H 
ATOM     43  C   UNL     1     -43.424  41.136  28.267  1.00  0.00     0.071 A 
ATOM     44  N   UNL     1     -42.660  39.608  30.004  1.00  0.00    -0.218 NA
ATOM     45  C   UNL     1     -42.430  42.055  28.645  1.00  0.00     0.137 A 
ATOM     46  C   UNL     1     -41.744  40.551  30.257  1.00  0.00     0.120 A 
ATOM     47  N   UNL     1     -41.587  41.739  29.647  1.00  0.00    -0.219 NA
ATOM     48  H   UNL     1     -41.045  40.332  31.059  1.00  0.00     0.106 H 
BRANCH  41  49
ATOM     49  C   UNL     1     -44.819  41.979  26.213  1.00  0.00     0.073 A 
ATOM     50  C   UNL     1     -44.029  42.105  25.077  1.00  0.00    -0.036 A 
ATOM     51  N   UNL     1     -45.975  42.665  26.387  1.00  0.00    -0.253 NA
ATOM     52  C   UNL     1     -44.432  42.991  24.083  1.00  0.00    -0.058 A 
ATOM     53  H   UNL     1     -43.120  41.526  24.957  1.00  0.00     0.065 H 
ATOM     54  C   UNL     1     -46.353  43.523  25.410  1.00  0.00     0.038 A 
ATOM     55  C   UNL     1     -45.609  43.713  24.249  1.00  0.00    -0.041 A 
ATOM     56  H   UNL     1     -43.834  43.113  23.185  1.00  0.00     0.062 H 
ATOM     57  H   UNL     1     -45.940  44.408  23.484  1.00  0.00     0.064 H 
BRANCH  54  58
ATOM     58  C   UNL     1     -47.628  44.283  25.619  1.00  0.00    -0.022 C 
ATOM     59  H   UNL     1     -47.449  45.358  25.509  1.00  0.00     0.030 H 
ATOM     60  H   UNL     1     -48.384  43.986  24.885  1.00  0.00     0.030 H 
ATOM     61  H   UNL     1     -48.027  44.085  26.618  1.00  0.00     0.030 H 
ENDBRANCH  54  58
ENDBRANCH  41  49
BRANCH  45  62
ATOM     62  N   UNL     1     -42.270  43.316  28.076  1.00  0.00    -0.383 N 
ATOM     63  H   UNL     1     -41.300  43.550  27.907  1.00  0.00     0.158 HD
ATOM     64  H   UNL     1     -42.872  43.385  27.262  1.00  0.00     0.158 HD
ENDBRANCH  45  62
ENDBRANCH  30  38
ENDBRANCH   1  26
TORSDOF 10
ENDMDL
MODEL 2
REMARK VINA RESULT:     -10.1      1.771      2.298
REMARK SMILES CNc1ccc2ccc(OC[C@H]3O[C@@H](n4cc(-c5cccc(C)n5)c5c(N)ncnc54)[C@@H](F)[C@@H]3O)cc2n1
REMARK SMILES IDX 11 1 10 4 9 5 3 6 4 7 38 8 5 9 37 11 6 12 36 14 7 15 8 17
REMARK SMILES IDX 2 20 1 22 12 26 13 27 34 28 14 30 32 31 33 34 35 36 15 38
REMARK SMILES IDX 16 39 31 40 17 41 25 43 30 44 26 45 29 46 28 47 18 49 19 50
REMARK SMILES IDX 24 51 20 52 22 54 21 55 23 58 27 62
REMARK H PARENT 11 2 11 3 4 10 5 13 36 16 7 18 8 19 2 21 1 23 1 24 1 25 12 29
REMARK H PARENT 34 32 14 33 32 35 35 37 16 42 29 48 19 53 20 56 21 57 23 59
REMARK H PARENT 23 60 23 61 27 63 27 64
REMARK Flexibility Score: inf
ROOT
ATOM      1  C   UNL     1     -45.985  35.076  27.479  1.00  0.00     0.117 C 
ATOM      2  H   UNL     1     -45.838  34.043  27.799  1.00  0.00     0.073 H 
ATOM      3  H   UNL     1     -44.982  35.510  27.403  1.00  0.00     0.073 H 
ENDROOT
BRANCH   1   4
ATOM      4  O   UNL     1     -46.610  35.002  26.192  1.00  0.00    -0.491 OA
BRANCH   4   5
ATOM      5  C   UNL     1     -47.160  33.821  25.781  1.00  0.00     0.121 A 
ATOM      6  C   UNL     1     -46.417  30.111  22.877  1.00  0.00     0.126 A 
ATOM      7  C   UNL     1     -47.611  29.512  23.263  1.00  0.00    -0.019 A 
ATOM      8  N   UNL     1     -46.027  31.298  23.384  1.00  0.00    -0.231 NA
ATOM      9  C   UNL     1     -48.416  30.142  24.208  1.00  0.00    -0.049 A 
ATOM     10  H   UNL     1     -47.922  28.571  22.823  1.00  0.00     0.066 H 
ATOM     11  C   UNL     1     -46.800  31.914  24.298  1.00  0.00     0.076 A 
ATOM     12  C   UNL     1     -48.015  31.365  24.746  1.00  0.00     0.001 A 
ATOM     13  H   UNL     1     -49.350  29.675  24.509  1.00  0.00     0.063 H 
ATOM     14  C   UNL     1     -46.400  33.132  24.828  1.00  0.00     0.007 A 
ATOM     15  C   UNL     1     -48.788  32.045  25.703  1.00  0.00    -0.049 A 
ATOM     16  H   UNL     1     -45.460  33.563  24.488  1.00  0.00     0.069 H 
ATOM     17  C   UNL     1     -48.360  33.269  26.219  1.00  0.00    -0.019 A 
ATOM     18  H   UNL     1     -49.729  31.623  26.050  1.00  0.00     0.063 H 
ATOM     19  H   UNL     1     -48.988  33.755  26.956  1.00  0.00     0.066 H 
BRANCH   6  20
ATOM     20  N   UNL     1     -45.641  29.459  21.901  1.00  0.00    -0.373 N 
ATOM     21  H   UNL     1     -46.252  28.895  21.319  1.00  0.00     0.161 HD
BRANCH  20  22
ATOM     22  C   UNL     1     -44.541  28.677  22.443  1.00  0.00     0.005 C 
ATOM     23  H   UNL     1     -44.752  28.335  23.462  1.00  0.00     0.045 H 
ATOM     24  H   UNL     1     -44.398  27.788  21.821  1.00  0.00     0.045 H 
ATOM     25  H   UNL     1     -43.601  29.240  22.428  1.00  0.00     0.045 H 
ENDBRANCH  20  22
ENDBRANCH   6  20
ENDBRANCH   4   5
ENDBRANCH   1   4
BRANCH   1  26
ATOM     26  C   UNL     1     -46.876  35.826  28.482  1.00  0.00     0.123 C 
ATOM     27  O   UNL     1     -46.153  36.928  29.087  1.00  0.00    -0.345 OA
ATOM     28  C   UNL     1     -48.111  36.444  27.820  1.00  0.00     0.119 C 
ATOM     29  H   UNL     1     -47.158  35.159  29.304  1.00  0.00     0.067 H 
ATOM     30  C   UNL     1     -46.715  38.160  28.580  1.00  0.00     0.169 C 
ATOM     31  C   UNL     1     -47.623  37.816  27.409  1.00  0.00     0.173 C 
ATOM     32  H   UNL     1     -48.475  35.854  26.974  1.00  0.00     0.066 H 
ATOM     33  H   UNL     1     -47.328  38.546  29.405  1.00  0.00     0.088 H 
ATOM     34  F   UNL     1     -46.943  37.702  26.241  1.00  0.00    -0.239 F 
ATOM     35  H   UNL     1     -48.417  38.555  27.272  1.00  0.00     0.074 H 
BRANCH  28  36
ATOM     36  O   UNL     1     -49.198  36.578  28.748  1.00  0.00    -0.387 OA
ATOM     37  H   UNL     1     -49.606  35.706  28.897  1.00  0.00     0.211 HD
ENDBRANCH  28  36
BRANCH  30  38
ATOM     38  N   UNL     1     -45.694  39.160  28.325  1.00  0.00    -0.302 N 
ATOM     39  C   UNL     1     -45.791  40.101  27.325  1.00  0.00     0.019 A 
ATOM     40  C   UNL     1     -44.507  39.333  28.991  1.00  0.00     0.148 A 
ATOM     41  C   UNL     1     -44.655  40.890  27.350  1.00  0.00     0.031 A 
ATOM     42  H   UNL     1     -46.652  40.143  26.669  1.00  0.00     0.083 H 
ATOM     43  C   UNL     1     -43.848  40.426  28.435  1.00  0.00     0.071 A 
ATOM     44  N   UNL     1     -44.064  38.580  30.010  1.00  0.00    -0.218 NA
ATOM     45  C   UNL     1     -42.633  40.792  29.039  1.00  0.00     0.137 A 
ATOM     46  C   UNL     1     -42.890  39.012  30.486  1.00  0.00     0.120 A 
ATOM     47  N   UNL     1     -42.161  40.062  30.068  1.00  0.00    -0.219 NA
ATOM     48  H   UNL     1     -42.476  38.447  31.317  1.00  0.00     0.106 H 
BRANCH  41  49
ATOM     49  C   UNL     1     -44.435  41.956  26.388  1.00  0.00     0.073 A 
ATOM     50  C   UNL     1     -44.323  41.687  25.029  1.00  0.00    -0.036 A 
ATOM     51  N   UNL     1     -44.376  43.210  26.898  1.00  0.00    -0.253 NA
ATOM     52  C   UNL     1     -44.122  42.751  24.156  1.00  0.00    -0.058 A 
ATOM     53  H   UNL     1     -44.396  40.674  24.649  1.00  0.00     0.065 H 
ATOM     54  C   UNL     1     -44.179  44.234  26.035  1.00  0.00     0.038 A 
ATOM     55  C   UNL     1     -44.046  44.044  24.662  1.00  0.00    -0.041 A 
ATOM     56  H   UNL     1     -44.029  42.572  23.089  1.00  0.00     0.062 H 
ATOM     57  H   UNL     1     -43.891  44.887  23.996  1.00  0.00     0.064 H 
BRANCH  54  58
ATOM     58  C   UNL     1     -44.106  45.615  26.613  1.00  0.00    -0.022 C 
ATOM     59  H   UNL     1     -44.886  46.249  26.176  1.00  0.00     0.030 H 
ATOM     60  H   UNL     1     -44.255  45.592  27.698  1.00  0.00     0.030 H 
ATOM     61  H   UNL     1     -43.127  46.059  26.412  1.00  0.00     0.030 H 
ENDBRANCH  54  58
ENDBRANCH  41  49
BRANCH  45  62
ATOM     62  N   UNL     1     -41.878  41.903  28.672  1.00  0.00    -0.383 N 
ATOM     63  H   UNL     1     -41.947  42.118  27.685  1.00  0.00     0.158 HD
ATOM     64  H   UNL     1     -42.109  42.674  29.291  1.00  0.00     0.158 HD
ENDBRANCH  45  62
ENDBRANCH  30  38
ENDBRANCH   1  26
TORSDOF 10
ENDMDL
MODEL 3
REMARK VINA RESULT:      -9.0      2.638      3.928
REMARK SMILES CNc1ccc2ccc(OC[C@H]3O[C@@H](n4cc(-c5cccc(C)n5)c5c(N)ncnc54)[C@@H](F)[C@@H]3O)cc2n1
REMARK SMILES IDX 11 1 10 4 9 5 3 6 4 7 38 8 5 9 37 11 6 12 36 14 7 15 8 17
REMARK SMILES IDX 2 20 1 22 12 26 13 27 34 28 14 30 32 31 33 34 35 36 15 38
REMARK SMILES IDX 16 39 31 40 17 41 25 43 30 44 26 45 29 46 28 47 18 49 19 50
REMARK SMILES IDX 24 51 20 52 22 54 21 55 23 58 27 62
REMARK H PARENT 11 2 11 3 4 10 5 13 36 16 7 18 8 19 2 21 1 23 1 24 1 25 12 29
REMARK H PARENT 34 32 14 33 32 35 35 37 16 42 29 48 19 53 20 56 21 57 23 59
REMARK H PARENT 23 60 23 61 27 63 27 64
REMARK Flexibility Score: inf
ROOT
ATOM      1  C   UNL     1     -46.788  35.086  26.330  1.00  0.00     0.117 C 
ATOM      2  H   UNL     1     -46.095  34.566  25.667  1.00  0.00     0.073 H 
ATOM      3  H   UNL     1     -47.197  35.915  25.743  1.00  0.00     0.073 H 
ENDROOT
BRANCH   1   4
ATOM      4  O   UNL     1     -47.808  34.135  26.655  1.00  0.00    -0.491 OA
BRANCH   4   5
ATOM      5  C   UNL     1     -47.869  32.956  25.967  1.00  0.00     0.121 A 
ATOM      6  C   UNL     1     -46.301  30.799  22.013  1.00  0.00     0.126 A 
ATOM      7  C   UNL     1     -46.985  29.630  22.325  1.00  0.00    -0.019 A 
ATOM      8  N   UNL     1     -46.359  31.885  22.810  1.00  0.00    -0.231 NA
ATOM      9  C   UNL     1     -47.732  29.569  23.498  1.00  0.00    -0.049 A 
ATOM     10  H   UNL     1     -46.949  28.777  21.657  1.00  0.00     0.066 H 
ATOM     11  C   UNL     1     -47.080  31.834  23.946  1.00  0.00     0.076 A 
ATOM     12  C   UNL     1     -47.788  30.684  24.335  1.00  0.00     0.001 A 
ATOM     13  H   UNL     1     -48.268  28.656  23.742  1.00  0.00     0.063 H 
ATOM     14  C   UNL     1     -47.137  32.947  24.774  1.00  0.00     0.007 A 
ATOM     15  C   UNL     1     -48.528  30.678  25.531  1.00  0.00    -0.049 A 
ATOM     16  H   UNL     1     -46.590  33.841  24.481  1.00  0.00     0.069 H 
ATOM     17  C   UNL     1     -48.566  31.812  26.344  1.00  0.00    -0.019 A 
ATOM     18  H   UNL     1     -49.077  29.790  25.833  1.00  0.00     0.063 H 
ATOM     19  H   UNL     1     -49.146  31.760  27.257  1.00  0.00     0.066 H 
BRANCH   6  20
ATOM     20  N   UNL     1     -45.576  30.834  20.807  1.00  0.00    -0.373 N 
ATOM     21  H   UNL     1     -44.590  30.944  21.021  1.00  0.00     0.161 HD
BRANCH  20  22
ATOM     22  C   UNL     1     -46.039  31.841  19.865  1.00  0.00     0.005 C 
ATOM     23  H   UNL     1     -45.350  32.691  19.813  1.00  0.00     0.045 H 
ATOM     24  H   UNL     1     -46.090  31.396  18.867  1.00  0.00     0.045 H 
ATOM     25  H   UNL     1     -47.046  32.194  20.116  1.00  0.00     0.045 H 
ENDBRANCH  20  22
ENDBRANCH   6  20
ENDBRANCH   4   5
ENDBRANCH   1   4
BRANCH   1  26
ATOM     26  C   UNL     1     -46.059  35.567  27.595  1.00  0.00     0.123 C 
ATOM     27  O   UNL     1     -45.691  36.965  27.477  1.00  0.00    -0.345 OA
ATOM     28  C   UNL     1     -46.934  35.465  28.849  1.00  0.00     0.119 C 
ATOM     29  H   UNL     1     -45.122  35.014  27.720  1.00  0.00     0.067 H 
ATOM     30  C   UNL     1     -46.519  37.721  28.390  1.00  0.00     0.169 C 
ATOM     31  C   UNL     1     -47.631  36.808  28.884  1.00  0.00     0.173 C 
ATOM     32  H   UNL     1     -47.635  34.627  28.806  1.00  0.00     0.066 H 
ATOM     33  H   UNL     1     -45.855  37.962  29.231  1.00  0.00     0.088 H 
ATOM     34  F   UNL     1     -48.687  36.771  28.033  1.00  0.00    -0.239 F 
ATOM     35  H   UNL     1     -47.997  37.102  29.872  1.00  0.00     0.074 H 
BRANCH  28  36
ATOM     36  O   UNL     1     -46.144  35.303  30.036  1.00  0.00    -0.387 OA
ATOM     37  H   UNL     1     -45.670  34.452  29.996  1.00  0.00     0.211 HD
ENDBRANCH  28  36
BRANCH  30  38
ATOM     38  N   UNL     1     -46.938  38.990  27.821  1.00  0.00    -0.302 N 
ATOM     39  C   UNL     1     -48.226  39.467  27.906  1.00  0.00     0.019 A 
ATOM     40  C   UNL     1     -46.170  39.889  27.125  1.00  0.00     0.148 A 
ATOM     41  C   UNL     1     -48.286  40.689  27.260  1.00  0.00     0.031 A 
ATOM     42  H   UNL     1     -49.003  38.910  28.414  1.00  0.00     0.083 H 
ATOM     43  C   UNL     1     -46.968  40.979  26.790  1.00  0.00     0.071 A 
ATOM     44  N   UNL     1     -44.870  39.743  26.827  1.00  0.00    -0.218 NA
ATOM     45  C   UNL     1     -46.328  42.036  26.122  1.00  0.00     0.137 A 
ATOM     46  C   UNL     1     -44.377  40.802  26.172  1.00  0.00     0.120 A 
ATOM     47  N   UNL     1     -45.022  41.926  25.812  1.00  0.00    -0.219 NA
ATOM     48  H   UNL     1     -43.326  40.749  25.904  1.00  0.00     0.106 H 
BRANCH  41  49
ATOM     49  C   UNL     1     -49.526  41.436  27.139  1.00  0.00     0.073 A 
ATOM     50  C   UNL     1     -50.415  41.532  28.202  1.00  0.00    -0.036 A 
ATOM     51  N   UNL     1     -49.737  42.044  25.945  1.00  0.00    -0.253 NA
ATOM     52  C   UNL     1     -51.582  42.269  28.028  1.00  0.00    -0.058 A 
ATOM     53  H   UNL     1     -50.208  41.052  29.153  1.00  0.00     0.065 H 
ATOM     54  C   UNL     1     -50.877  42.757  25.793  1.00  0.00     0.038 A 
ATOM     55  C   UNL     1     -51.821  42.890  26.807  1.00  0.00    -0.041 A 
ATOM     56  H   UNL     1     -52.297  42.361  28.841  1.00  0.00     0.062 H 
ATOM     57  H   UNL     1     -52.726  43.470  26.653  1.00  0.00     0.064 H 
BRANCH  54  58
ATOM     58  C   UNL     1     -51.102  43.416  24.465  1.00  0.00    -0.022 C 
ATOM     59  H   UNL     1     -52.161  43.669  24.344  1.00  0.00     0.030 H 
ATOM     60  H   UNL     1     -50.520  44.340  24.385  1.00  0.00     0.030 H 
ATOM     61  H   UNL     1     -50.796  42.749  23.655  1.00  0.00     0.030 H 
ENDBRANCH  54  58
ENDBRANCH  41  49
BRANCH  45  62
ATOM     62  N   UNL     1     -46.944  43.238  25.781  1.00  0.00    -0.383 N 
ATOM     63  H   UNL     1     -47.711  43.475  26.397  1.00  0.00     0.158 HD
ATOM     64  H   UNL     1     -46.232  43.956  25.693  1.00  0.00     0.158 HD
ENDBRANCH  45  62
ENDBRANCH  30  38
ENDBRANCH   1  26
TORSDOF 10
ENDMDL
MODEL 4
REMARK VINA RESULT:      -8.9      2.363      3.577
REMARK SMILES CNc1ccc2ccc(OC[C@H]3O[C@@H](n4cc(-c5cccc(C)n5)c5c(N)ncnc54)[C@@H](F)[C@@H]3O)cc2n1
REMARK SMILES IDX 11 1 10 4 9 5 3 6 4 7 38 8 5 9 37 11 6 12 36 14 7 15 8 17
REMARK SMILES IDX 2 20 1 22 12 26 13 27 34 28 14 30 32 31 33 34 35 36 15 38
REMARK SMILES IDX 16 39 31 40 17 41 25 43 30 44 26 45 29 46 28 47 18 49 19 50
REMARK SMILES IDX 24 51 20 52 22 54 21 55 23 58 27 62
REMARK H PARENT 11 2 11 3 4 10 5 13 36 16 7 18 8 19 2 21 1 23 1 24 1 25 12 29
REMARK H PARENT 34 32 14 33 32 35 35 37 16 42 29 48 19 53 20 56 21 57 23 59
REMARK H PARENT 23 60 23 61 27 63 27 64
REMARK Flexibility Score: inf
ROOT
ATOM      1  C   UNL     1     -47.092  35.038  26.185  1.00  0.00     0.117 C 
ATOM      2  H   UNL     1     -46.447  34.898  25.316  1.00  0.00     0.073 H 
ATOM      3  H   UNL     1     -47.825  35.797  25.893  1.00  0.00     0.073 H 
ENDROOT
BRANCH   1   4
ATOM      4  O   UNL     1     -47.723  33.773  26.412  1.00  0.00    -0.491 OA
BRANCH   4   5
ATOM      5  C   UNL     1     -47.467  32.734  25.563  1.00  0.00     0.121 A 
ATOM      6  C   UNL     1     -48.889  28.320  24.449  1.00  0.00     0.126 A 
ATOM      7  C   UNL     1     -47.934  28.217  23.445  1.00  0.00    -0.019 A 
ATOM      8  N   UNL     1     -48.999  29.430  25.207  1.00  0.00    -0.231 NA
ATOM      9  C   UNL     1     -47.081  29.290  23.202  1.00  0.00    -0.049 A 
ATOM     10  H   UNL     1     -47.841  27.306  22.865  1.00  0.00     0.066 H 
ATOM     11  C   UNL     1     -48.178  30.471  24.979  1.00  0.00     0.076 A 
ATOM     12  C   UNL     1     -47.194  30.447  23.974  1.00  0.00     0.001 A 
ATOM     13  H   UNL     1     -46.332  29.209  22.418  1.00  0.00     0.063 H 
ATOM     14  C   UNL     1     -48.291  31.618  25.752  1.00  0.00     0.007 A 
ATOM     15  C   UNL     1     -46.360  31.559  23.773  1.00  0.00    -0.049 A 
ATOM     16  H   UNL     1     -49.051  31.647  26.531  1.00  0.00     0.069 H 
ATOM     17  C   UNL     1     -46.497  32.700  24.565  1.00  0.00    -0.019 A 
ATOM     18  H   UNL     1     -45.598  31.542  22.996  1.00  0.00     0.063 H 
ATOM     19  H   UNL     1     -45.834  33.534  24.371  1.00  0.00     0.066 H 
BRANCH   6  20
ATOM     20  N   UNL     1     -49.717  27.207  24.684  1.00  0.00    -0.373 N 
ATOM     21  H   UNL     1     -50.590  27.336  24.181  1.00  0.00     0.161 HD
BRANCH  20  22
ATOM     22  C   UNL     1     -49.944  26.923  26.093  1.00  0.00     0.005 C 
ATOM     23  H   UNL     1     -50.995  26.693  26.294  1.00  0.00     0.045 H 
ATOM     24  H   UNL     1     -49.354  26.046  26.376  1.00  0.00     0.045 H 
ATOM     25  H   UNL     1     -49.618  27.754  26.728  1.00  0.00     0.045 H 
ENDBRANCH  20  22
ENDBRANCH   6  20
ENDBRANCH   4   5
ENDBRANCH   1   4
BRANCH   1  26
ATOM     26  C   UNL     1     -46.259  35.466  27.405  1.00  0.00     0.123 C 
ATOM     27  O   UNL     1     -45.854  36.854  27.289  1.00  0.00    -0.345 OA
ATOM     28  C   UNL     1     -47.047  35.364  28.715  1.00  0.00     0.119 C 
ATOM     29  H   UNL     1     -45.335  34.881  27.451  1.00  0.00     0.067 H 
ATOM     30  C   UNL     1     -46.589  37.616  28.274  1.00  0.00     0.169 C 
ATOM     31  C   UNL     1     -47.693  36.728  28.827  1.00  0.00     0.173 C 
ATOM     32  H   UNL     1     -47.776  34.550  28.705  1.00  0.00     0.066 H 
ATOM     33  H   UNL     1     -45.860  37.816  29.071  1.00  0.00     0.088 H 
ATOM     34  F   UNL     1     -48.808  36.744  28.053  1.00  0.00    -0.239 F 
ATOM     35  H   UNL     1     -47.979  37.010  29.844  1.00  0.00     0.074 H 
BRANCH  28  36
ATOM     36  O   UNL     1     -46.180  35.150  29.839  1.00  0.00    -0.387 OA
ATOM     37  H   UNL     1     -46.682  34.725  30.559  1.00  0.00     0.211 HD
ENDBRANCH  28  36
BRANCH  30  38
ATOM     38  N   UNL     1     -47.004  38.910  27.763  1.00  0.00    -0.302 N 
ATOM     39  C   UNL     1     -48.279  39.405  27.909  1.00  0.00     0.019 A 
ATOM     40  C   UNL     1     -46.244  39.819  27.070  1.00  0.00     0.148 A 
ATOM     41  C   UNL     1     -48.340  40.649  27.305  1.00  0.00     0.031 A 
ATOM     42  H   UNL     1     -49.049  38.844  28.425  1.00  0.00     0.083 H 
ATOM     43  C   UNL     1     -47.034  40.933  26.800  1.00  0.00     0.071 A 
ATOM     44  N   UNL     1     -44.958  39.661  26.722  1.00  0.00    -0.218 NA
ATOM     45  C   UNL     1     -46.398  42.001  26.145  1.00  0.00     0.137 A 
ATOM     46  C   UNL     1     -44.469  40.733  26.086  1.00  0.00     0.120 A 
ATOM     47  N   UNL     1     -45.105  41.879  25.786  1.00  0.00    -0.219 NA
ATOM     48  H   UNL     1     -43.429  40.671  25.780  1.00  0.00     0.106 H 
BRANCH  41  49
ATOM     49  C   UNL     1     -49.570  41.421  27.253  1.00  0.00     0.073 A 
ATOM     50  C   UNL     1     -50.338  41.630  28.392  1.00  0.00    -0.036 A 
ATOM     51  N   UNL     1     -49.894  41.936  26.041  1.00  0.00    -0.253 NA
ATOM     52  C   UNL     1     -51.501  42.385  28.279  1.00  0.00    -0.058 A 
ATOM     53  H   UNL     1     -50.041  41.222  29.352  1.00  0.00     0.065 H 
ATOM     54  C   UNL     1     -51.029  42.668  25.950  1.00  0.00     0.038 A 
ATOM     55  C   UNL     1     -51.856  42.911  27.043  1.00  0.00    -0.041 A 
ATOM     56  H   UNL     1     -52.122  42.563  29.152  1.00  0.00     0.062 H 
ATOM     57  H   UNL     1     -52.759  43.504  26.936  1.00  0.00     0.064 H 
BRANCH  54  58
ATOM     58  C   UNL     1     -51.380  43.224  24.602  1.00  0.00    -0.022 C 
ATOM     59  H   UNL     1     -52.133  44.012  24.704  1.00  0.00     0.030 H 
ATOM     60  H   UNL     1     -50.498  43.656  24.117  1.00  0.00     0.030 H 
ATOM     61  H   UNL     1     -51.772  42.433  23.957  1.00  0.00     0.030 H 
ENDBRANCH  54  58
ENDBRANCH  41  49
BRANCH  45  62
ATOM     62  N   UNL     1     -47.004  43.224  25.866  1.00  0.00    -0.383 N 
ATOM     63  H   UNL     1     -46.476  43.782  25.207  1.00  0.00     0.158 HD
ATOM     64  H   UNL     1     -47.970  43.056  25.603  1.00  0.00     0.158 HD
ENDBRANCH  45  62
ENDBRANCH  30  38
ENDBRANCH   1  26
TORSDOF 10
ENDMDL
MODEL 5
REMARK VINA RESULT:      -8.9      4.721      8.346
REMARK SMILES CNc1ccc2ccc(OC[C@H]3O[C@@H](n4cc(-c5cccc(C)n5)c5c(N)ncnc54)[C@@H](F)[C@@H]3O)cc2n1
REMARK SMILES IDX 11 1 10 4 9 5 3 6 4 7 38 8 5 9 37 11 6 12 36 14 7 15 8 17
REMARK SMILES IDX 2 20 1 22 12 26 13 27 34 28 14 30 32 31 33 34 35 36 15 38
REMARK SMILES IDX 16 39 31 40 17 41 25 43 30 44 26 45 29 46 28 47 18 49 19 50
REMARK SMILES IDX 24 51 20 52 22 54 21 55 23 58 27 62
REMARK H PARENT 11 2 11 3 4 10 5 13 36 16 7 18 8 19 2 21 1 23 1 24 1 25 12 29
REMARK H PARENT 34 32 14 33 32 35 35 37 16 42 29 48 19 53 20 56 21 57 23 59
REMARK H PARENT 23 60 23 61 27 63 27 64
REMARK Flexibility Score: inf
ROOT
ATOM      1  C   UNL     1     -44.936  38.515  28.281  1.00  0.00     0.117 C 
ATOM      2  H   UNL     1     -45.151  38.935  27.297  1.00  0.00     0.073 H 
ATOM      3  H   UNL     1     -44.322  37.627  28.098  1.00  0.00     0.073 H 
ENDROOT
BRANCH   1   4
ATOM      4  O   UNL     1     -44.192  39.518  28.982  1.00  0.00    -0.491 OA
BRANCH   4   5
ATOM      5  C   UNL     1     -43.567  40.505  28.275  1.00  0.00     0.121 A 
ATOM      6  C   UNL     1     -43.850  43.023  24.234  1.00  0.00     0.126 A 
ATOM      7  C   UNL     1     -42.700  43.738  24.546  1.00  0.00    -0.019 A 
ATOM      8  N   UNL     1     -44.329  42.065  25.053  1.00  0.00    -0.231 NA
ATOM      9  C   UNL     1     -42.035  43.475  25.740  1.00  0.00    -0.049 A 
ATOM     10  H   UNL     1     -42.314  44.485  23.861  1.00  0.00     0.066 H 
ATOM     11  C   UNL     1     -43.692  41.803  26.209  1.00  0.00     0.076 A 
ATOM     12  C   UNL     1     -42.530  42.493  26.599  1.00  0.00     0.001 A 
ATOM     13  H   UNL     1     -41.135  44.033  25.984  1.00  0.00     0.063 H 
ATOM     14  C   UNL     1     -44.185  40.823  27.059  1.00  0.00     0.007 A 
ATOM     15  C   UNL     1     -41.899  42.185  27.817  1.00  0.00    -0.049 A 
ATOM     16  H   UNL     1     -45.084  40.285  26.765  1.00  0.00     0.069 H 
ATOM     17  C   UNL     1     -42.418  41.194  28.652  1.00  0.00    -0.019 A 
ATOM     18  H   UNL     1     -41.000  42.717  28.120  1.00  0.00     0.063 H 
ATOM     19  H   UNL     1     -41.900  40.994  29.582  1.00  0.00     0.066 H 
BRANCH   6  20
ATOM     20  N   UNL     1     -44.482  43.298  23.007  1.00  0.00    -0.373 N 
ATOM     21  H   UNL     1     -44.365  42.499  22.392  1.00  0.00     0.161 HD
BRANCH  20  22
ATOM     22  C   UNL     1     -44.041  44.533  22.376  1.00  0.00     0.005 C 
ATOM     23  H   UNL     1     -44.009  44.439  21.285  1.00  0.00     0.045 H 
ATOM     24  H   UNL     1     -44.752  45.328  22.618  1.00  0.00     0.045 H 
ATOM     25  H   UNL     1     -43.060  44.848  22.750  1.00  0.00     0.045 H 
ENDBRANCH  20  22
ENDBRANCH   6  20
ENDBRANCH   4   5
ENDBRANCH   1   4
BRANCH   1  26
ATOM     26  C   UNL     1     -46.244  38.182  29.018  1.00  0.00     0.123 C 
ATOM     27  O   UNL     1     -47.082  39.360  29.134  1.00  0.00    -0.345 OA
ATOM     28  C   UNL     1     -47.084  37.138  28.276  1.00  0.00     0.119 C 
ATOM     29  H   UNL     1     -46.026  37.861  30.042  1.00  0.00     0.067 H 
ATOM     30  C   UNL     1     -48.225  39.180  28.266  1.00  0.00     0.169 C 
ATOM     31  C   UNL     1     -47.949  37.984  27.368  1.00  0.00     0.173 C 
ATOM     32  H   UNL     1     -46.471  36.418  27.726  1.00  0.00     0.066 H 
ATOM     33  H   UNL     1     -49.052  38.933  28.945  1.00  0.00     0.088 H 
ATOM     34  F   UNL     1     -47.227  38.316  26.268  1.00  0.00    -0.239 F 
ATOM     35  H   UNL     1     -48.870  37.495  27.038  1.00  0.00     0.074 H 
BRANCH  28  36
ATOM     36  O   UNL     1     -47.917  36.391  29.175  1.00  0.00    -0.387 OA
ATOM     37  H   UNL     1     -48.854  36.586  28.987  1.00  0.00     0.211 HD
ENDBRANCH  28  36
BRANCH  30  38
ATOM     38  N   UNL     1     -48.598  40.412  27.594  1.00  0.00    -0.302 N 
ATOM     39  C   UNL     1     -47.682  41.335  27.146  1.00  0.00     0.019 A 
ATOM     40  C   UNL     1     -49.864  40.859  27.310  1.00  0.00     0.148 A 
ATOM     41  C   UNL     1     -48.366  42.388  26.564  1.00  0.00     0.031 A 
ATOM     42  H   UNL     1     -46.616  41.183  27.273  1.00  0.00     0.083 H 
ATOM     43  C   UNL     1     -49.758  42.071  26.634  1.00  0.00     0.071 A 
ATOM     44  N   UNL     1     -51.006  40.229  27.623  1.00  0.00    -0.218 NA
ATOM     45  C   UNL     1     -50.963  42.651  26.205  1.00  0.00     0.137 A 
ATOM     46  C   UNL     1     -52.086  40.886  27.183  1.00  0.00     0.120 A 
ATOM     47  N   UNL     1     -52.129  42.043  26.497  1.00  0.00    -0.219 NA
ATOM     48  H   UNL     1     -53.045  40.426  27.401  1.00  0.00     0.106 H 
BRANCH  41  49
ATOM     49  C   UNL     1     -47.679  43.549  26.026  1.00  0.00     0.073 A 
ATOM     50  C   UNL     1     -46.659  44.175  26.733  1.00  0.00    -0.036 A 
ATOM     51  N   UNL     1     -48.078  43.955  24.795  1.00  0.00    -0.253 NA
ATOM     52  C   UNL     1     -46.034  45.277  26.162  1.00  0.00    -0.058 A 
ATOM     53  H   UNL     1     -46.348  43.813  27.708  1.00  0.00     0.065 H 
ATOM     54  C   UNL     1     -47.458  45.030  24.254  1.00  0.00     0.038 A 
ATOM     55  C   UNL     1     -46.437  45.716  24.906  1.00  0.00    -0.041 A 
ATOM     56  H   UNL     1     -45.235  45.788  26.692  1.00  0.00     0.062 H 
ATOM     57  H   UNL     1     -45.960  46.574  24.443  1.00  0.00     0.064 H 
BRANCH  54  58
ATOM     58  C   UNL     1     -47.915  45.474  22.896  1.00  0.00    -0.022 C 
ATOM     59  H   UNL     1     -48.393  46.457  22.962  1.00  0.00     0.030 H 
ATOM     60  H   UNL     1     -47.069  45.552  22.206  1.00  0.00     0.030 H 
ATOM     61  H   UNL     1     -48.627  44.754  22.483  1.00  0.00     0.030 H 
ENDBRANCH  54  58
ENDBRANCH  41  49
BRANCH  45  62
ATOM     62  N   UNL     1     -51.048  43.816  25.446  1.00  0.00    -0.383 N 
ATOM     63  H   UNL     1     -50.249  43.949  24.839  1.00  0.00     0.158 HD
ATOM     64  H   UNL     1     -51.947  43.833  24.974  1.00  0.00     0.158 HD
ENDBRANCH  45  62
ENDBRANCH  30  38
ENDBRANCH   1  26
TORSDOF 10
ENDMDL
MODEL 6
REMARK VINA RESULT:      -8.8      1.551      2.350
REMARK SMILES CNc1ccc2ccc(OC[C@H]3O[C@@H](n4cc(-c5cccc(C)n5)c5c(N)ncnc54)[C@@H](F)[C@@H]3O)cc2n1
REMARK SMILES IDX 11 1 10 4 9 5 3 6 4 7 38 8 5 9 37 11 6 12 36 14 7 15 8 17
REMARK SMILES IDX 2 20 1 22 12 26 13 27 34 28 14 30 32 31 33 34 35 36 15 38
REMARK SMILES IDX 16 39 31 40 17 41 25 43 30 44 26 45 29 46 28 47 18 49 19 50
REMARK SMILES IDX 24 51 20 52 22 54 21 55 23 58 27 62
REMARK H PARENT 11 2 11 3 4 10 5 13 36 16 7 18 8 19 2 21 1 23 1 24 1 25 12 29
REMARK H PARENT 34 32 14 33 32 35 35 37 16 42 29 48 19 53 20 56 21 57 23 59
REMARK H PARENT 23 60 23 61 27 63 27 64
REMARK Flexibility Score: inf
ROOT
ATOM      1  C   UNL     1     -46.163  34.610  26.858  1.00  0.00     0.117 C 
ATOM      2  H   UNL     1     -45.838  33.619  27.180  1.00  0.00     0.073 H 
ATOM      3  H   UNL     1     -45.246  35.192  26.717  1.00  0.00     0.073 H 
ENDROOT
BRANCH   1   4
ATOM      4  O   UNL     1     -46.844  34.415  25.614  1.00  0.00    -0.491 OA
BRANCH   4   5
ATOM      5  C   UNL     1     -46.817  33.185  25.020  1.00  0.00     0.121 A 
ATOM      6  C   UNL     1     -48.776  28.841  25.223  1.00  0.00     0.126 A 
ATOM      7  C   UNL     1     -48.003  28.393  24.159  1.00  0.00    -0.019 A 
ATOM      8  N   UNL     1     -48.668  30.101  25.693  1.00  0.00    -0.231 NA
ATOM      9  C   UNL     1     -47.108  29.268  23.550  1.00  0.00    -0.049 A 
ATOM     10  H   UNL     1     -48.083  27.368  23.814  1.00  0.00     0.066 H 
ATOM     11  C   UNL     1     -47.805  30.953  25.110  1.00  0.00     0.076 A 
ATOM     12  C   UNL     1     -46.998  30.577  24.022  1.00  0.00     0.001 A 
ATOM     13  H   UNL     1     -46.502  28.918  22.719  1.00  0.00     0.063 H 
ATOM     14  C   UNL     1     -47.695  32.252  25.585  1.00  0.00     0.007 A 
ATOM     15  C   UNL     1     -46.111  31.502  23.445  1.00  0.00    -0.049 A 
ATOM     16  H   UNL     1     -48.318  32.553  26.425  1.00  0.00     0.069 H 
ATOM     17  C   UNL     1     -46.022  32.803  23.943  1.00  0.00    -0.019 A 
ATOM     18  H   UNL     1     -45.484  31.213  22.604  1.00  0.00     0.063 H 
ATOM     19  H   UNL     1     -45.327  33.482  23.465  1.00  0.00     0.066 H 
BRANCH   6  20
ATOM     20  N   UNL     1     -49.652  27.923  25.832  1.00  0.00    -0.373 N 
ATOM     21  H   UNL     1     -49.776  28.183  26.804  1.00  0.00     0.161 HD
BRANCH  20  22
ATOM     22  C   UNL     1     -49.242  26.533  25.694  1.00  0.00     0.005 C 
ATOM     23  H   UNL     1     -48.727  26.356  24.744  1.00  0.00     0.045 H 
ATOM     24  H   UNL     1     -48.542  26.289  26.500  1.00  0.00     0.045 H 
ATOM     25  H   UNL     1     -50.095  25.852  25.787  1.00  0.00     0.045 H 
ENDBRANCH  20  22
ENDBRANCH   6  20
ENDBRANCH   4   5
ENDBRANCH   1   4
BRANCH   1  26
ATOM     26  C   UNL     1     -47.098  35.233  27.907  1.00  0.00     0.123 C 
ATOM     27  O   UNL     1     -46.411  36.263  28.662  1.00  0.00    -0.345 OA
ATOM     28  C   UNL     1     -48.315  35.915  27.274  1.00  0.00     0.119 C 
ATOM     29  H   UNL     1     -47.403  34.474  28.635  1.00  0.00     0.067 H 
ATOM     30  C   UNL     1     -46.967  37.542  28.279  1.00  0.00     0.169 C 
ATOM     31  C   UNL     1     -47.827  37.329  27.043  1.00  0.00     0.173 C 
ATOM     32  H   UNL     1     -48.641  35.425  26.353  1.00  0.00     0.066 H 
ATOM     33  H   UNL     1     -47.615  37.825  29.120  1.00  0.00     0.088 H 
ATOM     34  F   UNL     1     -47.103  37.355  25.896  1.00  0.00    -0.239 F 
ATOM     35  H   UNL     1     -48.624  38.074  26.962  1.00  0.00     0.074 H 
BRANCH  28  36
ATOM     36  O   UNL     1     -49.437  35.934  28.169  1.00  0.00    -0.387 OA
ATOM     37  H   UNL     1     -49.987  35.144  28.016  1.00  0.00     0.211 HD
ENDBRANCH  28  36
BRANCH  30  38
ATOM     38  N   UNL     1     -45.948  38.571  28.181  1.00  0.00    -0.302 N 
ATOM     39  C   UNL     1     -45.939  39.533  27.196  1.00  0.00     0.019 A 
ATOM     40  C   UNL     1     -44.863  38.756  29.000  1.00  0.00     0.148 A 
ATOM     41  C   UNL     1     -44.837  40.347  27.386  1.00  0.00     0.031 A 
ATOM     42  H   UNL     1     -46.709  39.570  26.434  1.00  0.00     0.083 H 
ATOM     43  C   UNL     1     -44.167  39.877  28.557  1.00  0.00     0.071 A 
ATOM     44  N   UNL     1     -44.537  37.990  30.052  1.00  0.00    -0.218 NA
ATOM     45  C   UNL     1     -43.050  40.257  29.321  1.00  0.00     0.137 A 
ATOM     46  C   UNL     1     -43.446  38.437  30.686  1.00  0.00     0.120 A 
ATOM     47  N   UNL     1     -42.697  39.514  30.388  1.00  0.00    -0.219 NA
ATOM     48  H   UNL     1     -43.130  37.863  31.552  1.00  0.00     0.106 H 
BRANCH  41  49
ATOM     49  C   UNL     1     -44.522  41.441  26.483  1.00  0.00     0.073 A 
ATOM     50  C   UNL     1     -45.523  42.125  25.805  1.00  0.00    -0.036 A 
ATOM     51  N   UNL     1     -43.209  41.757  26.372  1.00  0.00    -0.253 NA
ATOM     52  C   UNL     1     -45.160  43.169  24.960  1.00  0.00    -0.058 A 
ATOM     53  H   UNL     1     -46.568  41.862  25.930  1.00  0.00     0.065 H 
ATOM     54  C   UNL     1     -42.872  42.776  25.546  1.00  0.00     0.038 A 
ATOM     55  C   UNL     1     -43.816  43.500  24.825  1.00  0.00    -0.041 A 
ATOM     56  H   UNL     1     -45.920  43.721  24.415  1.00  0.00     0.062 H 
ATOM     57  H   UNL     1     -43.514  44.313  24.171  1.00  0.00     0.064 H 
BRANCH  54  58
ATOM     58  C   UNL     1     -41.415  43.109  25.426  1.00  0.00    -0.022 C 
ATOM     59  H   UNL     1     -41.009  43.382  26.406  1.00  0.00     0.030 H 
ATOM     60  H   UNL     1     -40.849  42.251  25.050  1.00  0.00     0.030 H 
ATOM     61  H   UNL     1     -41.274  43.942  24.732  1.00  0.00     0.030 H 
ENDBRANCH  54  58
ENDBRANCH  41  49
BRANCH  45  62
ATOM     62  N   UNL     1     -42.283  41.394  29.080  1.00  0.00    -0.383 N 
ATOM     63  H   UNL     1     -42.464  41.805  28.173  1.00  0.00     0.158 HD
ATOM     64  H   UNL     1     -42.389  42.031  29.863  1.00  0.00     0.158 HD
ENDBRANCH  45  62
ENDBRANCH  30  38
ENDBRANCH   1  26
TORSDOF 10
ENDMDL
MODEL 7
REMARK VINA RESULT:      -8.8      1.868      3.581
REMARK SMILES CNc1ccc2ccc(OC[C@H]3O[C@@H](n4cc(-c5cccc(C)n5)c5c(N)ncnc54)[C@@H](F)[C@@H]3O)cc2n1
REMARK SMILES IDX 11 1 10 4 9 5 3 6 4 7 38 8 5 9 37 11 6 12 36 14 7 15 8 17
REMARK SMILES IDX 2 20 1 22 12 26 13 27 34 28 14 30 32 31 33 34 35 36 15 38
REMARK SMILES IDX 16 39 31 40 17 41 25 43 30 44 26 45 29 46 28 47 18 49 19 50
REMARK SMILES IDX 24 51 20 52 22 54 21 55 23 58 27 62
REMARK H PARENT 11 2 11 3 4 10 5 13 36 16 7 18 8 19 2 21 1 23 1 24 1 25 12 29
REMARK H PARENT 34 32 14 33 32 35 35 37 16 42 29 48 19 53 20 56 21 57 23 59
REMARK H PARENT 23 60 23 61 27 63 27 64
REMARK Flexibility Score: inf
ROOT
ATOM      1  C   UNL     1     -45.971  35.385  28.419  1.00  0.00     0.117 C 
ATOM      2  H   UNL     1     -45.182  35.499  29.164  1.00  0.00     0.073 H 
ATOM      3  H   UNL     1     -45.572  35.813  27.494  1.00  0.00     0.073 H 
ENDROOT
BRANCH   1   4
ATOM      4  O   UNL     1     -46.181  33.974  28.284  1.00  0.00    -0.491 OA
BRANCH   4   5
ATOM      5  C   UNL     1     -46.467  33.454  27.054  1.00  0.00     0.121 A 
ATOM      6  C   UNL     1     -48.832  29.918  24.898  1.00  0.00     0.126 A 
ATOM      7  C   UNL     1     -48.432  30.355  23.641  1.00  0.00    -0.019 A 
ATOM      8  N   UNL     1     -48.446  30.553  26.022  1.00  0.00    -0.231 NA
ATOM      9  C   UNL     1     -47.628  31.487  23.536  1.00  0.00    -0.049 A 
ATOM     10  H   UNL     1     -48.729  29.814  22.750  1.00  0.00     0.066 H 
ATOM     11  C   UNL     1     -47.669  31.648  25.930  1.00  0.00     0.076 A 
ATOM     12  C   UNL     1     -47.233  32.158  24.694  1.00  0.00     0.001 A 
ATOM     13  H   UNL     1     -47.314  31.829  22.554  1.00  0.00     0.063 H 
ATOM     14  C   UNL     1     -47.274  32.310  27.084  1.00  0.00     0.007 A 
ATOM     15  C   UNL     1     -46.422  33.305  24.648  1.00  0.00    -0.049 A 
ATOM     16  H   UNL     1     -47.608  31.924  28.045  1.00  0.00     0.069 H 
ATOM     17  C   UNL     1     -46.042  33.951  25.825  1.00  0.00    -0.019 A 
ATOM     18  H   UNL     1     -46.083  33.701  23.693  1.00  0.00     0.063 H 
ATOM     19  H   UNL     1     -45.419  34.833  25.740  1.00  0.00     0.066 H 
BRANCH   6  20
ATOM     20  N   UNL     1     -49.623  28.756  24.967  1.00  0.00    -0.373 N 
ATOM     21  H   UNL     1     -50.501  28.983  25.422  1.00  0.00     0.161 HD
BRANCH  20  22
ATOM     22  C   UNL     1     -48.963  27.627  25.606  1.00  0.00     0.005 C 
ATOM     23  H   UNL     1     -48.187  27.197  24.964  1.00  0.00     0.045 H 
ATOM     24  H   UNL     1     -48.477  27.973  26.523  1.00  0.00     0.045 H 
ATOM     25  H   UNL     1     -49.681  26.850  25.892  1.00  0.00     0.045 H 
ENDBRANCH  20  22
ENDBRANCH   6  20
ENDBRANCH   4   5
ENDBRANCH   1   4
BRANCH   1  26
ATOM     26  C   UNL     1     -47.254  36.091  28.887  1.00  0.00     0.123 C 
ATOM     27  O   UNL     1     -46.995  37.487  29.179  1.00  0.00    -0.345 OA
ATOM     28  C   UNL     1     -48.351  36.080  27.817  1.00  0.00     0.119 C 
ATOM     29  H   UNL     1     -47.608  35.644  29.822  1.00  0.00     0.067 H 
ATOM     30  C   UNL     1     -47.642  38.283  28.160  1.00  0.00     0.169 C 
ATOM     31  C   UNL     1     -48.078  37.349  27.041  1.00  0.00     0.173 C 
ATOM     32  H   UNL     1     -48.319  35.185  27.190  1.00  0.00     0.066 H 
ATOM     33  H   UNL     1     -48.536  38.690  28.652  1.00  0.00     0.088 H 
ATOM     34  F   UNL     1     -47.083  37.107  26.151  1.00  0.00    -0.239 F 
ATOM     35  H   UNL     1     -48.940  37.738  26.492  1.00  0.00     0.074 H 
BRANCH  28  36
ATOM     36  O   UNL     1     -49.661  36.146  28.401  1.00  0.00    -0.387 OA
ATOM     37  H   UNL     1     -49.945  37.077  28.454  1.00  0.00     0.211 HD
ENDBRANCH  28  36
BRANCH  30  38
ATOM     38  N   UNL     1     -46.835  39.423  27.764  1.00  0.00    -0.302 N 
ATOM     39  C   UNL     1     -45.476  39.491  27.964  1.00  0.00     0.019 A 
ATOM     40  C   UNL     1     -47.260  40.580  27.162  1.00  0.00     0.148 A 
ATOM     41  C   UNL     1     -45.020  40.706  27.482  1.00  0.00     0.031 A 
ATOM     42  H   UNL     1     -44.931  38.681  28.433  1.00  0.00     0.083 H 
ATOM     43  C   UNL     1     -46.150  41.389  26.937  1.00  0.00     0.071 A 
ATOM     44  N   UNL     1     -48.529  40.875  26.839  1.00  0.00    -0.218 NA
ATOM     45  C   UNL     1     -46.390  42.600  26.265  1.00  0.00     0.137 A 
ATOM     46  C   UNL     1     -48.634  42.060  26.226  1.00  0.00     0.120 A 
ATOM     47  N   UNL     1     -47.651  42.925  25.921  1.00  0.00    -0.219 NA
ATOM     48  H   UNL     1     -49.637  42.357  25.933  1.00  0.00     0.106 H 
BRANCH  41  49
ATOM     49  C   UNL     1     -43.625  41.100  27.583  1.00  0.00     0.073 A 
ATOM     50  C   UNL     1     -42.858  40.759  28.690  1.00  0.00    -0.036 A 
ATOM     51  N   UNL     1     -43.128  41.788  26.526  1.00  0.00    -0.253 NA
ATOM     52  C   UNL     1     -41.527  41.158  28.724  1.00  0.00    -0.058 A 
ATOM     53  H   UNL     1     -43.280  40.189  29.511  1.00  0.00     0.065 H 
ATOM     54  C   UNL     1     -41.830  42.169  26.575  1.00  0.00     0.038 A 
ATOM     55  C   UNL     1     -41.002  41.875  27.655  1.00  0.00    -0.041 A 
ATOM     56  H   UNL     1     -40.903  40.908  29.577  1.00  0.00     0.062 H 
ATOM     57  H   UNL     1     -39.964  42.194  27.663  1.00  0.00     0.064 H 
BRANCH  54  58
ATOM     58  C   UNL     1     -41.295  42.937  25.404  1.00  0.00    -0.022 C 
ATOM     59  H   UNL     1     -40.215  43.084  25.510  1.00  0.00     0.030 H 
ATOM     60  H   UNL     1     -41.475  42.398  24.468  1.00  0.00     0.030 H 
ATOM     61  H   UNL     1     -41.786  43.913  25.335  1.00  0.00     0.030 H 
ENDBRANCH  54  58
ENDBRANCH  41  49
BRANCH  45  62
ATOM     62  N   UNL     1     -45.395  43.496  25.882  1.00  0.00    -0.383 N 
ATOM     63  H   UNL     1     -44.588  43.038  25.477  1.00  0.00     0.158 HD
ATOM     64  H   UNL     1     -45.811  44.216  25.300  1.00  0.00     0.158 HD
ENDBRANCH  45  62
ENDBRANCH  30  38
ENDBRANCH   1  26
TORSDOF 10
ENDMDL
