MODEL 1
REMARK VINA RESULT:     -10.4      0.000      0.000
REMARK SMILES Nc1nc2cc(OCc3cncc(-n4ccc5c(N)ncnc54)c3)ccc2cc1Br
REMARK SMILES IDX 8 1 7 4 6 5 2 6 3 7 29 8 4 9 28 10 30 11 5 12 27 13 26 16
REMARK SMILES IDX 25 17 1 20 9 23 10 24 24 25 11 26 13 28 12 30 14 32 15 33
REMARK SMILES IDX 23 34 16 35 17 37 22 38 18 40 21 41 20 42 19 44
REMARK H PARENT 8 2 8 3 28 14 5 15 26 18 25 19 1 21 1 22 10 27 24 29 12 31
REMARK H PARENT 15 36 16 39 21 43 19 45 19 46
REMARK Flexibility Score: inf
ROOT
ATOM      1  C   UNL     1     -48.200  36.116  28.574  1.00  0.00     0.115 C 
ATOM      2  H   UNL     1     -48.280  35.110  29.004  1.00  0.00     0.076 H 
ATOM      3  H   UNL     1     -49.054  36.682  28.966  1.00  0.00     0.076 H 
ENDROOT
BRANCH   1   4
ATOM      4  O   UNL     1     -48.361  36.084  27.152  1.00  0.00    -0.489 OA
BRANCH   4   5
ATOM      5  C   UNL     1     -48.010  34.947  26.479  1.00  0.00     0.122 A 
ATOM      6  C   UNL     1     -48.693  30.546  24.813  1.00  0.00     0.138 A 
ATOM      7  N   UNL     1     -49.134  31.622  25.493  1.00  0.00    -0.230 NA
ATOM      8  C   UNL     1     -47.422  30.508  24.235  1.00  0.00     0.060 A 
ATOM      9  C   UNL     1     -48.334  32.694  25.619  1.00  0.00     0.076 A 
ATOM     10  C   UNL     1     -46.589  31.614  24.359  1.00  0.00    -0.035 A 
ATOM     11  Br  UNL     1     -46.800  28.993  23.281  1.00  0.00    -0.047 Br
ATOM     12  C   UNL     1     -48.792  33.802  26.324  1.00  0.00     0.007 A 
ATOM     13  C   UNL     1     -47.040  32.737  25.062  1.00  0.00     0.002 A 
ATOM     14  H   UNL     1     -45.597  31.605  23.915  1.00  0.00     0.064 H 
ATOM     15  H   UNL     1     -49.785  33.725  26.756  1.00  0.00     0.069 H 
ATOM     16  C   UNL     1     -46.243  33.879  25.219  1.00  0.00    -0.049 A 
ATOM     17  C   UNL     1     -46.729  34.976  25.927  1.00  0.00    -0.019 A 
ATOM     18  H   UNL     1     -45.242  33.923  24.796  1.00  0.00     0.063 H 
ATOM     19  H   UNL     1     -46.109  35.861  26.047  1.00  0.00     0.066 H 
BRANCH   6  20
ATOM     20  N   UNL     1     -49.579  29.460  24.725  1.00  0.00    -0.383 N 
ATOM     21  H   UNL     1     -50.126  29.412  25.580  1.00  0.00     0.158 HD
ATOM     22  H   UNL     1     -49.042  28.599  24.668  1.00  0.00     0.158 HD
ENDBRANCH   6  20
ENDBRANCH   4   5
ENDBRANCH   1   4
BRANCH   1  23
ATOM     23  C   UNL     1     -46.949  36.830  29.015  1.00  0.00     0.010 A 
ATOM     24  C   UNL     1     -46.356  36.505  30.227  1.00  0.00     0.034 A 
ATOM     25  C   UNL     1     -46.374  37.875  28.275  1.00  0.00    -0.028 A 
ATOM     26  N   UNL     1     -45.261  37.118  30.716  1.00  0.00    -0.262 NA
ATOM     27  H   UNL     1     -46.755  35.720  30.864  1.00  0.00     0.084 H 
ATOM     28  C   UNL     1     -45.227  38.534  28.743  1.00  0.00     0.066 A 
ATOM     29  H   UNL     1     -46.854  38.155  27.344  1.00  0.00     0.065 H 
ATOM     30  C   UNL     1     -44.717  38.111  29.965  1.00  0.00     0.051 A 
ATOM     31  H   UNL     1     -43.828  38.531  30.420  1.00  0.00     0.086 H 
BRANCH  28  32
ATOM     32  N   UNL     1     -44.616  39.587  27.988  1.00  0.00    -0.300 N 
ATOM     33  C   UNL     1     -45.010  39.988  26.716  1.00  0.00     0.012 A 
ATOM     34  C   UNL     1     -43.540  40.400  28.355  1.00  0.00     0.150 A 
ATOM     35  C   UNL     1     -44.207  41.019  26.287  1.00  0.00    -0.031 A 
ATOM     36  H   UNL     1     -45.816  39.499  26.190  1.00  0.00     0.082 H 
ATOM     37  C   UNL     1     -43.278  41.290  27.318  1.00  0.00     0.061 A 
ATOM     38  N   UNL     1     -42.861  40.363  29.520  1.00  0.00    -0.218 NA
ATOM     39  H   UNL     1     -44.277  41.515  25.328  1.00  0.00     0.065 H 
ATOM     40  C   UNL     1     -42.226  42.198  27.498  1.00  0.00     0.136 A 
ATOM     41  C   UNL     1     -41.878  41.274  29.578  1.00  0.00     0.120 A 
ATOM     42  N   UNL     1     -41.531  42.178  28.648  1.00  0.00    -0.219 NA
ATOM     43  H   UNL     1     -41.291  41.285  30.492  1.00  0.00     0.106 H 
BRANCH  40  44
ATOM     44  N   UNL     1     -41.860  43.147  26.554  1.00  0.00    -0.383 N 
ATOM     45  H   UNL     1     -40.945  42.935  26.173  1.00  0.00     0.158 HD
ATOM     46  H   UNL     1     -42.018  44.107  26.829  1.00  0.00     0.158 HD
ENDBRANCH  40  44
ENDBRANCH  28  32
ENDBRANCH   1  23
TORSDOF 6
ENDMDL
MODEL 2
REMARK VINA RESULT:     -10.3      1.642      2.078
REMARK SMILES Nc1nc2cc(OCc3cncc(-n4ccc5c(N)ncnc54)c3)ccc2cc1Br
REMARK SMILES IDX 8 1 7 4 6 5 2 6 3 7 29 8 4 9 28 10 30 11 5 12 27 13 26 16
REMARK SMILES IDX 25 17 1 20 9 23 10 24 24 25 11 26 13 28 12 30 14 32 15 33
REMARK SMILES IDX 23 34 16 35 17 37 22 38 18 40 21 41 20 42 19 44
REMARK H PARENT 8 2 8 3 28 14 5 15 26 18 25 19 1 21 1 22 10 27 24 29 12 31
REMARK H PARENT 15 36 16 39 21 43 19 45 19 46
REMARK Flexibility Score: inf
ROOT
ATOM      1  C   UNL     1     -45.884  34.537  27.492  1.00  0.00     0.115 C 
ATOM      2  H   UNL     1     -45.497  34.661  26.474  1.00  0.00     0.076 H 
ATOM      3  H   UNL     1     -45.241  33.789  27.972  1.00  0.00     0.076 H 
ENDROOT
BRANCH   1   4
ATOM      4  O   UNL     1     -47.203  33.981  27.479  1.00  0.00    -0.489 OA
BRANCH   4   5
ATOM      5  C   UNL     1     -47.581  33.218  26.409  1.00  0.00     0.122 A 
ATOM      6  C   UNL     1     -46.833  30.519  22.566  1.00  0.00     0.138 A 
ATOM      7  N   UNL     1     -46.359  31.248  23.595  1.00  0.00    -0.230 NA
ATOM      8  C   UNL     1     -48.203  30.359  22.344  1.00  0.00     0.060 A 
ATOM      9  C   UNL     1     -47.224  31.838  24.437  1.00  0.00     0.076 A 
ATOM     10  C   UNL     1     -49.104  30.964  23.212  1.00  0.00    -0.035 A 
ATOM     11  Br  UNL     1     -48.870  29.337  20.894  1.00  0.00    -0.047 Br
ATOM     12  C   UNL     1     -46.731  32.591  25.497  1.00  0.00     0.007 A 
ATOM     13  C   UNL     1     -48.620  31.722  24.284  1.00  0.00     0.002 A 
ATOM     14  H   UNL     1     -50.174  30.851  23.057  1.00  0.00     0.064 H 
ATOM     15  H   UNL     1     -45.651  32.675  25.571  1.00  0.00     0.069 H 
ATOM     16  C   UNL     1     -49.484  32.354  25.190  1.00  0.00    -0.049 A 
ATOM     17  C   UNL     1     -48.961  33.100  26.245  1.00  0.00    -0.019 A 
ATOM     18  H   UNL     1     -50.563  32.274  25.082  1.00  0.00     0.063 H 
ATOM     19  H   UNL     1     -49.633  33.589  26.946  1.00  0.00     0.066 H 
BRANCH   6  20
ATOM     20  N   UNL     1     -45.873  29.936  21.724  1.00  0.00    -0.383 N 
ATOM     21  H   UNL     1     -46.287  29.783  20.809  1.00  0.00     0.158 HD
ATOM     22  H   UNL     1     -45.621  29.022  22.092  1.00  0.00     0.158 HD
ENDBRANCH   6  20
ENDBRANCH   4   5
ENDBRANCH   1   4
BRANCH   1  23
ATOM     23  C   UNL     1     -45.781  35.803  28.302  1.00  0.00     0.010 A 
ATOM     24  C   UNL     1     -46.207  35.818  29.623  1.00  0.00     0.034 A 
ATOM     25  C   UNL     1     -45.323  37.013  27.759  1.00  0.00    -0.028 A 
ATOM     26  N   UNL     1     -46.187  36.913  30.406  1.00  0.00    -0.262 NA
ATOM     27  H   UNL     1     -46.592  34.924  30.108  1.00  0.00     0.084 H 
ATOM     28  C   UNL     1     -45.277  38.175  28.542  1.00  0.00     0.066 A 
ATOM     29  H   UNL     1     -45.022  37.013  26.717  1.00  0.00     0.065 H 
ATOM     30  C   UNL     1     -45.719  38.063  29.855  1.00  0.00     0.051 A 
ATOM     31  H   UNL     1     -45.714  38.886  30.560  1.00  0.00     0.086 H 
BRANCH  28  32
ATOM     32  N   UNL     1     -44.790  39.412  28.007  1.00  0.00    -0.300 N 
ATOM     33  C   UNL     1     -45.285  40.037  26.868  1.00  0.00     0.012 A 
ATOM     34  C   UNL     1     -43.759  40.218  28.497  1.00  0.00     0.150 A 
ATOM     35  C   UNL     1     -44.587  41.200  26.638  1.00  0.00    -0.031 A 
ATOM     36  H   UNL     1     -46.081  39.604  26.281  1.00  0.00     0.082 H 
ATOM     37  C   UNL     1     -43.624  41.326  27.665  1.00  0.00     0.061 A 
ATOM     38  N   UNL     1     -43.013  39.995  29.598  1.00  0.00    -0.218 NA
ATOM     39  H   UNL     1     -44.749  41.880  25.812  1.00  0.00     0.065 H 
ATOM     40  C   UNL     1     -42.634  42.262  27.993  1.00  0.00     0.136 A 
ATOM     41  C   UNL     1     -42.099  40.953  29.812  1.00  0.00     0.120 A 
ATOM     42  N   UNL     1     -41.875  42.059  29.084  1.00  0.00    -0.219 NA
ATOM     43  H   UNL     1     -41.464  40.821  30.682  1.00  0.00     0.106 H 
BRANCH  40  44
ATOM     44  N   UNL     1     -42.394  43.416  27.261  1.00  0.00    -0.383 N 
ATOM     45  H   UNL     1     -41.610  43.927  27.650  1.00  0.00     0.158 HD
ATOM     46  H   UNL     1     -43.217  43.961  27.041  1.00  0.00     0.158 HD
ENDBRANCH  40  44
ENDBRANCH  28  32
ENDBRANCH   1  23
TORSDOF 6
ENDMDL
MODEL 3
REMARK VINA RESULT:     -10.1      3.373      9.913
REMARK SMILES Nc1nc2cc(OCc3cncc(-n4ccc5c(N)ncnc54)c3)ccc2cc1Br
REMARK SMILES IDX 8 1 7 4 6 5 2 6 3 7 29 8 4 9 28 10 30 11 5 12 27 13 26 16
REMARK SMILES IDX 25 17 1 20 9 23 10 24 24 25 11 26 13 28 12 30 14 32 15 33
REMARK SMILES IDX 23 34 16 35 17 37 22 38 18 40 21 41 20 42 19 44
REMARK H PARENT 8 2 8 3 28 14 5 15 26 18 25 19 1 21 1 22 10 27 24 29 12 31
REMARK H PARENT 15 36 16 39 21 43 19 45 19 46
REMARK Flexibility Score: inf
ROOT
ATOM      1  C   UNL     1     -47.924  36.471  27.541  1.00  0.00     0.115 C 
ATOM      2  H   UNL     1     -48.102  37.022  26.610  1.00  0.00     0.076 H 
ATOM      3  H   UNL     1     -48.889  36.438  28.063  1.00  0.00     0.076 H 
ENDROOT
BRANCH   1   4
ATOM      4  O   UNL     1     -47.028  37.184  28.401  1.00  0.00    -0.489 OA
BRANCH   4   5
ATOM      5  C   UNL     1     -46.295  38.210  27.875  1.00  0.00     0.122 A 
ATOM      6  C   UNL     1     -42.793  41.428  27.850  1.00  0.00     0.138 A 
ATOM      7  N   UNL     1     -43.448  40.414  28.449  1.00  0.00    -0.230 NA
ATOM      8  C   UNL     1     -43.193  41.934  26.611  1.00  0.00     0.060 A 
ATOM      9  C   UNL     1     -44.514  39.868  27.841  1.00  0.00     0.076 A 
ATOM     10  C   UNL     1     -44.294  41.373  25.974  1.00  0.00    -0.035 A 
ATOM     11  Br  UNL     1     -42.275  43.363  25.769  1.00  0.00    -0.047 Br
ATOM     12  C   UNL     1     -45.188  38.824  28.464  1.00  0.00     0.007 A 
ATOM     13  C   UNL     1     -44.978  40.318  26.589  1.00  0.00     0.002 A 
ATOM     14  H   UNL     1     -44.620  41.751  25.009  1.00  0.00     0.064 H 
ATOM     15  H   UNL     1     -44.814  38.517  29.436  1.00  0.00     0.069 H 
ATOM     16  C   UNL     1     -46.094  39.716  25.992  1.00  0.00    -0.049 A 
ATOM     17  C   UNL     1     -46.747  38.668  26.638  1.00  0.00    -0.019 A 
ATOM     18  H   UNL     1     -46.463  40.055  25.027  1.00  0.00     0.063 H 
ATOM     19  H   UNL     1     -47.613  38.202  26.173  1.00  0.00     0.066 H 
BRANCH   6  20
ATOM     20  N   UNL     1     -41.692  41.954  28.545  1.00  0.00    -0.383 N 
ATOM     21  H   UNL     1     -41.315  42.737  28.019  1.00  0.00     0.158 HD
ATOM     22  H   UNL     1     -40.962  41.248  28.590  1.00  0.00     0.158 HD
ENDBRANCH   6  20
ENDBRANCH   4   5
ENDBRANCH   1   4
BRANCH   1  23
ATOM     23  C   UNL     1     -47.502  35.047  27.292  1.00  0.00     0.010 A 
ATOM     24  C   UNL     1     -46.519  34.466  28.081  1.00  0.00     0.034 A 
ATOM     25  C   UNL     1     -48.019  34.278  26.237  1.00  0.00    -0.028 A 
ATOM     26  N   UNL     1     -46.055  33.214  27.904  1.00  0.00    -0.262 NA
ATOM     27  H   UNL     1     -46.058  35.005  28.905  1.00  0.00     0.084 H 
ATOM     28  C   UNL     1     -47.570  32.967  26.022  1.00  0.00     0.066 A 
ATOM     29  H   UNL     1     -48.762  34.740  25.596  1.00  0.00     0.065 H 
ATOM     30  C   UNL     1     -46.591  32.491  26.886  1.00  0.00     0.051 A 
ATOM     31  H   UNL     1     -46.179  31.490  26.832  1.00  0.00     0.086 H 
BRANCH  28  32
ATOM     32  N   UNL     1     -48.105  32.163  24.964  1.00  0.00    -0.300 N 
ATOM     33  C   UNL     1     -49.456  31.907  24.762  1.00  0.00     0.012 A 
ATOM     34  C   UNL     1     -47.409  31.496  23.951  1.00  0.00     0.150 A 
ATOM     35  C   UNL     1     -49.614  31.099  23.661  1.00  0.00    -0.031 A 
ATOM     36  H   UNL     1     -50.214  32.293  25.428  1.00  0.00     0.082 H 
ATOM     37  C   UNL     1     -48.327  30.838  23.138  1.00  0.00     0.061 A 
ATOM     38  N   UNL     1     -46.074  31.488  23.758  1.00  0.00    -0.218 NA
ATOM     39  H   UNL     1     -50.557  30.728  23.280  1.00  0.00     0.065 H 
ATOM     40  C   UNL     1     -47.821  30.106  22.055  1.00  0.00     0.136 A 
ATOM     41  C   UNL     1     -45.706  30.756  22.696  1.00  0.00     0.120 A 
ATOM     42  N   UNL     1     -46.494  30.079  21.845  1.00  0.00    -0.219 NA
ATOM     43  H   UNL     1     -44.640  30.707  22.497  1.00  0.00     0.106 H 
BRANCH  40  44
ATOM     44  N   UNL     1     -48.618  29.410  21.157  1.00  0.00    -0.383 N 
ATOM     45  H   UNL     1     -49.469  29.926  20.965  1.00  0.00     0.158 HD
ATOM     46  H   UNL     1     -48.728  28.426  21.357  1.00  0.00     0.158 HD
ENDBRANCH  40  44
ENDBRANCH  28  32
ENDBRANCH   1  23
TORSDOF 6
ENDMDL
MODEL 4
REMARK VINA RESULT:      -9.7      2.320      3.650
REMARK SMILES Nc1nc2cc(OCc3cncc(-n4ccc5c(N)ncnc54)c3)ccc2cc1Br
REMARK SMILES IDX 8 1 7 4 6 5 2 6 3 7 29 8 4 9 28 10 30 11 5 12 27 13 26 16
REMARK SMILES IDX 25 17 1 20 9 23 10 24 24 25 11 26 13 28 12 30 14 32 15 33
REMARK SMILES IDX 23 34 16 35 17 37 22 38 18 40 21 41 20 42 19 44
REMARK H PARENT 8 2 8 3 28 14 5 15 26 18 25 19 1 21 1 22 10 27 24 29 12 31
REMARK H PARENT 15 36 16 39 21 43 19 45 19 46
REMARK Flexibility Score: inf
ROOT
ATOM      1  C   UNL     1     -45.720  38.173  28.933  1.00  0.00     0.115 C 
ATOM      2  H   UNL     1     -46.397  38.328  29.782  1.00  0.00     0.076 H 
ATOM      3  H   UNL     1     -46.316  38.361  28.031  1.00  0.00     0.076 H 
ENDROOT
BRANCH   1   4
ATOM      4  O   UNL     1     -45.294  36.809  28.853  1.00  0.00    -0.489 OA
BRANCH   4   5
ATOM      5  C   UNL     1     -46.028  35.937  28.099  1.00  0.00     0.122 A 
ATOM      6  C   UNL     1     -46.634  32.357  25.028  1.00  0.00     0.138 A 
ATOM      7  N   UNL     1     -45.824  33.166  25.738  1.00  0.00    -0.230 NA
ATOM      8  C   UNL     1     -48.025  32.471  25.084  1.00  0.00     0.060 A 
ATOM      9  C   UNL     1     -46.364  34.110  26.526  1.00  0.00     0.076 A 
ATOM     10  C   UNL     1     -48.592  33.445  25.899  1.00  0.00    -0.035 A 
ATOM     11  Br  UNL     1     -49.166  31.336  24.083  1.00  0.00    -0.047 Br
ATOM     12  C   UNL     1     -45.524  34.945  27.255  1.00  0.00     0.007 A 
ATOM     13  C   UNL     1     -47.757  34.289  26.641  1.00  0.00     0.002 A 
ATOM     14  H   UNL     1     -49.671  33.551  25.957  1.00  0.00     0.064 H 
ATOM     15  H   UNL     1     -44.457  34.791  27.127  1.00  0.00     0.069 H 
ATOM     16  C   UNL     1     -48.274  35.288  27.478  1.00  0.00    -0.049 A 
ATOM     17  C   UNL     1     -47.408  36.107  28.200  1.00  0.00    -0.019 A 
ATOM     18  H   UNL     1     -49.346  35.437  27.573  1.00  0.00     0.063 H 
ATOM     19  H   UNL     1     -47.811  36.881  28.849  1.00  0.00     0.066 H 
BRANCH   6  20
ATOM     20  N   UNL     1     -46.003  31.396  24.222  1.00  0.00    -0.383 N 
ATOM     21  H   UNL     1     -45.280  31.851  23.673  1.00  0.00     0.158 HD
ATOM     22  H   UNL     1     -46.680  31.018  23.565  1.00  0.00     0.158 HD
ENDBRANCH   6  20
ENDBRANCH   4   5
ENDBRANCH   1   4
BRANCH   1  23
ATOM     23  C   UNL     1     -44.577  39.155  28.927  1.00  0.00     0.010 A 
ATOM     24  C   UNL     1     -43.665  39.163  29.972  1.00  0.00     0.034 A 
ATOM     25  C   UNL     1     -44.419  40.125  27.925  1.00  0.00    -0.028 A 
ATOM     26  N   UNL     1     -42.638  40.030  30.067  1.00  0.00    -0.262 NA
ATOM     27  H   UNL     1     -43.733  38.454  30.794  1.00  0.00     0.084 H 
ATOM     28  C   UNL     1     -43.358  41.041  27.980  1.00  0.00     0.066 A 
ATOM     29  H   UNL     1     -45.150  40.145  27.124  1.00  0.00     0.065 H 
ATOM     30  C   UNL     1     -42.502  40.943  29.070  1.00  0.00     0.051 A 
ATOM     31  H   UNL     1     -41.638  41.582  29.213  1.00  0.00     0.086 H 
BRANCH  28  32
ATOM     32  N   UNL     1     -43.171  42.023  26.953  1.00  0.00    -0.300 N 
ATOM     33  C   UNL     1     -41.941  42.411  26.435  1.00  0.00     0.012 A 
ATOM     34  C   UNL     1     -44.148  42.766  26.284  1.00  0.00     0.150 A 
ATOM     35  C   UNL     1     -42.129  43.373  25.470  1.00  0.00    -0.031 A 
ATOM     36  H   UNL     1     -41.014  41.998  26.801  1.00  0.00     0.082 H 
ATOM     37  C   UNL     1     -43.520  43.601  25.364  1.00  0.00     0.061 A 
ATOM     38  N   UNL     1     -45.482  42.696  26.464  1.00  0.00    -0.218 NA
ATOM     39  H   UNL     1     -41.345  43.867  24.911  1.00  0.00     0.065 H 
ATOM     40  C   UNL     1     -44.337  44.433  24.586  1.00  0.00     0.136 A 
ATOM     41  C   UNL     1     -46.161  43.535  25.669  1.00  0.00     0.120 A 
ATOM     42  N   UNL     1     -45.670  44.384  24.751  1.00  0.00    -0.219 NA
ATOM     43  H   UNL     1     -47.241  43.527  25.777  1.00  0.00     0.106 H 
BRANCH  40  44
ATOM     44  N   UNL     1     -43.850  45.308  23.624  1.00  0.00    -0.383 N 
ATOM     45  H   UNL     1     -44.064  44.967  22.694  1.00  0.00     0.158 HD
ATOM     46  H   UNL     1     -42.903  45.626  23.777  1.00  0.00     0.158 HD
ENDBRANCH  40  44
ENDBRANCH  28  32
ENDBRANCH   1  23
TORSDOF 6
ENDMDL
MODEL 5
REMARK VINA RESULT:      -9.7      1.408      2.151
REMARK SMILES Nc1nc2cc(OCc3cncc(-n4ccc5c(N)ncnc54)c3)ccc2cc1Br
REMARK SMILES IDX 8 1 7 4 6 5 2 6 3 7 29 8 4 9 28 10 30 11 5 12 27 13 26 16
REMARK SMILES IDX 25 17 1 20 9 23 10 24 24 25 11 26 13 28 12 30 14 32 15 33
REMARK SMILES IDX 23 34 16 35 17 37 22 38 18 40 21 41 20 42 19 44
REMARK H PARENT 8 2 8 3 28 14 5 15 26 18 25 19 1 21 1 22 10 27 24 29 12 31
REMARK H PARENT 15 36 16 39 21 43 19 45 19 46
REMARK Flexibility Score: inf
ROOT
ATOM      1  C   UNL     1     -46.964  35.567  26.827  1.00  0.00     0.115 C 
ATOM      2  H   UNL     1     -47.773  36.129  26.344  1.00  0.00     0.076 H 
ATOM      3  H   UNL     1     -46.182  35.448  26.067  1.00  0.00     0.076 H 
ENDROOT
BRANCH   1   4
ATOM      4  O   UNL     1     -47.390  34.245  27.172  1.00  0.00    -0.489 OA
BRANCH   4   5
ATOM      5  C   UNL     1     -47.588  33.337  26.169  1.00  0.00     0.122 A 
ATOM      6  C   UNL     1     -50.164  30.358  23.504  1.00  0.00     0.138 A 
ATOM      7  N   UNL     1     -50.074  31.248  24.512  1.00  0.00    -0.230 NA
ATOM      8  C   UNL     1     -49.052  29.991  22.742  1.00  0.00     0.060 A 
ATOM      9  C   UNL     1     -48.884  31.804  24.794  1.00  0.00     0.076 A 
ATOM     10  C   UNL     1     -47.818  30.563  23.027  1.00  0.00    -0.035 A 
ATOM     11  Br  UNL     1     -49.178  28.736  21.327  1.00  0.00    -0.047 Br
ATOM     12  C   UNL     1     -48.795  32.720  25.837  1.00  0.00     0.007 A 
ATOM     13  C   UNL     1     -47.716  31.489  24.071  1.00  0.00     0.002 A 
ATOM     14  H   UNL     1     -46.941  30.291  22.446  1.00  0.00     0.064 H 
ATOM     15  H   UNL     1     -49.710  32.923  26.384  1.00  0.00     0.069 H 
ATOM     16  C   UNL     1     -46.497  32.096  24.403  1.00  0.00    -0.049 A 
ATOM     17  C   UNL     1     -46.438  33.015  25.449  1.00  0.00    -0.019 A 
ATOM     18  H   UNL     1     -45.588  31.861  23.853  1.00  0.00     0.063 H 
ATOM     19  H   UNL     1     -45.491  33.484  25.704  1.00  0.00     0.066 H 
BRANCH   6  20
ATOM     20  N   UNL     1     -51.436  29.814  23.268  1.00  0.00    -0.383 N 
ATOM     21  H   UNL     1     -52.131  30.381  23.744  1.00  0.00     0.158 HD
ATOM     22  H   UNL     1     -51.480  28.885  23.678  1.00  0.00     0.158 HD
ENDBRANCH   6  20
ENDBRANCH   4   5
ENDBRANCH   1   4
BRANCH   1  23
ATOM     23  C   UNL     1     -46.356  36.317  27.983  1.00  0.00     0.010 A 
ATOM     24  C   UNL     1     -46.618  35.915  29.285  1.00  0.00     0.034 A 
ATOM     25  C   UNL     1     -45.569  37.466  27.808  1.00  0.00    -0.028 A 
ATOM     26  N   UNL     1     -46.148  36.550  30.376  1.00  0.00    -0.262 NA
ATOM     27  H   UNL     1     -47.234  35.046  29.500  1.00  0.00     0.084 H 
ATOM     28  C   UNL     1     -45.052  38.152  28.918  1.00  0.00     0.066 A 
ATOM     29  H   UNL     1     -45.391  37.804  26.793  1.00  0.00     0.065 H 
ATOM     30  C   UNL     1     -45.373  37.647  30.171  1.00  0.00     0.051 A 
ATOM     31  H   UNL     1     -45.019  38.079  31.100  1.00  0.00     0.086 H 
BRANCH  28  32
ATOM     32  N   UNL     1     -44.229  39.313  28.754  1.00  0.00    -0.300 N 
ATOM     33  C   UNL     1     -43.223  39.708  29.629  1.00  0.00     0.012 A 
ATOM     34  C   UNL     1     -44.263  40.256  27.722  1.00  0.00     0.150 A 
ATOM     35  C   UNL     1     -42.640  40.866  29.170  1.00  0.00    -0.031 A 
ATOM     36  H   UNL     1     -43.005  39.156  30.530  1.00  0.00     0.082 H 
ATOM     37  C   UNL     1     -43.287  41.218  27.963  1.00  0.00     0.061 A 
ATOM     38  N   UNL     1     -45.081  40.251  26.649  1.00  0.00    -0.218 NA
ATOM     39  H   UNL     1     -41.840  41.406  29.660  1.00  0.00     0.065 H 
ATOM     40  C   UNL     1     -43.160  42.257  27.031  1.00  0.00     0.136 A 
ATOM     41  C   UNL     1     -44.871  41.291  25.829  1.00  0.00     0.120 A 
ATOM     42  N   UNL     1     -43.967  42.276  25.957  1.00  0.00    -0.219 NA
ATOM     43  H   UNL     1     -45.508  41.343  24.952  1.00  0.00     0.106 H 
BRANCH  40  44
ATOM     44  N   UNL     1     -42.225  43.277  27.138  1.00  0.00    -0.383 N 
ATOM     45  H   UNL     1     -41.503  43.172  26.435  1.00  0.00     0.158 HD
ATOM     46  H   UNL     1     -41.908  43.468  28.078  1.00  0.00     0.158 HD
ENDBRANCH  40  44
ENDBRANCH  28  32
ENDBRANCH   1  23
TORSDOF 6
ENDMDL
MODEL 6
REMARK VINA RESULT:      -9.7      1.765      2.619
REMARK SMILES Nc1nc2cc(OCc3cncc(-n4ccc5c(N)ncnc54)c3)ccc2cc1Br
REMARK SMILES IDX 8 1 7 4 6 5 2 6 3 7 29 8 4 9 28 10 30 11 5 12 27 13 26 16
REMARK SMILES IDX 25 17 1 20 9 23 10 24 24 25 11 26 13 28 12 30 14 32 15 33
REMARK SMILES IDX 23 34 16 35 17 37 22 38 18 40 21 41 20 42 19 44
REMARK H PARENT 8 2 8 3 28 14 5 15 26 18 25 19 1 21 1 22 10 27 24 29 12 31
REMARK H PARENT 15 36 16 39 21 43 19 45 19 46
REMARK Flexibility Score: inf
ROOT
ATOM      1  C   UNL     1     -46.815  36.802  26.660  1.00  0.00     0.115 C 
ATOM      2  H   UNL     1     -47.511  37.470  26.138  1.00  0.00     0.076 H 
ATOM      3  H   UNL     1     -46.175  36.365  25.884  1.00  0.00     0.076 H 
ENDROOT
BRANCH   1   4
ATOM      4  O   UNL     1     -47.509  35.708  27.270  1.00  0.00    -0.489 OA
BRANCH   4   5
ATOM      5  C   UNL     1     -47.697  34.566  26.543  1.00  0.00     0.122 A 
ATOM      6  C   UNL     1     -46.365  31.036  23.648  1.00  0.00     0.138 A 
ATOM      7  N   UNL     1     -46.077  32.159  24.335  1.00  0.00    -0.230 NA
ATOM      8  C   UNL     1     -47.641  30.468  23.663  1.00  0.00     0.060 A 
ATOM      9  C   UNL     1     -47.040  32.752  25.060  1.00  0.00     0.076 A 
ATOM     10  C   UNL     1     -48.643  31.074  24.413  1.00  0.00    -0.035 A 
ATOM     11  Br  UNL     1     -48.047  28.891  22.694  1.00  0.00    -0.047 Br
ATOM     12  C   UNL     1     -46.740  33.912  25.765  1.00  0.00     0.007 A 
ATOM     13  C   UNL     1     -48.351  32.240  25.131  1.00  0.00     0.002 A 
ATOM     14  H   UNL     1     -49.641  30.648  24.439  1.00  0.00     0.064 H 
ATOM     15  H   UNL     1     -45.726  34.288  25.671  1.00  0.00     0.069 H 
ATOM     16  C   UNL     1     -49.323  32.894  25.902  1.00  0.00    -0.049 A 
ATOM     17  C   UNL     1     -48.992  34.052  26.602  1.00  0.00    -0.019 A 
ATOM     18  H   UNL     1     -50.338  32.510  25.963  1.00  0.00     0.063 H 
ATOM     19  H   UNL     1     -49.747  34.557  27.200  1.00  0.00     0.066 H 
BRANCH   6  20
ATOM     20  N   UNL     1     -45.313  30.473  22.908  1.00  0.00    -0.383 N 
ATOM     21  H   UNL     1     -44.689  31.215  22.605  1.00  0.00     0.158 HD
ATOM     22  H   UNL     1     -45.692  30.043  22.068  1.00  0.00     0.158 HD
ENDBRANCH   6  20
ENDBRANCH   4   5
ENDBRANCH   1   4
BRANCH   1  23
ATOM     23  C   UNL     1     -45.918  37.544  27.616  1.00  0.00     0.010 A 
ATOM     24  C   UNL     1     -45.685  37.035  28.886  1.00  0.00     0.034 A 
ATOM     25  C   UNL     1     -45.340  38.784  27.303  1.00  0.00    -0.028 A 
ATOM     26  N   UNL     1     -44.929  37.650  29.816  1.00  0.00    -0.262 NA
ATOM     27  H   UNL     1     -46.113  36.088  29.208  1.00  0.00     0.084 H 
ATOM     28  C   UNL     1     -44.539  39.455  28.239  1.00  0.00     0.066 A 
ATOM     29  H   UNL     1     -45.548  39.203  26.324  1.00  0.00     0.065 H 
ATOM     30  C   UNL     1     -44.369  38.840  29.473  1.00  0.00     0.051 A 
ATOM     31  H   UNL     1     -43.759  39.251  30.268  1.00  0.00     0.086 H 
BRANCH  28  32
ATOM     32  N   UNL     1     -43.925  40.711  27.925  1.00  0.00    -0.300 N 
ATOM     33  C   UNL     1     -42.758  41.195  28.504  1.00  0.00     0.012 A 
ATOM     34  C   UNL     1     -44.353  41.675  27.007  1.00  0.00     0.150 A 
ATOM     35  C   UNL     1     -42.456  42.429  27.975  1.00  0.00    -0.031 A 
ATOM     36  H   UNL     1     -42.233  40.646  29.270  1.00  0.00     0.082 H 
ATOM     37  C   UNL     1     -43.456  42.738  27.024  1.00  0.00     0.061 A 
ATOM     38  N   UNL     1     -45.440  41.606  26.211  1.00  0.00    -0.218 NA
ATOM     39  H   UNL     1     -41.611  43.045  28.253  1.00  0.00     0.065 H 
ATOM     40  C   UNL     1     -43.713  43.814  26.164  1.00  0.00     0.136 A 
ATOM     41  C   UNL     1     -45.586  42.688  25.433  1.00  0.00     0.120 A 
ATOM     42  N   UNL     1     -44.793  43.770  25.364  1.00  0.00    -0.219 NA
ATOM     43  H   UNL     1     -46.450  42.691  24.776  1.00  0.00     0.106 H 
BRANCH  40  44
ATOM     44  N   UNL     1     -42.900  44.934  26.068  1.00  0.00    -0.383 N 
ATOM     45  H   UNL     1     -43.422  45.772  26.297  1.00  0.00     0.158 HD
ATOM     46  H   UNL     1     -42.328  44.977  25.237  1.00  0.00     0.158 HD
ENDBRANCH  40  44
ENDBRANCH  28  32
ENDBRANCH   1  23
TORSDOF 6
ENDMDL
MODEL 7
REMARK VINA RESULT:      -9.6      3.303     10.362
REMARK SMILES Nc1nc2cc(OCc3cncc(-n4ccc5c(N)ncnc54)c3)ccc2cc1Br
REMARK SMILES IDX 8 1 7 4 6 5 2 6 3 7 29 8 4 9 28 10 30 11 5 12 27 13 26 16
REMARK SMILES IDX 25 17 1 20 9 23 10 24 24 25 11 26 13 28 12 30 14 32 15 33
REMARK SMILES IDX 23 34 16 35 17 37 22 38 18 40 21 41 20 42 19 44
REMARK H PARENT 8 2 8 3 28 14 5 15 26 18 25 19 1 21 1 22 10 27 24 29 12 31
REMARK H PARENT 15 36 16 39 21 43 19 45 19 46
REMARK Flexibility Score: inf
ROOT
ATOM      1  C   UNL     1     -48.711  35.488  27.318  1.00  0.00     0.115 C 
ATOM      2  H   UNL     1     -48.966  36.383  26.737  1.00  0.00     0.076 H 
ATOM      3  H   UNL     1     -49.663  35.068  27.663  1.00  0.00     0.076 H 
ENDROOT
BRANCH   1   4
ATOM      4  O   UNL     1     -47.975  35.831  28.497  1.00  0.00    -0.489 OA
BRANCH   4   5
ATOM      5  C   UNL     1     -47.052  36.837  28.424  1.00  0.00     0.122 A 
ATOM      6  C   UNL     1     -45.007  40.671  26.493  1.00  0.00     0.138 A 
ATOM      7  N   UNL     1     -45.962  39.721  26.479  1.00  0.00    -0.230 NA
ATOM      8  C   UNL     1     -44.033  40.723  27.493  1.00  0.00     0.060 A 
ATOM      9  C   UNL     1     -45.986  38.797  27.453  1.00  0.00     0.076 A 
ATOM     10  C   UNL     1     -44.051  39.771  28.506  1.00  0.00    -0.035 A 
ATOM     11  Br  UNL     1     -42.686  42.057  27.511  1.00  0.00    -0.047 Br
ATOM     12  C   UNL     1     -46.972  37.816  27.433  1.00  0.00     0.007 A 
ATOM     13  C   UNL     1     -45.041  38.782  28.499  1.00  0.00     0.002 A 
ATOM     14  H   UNL     1     -43.303  39.794  29.293  1.00  0.00     0.064 H 
ATOM     15  H   UNL     1     -47.669  37.847  26.602  1.00  0.00     0.069 H 
ATOM     16  C   UNL     1     -45.107  37.797  29.495  1.00  0.00    -0.049 A 
ATOM     17  C   UNL     1     -46.110  36.830  29.452  1.00  0.00    -0.019 A 
ATOM     18  H   UNL     1     -44.384  37.774  30.306  1.00  0.00     0.063 H 
ATOM     19  H   UNL     1     -46.159  36.068  30.226  1.00  0.00     0.066 H 
BRANCH   6  20
ATOM     20  N   UNL     1     -45.039  41.601  25.442  1.00  0.00    -0.383 N 
ATOM     21  H   UNL     1     -46.004  41.862  25.263  1.00  0.00     0.158 HD
ATOM     22  H   UNL     1     -44.690  41.157  24.596  1.00  0.00     0.158 HD
ENDBRANCH   6  20
ENDBRANCH   4   5
ENDBRANCH   1   4
BRANCH   1  23
ATOM     23  C   UNL     1     -48.034  34.435  26.480  1.00  0.00     0.010 A 
ATOM     24  C   UNL     1     -46.751  34.651  25.998  1.00  0.00     0.034 A 
ATOM     25  C   UNL     1     -48.673  33.245  26.100  1.00  0.00    -0.028 A 
ATOM     26  N   UNL     1     -46.087  33.782  25.211  1.00  0.00    -0.262 NA
ATOM     27  H   UNL     1     -46.199  35.558  26.234  1.00  0.00     0.084 H 
ATOM     28  C   UNL     1     -48.015  32.308  25.289  1.00  0.00     0.066 A 
ATOM     29  H   UNL     1     -49.689  33.088  26.446  1.00  0.00     0.065 H 
ATOM     30  C   UNL     1     -46.728  32.631  24.879  1.00  0.00     0.051 A 
ATOM     31  H   UNL     1     -46.114  31.981  24.267  1.00  0.00     0.086 H 
BRANCH  28  32
ATOM     32  N   UNL     1     -48.648  31.079  24.913  1.00  0.00    -0.300 N 
ATOM     33  C   UNL     1     -48.634  29.911  25.667  1.00  0.00     0.012 A 
ATOM     34  C   UNL     1     -49.382  30.806  23.755  1.00  0.00     0.150 A 
ATOM     35  C   UNL     1     -49.333  28.927  25.008  1.00  0.00    -0.031 A 
ATOM     36  H   UNL     1     -48.109  29.848  26.608  1.00  0.00     0.082 H 
ATOM     37  C   UNL     1     -49.813  29.484  23.800  1.00  0.00     0.061 A 
ATOM     38  N   UNL     1     -49.657  31.665  22.752  1.00  0.00    -0.218 NA
ATOM     39  H   UNL     1     -49.472  27.912  25.355  1.00  0.00     0.065 H 
ATOM     40  C   UNL     1     -50.574  29.016  22.720  1.00  0.00     0.136 A 
ATOM     41  C   UNL     1     -50.388  31.108  21.775  1.00  0.00     0.120 A 
ATOM     42  N   UNL     1     -50.858  29.852  21.707  1.00  0.00    -0.219 NA
ATOM     43  H   UNL     1     -50.633  31.752  20.936  1.00  0.00     0.106 H 
BRANCH  40  44
ATOM     44  N   UNL     1     -51.079  27.726  22.637  1.00  0.00    -0.383 N 
ATOM     45  H   UNL     1     -50.603  27.116  23.292  1.00  0.00     0.158 HD
ATOM     46  H   UNL     1     -51.191  27.371  21.698  1.00  0.00     0.158 HD
ENDBRANCH  40  44
ENDBRANCH  28  32
ENDBRANCH   1  23
TORSDOF 6
ENDMDL
