MODEL 1
REMARK VINA RESULT:     -10.6      0.000      0.000
REMARK SMILES CCc1cc(=O)c2ccc(OCc3cncc(-n4cc(C5CCCC5)c5c(N)ncnc54)c3)cc2[nH]1
REMARK SMILES IDX 12 1 11 4 10 5 3 6 4 7 36 8 5 9 35 11 6 13 7 14 34 15 8 16
REMARK SMILES IDX 9 18 2 21 1 24 13 28 14 29 33 30 15 31 17 33 16 35 18 37
REMARK SMILES IDX 19 38 32 39 20 40 26 42 31 43 27 44 30 45 29 46 21 48 22 49
REMARK SMILES IDX 25 50 23 52 24 55 28 62
REMARK H PARENT 12 2 12 3 4 10 36 12 34 17 8 19 9 20 2 22 2 23 1 25 1 26 1 27
REMARK H PARENT 14 32 33 34 16 36 19 41 30 47 21 51 22 53 22 54 25 56 25 57
REMARK H PARENT 23 58 23 59 24 60 24 61 28 63 28 64
REMARK Flexibility Score: inf
ROOT
ATOM      1  C   UNL     1     -48.616  35.588  27.302  1.00  0.00     0.115 C 
ATOM      2  H   UNL     1     -49.663  35.317  27.486  1.00  0.00     0.076 H 
ATOM      3  H   UNL     1     -48.564  36.543  26.766  1.00  0.00     0.076 H 
ENDROOT
BRANCH   1   4
ATOM      4  O   UNL     1     -47.906  35.703  28.536  1.00  0.00    -0.489 OA
BRANCH   4   5
ATOM      5  C   UNL     1     -46.937  36.664  28.620  1.00  0.00     0.121 A 
ATOM      6  C   UNL     1     -44.354  40.497  27.103  1.00  0.00     0.019 A 
ATOM      7  C   UNL     1     -43.588  40.514  28.208  1.00  0.00     0.005 A 
ATOM      8  N   UNL     1     -45.363  39.571  26.923  1.00  0.00    -0.358 N 
ATOM      9  C   UNL     1     -43.824  39.516  29.278  1.00  0.00     0.189 A 
ATOM     10  H   UNL     1     -42.789  41.224  28.375  1.00  0.00     0.068 H 
ATOM     11  C   UNL     1     -45.635  38.572  27.868  1.00  0.00     0.053 A 
ATOM     12  H   UNL     1     -45.847  39.556  26.034  1.00  0.00     0.166 HD
ATOM     13  O   UNL     1     -43.144  39.526  30.299  1.00  0.00    -0.289 OA
ATOM     14  C   UNL     1     -44.898  38.518  29.062  1.00  0.00     0.046 A 
ATOM     15  C   UNL     1     -46.661  37.642  27.659  1.00  0.00     0.004 A 
ATOM     16  C   UNL     1     -45.164  37.544  30.026  1.00  0.00    -0.045 A 
ATOM     17  H   UNL     1     -47.231  37.702  26.739  1.00  0.00     0.068 H 
ATOM     18  C   UNL     1     -46.183  36.619  29.798  1.00  0.00    -0.019 A 
ATOM     19  H   UNL     1     -44.585  37.505  30.945  1.00  0.00     0.063 H 
ATOM     20  H   UNL     1     -46.393  35.858  30.547  1.00  0.00     0.066 H 
BRANCH   6  21
ATOM     21  C   UNL     1     -44.119  41.492  25.989  1.00  0.00    -0.015 C 
ATOM     22  H   UNL     1     -45.079  41.918  25.672  1.00  0.00     0.033 H 
ATOM     23  H   UNL     1     -43.699  40.993  25.107  1.00  0.00     0.033 H 
BRANCH  21  24
ATOM     24  C   UNL     1     -43.178  42.613  26.410  1.00  0.00    -0.060 C 
ATOM     25  H   UNL     1     -43.150  42.691  27.502  1.00  0.00     0.023 H 
ATOM     26  H   UNL     1     -42.157  42.432  26.061  1.00  0.00     0.023 H 
ATOM     27  H   UNL     1     -43.509  43.578  26.011  1.00  0.00     0.023 H 
ENDBRANCH  21  24
ENDBRANCH   6  21
ENDBRANCH   4   5
ENDBRANCH   1   4
BRANCH   1  28
ATOM     28  C   UNL     1     -47.993  34.503  26.465  1.00  0.00     0.010 A 
ATOM     29  C   UNL     1     -46.768  34.707  25.845  1.00  0.00     0.034 A 
ATOM     30  C   UNL     1     -48.644  33.284  26.221  1.00  0.00    -0.028 A 
ATOM     31  N   UNL     1     -46.171  33.801  25.046  1.00  0.00    -0.262 NA
ATOM     32  H   UNL     1     -46.211  35.631  25.973  1.00  0.00     0.084 H 
ATOM     33  C   UNL     1     -48.055  32.310  25.401  1.00  0.00     0.066 A 
ATOM     34  H   UNL     1     -49.617  33.136  26.680  1.00  0.00     0.065 H 
ATOM     35  C   UNL     1     -46.821  32.626  24.844  1.00  0.00     0.051 A 
ATOM     36  H   UNL     1     -46.259  31.949  24.211  1.00  0.00     0.086 H 
BRANCH  33  37
ATOM     37  N   UNL     1     -48.700  31.053  25.159  1.00  0.00    -0.299 N 
ATOM     38  C   UNL     1     -48.296  29.840  25.692  1.00  0.00     0.015 A 
ATOM     39  C   UNL     1     -49.822  30.798  24.374  1.00  0.00     0.150 A 
ATOM     40  C   UNL     1     -49.112  28.817  25.242  1.00  0.00    -0.013 A 
ATOM     41  H   UNL     1     -47.429  29.769  26.332  1.00  0.00     0.083 H 
ATOM     42  C   UNL     1     -50.111  29.435  24.427  1.00  0.00     0.065 A 
ATOM     43  N   UNL     1     -50.540  31.712  23.689  1.00  0.00    -0.218 NA
ATOM     44  C   UNL     1     -51.244  29.002  23.712  1.00  0.00     0.136 A 
ATOM     45  C   UNL     1     -51.577  31.179  23.034  1.00  0.00     0.120 A 
ATOM     46  N   UNL     1     -51.966  29.896  23.014  1.00  0.00    -0.219 NA
ATOM     47  H   UNL     1     -52.183  31.870  22.453  1.00  0.00     0.106 H 
BRANCH  40  48
ATOM     48  C   UNL     1     -48.973  27.351  25.565  1.00  0.00    -0.014 C 
ATOM     49  C   UNL     1     -48.036  26.573  24.618  1.00  0.00    -0.046 C 
ATOM     50  C   UNL     1     -48.407  27.127  26.980  1.00  0.00    -0.046 C 
ATOM     51  H   UNL     1     -49.961  26.882  25.485  1.00  0.00     0.035 H 
ATOM     52  C   UNL     1     -46.793  26.268  25.443  1.00  0.00    -0.053 C 
ATOM     53  H   UNL     1     -48.516  25.625  24.341  1.00  0.00     0.027 H 
ATOM     54  H   UNL     1     -47.796  27.093  23.687  1.00  0.00     0.027 H 
ATOM     55  C   UNL     1     -47.354  26.036  26.834  1.00  0.00    -0.053 C 
ATOM     56  H   UNL     1     -47.940  28.036  27.377  1.00  0.00     0.027 H 
ATOM     57  H   UNL     1     -49.190  26.832  27.686  1.00  0.00     0.027 H 
ATOM     58  H   UNL     1     -46.248  25.400  25.064  1.00  0.00     0.027 H 
ATOM     59  H   UNL     1     -46.114  27.129  25.444  1.00  0.00     0.027 H 
ATOM     60  H   UNL     1     -47.825  25.047  26.893  1.00  0.00     0.027 H 
ATOM     61  H   UNL     1     -46.586  26.095  27.610  1.00  0.00     0.027 H 
ENDBRANCH  40  48
BRANCH  44  62
ATOM     62  N   UNL     1     -51.714  27.695  23.694  1.00  0.00    -0.383 N 
ATOM     63  H   UNL     1     -51.026  27.011  23.972  1.00  0.00     0.158 HD
ATOM     64  H   UNL     1     -52.593  27.648  24.200  1.00  0.00     0.158 HD
ENDBRANCH  44  62
ENDBRANCH  33  37
ENDBRANCH   1  28
TORSDOF 8
ENDMDL
MODEL 2
REMARK VINA RESULT:     -10.5      2.502     11.930
REMARK SMILES CCc1cc(=O)c2ccc(OCc3cncc(-n4cc(C5CCCC5)c5c(N)ncnc54)c3)cc2[nH]1
REMARK SMILES IDX 12 1 11 4 10 5 3 6 4 7 36 8 5 9 35 11 6 13 7 14 34 15 8 16
REMARK SMILES IDX 9 18 2 21 1 24 13 28 14 29 33 30 15 31 17 33 16 35 18 37
REMARK SMILES IDX 19 38 32 39 20 40 26 42 31 43 27 44 30 45 29 46 21 48 22 49
REMARK SMILES IDX 25 50 23 52 24 55 28 62
REMARK H PARENT 12 2 12 3 4 10 36 12 34 17 8 19 9 20 2 22 2 23 1 25 1 26 1 27
REMARK H PARENT 14 32 33 34 16 36 19 41 30 47 21 51 22 53 22 54 25 56 25 57
REMARK H PARENT 23 58 23 59 24 60 24 61 28 63 28 64
REMARK Flexibility Score: inf
ROOT
ATOM      1  C   UNL     1     -46.752  34.621  27.427  1.00  0.00     0.115 C 
ATOM      2  H   UNL     1     -46.480  34.218  28.411  1.00  0.00     0.076 H 
ATOM      3  H   UNL     1     -45.920  34.490  26.725  1.00  0.00     0.076 H 
ENDROOT
BRANCH   1   4
ATOM      4  O   UNL     1     -47.907  33.954  26.916  1.00  0.00    -0.489 OA
BRANCH   4   5
ATOM      5  C   UNL     1     -47.704  32.882  26.091  1.00  0.00     0.121 A 
ATOM      6  C   UNL     1     -48.438  28.369  24.430  1.00  0.00     0.019 A 
ATOM      7  C   UNL     1     -47.528  28.501  23.449  1.00  0.00     0.005 A 
ATOM      8  N   UNL     1     -48.720  29.394  25.312  1.00  0.00    -0.358 N 
ATOM      9  C   UNL     1     -46.798  29.782  23.295  1.00  0.00     0.189 A 
ATOM     10  H   UNL     1     -47.283  27.716  22.746  1.00  0.00     0.068 H 
ATOM     11  C   UNL     1     -48.056  30.627  25.259  1.00  0.00     0.053 A 
ATOM     12  H   UNL     1     -49.352  29.205  26.080  1.00  0.00     0.166 HD
ATOM     13  O   UNL     1     -45.974  29.924  22.397  1.00  0.00    -0.289 OA
ATOM     14  C   UNL     1     -47.099  30.865  24.260  1.00  0.00     0.046 A 
ATOM     15  C   UNL     1     -48.359  31.648  26.169  1.00  0.00     0.004 A 
ATOM     16  C   UNL     1     -46.440  32.092  24.175  1.00  0.00    -0.045 A 
ATOM     17  H   UNL     1     -49.108  31.456  26.928  1.00  0.00     0.068 H 
ATOM     18  C   UNL     1     -46.745  33.095  25.095  1.00  0.00    -0.019 A 
ATOM     19  H   UNL     1     -45.696  32.267  23.403  1.00  0.00     0.063 H 
ATOM     20  H   UNL     1     -46.232  34.053  25.034  1.00  0.00     0.066 H 
BRANCH   6  21
ATOM     21  C   UNL     1     -49.180  27.066  24.620  1.00  0.00    -0.015 C 
ATOM     22  H   UNL     1     -48.529  26.231  24.330  1.00  0.00     0.033 H 
ATOM     23  H   UNL     1     -50.053  27.017  23.958  1.00  0.00     0.033 H 
BRANCH  21  24
ATOM     24  C   UNL     1     -49.645  26.873  26.057  1.00  0.00    -0.060 C 
ATOM     25  H   UNL     1     -50.394  26.077  26.107  1.00  0.00     0.023 H 
ATOM     26  H   UNL     1     -48.814  26.593  26.713  1.00  0.00     0.023 H 
ATOM     27  H   UNL     1     -50.097  27.789  26.452  1.00  0.00     0.023 H 
ENDBRANCH  21  24
ENDBRANCH   6  21
ENDBRANCH   4   5
ENDBRANCH   1   4
BRANCH   1  28
ATOM     28  C   UNL     1     -47.051  36.086  27.591  1.00  0.00     0.010 A 
ATOM     29  C   UNL     1     -48.358  36.526  27.741  1.00  0.00     0.034 A 
ATOM     30  C   UNL     1     -46.045  37.064  27.530  1.00  0.00    -0.028 A 
ATOM     31  N   UNL     1     -48.707  37.824  27.848  1.00  0.00    -0.262 NA
ATOM     32  H   UNL     1     -49.193  35.832  27.782  1.00  0.00     0.084 H 
ATOM     33  C   UNL     1     -46.363  38.426  27.642  1.00  0.00     0.066 A 
ATOM     34  H   UNL     1     -45.026  36.723  27.379  1.00  0.00     0.065 H 
ATOM     35  C   UNL     1     -47.707  38.743  27.800  1.00  0.00     0.051 A 
ATOM     36  H   UNL     1     -48.073  39.755  27.918  1.00  0.00     0.086 H 
BRANCH  33  37
ATOM     37  N   UNL     1     -45.343  39.432  27.601  1.00  0.00    -0.299 N 
ATOM     38  C   UNL     1     -45.230  40.407  26.623  1.00  0.00     0.015 A 
ATOM     39  C   UNL     1     -44.297  39.634  28.499  1.00  0.00     0.150 A 
ATOM     40  C   UNL     1     -44.124  41.203  26.857  1.00  0.00    -0.013 A 
ATOM     41  H   UNL     1     -45.924  40.454  25.796  1.00  0.00     0.083 H 
ATOM     42  C   UNL     1     -43.547  40.732  28.077  1.00  0.00     0.065 A 
ATOM     43  N   UNL     1     -44.051  38.914  29.612  1.00  0.00    -0.218 NA
ATOM     44  C   UNL     1     -42.460  41.104  28.894  1.00  0.00     0.136 A 
ATOM     45  C   UNL     1     -42.984  39.348  30.291  1.00  0.00     0.120 A 
ATOM     46  N   UNL     1     -42.192  40.390  30.001  1.00  0.00    -0.219 NA
ATOM     47  H   UNL     1     -42.731  38.794  31.191  1.00  0.00     0.106 H 
BRANCH  40  48
ATOM     48  C   UNL     1     -43.642  42.344  25.998  1.00  0.00    -0.014 C 
ATOM     49  C   UNL     1     -44.238  42.371  24.576  1.00  0.00    -0.046 C 
ATOM     50  C   UNL     1     -43.988  43.712  26.616  1.00  0.00    -0.046 C 
ATOM     51  H   UNL     1     -42.555  42.258  25.882  1.00  0.00     0.035 H 
ATOM     52  C   UNL     1     -45.204  43.548  24.567  1.00  0.00    -0.053 C 
ATOM     53  H   UNL     1     -43.433  42.570  23.856  1.00  0.00     0.027 H 
ATOM     54  H   UNL     1     -44.719  41.439  24.266  1.00  0.00     0.027 H 
ATOM     55  C   UNL     1     -44.519  44.560  25.467  1.00  0.00    -0.053 C 
ATOM     56  H   UNL     1     -44.759  43.622  27.391  1.00  0.00     0.027 H 
ATOM     57  H   UNL     1     -43.114  44.178  27.083  1.00  0.00     0.027 H 
ATOM     58  H   UNL     1     -45.375  43.935  23.559  1.00  0.00     0.027 H 
ATOM     59  H   UNL     1     -46.171  43.252  24.990  1.00  0.00     0.027 H 
ATOM     60  H   UNL     1     -43.687  45.039  24.936  1.00  0.00     0.027 H 
ATOM     61  H   UNL     1     -45.201  45.343  25.810  1.00  0.00     0.027 H 
ENDBRANCH  40  48
BRANCH  44  62
ATOM     62  N   UNL     1     -41.638  42.199  28.662  1.00  0.00    -0.383 N 
ATOM     63  H   UNL     1     -40.675  41.955  28.482  1.00  0.00     0.158 HD
ATOM     64  H   UNL     1     -42.065  42.796  27.961  1.00  0.00     0.158 HD
ENDBRANCH  44  62
ENDBRANCH  33  37
ENDBRANCH   1  28
TORSDOF 8
ENDMDL
MODEL 3
REMARK VINA RESULT:     -10.4      2.956     11.011
REMARK SMILES CCc1cc(=O)c2ccc(OCc3cncc(-n4cc(C5CCCC5)c5c(N)ncnc54)c3)cc2[nH]1
REMARK SMILES IDX 12 1 11 4 10 5 3 6 4 7 36 8 5 9 35 11 6 13 7 14 34 15 8 16
REMARK SMILES IDX 9 18 2 21 1 24 13 28 14 29 33 30 15 31 17 33 16 35 18 37
REMARK SMILES IDX 19 38 32 39 20 40 26 42 31 43 27 44 30 45 29 46 21 48 22 49
REMARK SMILES IDX 25 50 23 52 24 55 28 62
REMARK H PARENT 12 2 12 3 4 10 36 12 34 17 8 19 9 20 2 22 2 23 1 25 1 26 1 27
REMARK H PARENT 14 32 33 34 16 36 19 41 30 47 21 51 22 53 22 54 25 56 25 57
REMARK H PARENT 23 58 23 59 24 60 24 61 28 63 28 64
REMARK Flexibility Score: inf
ROOT
ATOM      1  C   UNL     1     -47.059  32.484  24.537  1.00  0.00     0.115 C 
ATOM      2  H   UNL     1     -46.528  31.525  24.561  1.00  0.00     0.076 H 
ATOM      3  H   UNL     1     -46.695  33.095  23.703  1.00  0.00     0.076 H 
ENDROOT
BRANCH   1   4
ATOM      4  O   UNL     1     -48.464  32.273  24.387  1.00  0.00    -0.489 OA
BRANCH   4   5
ATOM      5  C   UNL     1     -48.922  30.987  24.466  1.00  0.00     0.121 A 
ATOM      6  C   UNL     1     -48.786  26.310  25.797  1.00  0.00     0.019 A 
ATOM      7  C   UNL     1     -49.960  26.029  25.205  1.00  0.00     0.005 A 
ATOM      8  N   UNL     1     -48.239  27.577  25.778  1.00  0.00    -0.358 N 
ATOM      9  C   UNL     1     -50.705  27.105  24.509  1.00  0.00     0.189 A 
ATOM     10  H   UNL     1     -50.411  25.045  25.200  1.00  0.00     0.068 H 
ATOM     11  C   UNL     1     -48.859  28.647  25.117  1.00  0.00     0.053 A 
ATOM     12  H   UNL     1     -47.313  27.706  26.166  1.00  0.00     0.166 HD
ATOM     13  O   UNL     1     -51.785  26.869  23.976  1.00  0.00    -0.289 OA
ATOM     14  C   UNL     1     -50.097  28.456  24.483  1.00  0.00     0.046 A 
ATOM     15  C   UNL     1     -48.281  29.923  25.110  1.00  0.00     0.004 A 
ATOM     16  C   UNL     1     -50.743  29.510  23.836  1.00  0.00    -0.045 A 
ATOM     17  H   UNL     1     -47.331  30.060  25.614  1.00  0.00     0.068 H 
ATOM     18  C   UNL     1     -50.149  30.772  23.829  1.00  0.00    -0.019 A 
ATOM     19  H   UNL     1     -51.698  29.353  23.342  1.00  0.00     0.063 H 
ATOM     20  H   UNL     1     -50.648  31.597  23.325  1.00  0.00     0.066 H 
BRANCH   6  21
ATOM     21  C   UNL     1     -47.997  25.224  26.494  1.00  0.00    -0.015 C 
ATOM     22  H   UNL     1     -47.906  24.356  25.829  1.00  0.00     0.033 H 
ATOM     23  H   UNL     1     -48.530  24.871  27.386  1.00  0.00     0.033 H 
BRANCH  21  24
ATOM     24  C   UNL     1     -46.610  25.697  26.907  1.00  0.00    -0.060 C 
ATOM     25  H   UNL     1     -46.172  24.995  27.625  1.00  0.00     0.023 H 
ATOM     26  H   UNL     1     -45.936  25.762  26.047  1.00  0.00     0.023 H 
ATOM     27  H   UNL     1     -46.654  26.682  27.382  1.00  0.00     0.023 H 
ENDBRANCH  21  24
ENDBRANCH   6  21
ENDBRANCH   4   5
ENDBRANCH   1   4
BRANCH   1  28
ATOM     28  C   UNL     1     -46.796  33.194  25.838  1.00  0.00     0.010 A 
ATOM     29  C   UNL     1     -46.322  32.495  26.939  1.00  0.00     0.034 A 
ATOM     30  C   UNL     1     -47.081  34.557  26.014  1.00  0.00    -0.028 A 
ATOM     31  N   UNL     1     -46.106  33.053  28.147  1.00  0.00    -0.262 NA
ATOM     32  H   UNL     1     -46.093  31.434  26.886  1.00  0.00     0.084 H 
ATOM     33  C   UNL     1     -46.865  35.180  27.253  1.00  0.00     0.066 A 
ATOM     34  H   UNL     1     -47.483  35.097  25.162  1.00  0.00     0.065 H 
ATOM     35  C   UNL     1     -46.377  34.378  28.278  1.00  0.00     0.051 A 
ATOM     36  H   UNL     1     -46.152  34.747  29.271  1.00  0.00     0.086 H 
BRANCH  33  37
ATOM     37  N   UNL     1     -47.134  36.575  27.440  1.00  0.00    -0.299 N 
ATOM     38  C   UNL     1     -46.192  37.585  27.329  1.00  0.00     0.015 A 
ATOM     39  C   UNL     1     -48.347  37.183  27.756  1.00  0.00     0.150 A 
ATOM     40  C   UNL     1     -46.766  38.815  27.597  1.00  0.00    -0.013 A 
ATOM     41  H   UNL     1     -45.159  37.366  27.102  1.00  0.00     0.083 H 
ATOM     42  C   UNL     1     -48.153  38.562  27.835  1.00  0.00     0.065 A 
ATOM     43  N   UNL     1     -49.530  36.559  27.934  1.00  0.00    -0.218 NA
ATOM     44  C   UNL     1     -49.291  39.344  28.114  1.00  0.00     0.136 A 
ATOM     45  C   UNL     1     -50.528  37.403  28.214  1.00  0.00     0.120 A 
ATOM     46  N   UNL     1     -50.476  38.739  28.306  1.00  0.00    -0.219 NA
ATOM     47  H   UNL     1     -51.503  36.951  28.381  1.00  0.00     0.106 H 
BRANCH  40  48
ATOM     48  C   UNL     1     -46.062  40.148  27.617  1.00  0.00    -0.014 C 
ATOM     49  C   UNL     1     -44.542  40.066  27.865  1.00  0.00    -0.046 C 
ATOM     50  C   UNL     1     -46.222  40.900  26.283  1.00  0.00    -0.046 C 
ATOM     51  H   UNL     1     -46.482  40.751  28.431  1.00  0.00     0.035 H 
ATOM     52  C   UNL     1     -43.898  40.410  26.529  1.00  0.00    -0.053 C 
ATOM     53  H   UNL     1     -44.259  40.831  28.600  1.00  0.00     0.027 H 
ATOM     54  H   UNL     1     -44.196  39.105  28.255  1.00  0.00     0.027 H 
ATOM     55  C   UNL     1     -44.841  41.450  25.952  1.00  0.00    -0.053 C 
ATOM     56  H   UNL     1     -46.552  40.231  25.478  1.00  0.00     0.027 H 
ATOM     57  H   UNL     1     -46.962  41.704  26.358  1.00  0.00     0.027 H 
ATOM     58  H   UNL     1     -42.880  40.790  26.647  1.00  0.00     0.027 H 
ATOM     59  H   UNL     1     -43.863  39.525  25.882  1.00  0.00     0.027 H 
ATOM     60  H   UNL     1     -44.691  42.416  26.449  1.00  0.00     0.027 H 
ATOM     61  H   UNL     1     -44.698  41.593  24.878  1.00  0.00     0.027 H 
ENDBRANCH  40  48
BRANCH  44  62
ATOM     62  N   UNL     1     -49.299  40.732  28.176  1.00  0.00    -0.383 N 
ATOM     63  H   UNL     1     -49.912  41.104  28.887  1.00  0.00     0.158 HD
ATOM     64  H   UNL     1     -48.343  41.070  28.216  1.00  0.00     0.158 HD
ENDBRANCH  44  62
ENDBRANCH  33  37
ENDBRANCH   1  28
TORSDOF 8
ENDMDL
MODEL 4
REMARK VINA RESULT:     -10.3      3.107     11.631
REMARK SMILES CCc1cc(=O)c2ccc(OCc3cncc(-n4cc(C5CCCC5)c5c(N)ncnc54)c3)cc2[nH]1
REMARK SMILES IDX 12 1 11 4 10 5 3 6 4 7 36 8 5 9 35 11 6 13 7 14 34 15 8 16
REMARK SMILES IDX 9 18 2 21 1 24 13 28 14 29 33 30 15 31 17 33 16 35 18 37
REMARK SMILES IDX 19 38 32 39 20 40 26 42 31 43 27 44 30 45 29 46 21 48 22 49
REMARK SMILES IDX 25 50 23 52 24 55 28 62
REMARK H PARENT 12 2 12 3 4 10 36 12 34 17 8 19 9 20 2 22 2 23 1 25 1 26 1 27
REMARK H PARENT 14 32 33 34 16 36 19 41 30 47 21 51 22 53 22 54 25 56 25 57
REMARK H PARENT 23 58 23 59 24 60 24 61 28 63 28 64
REMARK Flexibility Score: inf
ROOT
ATOM      1  C   UNL     1     -46.199  34.451  27.203  1.00  0.00     0.115 C 
ATOM      2  H   UNL     1     -45.540  34.156  28.028  1.00  0.00     0.076 H 
ATOM      3  H   UNL     1     -45.665  34.374  26.248  1.00  0.00     0.076 H 
ENDROOT
BRANCH   1   4
ATOM      4  O   UNL     1     -47.354  33.611  27.162  1.00  0.00    -0.489 OA
BRANCH   4   5
ATOM      5  C   UNL     1     -47.455  32.726  26.126  1.00  0.00     0.121 A 
ATOM      6  C   UNL     1     -46.429  30.915  21.728  1.00  0.00     0.019 A 
ATOM      7  C   UNL     1     -47.271  29.878  21.876  1.00  0.00     0.005 A 
ATOM      8  N   UNL     1     -46.251  31.862  22.717  1.00  0.00    -0.358 N 
ATOM      9  C   UNL     1     -48.038  29.729  23.136  1.00  0.00     0.189 A 
ATOM     10  H   UNL     1     -47.434  29.123  21.118  1.00  0.00     0.068 H 
ATOM     11  C   UNL     1     -46.957  31.818  23.928  1.00  0.00     0.053 A 
ATOM     12  H   UNL     1     -45.669  32.666  22.514  1.00  0.00     0.166 HD
ATOM     13  O   UNL     1     -48.800  28.781  23.292  1.00  0.00    -0.289 OA
ATOM     14  C   UNL     1     -47.849  30.763  24.180  1.00  0.00     0.046 A 
ATOM     15  C   UNL     1     -46.761  32.794  24.913  1.00  0.00     0.004 A 
ATOM     16  C   UNL     1     -48.548  30.687  25.386  1.00  0.00    -0.045 A 
ATOM     17  H   UNL     1     -46.061  33.596  24.710  1.00  0.00     0.068 H 
ATOM     18  C   UNL     1     -48.349  31.673  26.353  1.00  0.00    -0.019 A 
ATOM     19  H   UNL     1     -49.241  29.871  25.572  1.00  0.00     0.063 H 
ATOM     20  H   UNL     1     -48.892  31.619  27.294  1.00  0.00     0.066 H 
BRANCH   6  21
ATOM     21  C   UNL     1     -45.653  31.099  20.444  1.00  0.00    -0.015 C 
ATOM     22  H   UNL     1     -45.504  30.123  19.965  1.00  0.00     0.033 H 
ATOM     23  H   UNL     1     -44.650  31.493  20.651  1.00  0.00     0.033 H 
BRANCH  21  24
ATOM     24  C   UNL     1     -46.358  32.039  19.476  1.00  0.00    -0.060 C 
ATOM     25  H   UNL     1     -45.773  32.140  18.556  1.00  0.00     0.023 H 
ATOM     26  H   UNL     1     -47.350  31.664  19.204  1.00  0.00     0.023 H 
ATOM     27  H   UNL     1     -46.478  33.037  19.911  1.00  0.00     0.023 H 
ENDBRANCH  21  24
ENDBRANCH   6  21
ENDBRANCH   4   5
ENDBRANCH   1   4
BRANCH   1  28
ATOM     28  C   UNL     1     -46.624  35.876  27.432  1.00  0.00     0.010 A 
ATOM     29  C   UNL     1     -47.965  36.193  27.605  1.00  0.00     0.034 A 
ATOM     30  C   UNL     1     -45.709  36.940  27.413  1.00  0.00    -0.028 A 
ATOM     31  N   UNL     1     -48.425  37.449  27.770  1.00  0.00    -0.262 NA
ATOM     32  H   UNL     1     -48.735  35.426  27.616  1.00  0.00     0.084 H 
ATOM     33  C   UNL     1     -46.143  38.262  27.587  1.00  0.00     0.066 A 
ATOM     34  H   UNL     1     -44.664  36.696  27.245  1.00  0.00     0.065 H 
ATOM     35  C   UNL     1     -47.509  38.453  27.762  1.00  0.00     0.051 A 
ATOM     36  H   UNL     1     -47.962  39.423  27.926  1.00  0.00     0.086 H 
BRANCH  33  37
ATOM     37  N   UNL     1     -45.216  39.355  27.588  1.00  0.00    -0.299 N 
ATOM     38  C   UNL     1     -45.179  40.365  26.641  1.00  0.00     0.015 A 
ATOM     39  C   UNL     1     -44.201  39.621  28.505  1.00  0.00     0.150 A 
ATOM     40  C   UNL     1     -44.149  41.248  26.912  1.00  0.00    -0.013 A 
ATOM     41  H   UNL     1     -45.865  40.376  25.807  1.00  0.00     0.083 H 
ATOM     42  C   UNL     1     -43.546  40.792  28.126  1.00  0.00     0.065 A 
ATOM     43  N   UNL     1     -43.904  38.891  29.601  1.00  0.00    -0.218 NA
ATOM     44  C   UNL     1     -42.505  41.233  28.967  1.00  0.00     0.136 A 
ATOM     45  C   UNL     1     -42.887  39.397  30.306  1.00  0.00     0.120 A 
ATOM     46  N   UNL     1     -42.187  40.513  30.057  1.00  0.00    -0.219 NA
ATOM     47  H   UNL     1     -42.596  38.840  31.193  1.00  0.00     0.106 H 
BRANCH  40  48
ATOM     48  C   UNL     1     -43.760  42.452  26.094  1.00  0.00    -0.014 C 
ATOM     49  C   UNL     1     -44.335  42.465  24.663  1.00  0.00    -0.046 C 
ATOM     50  C   UNL     1     -44.240  43.764  26.742  1.00  0.00    -0.046 C 
ATOM     51  H   UNL     1     -42.669  42.468  25.995  1.00  0.00     0.035 H 
ATOM     52  C   UNL     1     -45.404  43.549  24.669  1.00  0.00    -0.053 C 
ATOM     53  H   UNL     1     -43.541  42.758  23.962  1.00  0.00     0.027 H 
ATOM     54  H   UNL     1     -44.724  41.503  24.319  1.00  0.00     0.027 H 
ATOM     55  C   UNL     1     -44.828  44.593  25.608  1.00  0.00    -0.053 C 
ATOM     56  H   UNL     1     -45.011  43.582  27.501  1.00  0.00     0.027 H 
ATOM     57  H   UNL     1     -43.419  44.294  27.237  1.00  0.00     0.027 H 
ATOM     58  H   UNL     1     -45.594  43.948  23.669  1.00  0.00     0.027 H 
ATOM     59  H   UNL     1     -46.346  43.155  25.067  1.00  0.00     0.027 H 
ATOM     60  H   UNL     1     -44.036  45.161  25.105  1.00  0.00     0.027 H 
ATOM     61  H   UNL     1     -45.584  45.300  25.960  1.00  0.00     0.027 H 
ENDBRANCH  40  48
BRANCH  44  62
ATOM     62  N   UNL     1     -41.780  42.403  28.778  1.00  0.00    -0.383 N 
ATOM     63  H   UNL     1     -41.614  42.627  27.808  1.00  0.00     0.158 HD
ATOM     64  H   UNL     1     -42.200  43.148  29.324  1.00  0.00     0.158 HD
ENDBRANCH  44  62
ENDBRANCH  33  37
ENDBRANCH   1  28
TORSDOF 8
ENDMDL
MODEL 5
REMARK VINA RESULT:     -10.3      1.890      2.498
REMARK SMILES CCc1cc(=O)c2ccc(OCc3cncc(-n4cc(C5CCCC5)c5c(N)ncnc54)c3)cc2[nH]1
REMARK SMILES IDX 12 1 11 4 10 5 3 6 4 7 36 8 5 9 35 11 6 13 7 14 34 15 8 16
REMARK SMILES IDX 9 18 2 21 1 24 13 28 14 29 33 30 15 31 17 33 16 35 18 37
REMARK SMILES IDX 19 38 32 39 20 40 26 42 31 43 27 44 30 45 29 46 21 48 22 49
REMARK SMILES IDX 25 50 23 52 24 55 28 62
REMARK H PARENT 12 2 12 3 4 10 36 12 34 17 8 19 9 20 2 22 2 23 1 25 1 26 1 27
REMARK H PARENT 14 32 33 34 16 36 19 41 30 47 21 51 22 53 22 54 25 56 25 57
REMARK H PARENT 23 58 23 59 24 60 24 61 28 63 28 64
REMARK Flexibility Score: inf
ROOT
ATOM      1  C   UNL     1     -46.131  34.760  26.620  1.00  0.00     0.115 C 
ATOM      2  H   UNL     1     -45.835  35.311  25.719  1.00  0.00     0.076 H 
ATOM      3  H   UNL     1     -45.363  34.022  26.879  1.00  0.00     0.076 H 
ENDROOT
BRANCH   1   4
ATOM      4  O   UNL     1     -46.310  35.657  27.717  1.00  0.00    -0.489 OA
BRANCH   4   5
ATOM      5  C   UNL     1     -46.002  36.973  27.514  1.00  0.00     0.121 A 
ATOM      6  C   UNL     1     -43.468  41.079  28.142  1.00  0.00     0.019 A 
ATOM      7  C   UNL     1     -44.232  41.771  27.278  1.00  0.00     0.005 A 
ATOM      8  N   UNL     1     -43.694  39.744  28.413  1.00  0.00    -0.358 N 
ATOM      9  C   UNL     1     -45.352  41.093  26.585  1.00  0.00     0.189 A 
ATOM     10  H   UNL     1     -44.082  42.818  27.049  1.00  0.00     0.068 H 
ATOM     11  C   UNL     1     -44.749  39.031  27.827  1.00  0.00     0.053 A 
ATOM     12  H   UNL     1     -43.139  39.301  29.136  1.00  0.00     0.166 HD
ATOM     13  O   UNL     1     -46.050  41.706  25.783  1.00  0.00    -0.289 OA
ATOM     14  C   UNL     1     -45.592  39.665  26.900  1.00  0.00     0.046 A 
ATOM     15  C   UNL     1     -44.958  37.678  28.123  1.00  0.00     0.004 A 
ATOM     16  C   UNL     1     -46.637  38.970  26.289  1.00  0.00    -0.045 A 
ATOM     17  H   UNL     1     -44.293  37.197  28.831  1.00  0.00     0.068 H 
ATOM     18  C   UNL     1     -46.838  37.626  26.602  1.00  0.00    -0.019 A 
ATOM     19  H   UNL     1     -47.289  39.469  25.577  1.00  0.00     0.063 H 
ATOM     20  H   UNL     1     -47.652  37.081  26.129  1.00  0.00     0.066 H 
BRANCH   6  21
ATOM     21  C   UNL     1     -42.333  41.754  28.877  1.00  0.00    -0.015 C 
ATOM     22  H   UNL     1     -42.711  42.650  29.386  1.00  0.00     0.033 H 
ATOM     23  H   UNL     1     -41.569  42.104  28.171  1.00  0.00     0.033 H 
BRANCH  21  24
ATOM     24  C   UNL     1     -41.675  40.830  29.893  1.00  0.00    -0.060 C 
ATOM     25  H   UNL     1     -40.742  40.427  29.485  1.00  0.00     0.023 H 
ATOM     26  H   UNL     1     -41.435  41.360  30.820  1.00  0.00     0.023 H 
ATOM     27  H   UNL     1     -42.328  39.987  30.140  1.00  0.00     0.023 H 
ENDBRANCH  21  24
ENDBRANCH   6  21
ENDBRANCH   4   5
ENDBRANCH   1   4
BRANCH   1  28
ATOM     28  C   UNL     1     -47.430  34.058  26.330  1.00  0.00     0.010 A 
ATOM     29  C   UNL     1     -48.632  34.584  26.784  1.00  0.00     0.034 A 
ATOM     30  C   UNL     1     -47.479  32.825  25.661  1.00  0.00    -0.028 A 
ATOM     31  N   UNL     1     -49.828  33.990  26.603  1.00  0.00    -0.262 NA
ATOM     32  H   UNL     1     -48.675  35.526  27.324  1.00  0.00     0.084 H 
ATOM     33  C   UNL     1     -48.703  32.175  25.445  1.00  0.00     0.066 A 
ATOM     34  H   UNL     1     -46.536  32.397  25.334  1.00  0.00     0.065 H 
ATOM     35  C   UNL     1     -49.840  32.805  25.937  1.00  0.00     0.051 A 
ATOM     36  H   UNL     1     -50.842  32.413  25.815  1.00  0.00     0.086 H 
BRANCH  33  37
ATOM     37  N   UNL     1     -48.768  30.926  24.746  1.00  0.00    -0.299 N 
ATOM     38  C   UNL     1     -48.498  29.688  25.307  1.00  0.00     0.015 A 
ATOM     39  C   UNL     1     -49.103  30.702  23.412  1.00  0.00     0.150 A 
ATOM     40  C   UNL     1     -48.622  28.688  24.359  1.00  0.00    -0.013 A 
ATOM     41  H   UNL     1     -48.197  29.595  26.340  1.00  0.00     0.083 H 
ATOM     42  C   UNL     1     -49.045  29.333  23.155  1.00  0.00     0.065 A 
ATOM     43  N   UNL     1     -49.455  31.642  22.510  1.00  0.00    -0.218 NA
ATOM     44  C   UNL     1     -49.390  28.921  21.853  1.00  0.00     0.136 A 
ATOM     45  C   UNL     1     -49.739  31.132  21.307  1.00  0.00     0.120 A 
ATOM     46  N   UNL     1     -49.733  29.843  20.937  1.00  0.00    -0.219 NA
ATOM     47  H   UNL     1     -50.015  31.847  20.537  1.00  0.00     0.106 H 
BRANCH  40  48
ATOM     48  C   UNL     1     -48.373  27.216  24.570  1.00  0.00    -0.014 C 
ATOM     49  C   UNL     1     -47.095  26.891  25.369  1.00  0.00    -0.046 C 
ATOM     50  C   UNL     1     -49.524  26.545  25.343  1.00  0.00    -0.046 C 
ATOM     51  H   UNL     1     -48.261  26.738  23.590  1.00  0.00     0.035 H 
ATOM     52  C   UNL     1     -47.582  26.402  26.726  1.00  0.00    -0.053 C 
ATOM     53  H   UNL     1     -46.561  26.072  24.870  1.00  0.00     0.027 H 
ATOM     54  H   UNL     1     -46.390  27.723  25.459  1.00  0.00     0.027 H 
ATOM     55  C   UNL     1     -48.857  25.654  26.382  1.00  0.00    -0.053 C 
ATOM     56  H   UNL     1     -50.157  27.286  25.848  1.00  0.00     0.027 H 
ATOM     57  H   UNL     1     -50.173  25.966  24.679  1.00  0.00     0.027 H 
ATOM     58  H   UNL     1     -46.846  25.765  27.224  1.00  0.00     0.027 H 
ATOM     59  H   UNL     1     -47.803  27.252  27.382  1.00  0.00     0.027 H 
ATOM     60  H   UNL     1     -48.617  24.677  25.942  1.00  0.00     0.027 H 
ATOM     61  H   UNL     1     -49.492  25.487  27.255  1.00  0.00     0.027 H 
ENDBRANCH  40  48
BRANCH  44  62
ATOM     62  N   UNL     1     -49.442  27.597  21.432  1.00  0.00    -0.383 N 
ATOM     63  H   UNL     1     -48.633  27.306  20.903  1.00  0.00     0.158 HD
ATOM     64  H   UNL     1     -49.672  27.004  22.223  1.00  0.00     0.158 HD
ENDBRANCH  44  62
ENDBRANCH  33  37
ENDBRANCH   1  28
TORSDOF 8
ENDMDL
MODEL 6
REMARK VINA RESULT:      -9.7      2.999     11.448
REMARK SMILES CCc1cc(=O)c2ccc(OCc3cncc(-n4cc(C5CCCC5)c5c(N)ncnc54)c3)cc2[nH]1
REMARK SMILES IDX 12 1 11 4 10 5 3 6 4 7 36 8 5 9 35 11 6 13 7 14 34 15 8 16
REMARK SMILES IDX 9 18 2 21 1 24 13 28 14 29 33 30 15 31 17 33 16 35 18 37
REMARK SMILES IDX 19 38 32 39 20 40 26 42 31 43 27 44 30 45 29 46 21 48 22 49
REMARK SMILES IDX 25 50 23 52 24 55 28 62
REMARK H PARENT 12 2 12 3 4 10 36 12 34 17 8 19 9 20 2 22 2 23 1 25 1 26 1 27
REMARK H PARENT 14 32 33 34 16 36 19 41 30 47 21 51 22 53 22 54 25 56 25 57
REMARK H PARENT 23 58 23 59 24 60 24 61 28 63 28 64
REMARK Flexibility Score: inf
ROOT
ATOM      1  C   UNL     1     -46.509  35.831  27.946  1.00  0.00     0.115 C 
ATOM      2  H   UNL     1     -47.391  35.776  28.596  1.00  0.00     0.076 H 
ATOM      3  H   UNL     1     -45.842  34.984  28.146  1.00  0.00     0.076 H 
ENDROOT
BRANCH   1   4
ATOM      4  O   UNL     1     -46.899  35.807  26.572  1.00  0.00    -0.489 OA
BRANCH   4   5
ATOM      5  C   UNL     1     -47.182  34.590  26.017  1.00  0.00     0.121 A 
ATOM      6  C   UNL     1     -46.409  30.746  23.137  1.00  0.00     0.019 A 
ATOM      7  C   UNL     1     -47.535  30.128  23.532  1.00  0.00     0.005 A 
ATOM      8  N   UNL     1     -46.031  31.975  23.640  1.00  0.00    -0.358 N 
ATOM      9  C   UNL     1     -48.408  30.771  24.543  1.00  0.00     0.189 A 
ATOM     10  H   UNL     1     -47.860  29.167  23.153  1.00  0.00     0.068 H 
ATOM     11  C   UNL     1     -46.811  32.670  24.576  1.00  0.00     0.053 A 
ATOM     12  H   UNL     1     -45.218  32.428  23.241  1.00  0.00     0.166 HD
ATOM     13  O   UNL     1     -49.432  30.215  24.925  1.00  0.00    -0.289 OA
ATOM     14  C   UNL     1     -47.998  32.098  25.060  1.00  0.00     0.046 A 
ATOM     15  C   UNL     1     -46.405  33.917  25.067  1.00  0.00     0.004 A 
ATOM     16  C   UNL     1     -48.780  32.762  26.006  1.00  0.00    -0.045 A 
ATOM     17  H   UNL     1     -45.481  34.342  24.694  1.00  0.00     0.068 H 
ATOM     18  C   UNL     1     -48.368  34.008  26.478  1.00  0.00    -0.019 A 
ATOM     19  H   UNL     1     -49.701  32.315  26.372  1.00  0.00     0.063 H 
ATOM     20  H   UNL     1     -48.976  34.530  27.215  1.00  0.00     0.066 H 
BRANCH   6  21
ATOM     21  C   UNL     1     -45.514  30.119  22.092  1.00  0.00    -0.015 C 
ATOM     22  H   UNL     1     -44.740  30.837  21.796  1.00  0.00     0.033 H 
ATOM     23  H   UNL     1     -46.084  29.890  21.182  1.00  0.00     0.033 H 
BRANCH  21  24
ATOM     24  C   UNL     1     -44.857  28.839  22.591  1.00  0.00    -0.060 C 
ATOM     25  H   UNL     1     -43.839  29.048  22.934  1.00  0.00     0.023 H 
ATOM     26  H   UNL     1     -45.411  28.405  23.430  1.00  0.00     0.023 H 
ATOM     27  H   UNL     1     -44.799  28.088  21.796  1.00  0.00     0.023 H 
ENDBRANCH  21  24
ENDBRANCH   6  21
ENDBRANCH   4   5
ENDBRANCH   1   4
BRANCH   1  28
ATOM     28  C   UNL     1     -45.792  37.120  28.241  1.00  0.00     0.010 A 
ATOM     29  C   UNL     1     -44.912  37.209  29.309  1.00  0.00     0.034 A 
ATOM     30  C   UNL     1     -46.031  38.291  27.504  1.00  0.00    -0.028 A 
ATOM     31  N   UNL     1     -44.269  38.340  29.662  1.00  0.00    -0.262 NA
ATOM     32  H   UNL     1     -44.687  36.350  29.936  1.00  0.00     0.084 H 
ATOM     33  C   UNL     1     -45.379  39.489  27.832  1.00  0.00     0.066 A 
ATOM     34  H   UNL     1     -46.745  38.231  26.688  1.00  0.00     0.065 H 
ATOM     35  C   UNL     1     -44.511  39.451  28.917  1.00  0.00     0.051 A 
ATOM     36  H   UNL     1     -43.935  40.304  29.254  1.00  0.00     0.086 H 
BRANCH  33  37
ATOM     37  N   UNL     1     -45.599  40.686  27.075  1.00  0.00    -0.299 N 
ATOM     38  C   UNL     1     -44.617  41.382  26.388  1.00  0.00     0.015 A 
ATOM     39  C   UNL     1     -46.796  41.371  26.878  1.00  0.00     0.150 A 
ATOM     40  C   UNL     1     -45.151  42.507  25.786  1.00  0.00    -0.013 A 
ATOM     41  H   UNL     1     -43.588  41.056  26.399  1.00  0.00     0.083 H 
ATOM     42  C   UNL     1     -46.553  42.481  26.069  1.00  0.00     0.065 A 
ATOM     43  N   UNL     1     -48.006  41.019  27.360  1.00  0.00    -0.218 NA
ATOM     44  C   UNL     1     -47.667  43.275  25.736  1.00  0.00     0.136 A 
ATOM     45  C   UNL     1     -48.979  41.859  26.994  1.00  0.00     0.120 A 
ATOM     46  N   UNL     1     -48.879  42.946  26.216  1.00  0.00    -0.219 NA
ATOM     47  H   UNL     1     -49.974  41.630  27.367  1.00  0.00     0.106 H 
BRANCH  40  48
ATOM     48  C   UNL     1     -44.399  43.538  24.984  1.00  0.00    -0.014 C 
ATOM     49  C   UNL     1     -43.182  44.149  25.708  1.00  0.00    -0.046 C 
ATOM     50  C   UNL     1     -43.845  42.950  23.672  1.00  0.00    -0.046 C 
ATOM     51  H   UNL     1     -45.079  44.367  24.757  1.00  0.00     0.035 H 
ATOM     52  C   UNL     1     -41.962  43.570  25.004  1.00  0.00    -0.053 C 
ATOM     53  H   UNL     1     -43.190  45.238  25.561  1.00  0.00     0.027 H 
ATOM     54  H   UNL     1     -43.159  43.973  26.787  1.00  0.00     0.027 H 
ATOM     55  C   UNL     1     -42.417  43.468  23.560  1.00  0.00    -0.053 C 
ATOM     56  H   UNL     1     -43.836  41.853  23.692  1.00  0.00     0.027 H 
ATOM     57  H   UNL     1     -44.446  43.252  22.808  1.00  0.00     0.027 H 
ATOM     58  H   UNL     1     -41.079  44.203  25.119  1.00  0.00     0.027 H 
ATOM     59  H   UNL     1     -41.728  42.576  25.402  1.00  0.00     0.027 H 
ATOM     60  H   UNL     1     -42.411  44.459  23.089  1.00  0.00     0.027 H 
ATOM     61  H   UNL     1     -41.781  42.805  22.968  1.00  0.00     0.027 H 
ENDBRANCH  40  48
BRANCH  44  62
ATOM     62  N   UNL     1     -47.625  44.384  24.899  1.00  0.00    -0.383 N 
ATOM     63  H   UNL     1     -46.690  44.659  24.636  1.00  0.00     0.158 HD
ATOM     64  H   UNL     1     -48.264  44.242  24.124  1.00  0.00     0.158 HD
ENDBRANCH  44  62
ENDBRANCH  33  37
ENDBRANCH   1  28
TORSDOF 8
ENDMDL
MODEL 7
REMARK VINA RESULT:      -9.7      2.720     11.797
REMARK SMILES CCc1cc(=O)c2ccc(OCc3cncc(-n4cc(C5CCCC5)c5c(N)ncnc54)c3)cc2[nH]1
REMARK SMILES IDX 12 1 11 4 10 5 3 6 4 7 36 8 5 9 35 11 6 13 7 14 34 15 8 16
REMARK SMILES IDX 9 18 2 21 1 24 13 28 14 29 33 30 15 31 17 33 16 35 18 37
REMARK SMILES IDX 19 38 32 39 20 40 26 42 31 43 27 44 30 45 29 46 21 48 22 49
REMARK SMILES IDX 25 50 23 52 24 55 28 62
REMARK H PARENT 12 2 12 3 4 10 36 12 34 17 8 19 9 20 2 22 2 23 1 25 1 26 1 27
REMARK H PARENT 14 32 33 34 16 36 19 41 30 47 21 51 22 53 22 54 25 56 25 57
REMARK H PARENT 23 58 23 59 24 60 24 61 28 63 28 64
REMARK Flexibility Score: inf
ROOT
ATOM      1  C   UNL     1     -47.287  35.541  26.302  1.00  0.00     0.115 C 
ATOM      2  H   UNL     1     -47.020  35.528  25.238  1.00  0.00     0.076 H 
ATOM      3  H   UNL     1     -48.361  35.727  26.417  1.00  0.00     0.076 H 
ENDROOT
BRANCH   1   4
ATOM      4  O   UNL     1     -46.958  34.293  26.915  1.00  0.00    -0.489 OA
BRANCH   4   5
ATOM      5  C   UNL     1     -47.085  33.164  26.155  1.00  0.00     0.121 A 
ATOM      6  C   UNL     1     -48.725  28.714  25.068  1.00  0.00     0.019 A 
ATOM      7  C   UNL     1     -48.060  28.672  23.900  1.00  0.00     0.005 A 
ATOM      8  N   UNL     1     -48.667  29.810  25.906  1.00  0.00    -0.358 N 
ATOM      9  C   UNL     1     -47.238  29.832  23.483  1.00  0.00     0.189 A 
ATOM     10  H   UNL     1     -48.083  27.826  23.226  1.00  0.00     0.068 H 
ATOM     11  C   UNL     1     -47.890  30.938  25.607  1.00  0.00     0.053 A 
ATOM     12  H   UNL     1     -49.119  29.747  26.810  1.00  0.00     0.166 HD
ATOM     13  O   UNL     1     -46.636  29.816  22.414  1.00  0.00    -0.289 OA
ATOM     14  C   UNL     1     -47.172  30.994  24.401  1.00  0.00     0.046 A 
ATOM     15  C   UNL     1     -47.847  32.035  26.477  1.00  0.00     0.004 A 
ATOM     16  C   UNL     1     -46.408  32.114  24.072  1.00  0.00    -0.045 A 
ATOM     17  H   UNL     1     -48.415  31.984  27.398  1.00  0.00     0.068 H 
ATOM     18  C   UNL     1     -46.367  33.194  24.954  1.00  0.00    -0.019 A 
ATOM     19  H   UNL     1     -45.850  32.147  23.140  1.00  0.00     0.063 H 
ATOM     20  H   UNL     1     -45.771  34.069  24.703  1.00  0.00     0.066 H 
BRANCH   6  21
ATOM     21  C   UNL     1     -49.552  27.534  25.525  1.00  0.00    -0.015 C 
ATOM     22  H   UNL     1     -50.384  27.890  26.145  1.00  0.00     0.033 H 
ATOM     23  H   UNL     1     -48.958  26.868  26.163  1.00  0.00     0.033 H 
BRANCH  21  24
ATOM     24  C   UNL     1     -50.099  26.729  24.354  1.00  0.00    -0.060 C 
ATOM     25  H   UNL     1     -49.891  25.664  24.499  1.00  0.00     0.023 H 
ATOM     26  H   UNL     1     -51.183  26.847  24.257  1.00  0.00     0.023 H 
ATOM     27  H   UNL     1     -49.637  27.038  23.411  1.00  0.00     0.023 H 
ENDBRANCH  21  24
ENDBRANCH   6  21
ENDBRANCH   4   5
ENDBRANCH   1   4
BRANCH   1  28
ATOM     28  C   UNL     1     -46.508  36.645  26.965  1.00  0.00     0.010 A 
ATOM     29  C   UNL     1     -45.739  36.386  28.091  1.00  0.00     0.034 A 
ATOM     30  C   UNL     1     -46.579  37.975  26.525  1.00  0.00    -0.028 A 
ATOM     31  N   UNL     1     -45.051  37.330  28.764  1.00  0.00    -0.262 NA
ATOM     32  H   UNL     1     -45.647  35.384  28.501  1.00  0.00     0.084 H 
ATOM     33  C   UNL     1     -45.874  38.989  27.192  1.00  0.00     0.066 A 
ATOM     34  H   UNL     1     -47.206  38.184  25.664  1.00  0.00     0.065 H 
ATOM     35  C   UNL     1     -45.129  38.605  28.301  1.00  0.00     0.051 A 
ATOM     36  H   UNL     1     -44.528  39.292  28.885  1.00  0.00     0.086 H 
BRANCH  33  37
ATOM     37  N   UNL     1     -45.922  40.348  26.741  1.00  0.00    -0.299 N 
ATOM     38  C   UNL     1     -44.823  41.090  26.339  1.00  0.00     0.015 A 
ATOM     39  C   UNL     1     -47.038  41.174  26.614  1.00  0.00     0.150 A 
ATOM     40  C   UNL     1     -45.205  42.373  25.991  1.00  0.00    -0.013 A 
ATOM     41  H   UNL     1     -43.828  40.672  26.361  1.00  0.00     0.083 H 
ATOM     42  C   UNL     1     -46.627  42.416  26.132  1.00  0.00     0.065 A 
ATOM     43  N   UNL     1     -48.316  40.835  26.883  1.00  0.00    -0.218 NA
ATOM     44  C   UNL     1     -47.639  43.371  25.909  1.00  0.00     0.136 A 
ATOM     45  C   UNL     1     -49.180  41.828  26.652  1.00  0.00     0.120 A 
ATOM     46  N   UNL     1     -48.917  43.056  26.182  1.00  0.00    -0.219 NA
ATOM     47  H   UNL     1     -50.224  41.615  26.867  1.00  0.00     0.106 H 
BRANCH  40  48
ATOM     48  C   UNL     1     -44.296  43.489  25.541  1.00  0.00    -0.014 C 
ATOM     49  C   UNL     1     -42.993  43.619  26.354  1.00  0.00    -0.046 C 
ATOM     50  C   UNL     1     -43.852  43.310  24.077  1.00  0.00    -0.046 C 
ATOM     51  H   UNL     1     -44.832  44.439  25.650  1.00  0.00     0.035 H 
ATOM     52  C   UNL     1     -41.888  43.137  25.424  1.00  0.00    -0.053 C 
ATOM     53  H   UNL     1     -42.821  44.679  26.585  1.00  0.00     0.027 H 
ATOM     54  H   UNL     1     -42.994  43.082  27.307  1.00  0.00     0.027 H 
ATOM     55  C   UNL     1     -42.359  43.609  24.061  1.00  0.00    -0.053 C 
ATOM     56  H   UNL     1     -44.025  42.286  23.724  1.00  0.00     0.027 H 
ATOM     57  H   UNL     1     -44.399  43.979  23.404  1.00  0.00     0.027 H 
ATOM     58  H   UNL     1     -40.912  43.549  25.693  1.00  0.00     0.027 H 
ATOM     59  H   UNL     1     -41.819  42.044  25.447  1.00  0.00     0.027 H 
ATOM     60  H   UNL     1     -42.192  44.688  23.953  1.00  0.00     0.027 H 
ATOM     61  H   UNL     1     -41.843  43.101  23.241  1.00  0.00     0.027 H 
ENDBRANCH  40  48
BRANCH  44  62
ATOM     62  N   UNL     1     -47.424  44.639  25.382  1.00  0.00    -0.383 N 
ATOM     63  H   UNL     1     -46.455  44.837  25.178  1.00  0.00     0.158 HD
ATOM     64  H   UNL     1     -48.064  44.793  24.609  1.00  0.00     0.158 HD
ENDBRANCH  44  62
ENDBRANCH  33  37
ENDBRANCH   1  28
TORSDOF 8
ENDMDL
