MODEL 1
REMARK VINA RESULT:     -11.2      0.000      0.000
REMARK SMILES Cn1ccc(-c2cn(-c3cncc(COc4ccc5ccc(N6CC7(CC7)C6)nc5c4)c3)c3ncnc(N)c23)n1
REMARK SMILES IDX 9 1 10 2 11 3 12 4 13 5 32 6 8 10 6 11 7 12 39 13 33 15
REMARK SMILES IDX 37 16 34 17 36 18 35 19 5 21 2 22 3 23 40 24 4 25 1 28 38 32
REMARK SMILES IDX 14 35 15 38 16 39 17 40 31 41 18 42 30 44 19 46 29 48 20 49
REMARK SMILES IDX 22 50 21 51 23 54 24 55 28 56 25 57 26 62 27 63
REMARK H PARENT 10 7 12 8 32 9 7 14 35 20 3 26 4 27 1 29 1 30 1 31 38 33 38 34
REMARK H PARENT 14 36 14 37 17 43 31 45 18 47 20 52 21 53 24 58 24 59 28 60
REMARK H PARENT 28 61 26 64 26 65 27 66 27 67
REMARK Flexibility Score: inf
ROOT
ATOM      1  C   UNL     1     -47.916  32.515  25.522  1.00  0.00     0.066 A 
ATOM      2  C   UNL     1     -46.582  32.796  25.243  1.00  0.00     0.051 A 
ATOM      3  N   UNL     1     -45.965  33.965  25.554  1.00  0.00    -0.262 NA
ATOM      4  C   UNL     1     -46.706  34.909  26.168  1.00  0.00     0.034 A 
ATOM      5  C   UNL     1     -48.046  34.751  26.489  1.00  0.00     0.010 A 
ATOM      6  C   UNL     1     -48.648  33.524  26.164  1.00  0.00    -0.028 A 
ATOM      7  H   UNL     1     -45.917  32.104  24.741  1.00  0.00     0.086 H 
ATOM      8  H   UNL     1     -46.168  35.825  26.399  1.00  0.00     0.084 H 
ATOM      9  H   UNL     1     -49.691  33.396  26.435  1.00  0.00     0.065 H 
ENDROOT
BRANCH   1  10
ATOM     10  N   UNL     1     -48.522  31.264  25.173  1.00  0.00    -0.299 N 
ATOM     11  C   UNL     1     -49.061  29.074  25.251  1.00  0.00     0.033 A 
ATOM     12  C   UNL     1     -48.356  30.082  25.872  1.00  0.00     0.021 A 
ATOM     13  C   UNL     1     -49.747  29.640  24.148  1.00  0.00     0.071 A 
ATOM     14  H   UNL     1     -47.750  30.016  26.763  1.00  0.00     0.083 H 
ATOM     15  C   UNL     1     -49.375  30.985  24.100  1.00  0.00     0.150 A 
ATOM     16  C   UNL     1     -50.659  29.201  23.171  1.00  0.00     0.137 A 
ATOM     17  N   UNL     1     -49.783  31.860  23.159  1.00  0.00    -0.218 NA
ATOM     18  N   UNL     1     -51.076  30.062  22.225  1.00  0.00    -0.219 NA
ATOM     19  C   UNL     1     -50.615  31.320  22.263  1.00  0.00     0.120 A 
ATOM     20  H   UNL     1     -50.967  31.980  21.475  1.00  0.00     0.106 H 
BRANCH  11  21
ATOM     21  C   UNL     1     -49.082  27.681  25.687  1.00  0.00     0.095 A 
ATOM     22  N   UNL     1     -48.415  25.747  26.213  1.00  0.00    -0.275 N 
ATOM     23  C   UNL     1     -49.775  25.666  26.270  1.00  0.00     0.025 A 
ATOM     24  N   UNL     1     -47.965  26.963  25.852  1.00  0.00    -0.173 NA
ATOM     25  C   UNL     1     -50.242  26.912  25.917  1.00  0.00    -0.016 A 
ATOM     26  H   UNL     1     -50.288  24.752  26.535  1.00  0.00     0.084 H 
ATOM     27  H   UNL     1     -51.276  27.218  25.833  1.00  0.00     0.066 H 
BRANCH  22  28
ATOM     28  C   UNL     1     -47.469  24.693  26.485  1.00  0.00     0.030 C 
ATOM     29  H   UNL     1     -46.569  24.877  25.892  1.00  0.00     0.048 H 
ATOM     30  H   UNL     1     -47.236  24.704  27.552  1.00  0.00     0.048 H 
ATOM     31  H   UNL     1     -47.908  23.730  26.209  1.00  0.00     0.048 H 
ENDBRANCH  22  28
ENDBRANCH  11  21
BRANCH  16  32
ATOM     32  N   UNL     1     -51.211  27.928  23.118  1.00  0.00    -0.383 N 
ATOM     33  H   UNL     1     -50.630  27.332  22.538  1.00  0.00     0.158 HD
ATOM     34  H   UNL     1     -52.197  27.921  22.886  1.00  0.00     0.158 HD
ENDBRANCH  16  32
ENDBRANCH   1  10
BRANCH   5  35
ATOM     35  C   UNL     1     -48.798  35.836  27.212  1.00  0.00     0.115 C 
ATOM     36  H   UNL     1     -49.871  35.610  27.206  1.00  0.00     0.076 H 
ATOM     37  H   UNL     1     -48.613  36.784  26.693  1.00  0.00     0.076 H 
BRANCH  35  38
ATOM     38  O   UNL     1     -48.336  35.903  28.562  1.00  0.00    -0.489 OA
BRANCH  38  39
ATOM     39  C   UNL     1     -47.246  36.690  28.811  1.00  0.00     0.122 A 
ATOM     40  C   UNL     1     -46.460  36.269  29.882  1.00  0.00    -0.019 A 
ATOM     41  C   UNL     1     -46.877  37.834  28.101  1.00  0.00     0.007 A 
ATOM     42  C   UNL     1     -45.319  36.984  30.240  1.00  0.00    -0.049 A 
ATOM     43  H   UNL     1     -46.739  35.380  30.442  1.00  0.00     0.066 H 
ATOM     44  C   UNL     1     -45.743  38.567  28.435  1.00  0.00     0.076 A 
ATOM     45  H   UNL     1     -47.460  38.196  27.260  1.00  0.00     0.069 H 
ATOM     46  C   UNL     1     -44.958  38.133  29.519  1.00  0.00     0.001 A 
ATOM     47  H   UNL     1     -44.720  36.642  31.079  1.00  0.00     0.063 H 
ATOM     48  N   UNL     1     -45.436  39.659  27.715  1.00  0.00    -0.231 NA
ATOM     49  C   UNL     1     -43.826  38.882  29.845  1.00  0.00    -0.049 A 
ATOM     50  C   UNL     1     -44.333  40.377  28.031  1.00  0.00     0.129 A 
ATOM     51  C   UNL     1     -43.514  40.013  29.097  1.00  0.00    -0.019 A 
ATOM     52  H   UNL     1     -43.187  38.599  30.677  1.00  0.00     0.063 H 
ATOM     53  H   UNL     1     -42.645  40.608  29.355  1.00  0.00     0.066 H 
BRANCH  50  54
ATOM     54  N   UNL     1     -44.036  41.523  27.277  1.00  0.00    -0.355 N 
ATOM     55  C   UNL     1     -43.801  41.531  25.860  1.00  0.00     0.027 C 
ATOM     56  C   UNL     1     -42.989  42.473  27.526  1.00  0.00     0.027 C 
ATOM     57  C   UNL     1     -43.062  42.787  26.087  1.00  0.00     0.006 C 
ATOM     58  H   UNL     1     -43.193  40.687  25.516  1.00  0.00     0.050 H 
ATOM     59  H   UNL     1     -44.728  41.592  25.284  1.00  0.00     0.050 H 
ATOM     60  H   UNL     1     -43.291  43.257  28.223  1.00  0.00     0.050 H 
ATOM     61  H   UNL     1     -42.055  42.007  27.858  1.00  0.00     0.050 H 
ATOM     62  C   UNL     1     -43.325  44.120  25.462  1.00  0.00    -0.044 C 
ATOM     63  C   UNL     1     -42.015  43.410  25.225  1.00  0.00    -0.044 C 
ATOM     64  H   UNL     1     -44.033  44.169  24.642  1.00  0.00     0.027 H 
ATOM     65  H   UNL     1     -43.320  44.995  26.100  1.00  0.00     0.027 H 
ATOM     66  H   UNL     1     -41.841  42.985  24.243  1.00  0.00     0.027 H 
ATOM     67  H   UNL     1     -41.129  43.811  25.701  1.00  0.00     0.027 H 
ENDBRANCH  50  54
ENDBRANCH  38  39
ENDBRANCH  35  38
ENDBRANCH   5  35
TORSDOF 8
ENDMDL
MODEL 2
REMARK VINA RESULT:     -11.0      2.396     12.689
REMARK SMILES Cn1ccc(-c2cn(-c3cncc(COc4ccc5ccc(N6CC7(CC7)C6)nc5c4)c3)c3ncnc(N)c23)n1
REMARK SMILES IDX 9 1 10 2 11 3 12 4 13 5 32 6 8 10 6 11 7 12 39 13 33 15
REMARK SMILES IDX 37 16 34 17 36 18 35 19 5 21 2 22 3 23 40 24 4 25 1 28 38 32
REMARK SMILES IDX 14 35 15 38 16 39 17 40 31 41 18 42 30 44 19 46 29 48 20 49
REMARK SMILES IDX 22 50 21 51 23 54 24 55 28 56 25 57 26 62 27 63
REMARK H PARENT 10 7 12 8 32 9 7 14 35 20 3 26 4 27 1 29 1 30 1 31 38 33 38 34
REMARK H PARENT 14 36 14 37 17 43 31 45 18 47 20 52 21 53 24 58 24 59 28 60
REMARK H PARENT 28 61 26 64 26 65 27 66 27 67
REMARK Flexibility Score: inf
ROOT
ATOM      1  C   UNL     1     -45.783  38.259  28.240  1.00  0.00     0.066 A 
ATOM      2  C   UNL     1     -45.501  37.633  29.450  1.00  0.00     0.051 A 
ATOM      3  N   UNL     1     -46.093  36.487  29.875  1.00  0.00    -0.262 NA
ATOM      4  C   UNL     1     -47.015  35.932  29.063  1.00  0.00     0.034 A 
ATOM      5  C   UNL     1     -47.388  36.466  27.839  1.00  0.00     0.010 A 
ATOM      6  C   UNL     1     -46.746  37.645  27.426  1.00  0.00    -0.028 A 
ATOM      7  H   UNL     1     -44.787  38.015  30.169  1.00  0.00     0.086 H 
ATOM      8  H   UNL     1     -47.459  35.015  29.445  1.00  0.00     0.084 H 
ATOM      9  H   UNL     1     -47.025  38.049  26.458  1.00  0.00     0.065 H 
ENDROOT
BRANCH   1  10
ATOM     10  N   UNL     1     -45.131  39.469  27.835  1.00  0.00    -0.299 N 
ATOM     11  C   UNL     1     -44.659  41.327  26.643  1.00  0.00     0.033 A 
ATOM     12  C   UNL     1     -45.513  40.253  26.761  1.00  0.00     0.021 A 
ATOM     13  C   UNL     1     -43.729  41.260  27.711  1.00  0.00     0.071 A 
ATOM     14  H   UNL     1     -46.363  40.010  26.140  1.00  0.00     0.083 H 
ATOM     15  C   UNL     1     -44.019  40.089  28.414  1.00  0.00     0.150 A 
ATOM     16  C   UNL     1     -42.670  42.045  28.200  1.00  0.00     0.137 A 
ATOM     17  N   UNL     1     -43.324  39.642  29.480  1.00  0.00    -0.218 NA
ATOM     18  N   UNL     1     -41.967  41.614  29.263  1.00  0.00    -0.219 NA
ATOM     19  C   UNL     1     -42.319  40.451  29.829  1.00  0.00     0.120 A 
ATOM     20  H   UNL     1     -41.719  40.133  30.677  1.00  0.00     0.106 H 
BRANCH  11  21
ATOM     21  C   UNL     1     -44.734  42.341  25.596  1.00  0.00     0.095 A 
ATOM     22  N   UNL     1     -44.162  43.616  24.012  1.00  0.00    -0.275 N 
ATOM     23  C   UNL     1     -45.440  43.990  24.308  1.00  0.00     0.025 A 
ATOM     24  N   UNL     1     -43.703  42.618  24.789  1.00  0.00    -0.173 NA
ATOM     25  C   UNL     1     -45.838  43.184  25.350  1.00  0.00    -0.016 A 
ATOM     26  H   UNL     1     -45.944  44.786  23.778  1.00  0.00     0.084 H 
ATOM     27  H   UNL     1     -46.789  43.207  25.862  1.00  0.00     0.066 H 
BRANCH  22  28
ATOM     28  C   UNL     1     -43.304  44.177  22.997  1.00  0.00     0.030 C 
ATOM     29  H   UNL     1     -43.562  43.720  22.038  1.00  0.00     0.048 H 
ATOM     30  H   UNL     1     -43.467  45.257  22.965  1.00  0.00     0.048 H 
ATOM     31  H   UNL     1     -42.261  43.963  23.244  1.00  0.00     0.048 H 
ENDBRANCH  22  28
ENDBRANCH  11  21
BRANCH  16  32
ATOM     32  N   UNL     1     -42.298  43.282  27.689  1.00  0.00    -0.383 N 
ATOM     33  H   UNL     1     -42.743  44.018  28.228  1.00  0.00     0.158 HD
ATOM     34  H   UNL     1     -42.411  43.359  26.685  1.00  0.00     0.158 HD
ENDBRANCH  16  32
ENDBRANCH   1  10
BRANCH   5  35
ATOM     35  C   UNL     1     -48.398  35.766  26.969  1.00  0.00     0.115 C 
ATOM     36  H   UNL     1     -48.147  35.921  25.912  1.00  0.00     0.076 H 
ATOM     37  H   UNL     1     -49.386  36.190  27.184  1.00  0.00     0.076 H 
BRANCH  35  38
ATOM     38  O   UNL     1     -48.375  34.368  27.260  1.00  0.00    -0.489 OA
BRANCH  38  39
ATOM     39  C   UNL     1     -47.945  33.530  26.269  1.00  0.00     0.122 A 
ATOM     40  C   UNL     1     -46.586  33.627  25.976  1.00  0.00    -0.019 A 
ATOM     41  C   UNL     1     -48.733  32.621  25.561  1.00  0.00     0.007 A 
ATOM     42  C   UNL     1     -46.022  32.826  24.986  1.00  0.00    -0.049 A 
ATOM     43  H   UNL     1     -45.964  34.333  26.522  1.00  0.00     0.066 H 
ATOM     44  C   UNL     1     -48.197  31.808  24.568  1.00  0.00     0.076 A 
ATOM     45  H   UNL     1     -49.795  32.513  25.757  1.00  0.00     0.069 H 
ATOM     46  C   UNL     1     -46.823  31.916  24.280  1.00  0.00     0.001 A 
ATOM     47  H   UNL     1     -44.961  32.918  24.769  1.00  0.00     0.063 H 
ATOM     48  N   UNL     1     -49.003  30.951  23.919  1.00  0.00    -0.231 NA
ATOM     49  C   UNL     1     -46.302  31.098  23.277  1.00  0.00    -0.049 A 
ATOM     50  C   UNL     1     -48.489  30.154  22.953  1.00  0.00     0.129 A 
ATOM     51  C   UNL     1     -47.142  30.213  22.608  1.00  0.00    -0.019 A 
ATOM     52  H   UNL     1     -45.250  31.143  23.007  1.00  0.00     0.063 H 
ATOM     53  H   UNL     1     -46.745  29.585  21.817  1.00  0.00     0.066 H 
BRANCH  50  54
ATOM     54  N   UNL     1     -49.350  29.275  22.277  1.00  0.00    -0.355 N 
ATOM     55  C   UNL     1     -49.257  27.842  22.324  1.00  0.00     0.027 C 
ATOM     56  C   UNL     1     -49.659  29.278  20.875  1.00  0.00     0.027 C 
ATOM     57  C   UNL     1     -49.985  27.849  21.041  1.00  0.00     0.006 C 
ATOM     58  H   UNL     1     -48.227  27.472  22.274  1.00  0.00     0.050 H 
ATOM     59  H   UNL     1     -49.772  27.419  23.190  1.00  0.00     0.050 H 
ATOM     60  H   UNL     1     -50.483  29.952  20.629  1.00  0.00     0.050 H 
ATOM     61  H   UNL     1     -48.790  29.491  20.243  1.00  0.00     0.050 H 
ATOM     62  C   UNL     1     -51.282  27.173  20.730  1.00  0.00    -0.044 C 
ATOM     63  C   UNL     1     -50.022  26.785  19.996  1.00  0.00    -0.044 C 
ATOM     64  H   UNL     1     -51.681  26.476  21.457  1.00  0.00     0.027 H 
ATOM     65  H   UNL     1     -52.034  27.732  20.187  1.00  0.00     0.027 H 
ATOM     66  H   UNL     1     -49.577  25.824  20.228  1.00  0.00     0.027 H 
ATOM     67  H   UNL     1     -49.930  27.080  18.958  1.00  0.00     0.027 H 
ENDBRANCH  50  54
ENDBRANCH  38  39
ENDBRANCH  35  38
ENDBRANCH   5  35
TORSDOF 8
ENDMDL
MODEL 3
REMARK VINA RESULT:     -10.7      1.606      2.098
REMARK SMILES Cn1ccc(-c2cn(-c3cncc(COc4ccc5ccc(N6CC7(CC7)C6)nc5c4)c3)c3ncnc(N)c23)n1
REMARK SMILES IDX 9 1 10 2 11 3 12 4 13 5 32 6 8 10 6 11 7 12 39 13 33 15
REMARK SMILES IDX 37 16 34 17 36 18 35 19 5 21 2 22 3 23 40 24 4 25 1 28 38 32
REMARK SMILES IDX 14 35 15 38 16 39 17 40 31 41 18 42 30 44 19 46 29 48 20 49
REMARK SMILES IDX 22 50 21 51 23 54 24 55 28 56 25 57 26 62 27 63
REMARK H PARENT 10 7 12 8 32 9 7 14 35 20 3 26 4 27 1 29 1 30 1 31 38 33 38 34
REMARK H PARENT 14 36 14 37 17 43 31 45 18 47 20 52 21 53 24 58 24 59 28 60
REMARK H PARENT 28 61 26 64 26 65 27 66 27 67
REMARK Flexibility Score: inf
ROOT
ATOM      1  C   UNL     1     -48.346  32.605  26.005  1.00  0.00     0.066 A 
ATOM      2  C   UNL     1     -49.548  33.278  26.200  1.00  0.00     0.051 A 
ATOM      3  N   UNL     1     -49.648  34.537  26.699  1.00  0.00    -0.262 NA
ATOM      4  C   UNL     1     -48.500  35.163  27.028  1.00  0.00     0.034 A 
ATOM      5  C   UNL     1     -47.243  34.593  26.889  1.00  0.00     0.010 A 
ATOM      6  C   UNL     1     -47.177  33.295  26.359  1.00  0.00    -0.028 A 
ATOM      7  H   UNL     1     -50.517  32.849  25.978  1.00  0.00     0.086 H 
ATOM      8  H   UNL     1     -48.631  36.168  27.420  1.00  0.00     0.084 H 
ATOM      9  H   UNL     1     -46.191  32.860  26.232  1.00  0.00     0.065 H 
ENDROOT
BRANCH   1  10
ATOM     10  N   UNL     1     -48.292  31.275  25.475  1.00  0.00    -0.299 N 
ATOM     11  C   UNL     1     -48.434  29.025  25.375  1.00  0.00     0.033 A 
ATOM     12  C   UNL     1     -48.620  30.129  26.177  1.00  0.00     0.021 A 
ATOM     13  C   UNL     1     -48.026  29.481  24.097  1.00  0.00     0.071 A 
ATOM     14  H   UNL     1     -48.963  30.155  27.201  1.00  0.00     0.083 H 
ATOM     15  C   UNL     1     -47.913  30.870  24.191  1.00  0.00     0.150 A 
ATOM     16  C   UNL     1     -47.741  28.907  22.845  1.00  0.00     0.137 A 
ATOM     17  N   UNL     1     -47.501  31.675  23.191  1.00  0.00    -0.218 NA
ATOM     18  N   UNL     1     -47.329  29.697  21.837  1.00  0.00    -0.219 NA
ATOM     19  C   UNL     1     -47.224  31.014  22.063  1.00  0.00     0.120 A 
ATOM     20  H   UNL     1     -46.877  31.614  21.227  1.00  0.00     0.106 H 
BRANCH  11  21
ATOM     21  C   UNL     1     -48.642  27.642  25.798  1.00  0.00     0.095 A 
ATOM     22  N   UNL     1     -48.234  25.646  26.355  1.00  0.00    -0.275 N 
ATOM     23  C   UNL     1     -49.595  25.718  26.315  1.00  0.00     0.025 A 
ATOM     24  N   UNL     1     -47.627  26.804  26.036  1.00  0.00    -0.173 NA
ATOM     25  C   UNL     1     -49.894  27.008  25.939  1.00  0.00    -0.016 A 
ATOM     26  H   UNL     1     -50.224  24.867  26.536  1.00  0.00     0.084 H 
ATOM     27  H   UNL     1     -50.878  27.428  25.785  1.00  0.00     0.066 H 
BRANCH  22  28
ATOM     28  C   UNL     1     -47.433  24.493  26.685  1.00  0.00     0.030 C 
ATOM     29  H   UNL     1     -47.929  23.950  27.494  1.00  0.00     0.048 H 
ATOM     30  H   UNL     1     -47.349  23.865  25.795  1.00  0.00     0.048 H 
ATOM     31  H   UNL     1     -46.441  24.820  27.008  1.00  0.00     0.048 H 
ENDBRANCH  22  28
ENDBRANCH  11  21
BRANCH  16  32
ATOM     32  N   UNL     1     -47.887  27.560  22.539  1.00  0.00    -0.383 N 
ATOM     33  H   UNL     1     -47.183  27.289  21.861  1.00  0.00     0.158 HD
ATOM     34  H   UNL     1     -48.836  27.297  22.301  1.00  0.00     0.158 HD
ENDBRANCH  16  32
ENDBRANCH   1  10
BRANCH   5  35
ATOM     35  C   UNL     1     -46.003  35.370  27.241  1.00  0.00     0.115 C 
ATOM     36  H   UNL     1     -45.663  35.940  26.367  1.00  0.00     0.076 H 
ATOM     37  H   UNL     1     -45.227  34.656  27.546  1.00  0.00     0.076 H 
BRANCH  35  38
ATOM     38  O   UNL     1     -46.304  36.272  28.306  1.00  0.00    -0.489 OA
BRANCH  38  39
ATOM     39  C   UNL     1     -45.524  37.390  28.418  1.00  0.00     0.122 A 
ATOM     40  C   UNL     1     -44.902  37.541  29.656  1.00  0.00    -0.019 A 
ATOM     41  C   UNL     1     -45.313  38.350  27.426  1.00  0.00     0.007 A 
ATOM     42  C   UNL     1     -44.080  38.639  29.900  1.00  0.00    -0.049 A 
ATOM     43  H   UNL     1     -45.060  36.800  30.436  1.00  0.00     0.066 H 
ATOM     44  C   UNL     1     -44.497  39.455  27.641  1.00  0.00     0.076 A 
ATOM     45  H   UNL     1     -45.778  38.271  26.449  1.00  0.00     0.069 H 
ATOM     46  C   UNL     1     -43.875  39.597  28.896  1.00  0.00     0.001 A 
ATOM     47  H   UNL     1     -43.604  38.741  30.872  1.00  0.00     0.063 H 
ATOM     48  N   UNL     1     -44.330  40.346  26.649  1.00  0.00    -0.231 NA
ATOM     49  C   UNL     1     -43.063  40.715  29.097  1.00  0.00    -0.049 A 
ATOM     50  C   UNL     1     -43.535  41.423  26.849  1.00  0.00     0.129 A 
ATOM     51  C   UNL     1     -42.895  41.635  28.066  1.00  0.00    -0.019 A 
ATOM     52  H   UNL     1     -42.563  40.880  30.048  1.00  0.00     0.063 H 
ATOM     53  H   UNL     1     -42.278  42.512  28.222  1.00  0.00     0.066 H 
BRANCH  50  54
ATOM     54  N   UNL     1     -43.384  42.351  25.805  1.00  0.00    -0.355 N 
ATOM     55  C   UNL     1     -43.246  43.769  25.987  1.00  0.00     0.027 C 
ATOM     56  C   UNL     1     -44.236  42.509  24.662  1.00  0.00     0.027 C 
ATOM     57  C   UNL     1     -43.738  43.896  24.602  1.00  0.00     0.006 C 
ATOM     58  H   UNL     1     -43.911  44.175  26.757  1.00  0.00     0.050 H 
ATOM     59  H   UNL     1     -42.212  44.066  26.181  1.00  0.00     0.050 H 
ATOM     60  H   UNL     1     -43.962  41.845  23.839  1.00  0.00     0.050 H 
ATOM     61  H   UNL     1     -45.300  42.403  24.900  1.00  0.00     0.050 H 
ATOM     62  C   UNL     1     -43.052  44.564  23.453  1.00  0.00    -0.044 C 
ATOM     63  C   UNL     1     -44.378  45.079  23.956  1.00  0.00    -0.044 C 
ATOM     64  H   UNL     1     -42.166  45.154  23.660  1.00  0.00     0.027 H 
ATOM     65  H   UNL     1     -43.034  44.053  22.499  1.00  0.00     0.027 H 
ATOM     66  H   UNL     1     -44.384  46.018  24.497  1.00  0.00     0.027 H 
ATOM     67  H   UNL     1     -45.252  44.916  23.336  1.00  0.00     0.027 H 
ENDBRANCH  50  54
ENDBRANCH  38  39
ENDBRANCH  35  38
ENDBRANCH   5  35
TORSDOF 8
ENDMDL
MODEL 4
REMARK VINA RESULT:     -10.4      2.204     12.815
REMARK SMILES Cn1ccc(-c2cn(-c3cncc(COc4ccc5ccc(N6CC7(CC7)C6)nc5c4)c3)c3ncnc(N)c23)n1
REMARK SMILES IDX 9 1 10 2 11 3 12 4 13 5 32 6 8 10 6 11 7 12 39 13 33 15
REMARK SMILES IDX 37 16 34 17 36 18 35 19 5 21 2 22 3 23 40 24 4 25 1 28 38 32
REMARK SMILES IDX 14 35 15 38 16 39 17 40 31 41 18 42 30 44 19 46 29 48 20 49
REMARK SMILES IDX 22 50 21 51 23 54 24 55 28 56 25 57 26 62 27 63
REMARK H PARENT 10 7 12 8 32 9 7 14 35 20 3 26 4 27 1 29 1 30 1 31 38 33 38 34
REMARK H PARENT 14 36 14 37 17 43 31 45 18 47 20 52 21 53 24 58 24 59 28 60
REMARK H PARENT 28 61 26 64 26 65 27 66 27 67
REMARK Flexibility Score: inf
ROOT
ATOM      1  C   UNL     1     -47.128  40.458  27.131  1.00  0.00     0.066 A 
ATOM      2  C   UNL     1     -48.403  40.979  27.322  1.00  0.00     0.051 A 
ATOM      3  N   UNL     1     -49.462  40.263  27.784  1.00  0.00    -0.262 NA
ATOM      4  C   UNL     1     -49.250  38.962  28.066  1.00  0.00     0.034 A 
ATOM      5  C   UNL     1     -48.027  38.327  27.907  1.00  0.00     0.010 A 
ATOM      6  C   UNL     1     -46.953  39.101  27.440  1.00  0.00    -0.028 A 
ATOM      7  H   UNL     1     -48.669  42.007  27.109  1.00  0.00     0.086 H 
ATOM      8  H   UNL     1     -50.124  38.432  28.434  1.00  0.00     0.084 H 
ATOM      9  H   UNL     1     -45.992  38.606  27.337  1.00  0.00     0.065 H 
ENDROOT
BRANCH   1  10
ATOM     10  N   UNL     1     -46.042  41.255  26.641  1.00  0.00    -0.299 N 
ATOM     11  C   UNL     1     -44.898  42.729  25.372  1.00  0.00     0.033 A 
ATOM     12  C   UNL     1     -46.130  42.152  25.592  1.00  0.00     0.021 A 
ATOM     13  C   UNL     1     -44.003  42.225  26.348  1.00  0.00     0.071 A 
ATOM     14  H   UNL     1     -47.052  42.333  25.060  1.00  0.00     0.083 H 
ATOM     15  C   UNL     1     -44.721  41.293  27.100  1.00  0.00     0.150 A 
ATOM     16  C   UNL     1     -42.663  42.438  26.718  1.00  0.00     0.137 A 
ATOM     17  N   UNL     1     -44.205  40.556  28.104  1.00  0.00    -0.218 NA
ATOM     18  N   UNL     1     -42.133  41.711  27.719  1.00  0.00    -0.219 NA
ATOM     19  C   UNL     1     -42.916  40.817  28.339  1.00  0.00     0.120 A 
ATOM     20  H   UNL     1     -42.447  40.243  29.133  1.00  0.00     0.106 H 
BRANCH  11  21
ATOM     21  C   UNL     1     -44.606  43.694  24.315  1.00  0.00     0.095 A 
ATOM     22  N   UNL     1     -43.629  44.653  22.708  1.00  0.00    -0.275 N 
ATOM     23  C   UNL     1     -44.664  45.484  23.023  1.00  0.00     0.025 A 
ATOM     24  N   UNL     1     -43.565  43.557  23.486  1.00  0.00    -0.173 NA
ATOM     25  C   UNL     1     -45.315  44.891  24.081  1.00  0.00    -0.016 A 
ATOM     26  H   UNL     1     -44.842  46.410  22.494  1.00  0.00     0.084 H 
ATOM     27  H   UNL     1     -46.176  45.274  24.610  1.00  0.00     0.066 H 
BRANCH  22  28
ATOM     28  C   UNL     1     -42.645  44.845  21.671  1.00  0.00     0.030 C 
ATOM     29  H   UNL     1     -43.169  45.049  20.733  1.00  0.00     0.048 H 
ATOM     30  H   UNL     1     -42.010  45.690  21.949  1.00  0.00     0.048 H 
ATOM     31  H   UNL     1     -42.040  43.940  21.572  1.00  0.00     0.048 H 
ENDBRANCH  22  28
ENDBRANCH  11  21
BRANCH  16  32
ATOM     32  N   UNL     1     -41.824  43.387  26.148  1.00  0.00    -0.383 N 
ATOM     33  H   UNL     1     -41.240  43.798  26.869  1.00  0.00     0.158 HD
ATOM     34  H   UNL     1     -42.306  44.053  25.556  1.00  0.00     0.158 HD
ENDBRANCH  16  32
ENDBRANCH   1  10
BRANCH   5  35
ATOM     35  C   UNL     1     -47.857  36.879  28.282  1.00  0.00     0.115 C 
ATOM     36  H   UNL     1     -48.062  36.747  29.351  1.00  0.00     0.076 H 
ATOM     37  H   UNL     1     -46.822  36.588  28.061  1.00  0.00     0.076 H 
BRANCH  35  38
ATOM     38  O   UNL     1     -48.774  36.090  27.523  1.00  0.00    -0.489 OA
BRANCH  38  39
ATOM     39  C   UNL     1     -48.253  35.067  26.780  1.00  0.00     0.122 A 
ATOM     40  C   UNL     1     -46.957  35.289  26.316  1.00  0.00    -0.019 A 
ATOM     41  C   UNL     1     -48.895  33.868  26.466  1.00  0.00     0.007 A 
ATOM     42  C   UNL     1     -46.312  34.324  25.546  1.00  0.00    -0.049 A 
ATOM     43  H   UNL     1     -46.449  36.221  26.554  1.00  0.00     0.066 H 
ATOM     44  C   UNL     1     -48.274  32.886  25.701  1.00  0.00     0.076 A 
ATOM     45  H   UNL     1     -49.902  33.655  26.807  1.00  0.00     0.069 H 
ATOM     46  C   UNL     1     -46.966  33.122  25.237  1.00  0.00     0.001 A 
ATOM     47  H   UNL     1     -45.303  34.515  25.192  1.00  0.00     0.063 H 
ATOM     48  N   UNL     1     -48.940  31.751  25.430  1.00  0.00    -0.231 NA
ATOM     49  C   UNL     1     -46.360  32.129  24.466  1.00  0.00    -0.049 A 
ATOM     50  C   UNL     1     -48.343  30.789  24.689  1.00  0.00     0.129 A 
ATOM     51  C   UNL     1     -47.055  30.956  24.188  1.00  0.00    -0.019 A 
ATOM     52  H   UNL     1     -45.354  32.260  24.075  1.00  0.00     0.063 H 
ATOM     53  H   UNL     1     -46.594  30.188  23.577  1.00  0.00     0.066 H 
BRANCH  50  54
ATOM     54  N   UNL     1     -49.060  29.615  24.405  1.00  0.00    -0.355 N 
ATOM     55  C   UNL     1     -48.506  28.454  23.767  1.00  0.00     0.027 C 
ATOM     56  C   UNL     1     -50.292  29.513  23.677  1.00  0.00     0.027 C 
ATOM     57  C   UNL     1     -49.890  28.125  23.379  1.00  0.00     0.006 C 
ATOM     58  H   UNL     1     -47.833  28.693  22.937  1.00  0.00     0.050 H 
ATOM     59  H   UNL     1     -48.012  27.784  24.477  1.00  0.00     0.050 H 
ATOM     60  H   UNL     1     -51.168  29.652  24.314  1.00  0.00     0.050 H 
ATOM     61  H   UNL     1     -50.339  30.183  22.812  1.00  0.00     0.050 H 
ATOM     62  C   UNL     1     -50.648  26.874  23.693  1.00  0.00    -0.044 C 
ATOM     63  C   UNL     1     -50.352  27.251  22.262  1.00  0.00    -0.044 C 
ATOM     64  H   UNL     1     -50.103  26.041  24.123  1.00  0.00     0.027 H 
ATOM     65  H   UNL     1     -51.669  26.967  24.042  1.00  0.00     0.027 H 
ATOM     66  H   UNL     1     -49.611  26.667  21.729  1.00  0.00     0.027 H 
ATOM     67  H   UNL     1     -51.176  27.592  21.648  1.00  0.00     0.027 H 
ENDBRANCH  50  54
ENDBRANCH  38  39
ENDBRANCH  35  38
ENDBRANCH   5  35
TORSDOF 8
ENDMDL
MODEL 5
REMARK VINA RESULT:     -10.2      2.128      3.239
REMARK SMILES Cn1ccc(-c2cn(-c3cncc(COc4ccc5ccc(N6CC7(CC7)C6)nc5c4)c3)c3ncnc(N)c23)n1
REMARK SMILES IDX 9 1 10 2 11 3 12 4 13 5 32 6 8 10 6 11 7 12 39 13 33 15
REMARK SMILES IDX 37 16 34 17 36 18 35 19 5 21 2 22 3 23 40 24 4 25 1 28 38 32
REMARK SMILES IDX 14 35 15 38 16 39 17 40 31 41 18 42 30 44 19 46 29 48 20 49
REMARK SMILES IDX 22 50 21 51 23 54 24 55 28 56 25 57 26 62 27 63
REMARK H PARENT 10 7 12 8 32 9 7 14 35 20 3 26 4 27 1 29 1 30 1 31 38 33 38 34
REMARK H PARENT 14 36 14 37 17 43 31 45 18 47 20 52 21 53 24 58 24 59 28 60
REMARK H PARENT 28 61 26 64 26 65 27 66 27 67
REMARK Flexibility Score: inf
ROOT
ATOM      1  C   UNL     1     -47.301  32.856  25.970  1.00  0.00     0.066 A 
ATOM      2  C   UNL     1     -46.585  32.425  27.081  1.00  0.00     0.051 A 
ATOM      3  N   UNL     1     -46.049  33.253  28.015  1.00  0.00    -0.262 NA
ATOM      4  C   UNL     1     -46.226  34.578  27.838  1.00  0.00     0.034 A 
ATOM      5  C   UNL     1     -46.912  35.129  26.767  1.00  0.00     0.010 A 
ATOM      6  C   UNL     1     -47.463  34.242  25.828  1.00  0.00    -0.028 A 
ATOM      7  H   UNL     1     -46.381  31.383  27.295  1.00  0.00     0.086 H 
ATOM      8  H   UNL     1     -45.782  35.199  28.612  1.00  0.00     0.084 H 
ATOM      9  H   UNL     1     -48.018  34.675  25.001  1.00  0.00     0.065 H 
ENDROOT
BRANCH   1  10
ATOM     10  N   UNL     1     -47.848  31.942  25.011  1.00  0.00    -0.299 N 
ATOM     11  C   UNL     1     -49.298  30.527  24.018  1.00  0.00     0.033 A 
ATOM     12  C   UNL     1     -49.105  31.371  25.090  1.00  0.00     0.021 A 
ATOM     13  C   UNL     1     -48.148  30.601  23.195  1.00  0.00     0.071 A 
ATOM     14  H   UNL     1     -49.791  31.588  25.895  1.00  0.00     0.083 H 
ATOM     15  C   UNL     1     -47.253  31.455  23.843  1.00  0.00     0.150 A 
ATOM     16  C   UNL     1     -47.732  30.067  21.962  1.00  0.00     0.137 A 
ATOM     17  N   UNL     1     -46.014  31.749  23.397  1.00  0.00    -0.218 NA
ATOM     18  N   UNL     1     -46.499  30.351  21.503  1.00  0.00    -0.219 NA
ATOM     19  C   UNL     1     -45.717  31.154  22.238  1.00  0.00     0.120 A 
ATOM     20  H   UNL     1     -44.726  31.350  21.838  1.00  0.00     0.106 H 
BRANCH  11  21
ATOM     21  C   UNL     1     -50.496  29.721  23.797  1.00  0.00     0.095 A 
ATOM     22  N   UNL     1     -51.866  28.117  23.903  1.00  0.00    -0.275 N 
ATOM     23  C   UNL     1     -52.419  28.980  23.003  1.00  0.00     0.025 A 
ATOM     24  N   UNL     1     -50.689  28.541  24.397  1.00  0.00    -0.173 NA
ATOM     25  C   UNL     1     -51.539  30.033  22.900  1.00  0.00    -0.016 A 
ATOM     26  H   UNL     1     -53.360  28.775  22.511  1.00  0.00     0.084 H 
ATOM     27  H   UNL     1     -51.637  30.901  22.263  1.00  0.00     0.066 H 
BRANCH  22  28
ATOM     28  C   UNL     1     -52.405  26.853  24.340  1.00  0.00     0.030 C 
ATOM     29  H   UNL     1     -52.798  26.978  25.353  1.00  0.00     0.048 H 
ATOM     30  H   UNL     1     -53.202  26.561  23.652  1.00  0.00     0.048 H 
ATOM     31  H   UNL     1     -51.613  26.099  24.337  1.00  0.00     0.048 H 
ENDBRANCH  22  28
ENDBRANCH  11  21
BRANCH  16  32
ATOM     32  N   UNL     1     -48.519  29.277  21.134  1.00  0.00    -0.383 N 
ATOM     33  H   UNL     1     -49.416  29.727  20.990  1.00  0.00     0.158 HD
ATOM     34  H   UNL     1     -48.568  28.307  21.423  1.00  0.00     0.158 HD
ENDBRANCH  16  32
ENDBRANCH   1  10
BRANCH   5  35
ATOM     35  C   UNL     1     -47.104  36.618  26.658  1.00  0.00     0.115 C 
ATOM     36  H   UNL     1     -48.165  36.844  26.498  1.00  0.00     0.076 H 
ATOM     37  H   UNL     1     -46.513  36.978  25.807  1.00  0.00     0.076 H 
BRANCH  35  38
ATOM     38  O   UNL     1     -46.667  37.233  27.871  1.00  0.00    -0.489 OA
BRANCH  38  39
ATOM     39  C   UNL     1     -45.892  38.355  27.759  1.00  0.00     0.122 A 
ATOM     40  C   UNL     1     -44.893  38.468  28.723  1.00  0.00    -0.019 A 
ATOM     41  C   UNL     1     -46.023  39.352  26.790  1.00  0.00     0.007 A 
ATOM     42  C   UNL     1     -44.035  39.566  28.720  1.00  0.00    -0.049 A 
ATOM     43  H   UNL     1     -44.784  37.698  29.483  1.00  0.00     0.066 H 
ATOM     44  C   UNL     1     -45.180  40.457  26.761  1.00  0.00     0.076 A 
ATOM     45  H   UNL     1     -46.787  39.302  26.021  1.00  0.00     0.069 H 
ATOM     46  C   UNL     1     -44.175  40.562  27.741  1.00  0.00     0.001 A 
ATOM     47  H   UNL     1     -43.263  39.638  29.481  1.00  0.00     0.063 H 
ATOM     48  N   UNL     1     -45.351  41.385  25.805  1.00  0.00    -0.231 NA
ATOM     49  C   UNL     1     -43.341  41.680  27.702  1.00  0.00    -0.049 A 
ATOM     50  C   UNL     1     -44.534  42.463  25.768  1.00  0.00     0.129 A 
ATOM     51  C   UNL     1     -43.525  42.638  26.710  1.00  0.00    -0.019 A 
ATOM     52  H   UNL     1     -42.553  41.817  28.438  1.00  0.00     0.063 H 
ATOM     53  H   UNL     1     -42.889  43.516  26.684  1.00  0.00     0.066 H 
BRANCH  50  54
ATOM     54  N   UNL     1     -44.738  43.429  24.769  1.00  0.00    -0.355 N 
ATOM     55  C   UNL     1     -44.241  43.332  23.425  1.00  0.00     0.027 C 
ATOM     56  C   UNL     1     -44.441  44.831  24.852  1.00  0.00     0.027 C 
ATOM     57  C   UNL     1     -44.355  44.802  23.380  1.00  0.00     0.006 C 
ATOM     58  H   UNL     1     -43.220  42.941  23.367  1.00  0.00     0.050 H 
ATOM     59  H   UNL     1     -44.906  42.758  22.775  1.00  0.00     0.050 H 
ATOM     60  H   UNL     1     -45.258  45.407  25.292  1.00  0.00     0.050 H 
ATOM     61  H   UNL     1     -43.501  45.043  25.373  1.00  0.00     0.050 H 
ATOM     62  C   UNL     1     -45.144  45.622  22.409  1.00  0.00    -0.044 C 
ATOM     63  C   UNL     1     -43.643  45.755  22.479  1.00  0.00    -0.044 C 
ATOM     64  H   UNL     1     -45.570  45.121  21.547  1.00  0.00     0.027 H 
ATOM     65  H   UNL     1     -45.745  46.435  22.795  1.00  0.00     0.027 H 
ATOM     66  H   UNL     1     -43.060  45.348  21.661  1.00  0.00     0.027 H 
ATOM     67  H   UNL     1     -43.235  46.662  22.909  1.00  0.00     0.027 H 
ENDBRANCH  50  54
ENDBRANCH  38  39
ENDBRANCH  35  38
ENDBRANCH   5  35
TORSDOF 8
ENDMDL
MODEL 6
REMARK VINA RESULT:     -10.0      2.002     12.612
REMARK SMILES Cn1ccc(-c2cn(-c3cncc(COc4ccc5ccc(N6CC7(CC7)C6)nc5c4)c3)c3ncnc(N)c23)n1
REMARK SMILES IDX 9 1 10 2 11 3 12 4 13 5 32 6 8 10 6 11 7 12 39 13 33 15
REMARK SMILES IDX 37 16 34 17 36 18 35 19 5 21 2 22 3 23 40 24 4 25 1 28 38 32
REMARK SMILES IDX 14 35 15 38 16 39 17 40 31 41 18 42 30 44 19 46 29 48 20 49
REMARK SMILES IDX 22 50 21 51 23 54 24 55 28 56 25 57 26 62 27 63
REMARK H PARENT 10 7 12 8 32 9 7 14 35 20 3 26 4 27 1 29 1 30 1 31 38 33 38 34
REMARK H PARENT 14 36 14 37 17 43 31 45 18 47 20 52 21 53 24 58 24 59 28 60
REMARK H PARENT 28 61 26 64 26 65 27 66 27 67
REMARK Flexibility Score: inf
ROOT
ATOM      1  C   UNL     1     -46.545  38.611  27.780  1.00  0.00     0.066 A 
ATOM      2  C   UNL     1     -47.925  38.751  27.676  1.00  0.00     0.051 A 
ATOM      3  N   UNL     1     -48.818  37.774  27.977  1.00  0.00    -0.262 NA
ATOM      4  C   UNL     1     -48.322  36.593  28.397  1.00  0.00     0.034 A 
ATOM      5  C   UNL     1     -46.967  36.328  28.530  1.00  0.00     0.010 A 
ATOM      6  C   UNL     1     -46.073  37.367  28.223  1.00  0.00    -0.028 A 
ATOM      7  H   UNL     1     -48.410  39.657  27.335  1.00  0.00     0.086 H 
ATOM      8  H   UNL     1     -49.075  35.843  28.627  1.00  0.00     0.084 H 
ATOM      9  H   UNL     1     -45.014  37.164  28.349  1.00  0.00     0.065 H 
ENDROOT
BRANCH   1  10
ATOM     10  N   UNL     1     -45.641  39.673  27.450  1.00  0.00    -0.299 N 
ATOM     11  C   UNL     1     -44.730  41.414  26.340  1.00  0.00     0.033 A 
ATOM     12  C   UNL     1     -45.785  40.528  26.372  1.00  0.00     0.021 A 
ATOM     13  C   UNL     1     -43.911  41.154  27.467  1.00  0.00     0.071 A 
ATOM     14  H   UNL     1     -46.618  40.464  25.688  1.00  0.00     0.083 H 
ATOM     15  C   UNL     1     -44.474  40.056  28.120  1.00  0.00     0.150 A 
ATOM     16  C   UNL     1     -42.757  41.711  28.047  1.00  0.00     0.137 A 
ATOM     17  N   UNL     1     -43.959  39.471  29.219  1.00  0.00    -0.218 NA
ATOM     18  N   UNL     1     -42.231  41.139  29.145  1.00  0.00    -0.219 NA
ATOM     19  C   UNL     1     -42.843  40.063  29.657  1.00  0.00     0.120 A 
ATOM     20  H   UNL     1     -42.380  39.624  30.536  1.00  0.00     0.106 H 
BRANCH  11  21
ATOM     21  C   UNL     1     -44.529  42.434  25.314  1.00  0.00     0.095 A 
ATOM     22  N   UNL     1     -43.585  43.634  23.855  1.00  0.00    -0.275 N 
ATOM     23  C   UNL     1     -44.836  44.164  23.975  1.00  0.00     0.025 A 
ATOM     24  N   UNL     1     -43.368  42.583  24.667  1.00  0.00    -0.173 NA
ATOM     25  C   UNL     1     -45.475  43.410  24.934  1.00  0.00    -0.016 A 
ATOM     26  H   UNL     1     -45.158  45.018  23.397  1.00  0.00     0.084 H 
ATOM     27  H   UNL     1     -46.480  43.550  25.307  1.00  0.00     0.066 H 
BRANCH  22  28
ATOM     28  C   UNL     1     -42.529  44.087  22.984  1.00  0.00     0.030 C 
ATOM     29  H   UNL     1     -42.743  45.119  22.691  1.00  0.00     0.048 H 
ATOM     30  H   UNL     1     -41.583  44.029  23.527  1.00  0.00     0.048 H 
ATOM     31  H   UNL     1     -42.490  43.448  22.097  1.00  0.00     0.048 H 
ENDBRANCH  22  28
ENDBRANCH  11  21
BRANCH  16  32
ATOM     32  N   UNL     1     -42.115  42.856  27.592  1.00  0.00    -0.383 N 
ATOM     33  H   UNL     1     -42.677  43.295  26.871  1.00  0.00     0.158 HD
ATOM     34  H   UNL     1     -41.143  42.708  27.347  1.00  0.00     0.158 HD
ENDBRANCH  16  32
ENDBRANCH   1  10
BRANCH   5  35
ATOM     35  C   UNL     1     -46.489  34.997  29.045  1.00  0.00     0.115 C 
ATOM     36  H   UNL     1     -47.347  34.335  29.214  1.00  0.00     0.076 H 
ATOM     37  H   UNL     1     -45.956  35.167  29.989  1.00  0.00     0.076 H 
BRANCH  35  38
ATOM     38  O   UNL     1     -45.620  34.408  28.076  1.00  0.00    -0.489 OA
BRANCH  38  39
ATOM     39  C   UNL     1     -46.201  33.672  27.081  1.00  0.00     0.122 A 
ATOM     40  C   UNL     1     -46.171  34.271  25.824  1.00  0.00    -0.019 A 
ATOM     41  C   UNL     1     -46.796  32.416  27.226  1.00  0.00     0.007 A 
ATOM     42  C   UNL     1     -46.730  33.624  24.724  1.00  0.00    -0.049 A 
ATOM     43  H   UNL     1     -45.712  35.249  25.701  1.00  0.00     0.066 H 
ATOM     44  C   UNL     1     -47.360  31.747  26.145  1.00  0.00     0.076 A 
ATOM     45  H   UNL     1     -46.840  31.914  28.186  1.00  0.00     0.069 H 
ATOM     46  C   UNL     1     -47.325  32.363  24.880  1.00  0.00     0.001 A 
ATOM     47  H   UNL     1     -46.699  34.108  23.751  1.00  0.00     0.063 H 
ATOM     48  N   UNL     1     -47.918  30.541  26.343  1.00  0.00    -0.231 NA
ATOM     49  C   UNL     1     -47.901  31.680  23.807  1.00  0.00    -0.049 A 
ATOM     50  C   UNL     1     -48.467  29.881  25.297  1.00  0.00     0.129 A 
ATOM     51  C   UNL     1     -48.478  30.432  24.019  1.00  0.00    -0.019 A 
ATOM     52  H   UNL     1     -47.909  32.111  22.810  1.00  0.00     0.063 H 
ATOM     53  H   UNL     1     -48.939  29.904  23.192  1.00  0.00     0.066 H 
BRANCH  50  54
ATOM     54  N   UNL     1     -49.058  28.627  25.526  1.00  0.00    -0.355 N 
ATOM     55  C   UNL     1     -48.795  27.797  26.668  1.00  0.00     0.027 C 
ATOM     56  C   UNL     1     -49.079  27.507  24.629  1.00  0.00     0.027 C 
ATOM     57  C   UNL     1     -49.247  26.670  25.831  1.00  0.00     0.006 C 
ATOM     58  H   UNL     1     -47.738  27.772  26.953  1.00  0.00     0.050 H 
ATOM     59  H   UNL     1     -49.415  28.064  27.529  1.00  0.00     0.050 H 
ATOM     60  H   UNL     1     -49.916  27.547  23.929  1.00  0.00     0.050 H 
ATOM     61  H   UNL     1     -48.136  27.369  24.090  1.00  0.00     0.050 H 
ATOM     62  C   UNL     1     -50.360  25.714  26.122  1.00  0.00    -0.044 C 
ATOM     63  C   UNL     1     -48.941  25.219  25.995  1.00  0.00    -0.044 C 
ATOM     64  H   UNL     1     -50.805  25.733  27.111  1.00  0.00     0.027 H 
ATOM     65  H   UNL     1     -51.054  25.477  25.326  1.00  0.00     0.027 H 
ATOM     66  H   UNL     1     -48.433  24.901  26.898  1.00  0.00     0.027 H 
ATOM     67  H   UNL     1     -48.682  24.645  25.113  1.00  0.00     0.027 H 
ENDBRANCH  50  54
ENDBRANCH  38  39
ENDBRANCH  35  38
ENDBRANCH   5  35
TORSDOF 8
ENDMDL
MODEL 7
REMARK VINA RESULT:     -10.0      1.878      2.324
REMARK SMILES Cn1ccc(-c2cn(-c3cncc(COc4ccc5ccc(N6CC7(CC7)C6)nc5c4)c3)c3ncnc(N)c23)n1
REMARK SMILES IDX 9 1 10 2 11 3 12 4 13 5 32 6 8 10 6 11 7 12 39 13 33 15
REMARK SMILES IDX 37 16 34 17 36 18 35 19 5 21 2 22 3 23 40 24 4 25 1 28 38 32
REMARK SMILES IDX 14 35 15 38 16 39 17 40 31 41 18 42 30 44 19 46 29 48 20 49
REMARK SMILES IDX 22 50 21 51 23 54 24 55 28 56 25 57 26 62 27 63
REMARK H PARENT 10 7 12 8 32 9 7 14 35 20 3 26 4 27 1 29 1 30 1 31 38 33 38 34
REMARK H PARENT 14 36 14 37 17 43 31 45 18 47 20 52 21 53 24 58 24 59 28 60
REMARK H PARENT 28 61 26 64 26 65 27 66 27 67
REMARK Flexibility Score: inf
ROOT
ATOM      1  C   UNL     1     -47.714  32.227  25.250  1.00  0.00     0.066 A 
ATOM      2  C   UNL     1     -46.447  32.760  25.036  1.00  0.00     0.051 A 
ATOM      3  N   UNL     1     -46.062  34.002  25.428  1.00  0.00    -0.262 NA
ATOM      4  C   UNL     1     -46.979  34.760  26.062  1.00  0.00     0.034 A 
ATOM      5  C   UNL     1     -48.276  34.345  26.324  1.00  0.00     0.010 A 
ATOM      6  C   UNL     1     -48.634  33.050  25.916  1.00  0.00    -0.028 A 
ATOM      7  H   UNL     1     -45.653  32.230  24.524  1.00  0.00     0.086 H 
ATOM      8  H   UNL     1     -46.624  35.744  26.358  1.00  0.00     0.084 H 
ATOM      9  H   UNL     1     -49.644  32.720  26.142  1.00  0.00     0.065 H 
ENDROOT
BRANCH   1  10
ATOM     10  N   UNL     1     -48.073  30.910  24.817  1.00  0.00    -0.299 N 
ATOM     11  C   UNL     1     -48.544  28.704  24.902  1.00  0.00     0.033 A 
ATOM     12  C   UNL     1     -48.215  29.814  25.649  1.00  0.00     0.021 A 
ATOM     13  C   UNL     1     -48.670  29.113  23.551  1.00  0.00     0.071 A 
ATOM     14  H   UNL     1     -48.075  29.876  26.718  1.00  0.00     0.083 H 
ATOM     15  C   UNL     1     -48.344  30.470  23.517  1.00  0.00     0.150 A 
ATOM     16  C   UNL     1     -49.034  28.519  22.329  1.00  0.00     0.137 A 
ATOM     17  N   UNL     1     -48.301  31.220  22.398  1.00  0.00    -0.218 NA
ATOM     18  N   UNL     1     -48.997  29.255  21.203  1.00  0.00    -0.219 NA
ATOM     19  C   UNL     1     -48.629  30.540  21.295  1.00  0.00     0.120 A 
ATOM     20  H   UNL     1     -48.601  31.095  20.362  1.00  0.00     0.106 H 
BRANCH  11  21
ATOM     21  C   UNL     1     -48.731  27.361  25.443  1.00  0.00     0.095 A 
ATOM     22  N   UNL     1     -48.292  25.452  26.232  1.00  0.00    -0.275 N 
ATOM     23  C   UNL     1     -49.646  25.449  26.065  1.00  0.00     0.025 A 
ATOM     24  N   UNL     1     -47.707  26.603  25.853  1.00  0.00    -0.173 NA
ATOM     25  C   UNL     1     -49.963  26.680  25.537  1.00  0.00    -0.016 A 
ATOM     26  H   UNL     1     -50.256  24.593  26.315  1.00  0.00     0.084 H 
ATOM     27  H   UNL     1     -50.945  27.032  25.254  1.00  0.00     0.066 H 
BRANCH  22  28
ATOM     28  C   UNL     1     -47.478  24.378  26.747  1.00  0.00     0.030 C 
ATOM     29  H   UNL     1     -46.650  24.211  26.052  1.00  0.00     0.048 H 
ATOM     30  H   UNL     1     -47.102  24.670  27.730  1.00  0.00     0.048 H 
ATOM     31  H   UNL     1     -48.083  23.471  26.833  1.00  0.00     0.048 H 
ENDBRANCH  22  28
ENDBRANCH  11  21
BRANCH  16  32
ATOM     32  N   UNL     1     -49.477  27.210  22.185  1.00  0.00    -0.383 N 
ATOM     33  H   UNL     1     -49.523  26.766  23.096  1.00  0.00     0.158 HD
ATOM     34  H   UNL     1     -48.975  26.687  21.477  1.00  0.00     0.158 HD
ENDBRANCH  16  32
ENDBRANCH   1  10
BRANCH   5  35
ATOM     35  C   UNL     1     -49.232  35.233  27.074  1.00  0.00     0.115 C 
ATOM     36  H   UNL     1     -49.966  34.619  27.610  1.00  0.00     0.076 H 
ATOM     37  H   UNL     1     -49.744  35.875  26.346  1.00  0.00     0.076 H 
BRANCH  35  38
ATOM     38  O   UNL     1     -48.499  36.021  28.012  1.00  0.00    -0.489 OA
BRANCH  38  39
ATOM     39  C   UNL     1     -48.504  37.376  27.829  1.00  0.00     0.122 A 
ATOM     40  C   UNL     1     -49.691  38.007  28.196  1.00  0.00    -0.019 A 
ATOM     41  C   UNL     1     -47.451  38.143  27.325  1.00  0.00     0.007 A 
ATOM     42  C   UNL     1     -49.826  39.386  28.059  1.00  0.00    -0.049 A 
ATOM     43  H   UNL     1     -50.517  37.418  28.589  1.00  0.00     0.066 H 
ATOM     44  C   UNL     1     -47.557  39.522  27.179  1.00  0.00     0.076 A 
ATOM     45  H   UNL     1     -46.510  37.693  27.028  1.00  0.00     0.069 H 
ATOM     46  C   UNL     1     -48.761  40.147  27.552  1.00  0.00     0.001 A 
ATOM     47  H   UNL     1     -50.760  39.860  28.349  1.00  0.00     0.063 H 
ATOM     48  N   UNL     1     -46.511  40.209  26.690  1.00  0.00    -0.231 NA
ATOM     49  C   UNL     1     -48.853  41.531  27.394  1.00  0.00    -0.049 A 
ATOM     50  C   UNL     1     -46.604  41.552  26.547  1.00  0.00     0.129 A 
ATOM     51  C   UNL     1     -47.767  42.236  26.886  1.00  0.00    -0.019 A 
ATOM     52  H   UNL     1     -49.762  42.065  27.658  1.00  0.00     0.063 H 
ATOM     53  H   UNL     1     -47.838  43.309  26.747  1.00  0.00     0.066 H 
BRANCH  50  54
ATOM     54  N   UNL     1     -45.505  42.251  26.020  1.00  0.00    -0.355 N 
ATOM     55  C   UNL     1     -45.603  43.390  25.151  1.00  0.00     0.027 C 
ATOM     56  C   UNL     1     -44.403  41.698  25.288  1.00  0.00     0.027 C 
ATOM     57  C   UNL     1     -44.241  43.042  24.702  1.00  0.00     0.006 C 
ATOM     58  H   UNL     1     -46.384  43.290  24.391  1.00  0.00     0.050 H 
ATOM     59  H   UNL     1     -45.725  44.326  25.703  1.00  0.00     0.050 H 
ATOM     60  H   UNL     1     -43.603  41.339  25.940  1.00  0.00     0.050 H 
ATOM     61  H   UNL     1     -44.702  40.913  24.585  1.00  0.00     0.050 H 
ATOM     62  C   UNL     1     -43.023  43.909  24.743  1.00  0.00    -0.044 C 
ATOM     63  C   UNL     1     -43.567  43.416  23.425  1.00  0.00    -0.044 C 
ATOM     64  H   UNL     1     -43.150  44.957  24.986  1.00  0.00     0.027 H 
ATOM     65  H   UNL     1     -42.098  43.476  25.104  1.00  0.00     0.027 H 
ATOM     66  H   UNL     1     -44.057  44.137  22.780  1.00  0.00     0.027 H 
ATOM     67  H   UNL     1     -43.005  42.656  22.897  1.00  0.00     0.027 H 
ENDBRANCH  50  54
ENDBRANCH  38  39
ENDBRANCH  35  38
ENDBRANCH   5  35
TORSDOF 8
ENDMDL
