MODEL 1
REMARK VINA RESULT:     -10.2      0.000      0.000
REMARK SMILES Cn1ccc(-c2cn(-c3cncc(COc4cc(F)ccc4C(=O)NC4CCOCC4)c3)c3ncnc(N)c23)n1
REMARK SMILES IDX 14 1 13 4 9 5 10 6 32 7 11 8 12 11 8 13 6 14 7 15 39 16
REMARK SMILES IDX 33 18 37 19 34 20 36 21 35 22 5 24 2 25 3 26 40 27 4 28 1 31
REMARK SMILES IDX 38 35 15 38 16 39 17 40 22 41 18 42 21 44 19 45 20 46 23 49
REMARK SMILES IDX 24 50 25 51 26 53 27 54 31 55 28 57 30 60 29 63
REMARK H PARENT 14 2 14 3 10 9 32 10 12 12 7 17 35 23 3 29 4 30 1 32 1 33 1 34
REMARK H PARENT 38 36 38 37 17 43 21 47 20 48 25 52 26 56 27 58 27 59 31 61
REMARK H PARENT 31 62 28 64 28 65 30 66 30 67
REMARK Flexibility Score: inf
ROOT
ATOM      1  C   UNL     1     -45.803  34.557  27.809  1.00  0.00     0.115 C 
ATOM      2  H   UNL     1     -46.337  33.791  28.385  1.00  0.00     0.076 H 
ATOM      3  H   UNL     1     -44.776  34.213  27.630  1.00  0.00     0.076 H 
ENDROOT
BRANCH   1   4
ATOM      4  C   UNL     1     -45.785  35.844  28.584  1.00  0.00     0.010 A 
ATOM      5  C   UNL     1     -45.253  38.214  28.753  1.00  0.00     0.066 A 
ATOM      6  C   UNL     1     -45.670  38.130  30.079  1.00  0.00     0.051 A 
ATOM      7  C   UNL     1     -45.329  37.037  28.001  1.00  0.00    -0.028 A 
ATOM      8  N   UNL     1     -46.136  37.001  30.670  1.00  0.00    -0.262 NA
ATOM      9  H   UNL     1     -45.639  38.968  30.767  1.00  0.00     0.086 H 
ATOM     10  H   UNL     1     -45.033  36.998  26.959  1.00  0.00     0.065 H 
ATOM     11  C   UNL     1     -46.174  35.885  29.915  1.00  0.00     0.034 A 
ATOM     12  H   UNL     1     -46.525  34.998  30.435  1.00  0.00     0.084 H 
BRANCH   5  13
ATOM     13  N   UNL     1     -44.758  39.445  28.211  1.00  0.00    -0.299 N 
ATOM     14  C   UNL     1     -44.592  41.265  26.878  1.00  0.00     0.033 A 
ATOM     15  C   UNL     1     -45.312  40.117  27.133  1.00  0.00     0.021 A 
ATOM     16  C   UNL     1     -43.523  41.315  27.816  1.00  0.00     0.071 A 
ATOM     17  H   UNL     1     -46.187  39.746  26.623  1.00  0.00     0.083 H 
ATOM     18  C   UNL     1     -43.659  40.196  28.639  1.00  0.00     0.150 A 
ATOM     19  C   UNL     1     -42.440  42.172  28.090  1.00  0.00     0.137 A 
ATOM     20  N   UNL     1     -42.856  39.909  29.687  1.00  0.00    -0.218 NA
ATOM     21  N   UNL     1     -41.638  41.908  29.139  1.00  0.00    -0.219 NA
ATOM     22  C   UNL     1     -41.883  40.811  29.864  1.00  0.00     0.120 A 
ATOM     23  H   UNL     1     -41.209  40.631  30.695  1.00  0.00     0.106 H 
BRANCH  14  24
ATOM     24  C   UNL     1     -44.896  42.254  25.837  1.00  0.00     0.095 A 
ATOM     25  N   UNL     1     -44.755  43.463  24.106  1.00  0.00    -0.275 N 
ATOM     26  C   UNL     1     -45.905  43.872  24.712  1.00  0.00     0.025 A 
ATOM     27  N   UNL     1     -44.117  42.481  24.771  1.00  0.00    -0.173 NA
ATOM     28  C   UNL     1     -46.025  43.104  25.847  1.00  0.00    -0.016 A 
ATOM     29  H   UNL     1     -46.528  44.652  24.299  1.00  0.00     0.084 H 
ATOM     30  H   UNL     1     -46.822  43.153  26.575  1.00  0.00     0.066 H 
BRANCH  25  31
ATOM     31  C   UNL     1     -44.194  43.969  22.877  1.00  0.00     0.030 C 
ATOM     32  H   UNL     1     -43.105  43.875  22.907  1.00  0.00     0.048 H 
ATOM     33  H   UNL     1     -44.597  43.383  22.048  1.00  0.00     0.048 H 
ATOM     34  H   UNL     1     -44.475  45.020  22.778  1.00  0.00     0.048 H 
ENDBRANCH  25  31
ENDBRANCH  14  24
BRANCH  19  35
ATOM     35  N   UNL     1     -42.129  43.299  27.346  1.00  0.00    -0.383 N 
ATOM     36  H   UNL     1     -42.717  44.102  27.586  1.00  0.00     0.158 HD
ATOM     37  H   UNL     1     -41.132  43.460  27.312  1.00  0.00     0.158 HD
ENDBRANCH  19  35
ENDBRANCH   5  13
ENDBRANCH   1   4
BRANCH   1  38
ATOM     38  O   UNL     1     -46.499  34.810  26.581  1.00  0.00    -0.488 OA
BRANCH  38  39
ATOM     39  C   UNL     1     -47.865  34.858  26.695  1.00  0.00     0.135 A 
ATOM     40  C   UNL     1     -48.519  36.025  27.104  1.00  0.00     0.017 A 
ATOM     41  C   UNL     1     -48.616  33.718  26.352  1.00  0.00     0.082 A 
ATOM     42  C   UNL     1     -49.906  36.036  27.214  1.00  0.00     0.126 A 
ATOM     43  H   UNL     1     -47.978  36.938  27.328  1.00  0.00     0.069 H 
ATOM     44  C   UNL     1     -50.015  33.749  26.486  1.00  0.00    -0.043 A 
ATOM     45  F   UNL     1     -50.522  37.156  27.614  1.00  0.00    -0.207 F 
ATOM     46  C   UNL     1     -50.660  34.909  26.918  1.00  0.00    -0.025 A 
ATOM     47  H   UNL     1     -50.607  32.867  26.245  1.00  0.00     0.063 H 
ATOM     48  H   UNL     1     -51.741  34.939  27.016  1.00  0.00     0.065 H 
BRANCH  41  49
ATOM     49  C   UNL     1     -48.015  32.435  25.873  1.00  0.00     0.255 C 
ATOM     50  O   UNL     1     -47.939  31.477  26.636  1.00  0.00    -0.269 OA
ATOM     51  N   UNL     1     -47.596  32.393  24.561  1.00  0.00    -0.349 N 
ATOM     52  H   UNL     1     -47.537  33.282  24.072  1.00  0.00     0.164 HD
BRANCH  51  53
ATOM     53  C   UNL     1     -46.827  31.272  24.029  1.00  0.00     0.033 C 
ATOM     54  C   UNL     1     -47.741  30.085  23.704  1.00  0.00    -0.009 C 
ATOM     55  C   UNL     1     -46.017  31.723  22.808  1.00  0.00    -0.009 C 
ATOM     56  H   UNL     1     -46.133  30.949  24.814  1.00  0.00     0.053 H 
ATOM     57  C   UNL     1     -48.207  30.148  22.258  1.00  0.00     0.049 C 
ATOM     58  H   UNL     1     -47.170  29.158  23.843  1.00  0.00     0.031 H 
ATOM     59  H   UNL     1     -48.598  30.043  24.385  1.00  0.00     0.031 H 
ATOM     60  C   UNL     1     -45.877  30.591  21.807  1.00  0.00     0.049 C 
ATOM     61  H   UNL     1     -45.031  32.085  23.124  1.00  0.00     0.031 H 
ATOM     62  H   UNL     1     -46.520  32.563  22.316  1.00  0.00     0.031 H 
ATOM     63  O   UNL     1     -47.139  30.143  21.310  1.00  0.00    -0.381 OA
ATOM     64  H   UNL     1     -48.853  29.294  22.030  1.00  0.00     0.057 H 
ATOM     65  H   UNL     1     -48.800  31.051  22.098  1.00  0.00     0.057 H 
ATOM     66  H   UNL     1     -45.354  29.736  22.250  1.00  0.00     0.057 H 
ATOM     67  H   UNL     1     -45.285  30.919  20.947  1.00  0.00     0.057 H 
ENDBRANCH  51  53
ENDBRANCH  41  49
ENDBRANCH  38  39
ENDBRANCH   1  38
TORSDOF 9
ENDMDL
MODEL 2
REMARK VINA RESULT:      -9.9      2.978      4.457
REMARK SMILES Cn1ccc(-c2cn(-c3cncc(COc4cc(F)ccc4C(=O)NC4CCOCC4)c3)c3ncnc(N)c23)n1
REMARK SMILES IDX 14 1 13 4 9 5 10 6 32 7 11 8 12 11 8 13 6 14 7 15 39 16
REMARK SMILES IDX 33 18 37 19 34 20 36 21 35 22 5 24 2 25 3 26 40 27 4 28 1 31
REMARK SMILES IDX 38 35 15 38 16 39 17 40 22 41 18 42 21 44 19 45 20 46 23 49
REMARK SMILES IDX 24 50 25 51 26 53 27 54 31 55 28 57 30 60 29 63
REMARK H PARENT 14 2 14 3 10 9 32 10 12 12 7 17 35 23 3 29 4 30 1 32 1 33 1 34
REMARK H PARENT 38 36 38 37 17 43 21 47 20 48 25 52 26 56 27 58 27 59 31 61
REMARK H PARENT 31 62 28 64 28 65 30 66 30 67
REMARK Flexibility Score: inf
ROOT
ATOM      1  C   UNL     1     -46.583  33.124  25.786  1.00  0.00     0.115 C 
ATOM      2  H   UNL     1     -46.318  32.460  26.618  1.00  0.00     0.076 H 
ATOM      3  H   UNL     1     -45.677  33.341  25.205  1.00  0.00     0.076 H 
ENDROOT
BRANCH   1   4
ATOM      4  C   UNL     1     -47.161  34.400  26.327  1.00  0.00     0.010 A 
ATOM      5  C   UNL     1     -46.907  36.716  27.034  1.00  0.00     0.066 A 
ATOM      6  C   UNL     1     -48.242  36.659  27.424  1.00  0.00     0.051 A 
ATOM      7  C   UNL     1     -46.374  35.554  26.466  1.00  0.00    -0.028 A 
ATOM      8  N   UNL     1     -49.040  35.569  27.287  1.00  0.00    -0.262 NA
ATOM      9  H   UNL     1     -48.760  37.487  27.895  1.00  0.00     0.086 H 
ATOM     10  H   UNL     1     -45.347  35.497  26.126  1.00  0.00     0.065 H 
ATOM     11  C   UNL     1     -48.480  34.466  26.753  1.00  0.00     0.034 A 
ATOM     12  H   UNL     1     -49.145  33.607  26.688  1.00  0.00     0.084 H 
BRANCH   5  13
ATOM     13  N   UNL     1     -46.130  37.905  27.231  1.00  0.00    -0.299 N 
ATOM     14  C   UNL     1     -45.251  39.954  26.855  1.00  0.00     0.033 A 
ATOM     15  C   UNL     1     -46.095  38.982  26.361  1.00  0.00     0.021 A 
ATOM     16  C   UNL     1     -44.708  39.467  28.076  1.00  0.00     0.071 A 
ATOM     17  H   UNL     1     -46.679  38.998  25.454  1.00  0.00     0.083 H 
ATOM     18  C   UNL     1     -45.280  38.213  28.298  1.00  0.00     0.150 A 
ATOM     19  C   UNL     1     -43.796  39.925  29.047  1.00  0.00     0.137 A 
ATOM     20  N   UNL     1     -45.049  37.442  29.383  1.00  0.00    -0.218 NA
ATOM     21  N   UNL     1     -43.566  39.175  30.141  1.00  0.00    -0.219 NA
ATOM     22  C   UNL     1     -44.190  37.996  30.246  1.00  0.00     0.120 A 
ATOM     23  H   UNL     1     -43.970  37.421  31.139  1.00  0.00     0.106 H 
BRANCH  14  24
ATOM     24  C   UNL     1     -44.985  41.256  26.231  1.00  0.00     0.095 A 
ATOM     25  N   UNL     1     -43.980  42.921  25.396  1.00  0.00    -0.275 N 
ATOM     26  C   UNL     1     -45.295  43.275  25.376  1.00  0.00     0.025 A 
ATOM     27  N   UNL     1     -43.760  41.697  25.915  1.00  0.00    -0.173 NA
ATOM     28  C   UNL     1     -45.979  42.211  25.917  1.00  0.00    -0.016 A 
ATOM     29  H   UNL     1     -45.631  44.226  24.989  1.00  0.00     0.084 H 
ATOM     30  H   UNL     1     -47.048  42.138  26.059  1.00  0.00     0.066 H 
BRANCH  25  31
ATOM     31  C   UNL     1     -42.862  43.707  24.932  1.00  0.00     0.030 C 
ATOM     32  H   UNL     1     -43.035  44.760  25.168  1.00  0.00     0.048 H 
ATOM     33  H   UNL     1     -41.960  43.354  25.437  1.00  0.00     0.048 H 
ATOM     34  H   UNL     1     -42.775  43.576  23.851  1.00  0.00     0.048 H 
ENDBRANCH  25  31
ENDBRANCH  14  24
BRANCH  19  35
ATOM     35  N   UNL     1     -43.102  41.122  28.963  1.00  0.00    -0.383 N 
ATOM     36  H   UNL     1     -42.747  41.303  28.020  1.00  0.00     0.158 HD
ATOM     37  H   UNL     1     -43.602  41.875  29.412  1.00  0.00     0.158 HD
ENDBRANCH  19  35
ENDBRANCH   5  13
ENDBRANCH   1   4
BRANCH   1  38
ATOM     38  O   UNL     1     -47.595  32.506  24.979  1.00  0.00    -0.488 OA
BRANCH  38  39
ATOM     39  C   UNL     1     -47.116  31.747  23.942  1.00  0.00     0.135 A 
ATOM     40  C   UNL     1     -46.404  32.325  22.885  1.00  0.00     0.017 A 
ATOM     41  C   UNL     1     -47.315  30.353  23.972  1.00  0.00     0.082 A 
ATOM     42  C   UNL     1     -45.938  31.524  21.847  1.00  0.00     0.126 A 
ATOM     43  H   UNL     1     -46.187  33.387  22.853  1.00  0.00     0.069 H 
ATOM     44  C   UNL     1     -46.848  29.568  22.903  1.00  0.00    -0.043 A 
ATOM     45  F   UNL     1     -45.264  32.089  20.837  1.00  0.00    -0.207 F 
ATOM     46  C   UNL     1     -46.160  30.154  21.841  1.00  0.00    -0.025 A 
ATOM     47  H   UNL     1     -47.015  28.492  22.903  1.00  0.00     0.063 H 
ATOM     48  H   UNL     1     -45.791  29.550  21.017  1.00  0.00     0.065 H 
BRANCH  41  49
ATOM     49  C   UNL     1     -48.033  29.636  25.070  1.00  0.00     0.255 C 
ATOM     50  O   UNL     1     -48.760  30.266  25.834  1.00  0.00    -0.269 OA
ATOM     51  N   UNL     1     -47.855  28.272  25.147  1.00  0.00    -0.349 N 
ATOM     52  H   UNL     1     -47.102  27.879  24.589  1.00  0.00     0.164 HD
BRANCH  51  53
ATOM     53  C   UNL     1     -48.346  27.489  26.277  1.00  0.00     0.033 C 
ATOM     54  C   UNL     1     -49.816  27.105  26.082  1.00  0.00    -0.009 C 
ATOM     55  C   UNL     1     -47.455  26.259  26.490  1.00  0.00    -0.009 C 
ATOM     56  H   UNL     1     -48.286  28.127  27.168  1.00  0.00     0.053 H 
ATOM     57  C   UNL     1     -49.931  25.753  25.397  1.00  0.00     0.049 C 
ATOM     58  H   UNL     1     -50.291  27.034  27.068  1.00  0.00     0.031 H 
ATOM     59  H   UNL     1     -50.357  27.872  25.516  1.00  0.00     0.031 H 
ATOM     60  C   UNL     1     -48.268  25.091  27.018  1.00  0.00     0.049 C 
ATOM     61  H   UNL     1     -46.636  26.503  27.176  1.00  0.00     0.031 H 
ATOM     62  H   UNL     1     -46.995  25.963  25.540  1.00  0.00     0.031 H 
ATOM     63  O   UNL     1     -49.299  24.692  26.113  1.00  0.00    -0.381 OA
ATOM     64  H   UNL     1     -50.983  25.482  25.267  1.00  0.00     0.057 H 
ATOM     65  H   UNL     1     -49.486  25.803  24.400  1.00  0.00     0.057 H 
ATOM     66  H   UNL     1     -48.727  25.335  27.982  1.00  0.00     0.057 H 
ATOM     67  H   UNL     1     -47.621  24.224  27.180  1.00  0.00     0.057 H 
ENDBRANCH  51  53
ENDBRANCH  41  49
ENDBRANCH  38  39
ENDBRANCH   1  38
TORSDOF 9
ENDMDL
MODEL 3
REMARK VINA RESULT:      -9.5      3.200      6.015
REMARK SMILES Cn1ccc(-c2cn(-c3cncc(COc4cc(F)ccc4C(=O)NC4CCOCC4)c3)c3ncnc(N)c23)n1
REMARK SMILES IDX 14 1 13 4 9 5 10 6 32 7 11 8 12 11 8 13 6 14 7 15 39 16
REMARK SMILES IDX 33 18 37 19 34 20 36 21 35 22 5 24 2 25 3 26 40 27 4 28 1 31
REMARK SMILES IDX 38 35 15 38 16 39 17 40 22 41 18 42 21 44 19 45 20 46 23 49
REMARK SMILES IDX 24 50 25 51 26 53 27 54 31 55 28 57 30 60 29 63
REMARK H PARENT 14 2 14 3 10 9 32 10 12 12 7 17 35 23 3 29 4 30 1 32 1 33 1 34
REMARK H PARENT 38 36 38 37 17 43 21 47 20 48 25 52 26 56 27 58 27 59 31 61
REMARK H PARENT 31 62 28 64 28 65 30 66 30 67
REMARK Flexibility Score: inf
ROOT
ATOM      1  C   UNL     1     -49.986  32.140  25.071  1.00  0.00     0.115 C 
ATOM      2  H   UNL     1     -50.144  32.749  24.173  1.00  0.00     0.076 H 
ATOM      3  H   UNL     1     -50.900  32.163  25.679  1.00  0.00     0.076 H 
ENDROOT
BRANCH   1   4
ATOM      4  C   UNL     1     -48.833  32.695  25.857  1.00  0.00     0.010 A 
ATOM      5  C   UNL     1     -47.652  34.575  26.854  1.00  0.00     0.066 A 
ATOM      6  C   UNL     1     -46.653  33.666  27.191  1.00  0.00     0.051 A 
ATOM      7  C   UNL     1     -48.764  34.058  26.181  1.00  0.00    -0.028 A 
ATOM      8  N   UNL     1     -46.695  32.338  26.913  1.00  0.00    -0.262 NA
ATOM      9  H   UNL     1     -45.736  33.949  27.695  1.00  0.00     0.086 H 
ATOM     10  H   UNL     1     -49.597  34.683  25.879  1.00  0.00     0.065 H 
ATOM     11  C   UNL     1     -47.775  31.886  26.246  1.00  0.00     0.034 A 
ATOM     12  H   UNL     1     -47.754  30.823  26.018  1.00  0.00     0.084 H 
BRANCH   5  13
ATOM     13  N   UNL     1     -47.521  35.968  27.172  1.00  0.00    -0.299 N 
ATOM     14  C   UNL     1     -46.570  37.996  27.481  1.00  0.00     0.033 A 
ATOM     15  C   UNL     1     -46.338  36.687  27.115  1.00  0.00     0.021 A 
ATOM     16  C   UNL     1     -47.950  38.111  27.806  1.00  0.00     0.071 A 
ATOM     17  H   UNL     1     -45.411  36.230  26.808  1.00  0.00     0.083 H 
ATOM     18  C   UNL     1     -48.519  36.854  27.588  1.00  0.00     0.150 A 
ATOM     19  C   UNL     1     -48.815  39.124  28.261  1.00  0.00     0.137 A 
ATOM     20  N   UNL     1     -49.829  36.565  27.745  1.00  0.00    -0.218 NA
ATOM     21  N   UNL     1     -50.125  38.857  28.409  1.00  0.00    -0.219 NA
ATOM     22  C   UNL     1     -50.553  37.615  28.150  1.00  0.00     0.120 A 
ATOM     23  H   UNL     1     -51.614  37.440  28.290  1.00  0.00     0.106 H 
BRANCH  14  24
ATOM     24  C   UNL     1     -45.568  39.068  27.507  1.00  0.00     0.095 A 
ATOM     25  N   UNL     1     -43.980  40.326  28.121  1.00  0.00    -0.275 N 
ATOM     26  C   UNL     1     -44.408  40.870  26.948  1.00  0.00     0.025 A 
ATOM     27  N   UNL     1     -44.670  39.229  28.488  1.00  0.00    -0.173 NA
ATOM     28  C   UNL     1     -45.447  40.075  26.522  1.00  0.00    -0.016 A 
ATOM     29  H   UNL     1     -43.954  41.753  26.522  1.00  0.00     0.084 H 
ATOM     30  H   UNL     1     -46.030  40.206  25.621  1.00  0.00     0.066 H 
BRANCH  25  31
ATOM     31  C   UNL     1     -42.905  40.802  28.957  1.00  0.00     0.030 C 
ATOM     32  H   UNL     1     -43.321  41.318  29.827  1.00  0.00     0.048 H 
ATOM     33  H   UNL     1     -42.314  39.942  29.281  1.00  0.00     0.048 H 
ATOM     34  H   UNL     1     -42.293  41.492  28.372  1.00  0.00     0.048 H 
ENDBRANCH  25  31
ENDBRANCH  14  24
BRANCH  19  35
ATOM     35  N   UNL     1     -48.410  40.413  28.573  1.00  0.00    -0.383 N 
ATOM     36  H   UNL     1     -47.483  40.635  28.198  1.00  0.00     0.158 HD
ATOM     37  H   UNL     1     -49.143  41.086  28.399  1.00  0.00     0.158 HD
ENDBRANCH  19  35
ENDBRANCH   5  13
ENDBRANCH   1   4
BRANCH   1  38
ATOM     38  O   UNL     1     -49.638  30.802  24.691  1.00  0.00    -0.488 OA
BRANCH  38  39
ATOM     39  C   UNL     1     -49.482  30.612  23.341  1.00  0.00     0.135 A 
ATOM     40  C   UNL     1     -50.272  31.300  22.414  1.00  0.00     0.017 A 
ATOM     41  C   UNL     1     -48.476  29.735  22.890  1.00  0.00     0.082 A 
ATOM     42  C   UNL     1     -50.089  31.078  21.053  1.00  0.00     0.126 A 
ATOM     43  H   UNL     1     -51.022  32.021  22.722  1.00  0.00     0.069 H 
ATOM     44  C   UNL     1     -48.322  29.517  21.510  1.00  0.00    -0.043 A 
ATOM     45  F   UNL     1     -50.856  31.737  20.174  1.00  0.00    -0.207 F 
ATOM     46  C   UNL     1     -49.130  30.188  20.591  1.00  0.00    -0.025 A 
ATOM     47  H   UNL     1     -47.563  28.825  21.148  1.00  0.00     0.063 H 
ATOM     48  H   UNL     1     -49.009  30.027  19.524  1.00  0.00     0.065 H 
BRANCH  41  49
ATOM     49  C   UNL     1     -47.560  28.979  23.798  1.00  0.00     0.255 C 
ATOM     50  O   UNL     1     -46.368  28.885  23.517  1.00  0.00    -0.269 OA
ATOM     51  N   UNL     1     -48.114  28.441  24.939  1.00  0.00    -0.349 N 
ATOM     52  H   UNL     1     -49.129  28.421  24.987  1.00  0.00     0.164 HD
BRANCH  51  53
ATOM     53  C   UNL     1     -47.372  27.530  25.805  1.00  0.00     0.033 C 
ATOM     54  C   UNL     1     -48.237  27.062  26.980  1.00  0.00    -0.009 C 
ATOM     55  C   UNL     1     -46.831  26.352  24.985  1.00  0.00    -0.009 C 
ATOM     56  H   UNL     1     -46.525  28.089  26.220  1.00  0.00     0.053 H 
ATOM     57  C   UNL     1     -48.959  25.770  26.632  1.00  0.00     0.049 C 
ATOM     58  H   UNL     1     -47.583  26.871  27.840  1.00  0.00     0.031 H 
ATOM     59  H   UNL     1     -48.952  27.835  27.282  1.00  0.00     0.031 H 
ATOM     60  C   UNL     1     -46.789  25.087  25.824  1.00  0.00     0.049 C 
ATOM     61  H   UNL     1     -45.835  26.591  24.595  1.00  0.00     0.031 H 
ATOM     62  H   UNL     1     -47.477  26.173  24.118  1.00  0.00     0.031 H 
ATOM     63  O   UNL     1     -48.083  24.697  26.287  1.00  0.00    -0.381 OA
ATOM     64  H   UNL     1     -49.570  25.437  27.477  1.00  0.00     0.057 H 
ATOM     65  H   UNL     1     -49.638  25.938  25.792  1.00  0.00     0.057 H 
ATOM     66  H   UNL     1     -46.132  25.212  26.693  1.00  0.00     0.057 H 
ATOM     67  H   UNL     1     -46.388  24.257  25.235  1.00  0.00     0.057 H 
ENDBRANCH  51  53
ENDBRANCH  41  49
ENDBRANCH  38  39
ENDBRANCH   1  38
TORSDOF 9
ENDMDL
MODEL 4
REMARK VINA RESULT:      -9.2      3.067     10.752
REMARK SMILES Cn1ccc(-c2cn(-c3cncc(COc4cc(F)ccc4C(=O)NC4CCOCC4)c3)c3ncnc(N)c23)n1
REMARK SMILES IDX 14 1 13 4 9 5 10 6 32 7 11 8 12 11 8 13 6 14 7 15 39 16
REMARK SMILES IDX 33 18 37 19 34 20 36 21 35 22 5 24 2 25 3 26 40 27 4 28 1 31
REMARK SMILES IDX 38 35 15 38 16 39 17 40 22 41 18 42 21 44 19 45 20 46 23 49
REMARK SMILES IDX 24 50 25 51 26 53 27 54 31 55 28 57 30 60 29 63
REMARK H PARENT 14 2 14 3 10 9 32 10 12 12 7 17 35 23 3 29 4 30 1 32 1 33 1 34
REMARK H PARENT 38 36 38 37 17 43 21 47 20 48 25 52 26 56 27 58 27 59 31 61
REMARK H PARENT 31 62 28 64 28 65 30 66 30 67
REMARK Flexibility Score: inf
ROOT
ATOM      1  C   UNL     1     -48.865  36.488  27.689  1.00  0.00     0.115 C 
ATOM      2  H   UNL     1     -49.688  36.196  28.353  1.00  0.00     0.076 H 
ATOM      3  H   UNL     1     -49.284  36.807  26.726  1.00  0.00     0.076 H 
ENDROOT
BRANCH   1   4
ATOM      4  C   UNL     1     -47.945  35.319  27.485  1.00  0.00     0.010 A 
ATOM      5  C   UNL     1     -47.436  33.171  26.458  1.00  0.00     0.066 A 
ATOM      6  C   UNL     1     -46.285  33.160  27.241  1.00  0.00     0.051 A 
ATOM      7  C   UNL     1     -48.268  34.288  26.589  1.00  0.00    -0.028 A 
ATOM      8  N   UNL     1     -45.930  34.147  28.102  1.00  0.00    -0.262 NA
ATOM      9  H   UNL     1     -45.574  32.341  27.243  1.00  0.00     0.086 H 
ATOM     10  H   UNL     1     -49.184  34.394  26.020  1.00  0.00     0.065 H 
ATOM     11  C   UNL     1     -46.770  35.195  28.212  1.00  0.00     0.034 A 
ATOM     12  H   UNL     1     -46.463  35.948  28.934  1.00  0.00     0.084 H 
BRANCH   5  13
ATOM     13  N   UNL     1     -47.745  32.077  25.584  1.00  0.00    -0.299 N 
ATOM     14  C   UNL     1     -48.732  30.202  24.794  1.00  0.00     0.033 A 
ATOM     15  C   UNL     1     -48.688  31.096  25.843  1.00  0.00     0.021 A 
ATOM     16  C   UNL     1     -47.762  30.616  23.839  1.00  0.00     0.071 A 
ATOM     17  H   UNL     1     -49.277  31.100  26.747  1.00  0.00     0.083 H 
ATOM     18  C   UNL     1     -47.182  31.784  24.337  1.00  0.00     0.150 A 
ATOM     19  C   UNL     1     -47.287  30.157  22.596  1.00  0.00     0.137 A 
ATOM     20  N   UNL     1     -46.240  32.510  23.696  1.00  0.00    -0.218 NA
ATOM     21  N   UNL     1     -46.359  30.876  21.938  1.00  0.00    -0.219 NA
ATOM     22  C   UNL     1     -45.893  31.990  22.513  1.00  0.00     0.120 A 
ATOM     23  H   UNL     1     -45.141  32.535  21.953  1.00  0.00     0.106 H 
BRANCH  14  24
ATOM     24  C   UNL     1     -49.633  29.048  24.688  1.00  0.00     0.095 A 
ATOM     25  N   UNL     1     -51.238  27.793  24.117  1.00  0.00    -0.275 N 
ATOM     26  C   UNL     1     -50.557  27.068  25.048  1.00  0.00     0.025 A 
ATOM     27  N   UNL     1     -50.700  29.005  23.880  1.00  0.00    -0.173 NA
ATOM     28  C   UNL     1     -49.504  27.861  25.444  1.00  0.00    -0.016 A 
ATOM     29  H   UNL     1     -50.865  26.076  25.346  1.00  0.00     0.084 H 
ATOM     30  H   UNL     1     -48.748  27.609  26.174  1.00  0.00     0.066 H 
BRANCH  25  31
ATOM     31  C   UNL     1     -52.425  27.390  23.403  1.00  0.00     0.030 C 
ATOM     32  H   UNL     1     -52.226  26.464  22.857  1.00  0.00     0.048 H 
ATOM     33  H   UNL     1     -53.226  27.232  24.128  1.00  0.00     0.048 H 
ATOM     34  H   UNL     1     -52.692  28.186  22.702  1.00  0.00     0.048 H 
ENDBRANCH  25  31
ENDBRANCH  14  24
BRANCH  19  35
ATOM     35  N   UNL     1     -47.716  28.992  21.979  1.00  0.00    -0.383 N 
ATOM     36  H   UNL     1     -47.761  29.082  20.960  1.00  0.00     0.158 HD
ATOM     37  H   UNL     1     -47.237  28.180  22.342  1.00  0.00     0.158 HD
ENDBRANCH  19  35
ENDBRANCH   5  13
ENDBRANCH   1   4
BRANCH   1  38
ATOM     38  O   UNL     1     -48.098  37.532  28.304  1.00  0.00    -0.488 OA
BRANCH  38  39
ATOM     39  C   UNL     1     -48.508  38.804  27.994  1.00  0.00     0.135 A 
ATOM     40  C   UNL     1     -49.853  39.176  28.088  1.00  0.00     0.017 A 
ATOM     41  C   UNL     1     -47.542  39.756  27.616  1.00  0.00     0.082 A 
ATOM     42  C   UNL     1     -50.234  40.474  27.762  1.00  0.00     0.126 A 
ATOM     43  H   UNL     1     -50.618  38.485  28.425  1.00  0.00     0.069 H 
ATOM     44  C   UNL     1     -47.955  41.057  27.276  1.00  0.00    -0.043 A 
ATOM     45  F   UNL     1     -51.526  40.819  27.848  1.00  0.00    -0.207 F 
ATOM     46  C   UNL     1     -49.301  41.415  27.348  1.00  0.00    -0.025 A 
ATOM     47  H   UNL     1     -47.221  41.797  26.960  1.00  0.00     0.063 H 
ATOM     48  H   UNL     1     -49.623  42.421  27.093  1.00  0.00     0.065 H 
BRANCH  41  49
ATOM     49  C   UNL     1     -46.079  39.467  27.517  1.00  0.00     0.255 C 
ATOM     50  O   UNL     1     -45.697  38.313  27.345  1.00  0.00    -0.269 OA
ATOM     51  N   UNL     1     -45.222  40.543  27.600  1.00  0.00    -0.349 N 
ATOM     52  H   UNL     1     -45.623  41.421  27.920  1.00  0.00     0.164 HD
BRANCH  51  53
ATOM     53  C   UNL     1     -43.776  40.376  27.706  1.00  0.00     0.033 C 
ATOM     54  C   UNL     1     -43.038  41.551  27.056  1.00  0.00    -0.009 C 
ATOM     55  C   UNL     1     -43.375  40.187  29.174  1.00  0.00    -0.009 C 
ATOM     56  H   UNL     1     -43.510  39.469  27.148  1.00  0.00     0.053 H 
ATOM     57  C   UNL     1     -42.751  42.636  28.081  1.00  0.00     0.049 C 
ATOM     58  H   UNL     1     -42.081  41.186  26.663  1.00  0.00     0.031 H 
ATOM     59  H   UNL     1     -43.602  41.958  26.210  1.00  0.00     0.031 H 
ATOM     60  C   UNL     1     -42.005  40.783  29.438  1.00  0.00     0.049 C 
ATOM     61  H   UNL     1     -43.391  39.122  29.434  1.00  0.00     0.031 H 
ATOM     62  H   UNL     1     -44.103  40.683  29.826  1.00  0.00     0.031 H 
ATOM     63  O   UNL     1     -41.964  42.189  29.186  1.00  0.00    -0.381 OA
ATOM     64  H   UNL     1     -42.218  43.469  27.613  1.00  0.00     0.057 H 
ATOM     65  H   UNL     1     -43.690  43.035  28.473  1.00  0.00     0.057 H 
ATOM     66  H   UNL     1     -41.238  40.297  28.824  1.00  0.00     0.057 H 
ATOM     67  H   UNL     1     -41.722  40.631  30.484  1.00  0.00     0.057 H 
ENDBRANCH  51  53
ENDBRANCH  41  49
ENDBRANCH  38  39
ENDBRANCH   1  38
TORSDOF 9
ENDMDL
MODEL 5
REMARK VINA RESULT:      -9.2      3.796      9.561
REMARK SMILES Cn1ccc(-c2cn(-c3cncc(COc4cc(F)ccc4C(=O)NC4CCOCC4)c3)c3ncnc(N)c23)n1
REMARK SMILES IDX 14 1 13 4 9 5 10 6 32 7 11 8 12 11 8 13 6 14 7 15 39 16
REMARK SMILES IDX 33 18 37 19 34 20 36 21 35 22 5 24 2 25 3 26 40 27 4 28 1 31
REMARK SMILES IDX 38 35 15 38 16 39 17 40 22 41 18 42 21 44 19 45 20 46 23 49
REMARK SMILES IDX 24 50 25 51 26 53 27 54 31 55 28 57 30 60 29 63
REMARK H PARENT 14 2 14 3 10 9 32 10 12 12 7 17 35 23 3 29 4 30 1 32 1 33 1 34
REMARK H PARENT 38 36 38 37 17 43 21 47 20 48 25 52 26 56 27 58 27 59 31 61
REMARK H PARENT 31 62 28 64 28 65 30 66 30 67
REMARK Flexibility Score: inf
ROOT
ATOM      1  C   UNL     1     -44.371  40.389  27.351  1.00  0.00     0.115 C 
ATOM      2  H   UNL     1     -43.793  40.141  26.453  1.00  0.00     0.076 H 
ATOM      3  H   UNL     1     -43.747  41.000  28.016  1.00  0.00     0.076 H 
ENDROOT
BRANCH   1   4
ATOM      4  C   UNL     1     -44.779  39.124  28.050  1.00  0.00     0.010 A 
ATOM      5  C   UNL     1     -46.022  37.031  28.100  1.00  0.00     0.066 A 
ATOM      6  C   UNL     1     -45.582  36.894  29.414  1.00  0.00     0.051 A 
ATOM      7  C   UNL     1     -45.593  38.173  27.415  1.00  0.00    -0.028 A 
ATOM      8  N   UNL     1     -44.778  37.782  30.053  1.00  0.00    -0.262 NA
ATOM      9  H   UNL     1     -45.863  36.064  30.052  1.00  0.00     0.086 H 
ATOM     10  H   UNL     1     -45.876  38.370  26.387  1.00  0.00     0.065 H 
ATOM     11  C   UNL     1     -44.405  38.877  29.363  1.00  0.00     0.034 A 
ATOM     12  H   UNL     1     -43.787  39.576  29.922  1.00  0.00     0.084 H 
BRANCH   5  13
ATOM     13  N   UNL     1     -46.884  36.052  27.504  1.00  0.00    -0.299 N 
ATOM     14  C   UNL     1     -47.542  34.216  26.360  1.00  0.00     0.033 A 
ATOM     15  C   UNL     1     -46.454  34.948  26.788  1.00  0.00     0.021 A 
ATOM     16  C   UNL     1     -48.712  34.894  26.801  1.00  0.00     0.071 A 
ATOM     17  H   UNL     1     -45.406  34.742  26.636  1.00  0.00     0.083 H 
ATOM     18  C   UNL     1     -48.282  36.009  27.522  1.00  0.00     0.150 A 
ATOM     19  C   UNL     1     -50.104  34.712  26.692  1.00  0.00     0.137 A 
ATOM     20  N   UNL     1     -49.099  36.888  28.142  1.00  0.00    -0.218 NA
ATOM     21  N   UNL     1     -50.932  35.570  27.316  1.00  0.00    -0.219 NA
ATOM     22  C   UNL     1     -50.396  36.593  27.992  1.00  0.00     0.120 A 
ATOM     23  H   UNL     1     -51.098  37.265  28.473  1.00  0.00     0.106 H 
BRANCH  14  24
ATOM     24  C   UNL     1     -47.486  32.959  25.603  1.00  0.00     0.095 A 
ATOM     25  N   UNL     1     -47.047  31.527  24.108  1.00  0.00    -0.275 N 
ATOM     26  C   UNL     1     -47.850  30.864  24.987  1.00  0.00     0.025 A 
ATOM     27  N   UNL     1     -46.810  32.807  24.457  1.00  0.00    -0.173 NA
ATOM     28  C   UNL     1     -48.158  31.772  25.974  1.00  0.00    -0.016 A 
ATOM     29  H   UNL     1     -48.131  29.830  24.844  1.00  0.00     0.084 H 
ATOM     30  H   UNL     1     -48.778  31.594  26.841  1.00  0.00     0.066 H 
BRANCH  25  31
ATOM     31  C   UNL     1     -46.460  31.000  22.901  1.00  0.00     0.030 C 
ATOM     32  H   UNL     1     -45.406  31.285  22.852  1.00  0.00     0.048 H 
ATOM     33  H   UNL     1     -46.552  29.911  22.920  1.00  0.00     0.048 H 
ATOM     34  H   UNL     1     -46.999  31.416  22.046  1.00  0.00     0.048 H 
ENDBRANCH  25  31
ENDBRANCH  14  24
BRANCH  19  35
ATOM     35  N   UNL     1     -50.703  33.688  25.976  1.00  0.00    -0.383 N 
ATOM     36  H   UNL     1     -51.023  33.991  25.051  1.00  0.00     0.158 HD
ATOM     37  H   UNL     1     -50.157  32.839  26.011  1.00  0.00     0.158 HD
ENDBRANCH  19  35
ENDBRANCH   5  13
ENDBRANCH   1   4
BRANCH   1  38
ATOM     38  O   UNL     1     -45.574  41.075  26.975  1.00  0.00    -0.488 OA
BRANCH  38  39
ATOM     39  C   UNL     1     -45.406  42.042  26.017  1.00  0.00     0.135 A 
ATOM     40  C   UNL     1     -44.333  41.999  25.121  1.00  0.00     0.017 A 
ATOM     41  C   UNL     1     -46.362  43.071  25.916  1.00  0.00     0.082 A 
ATOM     42  C   UNL     1     -44.192  43.000  24.165  1.00  0.00     0.126 A 
ATOM     43  H   UNL     1     -43.605  41.195  25.134  1.00  0.00     0.069 H 
ATOM     44  C   UNL     1     -46.188  44.080  24.952  1.00  0.00    -0.043 A 
ATOM     45  F   UNL     1     -43.157  42.954  23.316  1.00  0.00    -0.207 F 
ATOM     46  C   UNL     1     -45.102  44.044  24.076  1.00  0.00    -0.025 A 
ATOM     47  H   UNL     1     -46.908  44.894  24.878  1.00  0.00     0.063 H 
ATOM     48  H   UNL     1     -44.969  44.818  23.326  1.00  0.00     0.065 H 
BRANCH  41  49
ATOM     49  C   UNL     1     -47.560  43.188  26.804  1.00  0.00     0.255 C 
ATOM     50  O   UNL     1     -47.835  44.269  27.315  1.00  0.00    -0.269 OA
ATOM     51  N   UNL     1     -48.321  42.052  26.978  1.00  0.00    -0.349 N 
ATOM     52  H   UNL     1     -47.912  41.177  26.662  1.00  0.00     0.164 HD
BRANCH  51  53
ATOM     53  C   UNL     1     -49.399  41.986  27.959  1.00  0.00     0.033 C 
ATOM     54  C   UNL     1     -50.728  42.439  27.347  1.00  0.00    -0.009 C 
ATOM     55  C   UNL     1     -49.489  40.571  28.545  1.00  0.00    -0.009 C 
ATOM     56  H   UNL     1     -49.151  42.687  28.766  1.00  0.00     0.053 H 
ATOM     57  C   UNL     1     -51.488  41.251  26.779  1.00  0.00     0.049 C 
ATOM     58  H   UNL     1     -51.339  42.893  28.137  1.00  0.00     0.031 H 
ATOM     59  H   UNL     1     -50.573  43.202  26.577  1.00  0.00     0.031 H 
ATOM     60  C   UNL     1     -50.926  40.222  28.889  1.00  0.00     0.049 C 
ATOM     61  H   UNL     1     -48.848  40.489  29.430  1.00  0.00     0.031 H 
ATOM     62  H   UNL     1     -49.118  39.841  27.816  1.00  0.00     0.031 H 
ATOM     63  O   UNL     1     -51.780  40.241  27.744  1.00  0.00    -0.381 OA
ATOM     64  H   UNL     1     -52.440  41.580  26.349  1.00  0.00     0.057 H 
ATOM     65  H   UNL     1     -50.913  40.793  25.971  1.00  0.00     0.057 H 
ATOM     66  H   UNL     1     -51.331  40.913  29.637  1.00  0.00     0.057 H 
ATOM     67  H   UNL     1     -50.978  39.217  29.319  1.00  0.00     0.057 H 
ENDBRANCH  51  53
ENDBRANCH  41  49
ENDBRANCH  38  39
ENDBRANCH   1  38
TORSDOF 9
ENDMDL
MODEL 6
REMARK VINA RESULT:      -9.0      3.356      5.470
REMARK SMILES Cn1ccc(-c2cn(-c3cncc(COc4cc(F)ccc4C(=O)NC4CCOCC4)c3)c3ncnc(N)c23)n1
REMARK SMILES IDX 14 1 13 4 9 5 10 6 32 7 11 8 12 11 8 13 6 14 7 15 39 16
REMARK SMILES IDX 33 18 37 19 34 20 36 21 35 22 5 24 2 25 3 26 40 27 4 28 1 31
REMARK SMILES IDX 38 35 15 38 16 39 17 40 22 41 18 42 21 44 19 45 20 46 23 49
REMARK SMILES IDX 24 50 25 51 26 53 27 54 31 55 28 57 30 60 29 63
REMARK H PARENT 14 2 14 3 10 9 32 10 12 12 7 17 35 23 3 29 4 30 1 32 1 33 1 34
REMARK H PARENT 38 36 38 37 17 43 21 47 20 48 25 52 26 56 27 58 27 59 31 61
REMARK H PARENT 31 62 28 64 28 65 30 66 30 67
REMARK Flexibility Score: inf
ROOT
ATOM      1  C   UNL     1     -47.738  32.528  25.185  1.00  0.00     0.115 C 
ATOM      2  H   UNL     1     -48.091  33.172  24.370  1.00  0.00     0.076 H 
ATOM      3  H   UNL     1     -48.571  31.901  25.527  1.00  0.00     0.076 H 
ENDROOT
BRANCH   1   4
ATOM      4  C   UNL     1     -47.240  33.381  26.317  1.00  0.00     0.010 A 
ATOM      5  C   UNL     1     -46.913  35.562  27.348  1.00  0.00     0.066 A 
ATOM      6  C   UNL     1     -46.212  34.894  28.349  1.00  0.00     0.051 A 
ATOM      7  C   UNL     1     -47.440  34.770  26.323  1.00  0.00    -0.028 A 
ATOM      8  N   UNL     1     -46.017  33.551  28.388  1.00  0.00    -0.262 NA
ATOM      9  H   UNL     1     -45.741  35.400  29.184  1.00  0.00     0.086 H 
ATOM     10  H   UNL     1     -48.005  35.193  25.500  1.00  0.00     0.065 H 
ATOM     11  C   UNL     1     -46.524  32.829  27.370  1.00  0.00     0.034 A 
ATOM     12  H   UNL     1     -46.319  31.763  27.425  1.00  0.00     0.084 H 
BRANCH   5  13
ATOM     13  N   UNL     1     -47.060  36.988  27.375  1.00  0.00    -0.299 N 
ATOM     14  C   UNL     1     -46.539  39.181  27.193  1.00  0.00     0.033 A 
ATOM     15  C   UNL     1     -46.058  37.895  27.070  1.00  0.00     0.021 A 
ATOM     16  C   UNL     1     -47.894  39.091  27.616  1.00  0.00     0.071 A 
ATOM     17  H   UNL     1     -45.072  37.572  26.773  1.00  0.00     0.083 H 
ATOM     18  C   UNL     1     -48.198  37.732  27.701  1.00  0.00     0.150 A 
ATOM     19  C   UNL     1     -48.927  39.990  27.943  1.00  0.00     0.137 A 
ATOM     20  N   UNL     1     -49.410  37.233  28.032  1.00  0.00    -0.218 NA
ATOM     21  N   UNL     1     -50.144  39.511  28.261  1.00  0.00    -0.219 NA
ATOM     22  C   UNL     1     -50.315  38.184  28.290  1.00  0.00     0.120 A 
ATOM     23  H   UNL     1     -51.308  37.839  28.559  1.00  0.00     0.106 H 
BRANCH  14  24
ATOM     24  C   UNL     1     -45.783  40.409  26.917  1.00  0.00     0.095 A 
ATOM     25  N   UNL     1     -45.266  42.346  26.238  1.00  0.00    -0.275 N 
ATOM     26  C   UNL     1     -44.119  41.864  26.793  1.00  0.00     0.025 A 
ATOM     27  N   UNL     1     -46.296  41.479  26.295  1.00  0.00    -0.173 NA
ATOM     28  C   UNL     1     -44.421  40.600  27.243  1.00  0.00    -0.016 A 
ATOM     29  H   UNL     1     -43.207  42.442  26.823  1.00  0.00     0.084 H 
ATOM     30  H   UNL     1     -43.748  39.917  27.742  1.00  0.00     0.066 H 
BRANCH  25  31
ATOM     31  C   UNL     1     -45.459  43.637  25.625  1.00  0.00     0.030 C 
ATOM     32  H   UNL     1     -46.454  43.683  25.175  1.00  0.00     0.048 H 
ATOM     33  H   UNL     1     -45.364  44.403  26.398  1.00  0.00     0.048 H 
ATOM     34  H   UNL     1     -44.695  43.770  24.855  1.00  0.00     0.048 H 
ENDBRANCH  25  31
ENDBRANCH  14  24
BRANCH  19  35
ATOM     35  N   UNL     1     -48.785  41.370  27.958  1.00  0.00    -0.383 N 
ATOM     36  H   UNL     1     -49.217  41.798  28.782  1.00  0.00     0.158 HD
ATOM     37  H   UNL     1     -47.839  41.649  27.744  1.00  0.00     0.158 HD
ENDBRANCH  19  35
ENDBRANCH   5  13
ENDBRANCH   1   4
BRANCH   1  38
ATOM     38  O   UNL     1     -46.632  31.738  24.729  1.00  0.00    -0.488 OA
BRANCH  38  39
ATOM     39  C   UNL     1     -46.751  31.271  23.445  1.00  0.00     0.135 A 
ATOM     40  C   UNL     1     -46.079  31.885  22.383  1.00  0.00     0.017 A 
ATOM     41  C   UNL     1     -47.536  30.126  23.208  1.00  0.00     0.082 A 
ATOM     42  C   UNL     1     -46.227  31.388  21.092  1.00  0.00     0.126 A 
ATOM     43  H   UNL     1     -45.426  32.738  22.533  1.00  0.00     0.069 H 
ATOM     44  C   UNL     1     -47.683  29.652  21.893  1.00  0.00    -0.043 A 
ATOM     45  F   UNL     1     -45.585  31.987  20.081  1.00  0.00    -0.207 F 
ATOM     46  C   UNL     1     -47.029  30.284  20.834  1.00  0.00    -0.025 A 
ATOM     47  H   UNL     1     -48.304  28.780  21.693  1.00  0.00     0.063 H 
ATOM     48  H   UNL     1     -47.134  29.916  19.818  1.00  0.00     0.065 H 
BRANCH  41  49
ATOM     49  C   UNL     1     -48.266  29.379  24.278  1.00  0.00     0.255 C 
ATOM     50  O   UNL     1     -49.396  29.733  24.603  1.00  0.00    -0.269 OA
ATOM     51  N   UNL     1     -47.624  28.293  24.832  1.00  0.00    -0.349 N 
ATOM     52  H   UNL     1     -46.634  28.194  24.624  1.00  0.00     0.164 HD
BRANCH  51  53
ATOM     53  C   UNL     1     -48.146  27.599  26.005  1.00  0.00     0.033 C 
ATOM     54  C   UNL     1     -49.643  27.308  25.850  1.00  0.00    -0.009 C 
ATOM     55  C   UNL     1     -47.337  26.322  26.263  1.00  0.00    -0.009 C 
ATOM     56  H   UNL     1     -48.028  28.272  26.863  1.00  0.00     0.053 H 
ATOM     57  C   UNL     1     -49.861  25.937  25.232  1.00  0.00     0.049 C 
ATOM     58  H   UNL     1     -50.104  27.316  26.845  1.00  0.00     0.031 H 
ATOM     59  H   UNL     1     -50.140  28.083  25.256  1.00  0.00     0.031 H 
ATOM     60  C   UNL     1     -48.218  25.238  26.858  1.00  0.00     0.049 C 
ATOM     61  H   UNL     1     -46.491  26.541  26.925  1.00  0.00     0.031 H 
ATOM     62  H   UNL     1     -46.915  25.951  25.322  1.00  0.00     0.031 H 
ATOM     63  O   UNL     1     -49.290  24.869  25.988  1.00  0.00    -0.381 OA
ATOM     64  H   UNL     1     -50.931  25.732  25.130  1.00  0.00     0.057 H 
ATOM     65  H   UNL     1     -49.432  25.909  24.227  1.00  0.00     0.057 H 
ATOM     66  H   UNL     1     -48.642  25.558  27.816  1.00  0.00     0.057 H 
ATOM     67  H   UNL     1     -47.629  24.337  27.052  1.00  0.00     0.057 H 
ENDBRANCH  51  53
ENDBRANCH  41  49
ENDBRANCH  38  39
ENDBRANCH   1  38
TORSDOF 9
ENDMDL
MODEL 7
REMARK VINA RESULT:      -9.0      3.221     10.592
REMARK SMILES Cn1ccc(-c2cn(-c3cncc(COc4cc(F)ccc4C(=O)NC4CCOCC4)c3)c3ncnc(N)c23)n1
REMARK SMILES IDX 14 1 13 4 9 5 10 6 32 7 11 8 12 11 8 13 6 14 7 15 39 16
REMARK SMILES IDX 33 18 37 19 34 20 36 21 35 22 5 24 2 25 3 26 40 27 4 28 1 31
REMARK SMILES IDX 38 35 15 38 16 39 17 40 22 41 18 42 21 44 19 45 20 46 23 49
REMARK SMILES IDX 24 50 25 51 26 53 27 54 31 55 28 57 30 60 29 63
REMARK H PARENT 14 2 14 3 10 9 32 10 12 12 7 17 35 23 3 29 4 30 1 32 1 33 1 34
REMARK H PARENT 38 36 38 37 17 43 21 47 20 48 25 52 26 56 27 58 27 59 31 61
REMARK H PARENT 31 62 28 64 28 65 30 66 30 67
REMARK Flexibility Score: inf
ROOT
ATOM      1  C   UNL     1     -47.164  36.634  26.596  1.00  0.00     0.115 C 
ATOM      2  H   UNL     1     -47.983  36.692  25.868  1.00  0.00     0.076 H 
ATOM      3  H   UNL     1     -46.292  37.162  26.190  1.00  0.00     0.076 H 
ENDROOT
BRANCH   1   4
ATOM      4  C   UNL     1     -46.819  35.193  26.846  1.00  0.00     0.010 A 
ATOM      5  C   UNL     1     -47.004  32.834  26.274  1.00  0.00     0.066 A 
ATOM      6  C   UNL     1     -46.252  32.580  27.418  1.00  0.00     0.051 A 
ATOM      7  C   UNL     1     -47.275  34.177  25.992  1.00  0.00    -0.028 A 
ATOM      8  N   UNL     1     -45.776  33.537  28.255  1.00  0.00    -0.262 NA
ATOM      9  H   UNL     1     -45.995  31.581  27.751  1.00  0.00     0.086 H 
ATOM     10  H   UNL     1     -47.849  34.480  25.124  1.00  0.00     0.065 H 
ATOM     11  C   UNL     1     -46.077  34.816  27.957  1.00  0.00     0.034 A 
ATOM     12  H   UNL     1     -45.702  35.547  28.669  1.00  0.00     0.084 H 
BRANCH   5  13
ATOM     13  N   UNL     1     -47.483  31.762  25.451  1.00  0.00    -0.299 N 
ATOM     14  C   UNL     1     -48.664  29.945  24.803  1.00  0.00     0.033 A 
ATOM     15  C   UNL     1     -48.436  30.832  25.834  1.00  0.00     0.021 A 
ATOM     16  C   UNL     1     -47.806  30.310  23.729  1.00  0.00     0.071 A 
ATOM     17  H   UNL     1     -48.901  30.864  26.807  1.00  0.00     0.083 H 
ATOM     18  C   UNL     1     -47.104  31.443  24.143  1.00  0.00     0.150 A 
ATOM     19  C   UNL     1     -47.522  29.830  22.436  1.00  0.00     0.137 A 
ATOM     20  N   UNL     1     -46.216  32.120  23.383  1.00  0.00    -0.218 NA
ATOM     21  N   UNL     1     -46.650  30.500  21.660  1.00  0.00    -0.219 NA
ATOM     22  C   UNL     1     -46.054  31.586  22.166  1.00  0.00     0.120 A 
ATOM     23  H   UNL     1     -45.353  32.091  21.511  1.00  0.00     0.106 H 
BRANCH  14  24
ATOM     24  C   UNL     1     -49.632  28.842  24.820  1.00  0.00     0.095 A 
ATOM     25  N   UNL     1     -50.610  27.029  25.304  1.00  0.00    -0.275 N 
ATOM     26  C   UNL     1     -51.363  27.562  24.301  1.00  0.00     0.025 A 
ATOM     27  N   UNL     1     -49.547  27.785  25.639  1.00  0.00    -0.173 NA
ATOM     28  C   UNL     1     -50.750  28.746  23.960  1.00  0.00    -0.016 A 
ATOM     29  H   UNL     1     -52.248  27.073  23.921  1.00  0.00     0.084 H 
ATOM     30  H   UNL     1     -51.072  29.441  23.198  1.00  0.00     0.066 H 
BRANCH  25  31
ATOM     31  C   UNL     1     -50.845  25.786  25.998  1.00  0.00     0.030 C 
ATOM     32  H   UNL     1     -50.700  24.950  25.309  1.00  0.00     0.048 H 
ATOM     33  H   UNL     1     -50.136  25.716  26.826  1.00  0.00     0.048 H 
ATOM     34  H   UNL     1     -51.872  25.789  26.370  1.00  0.00     0.048 H 
ENDBRANCH  25  31
ENDBRANCH  14  24
BRANCH  19  35
ATOM     35  N   UNL     1     -48.090  28.692  21.884  1.00  0.00    -0.383 N 
ATOM     36  H   UNL     1     -47.446  27.896  21.879  1.00  0.00     0.158 HD
ATOM     37  H   UNL     1     -49.016  28.524  22.249  1.00  0.00     0.158 HD
ENDBRANCH  19  35
ENDBRANCH   5  13
ENDBRANCH   1   4
BRANCH   1  38
ATOM     38  O   UNL     1     -47.588  37.193  27.846  1.00  0.00    -0.488 OA
BRANCH  38  39
ATOM     39  C   UNL     1     -48.912  37.550  27.894  1.00  0.00     0.135 A 
ATOM     40  C   UNL     1     -49.926  36.593  27.786  1.00  0.00     0.017 A 
ATOM     41  C   UNL     1     -49.244  38.903  28.099  1.00  0.00     0.082 A 
ATOM     42  C   UNL     1     -51.259  36.991  27.834  1.00  0.00     0.126 A 
ATOM     43  H   UNL     1     -49.710  35.536  27.678  1.00  0.00     0.069 H 
ATOM     44  C   UNL     1     -50.598  39.282  28.128  1.00  0.00    -0.043 A 
ATOM     45  F   UNL     1     -52.223  36.068  27.722  1.00  0.00    -0.207 F 
ATOM     46  C   UNL     1     -51.605  38.326  27.996  1.00  0.00    -0.025 A 
ATOM     47  H   UNL     1     -50.868  40.328  28.264  1.00  0.00     0.063 H 
ATOM     48  H   UNL     1     -52.652  38.614  28.025  1.00  0.00     0.065 H 
BRANCH  41  49
ATOM     49  C   UNL     1     -48.236  39.995  28.259  1.00  0.00     0.255 C 
ATOM     50  O   UNL     1     -48.355  40.803  29.176  1.00  0.00    -0.269 OA
ATOM     51  N   UNL     1     -47.188  40.015  27.364  1.00  0.00    -0.349 N 
ATOM     52  H   UNL     1     -47.278  39.420  26.545  1.00  0.00     0.164 HD
BRANCH  51  53
ATOM     53  C   UNL     1     -46.248  41.129  27.297  1.00  0.00     0.033 C 
ATOM     54  C   UNL     1     -44.801  40.625  27.271  1.00  0.00    -0.009 C 
ATOM     55  C   UNL     1     -46.569  42.016  26.088  1.00  0.00    -0.009 C 
ATOM     56  H   UNL     1     -46.375  41.720  28.213  1.00  0.00     0.053 H 
ATOM     57  C   UNL     1     -44.323  40.443  25.840  1.00  0.00     0.049 C 
ATOM     58  H   UNL     1     -44.162  41.375  27.755  1.00  0.00     0.031 H 
ATOM     59  H   UNL     1     -44.692  39.693  27.836  1.00  0.00     0.031 H 
ATOM     60  C   UNL     1     -45.302  42.626  25.517  1.00  0.00     0.049 C 
ATOM     61  H   UNL     1     -47.281  42.798  26.375  1.00  0.00     0.031 H 
ATOM     62  H   UNL     1     -47.052  41.419  25.306  1.00  0.00     0.031 H 
ATOM     63  O   UNL     1     -44.379  41.637  25.059  1.00  0.00    -0.381 OA
ATOM     64  H   UNL     1     -43.287  40.089  25.827  1.00  0.00     0.057 H 
ATOM     65  H   UNL     1     -44.928  39.681  25.340  1.00  0.00     0.057 H 
ATOM     66  H   UNL     1     -44.797  43.254  26.260  1.00  0.00     0.057 H 
ATOM     67  H   UNL     1     -45.543  43.268  24.665  1.00  0.00     0.057 H 
ENDBRANCH  51  53
ENDBRANCH  41  49
ENDBRANCH  38  39
ENDBRANCH   1  38
TORSDOF 9
ENDMDL
