MODEL 1
REMARK VINA RESULT:     -11.4      0.000      0.000
REMARK SMILES Cn1ccc(-c2cn(-c3cncc(COc4ccc5ccc(N6CCC(F)(F)CC6)nc5c4)c3)c3ncnc(N)c23)n1
REMARK SMILES IDX 9 1 10 2 11 3 12 4 13 5 34 6 8 10 6 11 7 12 41 13 35 15
REMARK SMILES IDX 39 16 36 17 38 18 37 19 5 21 2 22 3 23 42 24 4 25 1 28 40 32
REMARK SMILES IDX 14 35 15 38 16 39 17 40 33 41 18 42 32 44 19 46 31 48 20 49
REMARK SMILES IDX 22 50 21 51 23 54 24 55 30 56 25 57 29 60 26 63 27 68 28 69
REMARK H PARENT 10 7 12 8 34 9 7 14 37 20 3 26 4 27 1 29 1 30 1 31 40 33 40 34
REMARK H PARENT 14 36 14 37 17 43 33 45 18 47 20 52 21 53 24 58 24 59 30 61
REMARK H PARENT 30 62 25 64 25 65 29 66 29 67
REMARK Flexibility Score: inf
ROOT
ATOM      1  C   UNL     1     -47.949  32.502  25.382  1.00  0.00     0.066 A 
ATOM      2  C   UNL     1     -46.633  32.834  25.075  1.00  0.00     0.051 A 
ATOM      3  N   UNL     1     -46.036  34.001  25.421  1.00  0.00    -0.262 NA
ATOM      4  C   UNL     1     -46.776  34.881  26.131  1.00  0.00     0.034 A 
ATOM      5  C   UNL     1     -48.099  34.665  26.484  1.00  0.00     0.010 A 
ATOM      6  C   UNL     1     -48.692  33.464  26.071  1.00  0.00    -0.028 A 
ATOM      7  H   UNL     1     -45.958  32.161  24.554  1.00  0.00     0.086 H 
ATOM      8  H   UNL     1     -46.255  35.790  26.421  1.00  0.00     0.084 H 
ATOM      9  H   UNL     1     -49.738  33.307  26.315  1.00  0.00     0.065 H 
ENDROOT
BRANCH   1  10
ATOM     10  N   UNL     1     -48.492  31.225  25.034  1.00  0.00    -0.299 N 
ATOM     11  C   UNL     1     -49.000  29.027  25.153  1.00  0.00     0.033 A 
ATOM     12  C   UNL     1     -48.311  30.059  25.758  1.00  0.00     0.021 A 
ATOM     13  C   UNL     1     -49.665  29.564  24.015  1.00  0.00     0.071 A 
ATOM     14  H   UNL     1     -47.676  30.030  26.631  1.00  0.00     0.083 H 
ATOM     15  C   UNL     1     -49.310  30.911  23.944  1.00  0.00     0.150 A 
ATOM     16  C   UNL     1     -50.539  29.092  23.018  1.00  0.00     0.137 A 
ATOM     17  N   UNL     1     -49.730  31.771  22.992  1.00  0.00    -0.218 NA
ATOM     18  N   UNL     1     -50.952  29.930  22.049  1.00  0.00    -0.219 NA
ATOM     19  C   UNL     1     -50.535  31.201  22.090  1.00  0.00     0.120 A 
ATOM     20  H   UNL     1     -50.897  31.847  21.296  1.00  0.00     0.106 H 
BRANCH  11  21
ATOM     21  C   UNL     1     -49.024  27.631  25.603  1.00  0.00     0.095 A 
ATOM     22  N   UNL     1     -48.406  25.707  26.227  1.00  0.00    -0.275 N 
ATOM     23  C   UNL     1     -49.766  25.660  26.284  1.00  0.00     0.025 A 
ATOM     24  N   UNL     1     -47.924  26.900  25.825  1.00  0.00    -0.173 NA
ATOM     25  C   UNL     1     -50.202  26.902  25.884  1.00  0.00    -0.016 A 
ATOM     26  H   UNL     1     -50.300  24.771  26.590  1.00  0.00     0.084 H 
ATOM     27  H   UNL     1     -51.229  27.227  25.800  1.00  0.00     0.066 H 
BRANCH  22  28
ATOM     28  C   UNL     1     -47.486  24.642  26.546  1.00  0.00     0.030 C 
ATOM     29  H   UNL     1     -46.487  24.939  26.215  1.00  0.00     0.048 H 
ATOM     30  H   UNL     1     -47.811  23.739  26.023  1.00  0.00     0.048 H 
ATOM     31  H   UNL     1     -47.487  24.470  27.625  1.00  0.00     0.048 H 
ENDBRANCH  22  28
ENDBRANCH  11  21
BRANCH  16  32
ATOM     32  N   UNL     1     -51.023  27.793  22.961  1.00  0.00    -0.383 N 
ATOM     33  H   UNL     1     -52.032  27.771  22.910  1.00  0.00     0.158 HD
ATOM     34  H   UNL     1     -50.513  27.211  22.291  1.00  0.00     0.158 HD
ENDBRANCH  16  32
ENDBRANCH   1  10
BRANCH   5  35
ATOM     35  C   UNL     1     -48.875  35.678  27.282  1.00  0.00     0.115 C 
ATOM     36  H   UNL     1     -48.785  36.646  26.773  1.00  0.00     0.076 H 
ATOM     37  H   UNL     1     -49.950  35.460  27.310  1.00  0.00     0.076 H 
BRANCH  35  38
ATOM     38  O   UNL     1     -48.344  35.852  28.600  1.00  0.00    -0.489 OA
BRANCH  38  39
ATOM     39  C   UNL     1     -47.263  36.680  28.747  1.00  0.00     0.122 A 
ATOM     40  C   UNL     1     -46.407  36.353  29.797  1.00  0.00    -0.019 A 
ATOM     41  C   UNL     1     -46.988  37.811  27.975  1.00  0.00     0.007 A 
ATOM     42  C   UNL     1     -45.279  37.133  30.053  1.00  0.00    -0.049 A 
ATOM     43  H   UNL     1     -46.616  35.485  30.417  1.00  0.00     0.066 H 
ATOM     44  C   UNL     1     -45.882  38.614  28.216  1.00  0.00     0.076 A 
ATOM     45  H   UNL     1     -47.640  38.122  27.169  1.00  0.00     0.069 H 
ATOM     46  C   UNL     1     -45.013  38.264  29.263  1.00  0.00     0.001 A 
ATOM     47  H   UNL     1     -44.617  36.858  30.870  1.00  0.00     0.063 H 
ATOM     48  N   UNL     1     -45.687  39.698  27.446  1.00  0.00    -0.231 NA
ATOM     49  C   UNL     1     -43.900  39.078  29.476  1.00  0.00    -0.049 A 
ATOM     50  C   UNL     1     -44.630  40.508  27.674  1.00  0.00     0.129 A 
ATOM     51  C   UNL     1     -43.706  40.200  28.672  1.00  0.00    -0.019 A 
ATOM     52  H   UNL     1     -43.181  38.851  30.257  1.00  0.00     0.063 H 
ATOM     53  H   UNL     1     -42.829  40.820  28.820  1.00  0.00     0.066 H 
BRANCH  50  54
ATOM     54  N   UNL     1     -44.445  41.661  26.875  1.00  0.00    -0.356 N 
ATOM     55  C   UNL     1     -43.089  41.716  26.290  1.00  0.00     0.025 C 
ATOM     56  C   UNL     1     -45.512  41.809  25.871  1.00  0.00     0.025 C 
ATOM     57  C   UNL     1     -42.884  43.058  25.609  1.00  0.00     0.029 C 
ATOM     58  H   UNL     1     -42.940  40.904  25.564  1.00  0.00     0.050 H 
ATOM     59  H   UNL     1     -42.327  41.618  27.074  1.00  0.00     0.050 H 
ATOM     60  C   UNL     1     -45.371  43.159  25.184  1.00  0.00     0.029 C 
ATOM     61  H   UNL     1     -45.459  40.998  25.133  1.00  0.00     0.050 H 
ATOM     62  H   UNL     1     -46.509  41.774  26.325  1.00  0.00     0.050 H 
ATOM     63  C   UNL     1     -43.982  43.291  24.597  1.00  0.00     0.251 C 
ATOM     64  H   UNL     1     -41.906  43.078  25.114  1.00  0.00     0.035 H 
ATOM     65  H   UNL     1     -42.886  43.868  26.350  1.00  0.00     0.035 H 
ATOM     66  H   UNL     1     -45.551  43.971  25.897  1.00  0.00     0.035 H 
ATOM     67  H   UNL     1     -46.122  43.253  24.393  1.00  0.00     0.035 H 
ATOM     68  F   UNL     1     -43.845  44.531  24.060  1.00  0.00    -0.207 F 
ATOM     69  F   UNL     1     -43.849  42.417  23.565  1.00  0.00    -0.207 F 
ENDBRANCH  50  54
ENDBRANCH  38  39
ENDBRANCH  35  38
ENDBRANCH   5  35
TORSDOF 8
ENDMDL
MODEL 2
REMARK VINA RESULT:     -10.8      2.167      3.110
REMARK SMILES Cn1ccc(-c2cn(-c3cncc(COc4ccc5ccc(N6CCC(F)(F)CC6)nc5c4)c3)c3ncnc(N)c23)n1
REMARK SMILES IDX 9 1 10 2 11 3 12 4 13 5 34 6 8 10 6 11 7 12 41 13 35 15
REMARK SMILES IDX 39 16 36 17 38 18 37 19 5 21 2 22 3 23 42 24 4 25 1 28 40 32
REMARK SMILES IDX 14 35 15 38 16 39 17 40 33 41 18 42 32 44 19 46 31 48 20 49
REMARK SMILES IDX 22 50 21 51 23 54 24 55 30 56 25 57 29 60 26 63 27 68 28 69
REMARK H PARENT 10 7 12 8 34 9 7 14 37 20 3 26 4 27 1 29 1 30 1 31 40 33 40 34
REMARK H PARENT 14 36 14 37 17 43 33 45 18 47 20 52 21 53 24 58 24 59 30 61
REMARK H PARENT 30 62 25 64 25 65 29 66 29 67
REMARK Flexibility Score: inf
ROOT
ATOM      1  C   UNL     1     -47.088  33.062  26.029  1.00  0.00     0.066 A 
ATOM      2  C   UNL     1     -46.464  32.627  27.195  1.00  0.00     0.051 A 
ATOM      3  N   UNL     1     -45.955  33.451  28.144  1.00  0.00    -0.262 NA
ATOM      4  C   UNL     1     -46.090  34.780  27.940  1.00  0.00     0.034 A 
ATOM      5  C   UNL     1     -46.682  35.328  26.812  1.00  0.00     0.010 A 
ATOM      6  C   UNL     1     -47.158  34.444  25.835  1.00  0.00    -0.028 A 
ATOM      7  H   UNL     1     -46.363  31.579  27.457  1.00  0.00     0.086 H 
ATOM      8  H   UNL     1     -45.702  35.409  28.736  1.00  0.00     0.084 H 
ATOM      9  H   UNL     1     -47.589  34.870  24.935  1.00  0.00     0.065 H 
ENDROOT
BRANCH   1  10
ATOM     10  N   UNL     1     -47.655  32.132  25.100  1.00  0.00    -0.299 N 
ATOM     11  C   UNL     1     -49.136  30.724  24.139  1.00  0.00     0.033 A 
ATOM     12  C   UNL     1     -48.898  31.537  25.229  1.00  0.00     0.021 A 
ATOM     13  C   UNL     1     -48.011  30.825  23.274  1.00  0.00     0.071 A 
ATOM     14  H   UNL     1     -49.515  31.701  26.100  1.00  0.00     0.083 H 
ATOM     15  C   UNL     1     -47.099  31.673  23.903  1.00  0.00     0.150 A 
ATOM     16  C   UNL     1     -47.630  30.314  22.019  1.00  0.00     0.137 A 
ATOM     17  N   UNL     1     -45.892  32.015  23.404  1.00  0.00    -0.218 NA
ATOM     18  N   UNL     1     -46.423  30.629  21.514  1.00  0.00    -0.219 NA
ATOM     19  C   UNL     1     -45.635  31.451  22.220  1.00  0.00     0.120 A 
ATOM     20  H   UNL     1     -44.673  31.687  21.775  1.00  0.00     0.106 H 
BRANCH  11  21
ATOM     21  C   UNL     1     -50.329  29.898  23.929  1.00  0.00     0.095 A 
ATOM     22  N   UNL     1     -51.618  28.228  23.768  1.00  0.00    -0.275 N 
ATOM     23  C   UNL     1     -52.425  29.301  23.537  1.00  0.00     0.025 A 
ATOM     24  N   UNL     1     -50.337  28.561  24.020  1.00  0.00    -0.173 NA
ATOM     25  C   UNL     1     -51.615  30.409  23.636  1.00  0.00    -0.016 A 
ATOM     26  H   UNL     1     -53.479  29.195  23.321  1.00  0.00     0.084 H 
ATOM     27  H   UNL     1     -51.914  31.439  23.506  1.00  0.00     0.066 H 
BRANCH  22  28
ATOM     28  C   UNL     1     -52.002  26.837  23.766  1.00  0.00     0.030 C 
ATOM     29  H   UNL     1     -53.080  26.778  23.591  1.00  0.00     0.048 H 
ATOM     30  H   UNL     1     -51.747  26.408  24.738  1.00  0.00     0.048 H 
ATOM     31  H   UNL     1     -51.466  26.312  22.972  1.00  0.00     0.048 H 
ENDBRANCH  22  28
ENDBRANCH  11  21
BRANCH  16  32
ATOM     32  N   UNL     1     -48.430  29.492  21.240  1.00  0.00    -0.383 N 
ATOM     33  H   UNL     1     -48.254  29.622  20.254  1.00  0.00     0.158 HD
ATOM     34  H   UNL     1     -48.457  28.528  21.583  1.00  0.00     0.158 HD
ENDBRANCH  16  32
ENDBRANCH   1  10
BRANCH   5  35
ATOM     35  C   UNL     1     -46.812  36.818  26.639  1.00  0.00     0.115 C 
ATOM     36  H   UNL     1     -46.051  37.139  25.917  1.00  0.00     0.076 H 
ATOM     37  H   UNL     1     -47.775  37.110  26.200  1.00  0.00     0.076 H 
BRANCH  35  38
ATOM     38  O   UNL     1     -46.556  37.529  27.854  1.00  0.00    -0.489 OA
BRANCH  38  39
ATOM     39  C   UNL     1     -45.676  38.578  27.806  1.00  0.00     0.122 A 
ATOM     40  C   UNL     1     -44.759  38.628  28.854  1.00  0.00    -0.019 A 
ATOM     41  C   UNL     1     -45.657  39.585  26.840  1.00  0.00     0.007 A 
ATOM     42  C   UNL     1     -43.821  39.659  28.919  1.00  0.00    -0.049 A 
ATOM     43  H   UNL     1     -44.771  37.859  29.624  1.00  0.00     0.066 H 
ATOM     44  C   UNL     1     -44.746  40.631  26.887  1.00  0.00     0.076 A 
ATOM     45  H   UNL     1     -46.369  39.606  26.025  1.00  0.00     0.069 H 
ATOM     46  C   UNL     1     -43.812  40.662  27.936  1.00  0.00     0.001 A 
ATOM     47  H   UNL     1     -43.108  39.677  29.739  1.00  0.00     0.063 H 
ATOM     48  N   UNL     1     -44.796  41.578  25.935  1.00  0.00    -0.231 NA
ATOM     49  C   UNL     1     -42.897  41.715  27.953  1.00  0.00    -0.049 A 
ATOM     50  C   UNL     1     -43.934  42.618  25.970  1.00  0.00     0.129 A 
ATOM     51  C   UNL     1     -42.956  42.692  26.960  1.00  0.00    -0.019 A 
ATOM     52  H   UNL     1     -42.137  41.785  28.726  1.00  0.00     0.063 H 
ATOM     53  H   UNL     1     -42.229  43.497  26.958  1.00  0.00     0.066 H 
BRANCH  50  54
ATOM     54  N   UNL     1     -44.008  43.624  24.977  1.00  0.00    -0.356 N 
ATOM     55  C   UNL     1     -43.185  43.294  23.795  1.00  0.00     0.025 C 
ATOM     56  C   UNL     1     -45.402  43.956  24.636  1.00  0.00     0.025 C 
ATOM     57  C   UNL     1     -43.148  44.488  22.855  1.00  0.00     0.029 C 
ATOM     58  H   UNL     1     -43.588  42.418  23.267  1.00  0.00     0.050 H 
ATOM     59  H   UNL     1     -42.154  43.070  24.093  1.00  0.00     0.050 H 
ATOM     60  C   UNL     1     -45.418  45.172  23.722  1.00  0.00     0.029 C 
ATOM     61  H   UNL     1     -45.890  43.104  24.146  1.00  0.00     0.050 H 
ATOM     62  H   UNL     1     -45.993  44.206  25.525  1.00  0.00     0.050 H 
ATOM     63  C   UNL     1     -44.557  44.908  22.506  1.00  0.00     0.251 C 
ATOM     64  H   UNL     1     -42.597  44.226  21.943  1.00  0.00     0.035 H 
ATOM     65  H   UNL     1     -42.616  45.326  23.322  1.00  0.00     0.035 H 
ATOM     66  H   UNL     1     -45.048  46.055  24.254  1.00  0.00     0.035 H 
ATOM     67  H   UNL     1     -46.446  45.389  23.412  1.00  0.00     0.035 H 
ATOM     68  F   UNL     1     -44.516  46.031  21.741  1.00  0.00    -0.207 F 
ATOM     69  F   UNL     1     -45.145  43.953  21.740  1.00  0.00    -0.207 F 
ENDBRANCH  50  54
ENDBRANCH  38  39
ENDBRANCH  35  38
ENDBRANCH   5  35
TORSDOF 8
ENDMDL
MODEL 3
REMARK VINA RESULT:     -10.6      4.605     13.071
REMARK SMILES Cn1ccc(-c2cn(-c3cncc(COc4ccc5ccc(N6CCC(F)(F)CC6)nc5c4)c3)c3ncnc(N)c23)n1
REMARK SMILES IDX 9 1 10 2 11 3 12 4 13 5 34 6 8 10 6 11 7 12 41 13 35 15
REMARK SMILES IDX 39 16 36 17 38 18 37 19 5 21 2 22 3 23 42 24 4 25 1 28 40 32
REMARK SMILES IDX 14 35 15 38 16 39 17 40 33 41 18 42 32 44 19 46 31 48 20 49
REMARK SMILES IDX 22 50 21 51 23 54 24 55 30 56 25 57 29 60 26 63 27 68 28 69
REMARK H PARENT 10 7 12 8 34 9 7 14 37 20 3 26 4 27 1 29 1 30 1 31 40 33 40 34
REMARK H PARENT 14 36 14 37 17 43 33 45 18 47 20 52 21 53 24 58 24 59 30 61
REMARK H PARENT 30 62 25 64 25 65 29 66 29 67
REMARK Flexibility Score: inf
ROOT
ATOM      1  C   UNL     1     -46.796  38.904  27.432  1.00  0.00     0.066 A 
ATOM      2  C   UNL     1     -48.098  39.223  27.803  1.00  0.00     0.051 A 
ATOM      3  N   UNL     1     -49.048  38.311  28.127  1.00  0.00    -0.262 NA
ATOM      4  C   UNL     1     -48.683  37.010  28.103  1.00  0.00     0.034 A 
ATOM      5  C   UNL     1     -47.419  36.573  27.738  1.00  0.00     0.010 A 
ATOM      6  C   UNL     1     -46.478  37.545  27.370  1.00  0.00    -0.028 A 
ATOM      7  H   UNL     1     -48.454  40.244  27.897  1.00  0.00     0.086 H 
ATOM      8  H   UNL     1     -49.458  36.310  28.401  1.00  0.00     0.084 H 
ATOM      9  H   UNL     1     -45.499  37.203  27.049  1.00  0.00     0.065 H 
ENDROOT
BRANCH   1  10
ATOM     10  N   UNL     1     -45.830  39.925  27.161  1.00  0.00    -0.299 N 
ATOM     11  C   UNL     1     -44.834  41.704  26.189  1.00  0.00     0.033 A 
ATOM     12  C   UNL     1     -45.919  40.853  26.137  1.00  0.00     0.021 A 
ATOM     13  C   UNL     1     -44.038  41.317  27.304  1.00  0.00     0.071 A 
ATOM     14  H   UNL     1     -46.725  40.824  25.419  1.00  0.00     0.083 H 
ATOM     15  C   UNL     1     -44.655  40.200  27.867  1.00  0.00     0.150 A 
ATOM     16  C   UNL     1     -42.862  41.769  27.933  1.00  0.00     0.137 A 
ATOM     17  N   UNL     1     -44.199  39.526  28.943  1.00  0.00    -0.218 NA
ATOM     18  N   UNL     1     -42.382  41.098  28.997  1.00  0.00    -0.219 NA
ATOM     19  C   UNL     1     -43.066  40.035  29.438  1.00  0.00     0.120 A 
ATOM     20  H   UNL     1     -42.650  39.526  30.303  1.00  0.00     0.106 H 
BRANCH  11  21
ATOM     21  C   UNL     1     -44.554  42.797  25.252  1.00  0.00     0.095 A 
ATOM     22  N   UNL     1     -44.317  44.731  24.430  1.00  0.00    -0.275 N 
ATOM     23  C   UNL     1     -43.948  43.889  23.424  1.00  0.00     0.025 A 
ATOM     24  N   UNL     1     -44.682  44.094  25.560  1.00  0.00    -0.173 NA
ATOM     25  C   UNL     1     -44.089  42.617  23.929  1.00  0.00    -0.016 A 
ATOM     26  H   UNL     1     -43.629  44.251  22.457  1.00  0.00     0.084 H 
ATOM     27  H   UNL     1     -43.892  41.692  23.407  1.00  0.00     0.066 H 
BRANCH  22  28
ATOM     28  C   UNL     1     -44.348  46.173  24.387  1.00  0.00     0.030 C 
ATOM     29  H   UNL     1     -44.391  46.486  23.339  1.00  0.00     0.048 H 
ATOM     30  H   UNL     1     -43.440  46.551  24.863  1.00  0.00     0.048 H 
ATOM     31  H   UNL     1     -45.229  46.536  24.921  1.00  0.00     0.048 H 
ENDBRANCH  22  28
ENDBRANCH  11  21
BRANCH  16  32
ATOM     32  N   UNL     1     -42.145  42.886  27.531  1.00  0.00    -0.383 N 
ATOM     33  H   UNL     1     -41.900  42.841  26.552  1.00  0.00     0.158 HD
ATOM     34  H   UNL     1     -42.557  43.761  27.866  1.00  0.00     0.158 HD
ENDBRANCH  16  32
ENDBRANCH   1  10
BRANCH   5  35
ATOM     35  C   UNL     1     -47.064  35.111  27.735  1.00  0.00     0.115 C 
ATOM     36  H   UNL     1     -46.212  34.973  27.058  1.00  0.00     0.076 H 
ATOM     37  H   UNL     1     -46.719  34.758  28.716  1.00  0.00     0.076 H 
BRANCH  35  38
ATOM     38  O   UNL     1     -48.128  34.295  27.234  1.00  0.00    -0.489 OA
BRANCH  38  39
ATOM     39  C   UNL     1     -47.836  33.417  26.224  1.00  0.00     0.122 A 
ATOM     40  C   UNL     1     -46.535  33.492  25.733  1.00  0.00    -0.019 A 
ATOM     41  C   UNL     1     -48.729  32.513  25.644  1.00  0.00     0.007 A 
ATOM     42  C   UNL     1     -46.127  32.655  24.694  1.00  0.00    -0.049 A 
ATOM     43  H   UNL     1     -45.832  34.201  26.163  1.00  0.00     0.066 H 
ATOM     44  C   UNL     1     -48.356  31.680  24.599  1.00  0.00     0.076 A 
ATOM     45  H   UNL     1     -49.759  32.441  25.971  1.00  0.00     0.069 H 
ATOM     46  C   UNL     1     -47.035  31.747  24.125  1.00  0.00     0.001 A 
ATOM     47  H   UNL     1     -45.105  32.720  24.329  1.00  0.00     0.063 H 
ATOM     48  N   UNL     1     -49.271  30.846  24.075  1.00  0.00    -0.231 NA
ATOM     49  C   UNL     1     -46.680  30.888  23.085  1.00  0.00    -0.049 A 
ATOM     50  C   UNL     1     -48.939  30.040  23.044  1.00  0.00     0.129 A 
ATOM     51  C   UNL     1     -47.636  30.027  22.548  1.00  0.00    -0.019 A 
ATOM     52  H   UNL     1     -45.669  30.878  22.687  1.00  0.00     0.063 H 
ATOM     53  H   UNL     1     -47.354  29.342  21.756  1.00  0.00     0.066 H 
BRANCH  50  54
ATOM     54  N   UNL     1     -49.914  29.182  22.481  1.00  0.00    -0.356 N 
ATOM     55  C   UNL     1     -50.034  29.365  21.020  1.00  0.00     0.025 C 
ATOM     56  C   UNL     1     -49.699  27.778  22.871  1.00  0.00     0.025 C 
ATOM     57  C   UNL     1     -51.220  28.567  20.505  1.00  0.00     0.029 C 
ATOM     58  H   UNL     1     -49.117  29.042  20.507  1.00  0.00     0.050 H 
ATOM     59  H   UNL     1     -50.208  30.421  20.777  1.00  0.00     0.050 H 
ATOM     60  C   UNL     1     -50.882  26.943  22.407  1.00  0.00     0.029 C 
ATOM     61  H   UNL     1     -48.767  27.397  22.434  1.00  0.00     0.050 H 
ATOM     62  H   UNL     1     -49.621  27.663  23.959  1.00  0.00     0.050 H 
ATOM     63  C   UNL     1     -51.080  27.120  20.918  1.00  0.00     0.251 C 
ATOM     64  H   UNL     1     -51.272  28.643  19.412  1.00  0.00     0.035 H 
ATOM     65  H   UNL     1     -52.157  28.977  20.900  1.00  0.00     0.035 H 
ATOM     66  H   UNL     1     -51.792  27.239  22.941  1.00  0.00     0.035 H 
ATOM     67  H   UNL     1     -50.703  25.887  22.638  1.00  0.00     0.035 H 
ATOM     68  F   UNL     1     -52.188  26.433  20.535  1.00  0.00    -0.207 F 
ATOM     69  F   UNL     1     -50.038  26.552  20.258  1.00  0.00    -0.207 F 
ENDBRANCH  50  54
ENDBRANCH  38  39
ENDBRANCH  35  38
ENDBRANCH   5  35
TORSDOF 8
ENDMDL
MODEL 4
REMARK VINA RESULT:     -10.5      4.488     12.704
REMARK SMILES Cn1ccc(-c2cn(-c3cncc(COc4ccc5ccc(N6CCC(F)(F)CC6)nc5c4)c3)c3ncnc(N)c23)n1
REMARK SMILES IDX 9 1 10 2 11 3 12 4 13 5 34 6 8 10 6 11 7 12 41 13 35 15
REMARK SMILES IDX 39 16 36 17 38 18 37 19 5 21 2 22 3 23 42 24 4 25 1 28 40 32
REMARK SMILES IDX 14 35 15 38 16 39 17 40 33 41 18 42 32 44 19 46 31 48 20 49
REMARK SMILES IDX 22 50 21 51 23 54 24 55 30 56 25 57 29 60 26 63 27 68 28 69
REMARK H PARENT 10 7 12 8 34 9 7 14 37 20 3 26 4 27 1 29 1 30 1 31 40 33 40 34
REMARK H PARENT 14 36 14 37 17 43 33 45 18 47 20 52 21 53 24 58 24 59 30 61
REMARK H PARENT 30 62 25 64 25 65 29 66 29 67
REMARK Flexibility Score: inf
ROOT
ATOM      1  C   UNL     1     -46.398  38.863  27.653  1.00  0.00     0.066 A 
ATOM      2  C   UNL     1     -45.718  38.417  28.782  1.00  0.00     0.051 A 
ATOM      3  N   UNL     1     -45.923  37.215  29.375  1.00  0.00    -0.262 NA
ATOM      4  C   UNL     1     -46.837  36.398  28.806  1.00  0.00     0.034 A 
ATOM      5  C   UNL     1     -47.583  36.739  27.688  1.00  0.00     0.010 A 
ATOM      6  C   UNL     1     -47.371  38.007  27.130  1.00  0.00    -0.028 A 
ATOM      7  H   UNL     1     -44.934  38.991  29.267  1.00  0.00     0.086 H 
ATOM      8  H   UNL     1     -46.950  35.430  29.287  1.00  0.00     0.084 H 
ATOM      9  H   UNL     1     -47.979  38.291  26.277  1.00  0.00     0.065 H 
ENDROOT
BRANCH   1  10
ATOM     10  N   UNL     1     -46.086  40.121  27.048  1.00  0.00    -0.299 N 
ATOM     11  C   UNL     1     -44.921  41.733  25.976  1.00  0.00     0.033 A 
ATOM     12  C   UNL     1     -44.860  40.457  26.498  1.00  0.00     0.021 A 
ATOM     13  C   UNL     1     -46.244  42.217  26.180  1.00  0.00     0.071 A 
ATOM     14  H   UNL     1     -44.017  39.784  26.546  1.00  0.00     0.083 H 
ATOM     15  C   UNL     1     -46.932  41.219  26.871  1.00  0.00     0.150 A 
ATOM     16  C   UNL     1     -46.973  43.380  25.866  1.00  0.00     0.137 A 
ATOM     17  N   UNL     1     -48.221  41.301  27.264  1.00  0.00    -0.218 NA
ATOM     18  N   UNL     1     -48.253  43.487  26.268  1.00  0.00    -0.219 NA
ATOM     19  C   UNL     1     -48.799  42.459  26.929  1.00  0.00     0.120 A 
ATOM     20  H   UNL     1     -49.835  42.580  27.228  1.00  0.00     0.106 H 
BRANCH  11  21
ATOM     21  C   UNL     1     -43.814  42.455  25.340  1.00  0.00     0.095 A 
ATOM     22  N   UNL     1     -42.630  43.466  23.909  1.00  0.00    -0.275 N 
ATOM     23  C   UNL     1     -41.889  43.508  25.052  1.00  0.00     0.025 A 
ATOM     24  N   UNL     1     -43.813  42.839  24.057  1.00  0.00    -0.173 NA
ATOM     25  C   UNL     1     -42.635  42.858  26.007  1.00  0.00    -0.016 A 
ATOM     26  H   UNL     1     -40.916  43.979  25.092  1.00  0.00     0.084 H 
ATOM     27  H   UNL     1     -42.356  42.693  27.038  1.00  0.00     0.066 H 
BRANCH  22  28
ATOM     28  C   UNL     1     -42.271  44.010  22.622  1.00  0.00     0.030 C 
ATOM     29  H   UNL     1     -43.182  44.363  22.131  1.00  0.00     0.048 H 
ATOM     30  H   UNL     1     -41.799  43.219  22.033  1.00  0.00     0.048 H 
ATOM     31  H   UNL     1     -41.574  44.841  22.758  1.00  0.00     0.048 H 
ENDBRANCH  22  28
ENDBRANCH  11  21
BRANCH  16  32
ATOM     32  N   UNL     1     -46.457  44.451  25.151  1.00  0.00    -0.383 N 
ATOM     33  H   UNL     1     -47.181  44.955  24.658  1.00  0.00     0.158 HD
ATOM     34  H   UNL     1     -45.794  45.007  25.697  1.00  0.00     0.158 HD
ENDBRANCH  16  32
ENDBRANCH   1  10
BRANCH   5  35
ATOM     35  C   UNL     1     -48.583  35.787  27.092  1.00  0.00     0.115 C 
ATOM     36  H   UNL     1     -49.567  36.022  27.518  1.00  0.00     0.076 H 
ATOM     37  H   UNL     1     -48.696  35.916  26.007  1.00  0.00     0.076 H 
BRANCH  35  38
ATOM     38  O   UNL     1     -48.302  34.424  27.427  1.00  0.00    -0.489 OA
BRANCH  38  39
ATOM     39  C   UNL     1     -47.924  33.583  26.414  1.00  0.00     0.122 A 
ATOM     40  C   UNL     1     -46.598  33.709  26.006  1.00  0.00    -0.019 A 
ATOM     41  C   UNL     1     -48.752  32.670  25.758  1.00  0.00     0.007 A 
ATOM     42  C   UNL     1     -46.102  32.913  24.972  1.00  0.00    -0.049 A 
ATOM     43  H   UNL     1     -45.944  34.427  26.496  1.00  0.00     0.066 H 
ATOM     44  C   UNL     1     -48.291  31.877  24.717  1.00  0.00     0.076 A 
ATOM     45  H   UNL     1     -49.796  32.559  26.019  1.00  0.00     0.069 H 
ATOM     46  C   UNL     1     -46.947  31.995  24.326  1.00  0.00     0.001 A 
ATOM     47  H   UNL     1     -45.063  33.018  24.673  1.00  0.00     0.063 H 
ATOM     48  N   UNL     1     -49.147  31.031  24.117  1.00  0.00    -0.231 NA
ATOM     49  C   UNL     1     -46.503  31.176  23.288  1.00  0.00    -0.049 A 
ATOM     50  C   UNL     1     -48.728  30.264  23.087  1.00  0.00     0.129 A 
ATOM     51  C   UNL     1     -47.398  30.302  22.672  1.00  0.00    -0.019 A 
ATOM     52  H   UNL     1     -45.471  31.206  22.952  1.00  0.00     0.063 H 
ATOM     53  H   UNL     1     -47.048  29.648  21.881  1.00  0.00     0.066 H 
BRANCH  50  54
ATOM     54  N   UNL     1     -49.641  29.394  22.444  1.00  0.00    -0.356 N 
ATOM     55  C   UNL     1     -49.863  29.771  21.033  1.00  0.00     0.025 C 
ATOM     56  C   UNL     1     -49.261  27.981  22.611  1.00  0.00     0.025 C 
ATOM     57  C   UNL     1     -50.988  28.930  20.454  1.00  0.00     0.029 C 
ATOM     58  H   UNL     1     -48.949  29.628  20.439  1.00  0.00     0.050 H 
ATOM     59  H   UNL     1     -50.159  30.825  20.957  1.00  0.00     0.050 H 
ATOM     60  C   UNL     1     -50.377  27.095  22.078  1.00  0.00     0.029 C 
ATOM     61  H   UNL     1     -48.322  27.772  22.083  1.00  0.00     0.050 H 
ATOM     62  H   UNL     1     -49.109  27.719  23.665  1.00  0.00     0.050 H 
ATOM     63  C   UNL     1     -50.678  27.462  20.641  1.00  0.00     0.251 C 
ATOM     64  H   UNL     1     -51.111  29.156  19.388  1.00  0.00     0.035 H 
ATOM     65  H   UNL     1     -51.939  29.172  20.946  1.00  0.00     0.035 H 
ATOM     66  H   UNL     1     -51.280  27.210  22.687  1.00  0.00     0.035 H 
ATOM     67  H   UNL     1     -50.078  26.044  22.140  1.00  0.00     0.035 H 
ATOM     68  F   UNL     1     -51.729  26.720  20.206  1.00  0.00    -0.207 F 
ATOM     69  F   UNL     1     -49.622  27.113  19.860  1.00  0.00    -0.207 F 
ENDBRANCH  50  54
ENDBRANCH  38  39
ENDBRANCH  35  38
ENDBRANCH   5  35
TORSDOF 8
ENDMDL
MODEL 5
REMARK VINA RESULT:     -10.4      4.236     12.876
REMARK SMILES Cn1ccc(-c2cn(-c3cncc(COc4ccc5ccc(N6CCC(F)(F)CC6)nc5c4)c3)c3ncnc(N)c23)n1
REMARK SMILES IDX 9 1 10 2 11 3 12 4 13 5 34 6 8 10 6 11 7 12 41 13 35 15
REMARK SMILES IDX 39 16 36 17 38 18 37 19 5 21 2 22 3 23 42 24 4 25 1 28 40 32
REMARK SMILES IDX 14 35 15 38 16 39 17 40 33 41 18 42 32 44 19 46 31 48 20 49
REMARK SMILES IDX 22 50 21 51 23 54 24 55 30 56 25 57 29 60 26 63 27 68 28 69
REMARK H PARENT 10 7 12 8 34 9 7 14 37 20 3 26 4 27 1 29 1 30 1 31 40 33 40 34
REMARK H PARENT 14 36 14 37 17 43 33 45 18 47 20 52 21 53 24 58 24 59 30 61
REMARK H PARENT 30 62 25 64 25 65 29 66 29 67
REMARK Flexibility Score: inf
ROOT
ATOM      1  C   UNL     1     -47.395  40.392  27.112  1.00  0.00     0.066 A 
ATOM      2  C   UNL     1     -48.655  40.947  27.313  1.00  0.00     0.051 A 
ATOM      3  N   UNL     1     -49.722  40.267  27.801  1.00  0.00    -0.262 NA
ATOM      4  C   UNL     1     -49.526  38.971  28.129  1.00  0.00     0.034 A 
ATOM      5  C   UNL     1     -48.320  38.309  27.961  1.00  0.00     0.010 A 
ATOM      6  C   UNL     1     -47.253  39.035  27.415  1.00  0.00    -0.028 A 
ATOM      7  H   UNL     1     -48.879  41.992  27.124  1.00  0.00     0.086 H 
ATOM      8  H   UNL     1     -50.393  38.467  28.549  1.00  0.00     0.084 H 
ATOM      9  H   UNL     1     -46.318  38.510  27.249  1.00  0.00     0.065 H 
ENDROOT
BRANCH   1  10
ATOM     10  N   UNL     1     -46.299  41.187  26.648  1.00  0.00    -0.299 N 
ATOM     11  C   UNL     1     -45.142  42.735  25.479  1.00  0.00     0.033 A 
ATOM     12  C   UNL     1     -46.375  42.139  25.646  1.00  0.00     0.021 A 
ATOM     13  C   UNL     1     -44.254  42.157  26.430  1.00  0.00     0.071 A 
ATOM     14  H   UNL     1     -47.288  42.304  25.093  1.00  0.00     0.083 H 
ATOM     15  C   UNL     1     -44.981  41.184  27.116  1.00  0.00     0.150 A 
ATOM     16  C   UNL     1     -42.912  42.328  26.819  1.00  0.00     0.137 A 
ATOM     17  N   UNL     1     -44.488  40.400  28.097  1.00  0.00    -0.218 NA
ATOM     18  N   UNL     1     -42.397  41.541  27.783  1.00  0.00    -0.219 NA
ATOM     19  C   UNL     1     -43.200  40.639  28.361  1.00  0.00     0.120 A 
ATOM     20  H   UNL     1     -42.750  40.030  29.140  1.00  0.00     0.106 H 
BRANCH  11  21
ATOM     21  C   UNL     1     -44.813  43.766  24.490  1.00  0.00     0.095 A 
ATOM     22  N   UNL     1     -43.912  44.787  22.871  1.00  0.00    -0.275 N 
ATOM     23  C   UNL     1     -44.862  45.650  23.328  1.00  0.00     0.025 A 
ATOM     24  N   UNL     1     -43.865  43.626  23.553  1.00  0.00    -0.173 NA
ATOM     25  C   UNL     1     -45.470  45.013  24.385  1.00  0.00    -0.016 A 
ATOM     26  H   UNL     1     -45.021  46.622  22.882  1.00  0.00     0.084 H 
ATOM     27  H   UNL     1     -46.271  45.404  24.997  1.00  0.00     0.066 H 
BRANCH  22  28
ATOM     28  C   UNL     1     -43.000  45.002  21.773  1.00  0.00     0.030 C 
ATOM     29  H   UNL     1     -41.995  45.142  22.182  1.00  0.00     0.048 H 
ATOM     30  H   UNL     1     -43.321  45.893  21.229  1.00  0.00     0.048 H 
ATOM     31  H   UNL     1     -43.016  44.134  21.111  1.00  0.00     0.048 H 
ENDBRANCH  22  28
ENDBRANCH  11  21
BRANCH  16  32
ATOM     32  N   UNL     1     -42.059  43.274  26.272  1.00  0.00    -0.383 N 
ATOM     33  H   UNL     1     -42.082  44.142  26.788  1.00  0.00     0.158 HD
ATOM     34  H   UNL     1     -41.136  42.892  26.050  1.00  0.00     0.158 HD
ENDBRANCH  16  32
ENDBRANCH   1  10
BRANCH   5  35
ATOM     35  C   UNL     1     -48.156  36.864  28.350  1.00  0.00     0.115 C 
ATOM     36  H   UNL     1     -47.113  36.581  28.157  1.00  0.00     0.076 H 
ATOM     37  H   UNL     1     -48.312  36.696  29.423  1.00  0.00     0.076 H 
BRANCH  35  38
ATOM     38  O   UNL     1     -48.973  35.994  27.562  1.00  0.00    -0.489 OA
BRANCH  38  39
ATOM     39  C   UNL     1     -48.346  35.031  26.815  1.00  0.00     0.122 A 
ATOM     40  C   UNL     1     -47.040  35.334  26.439  1.00  0.00    -0.019 A 
ATOM     41  C   UNL     1     -48.915  33.831  26.387  1.00  0.00     0.007 A 
ATOM     42  C   UNL     1     -46.305  34.434  25.666  1.00  0.00    -0.049 A 
ATOM     43  H   UNL     1     -46.587  36.272  26.752  1.00  0.00     0.066 H 
ATOM     44  C   UNL     1     -48.214  32.924  25.604  1.00  0.00     0.076 A 
ATOM     45  H   UNL     1     -49.937  33.566  26.627  1.00  0.00     0.069 H 
ATOM     46  C   UNL     1     -46.890  33.228  25.247  1.00  0.00     0.001 A 
ATOM     47  H   UNL     1     -45.284  34.682  25.389  1.00  0.00     0.063 H 
ATOM     48  N   UNL     1     -48.829  31.795  25.210  1.00  0.00    -0.231 NA
ATOM     49  C   UNL     1     -46.201  32.293  24.473  1.00  0.00    -0.049 A 
ATOM     50  C   UNL     1     -48.175  30.907  24.430  1.00  0.00     0.129 A 
ATOM     51  C   UNL     1     -46.847  31.126  24.070  1.00  0.00    -0.019 A 
ATOM     52  H   UNL     1     -45.168  32.461  24.180  1.00  0.00     0.063 H 
ATOM     53  H   UNL     1     -46.304  30.388  23.489  1.00  0.00     0.066 H 
BRANCH  50  54
ATOM     54  N   UNL     1     -48.837  29.732  23.999  1.00  0.00    -0.356 N 
ATOM     55  C   UNL     1     -49.184  28.848  25.131  1.00  0.00     0.025 C 
ATOM     56  C   UNL     1     -49.988  30.038  23.132  1.00  0.00     0.025 C 
ATOM     57  C   UNL     1     -49.710  27.525  24.598  1.00  0.00     0.029 C 
ATOM     58  H   UNL     1     -49.939  29.315  25.778  1.00  0.00     0.050 H 
ATOM     59  H   UNL     1     -48.296  28.634  25.739  1.00  0.00     0.050 H 
ATOM     60  C   UNL     1     -50.529  28.744  22.544  1.00  0.00     0.029 C 
ATOM     61  H   UNL     1     -50.770  30.555  23.702  1.00  0.00     0.050 H 
ATOM     62  H   UNL     1     -49.708  30.688  22.295  1.00  0.00     0.050 H 
ATOM     63  C   UNL     1     -50.867  27.778  23.658  1.00  0.00     0.251 C 
ATOM     64  H   UNL     1     -50.034  26.891  25.432  1.00  0.00     0.035 H 
ATOM     65  H   UNL     1     -48.917  26.982  24.070  1.00  0.00     0.035 H 
ATOM     66  H   UNL     1     -49.792  28.292  21.871  1.00  0.00     0.035 H 
ATOM     67  H   UNL     1     -51.423  28.954  21.947  1.00  0.00     0.035 H 
ATOM     68  F   UNL     1     -51.271  26.600  23.115  1.00  0.00    -0.207 F 
ATOM     69  F   UNL     1     -51.930  28.255  24.356  1.00  0.00    -0.207 F 
ENDBRANCH  50  54
ENDBRANCH  38  39
ENDBRANCH  35  38
ENDBRANCH   5  35
TORSDOF 8
ENDMDL
MODEL 6
REMARK VINA RESULT:     -10.2      4.606     13.093
REMARK SMILES Cn1ccc(-c2cn(-c3cncc(COc4ccc5ccc(N6CCC(F)(F)CC6)nc5c4)c3)c3ncnc(N)c23)n1
REMARK SMILES IDX 9 1 10 2 11 3 12 4 13 5 34 6 8 10 6 11 7 12 41 13 35 15
REMARK SMILES IDX 39 16 36 17 38 18 37 19 5 21 2 22 3 23 42 24 4 25 1 28 40 32
REMARK SMILES IDX 14 35 15 38 16 39 17 40 33 41 18 42 32 44 19 46 31 48 20 49
REMARK SMILES IDX 22 50 21 51 23 54 24 55 30 56 25 57 29 60 26 63 27 68 28 69
REMARK H PARENT 10 7 12 8 34 9 7 14 37 20 3 26 4 27 1 29 1 30 1 31 40 33 40 34
REMARK H PARENT 14 36 14 37 17 43 33 45 18 47 20 52 21 53 24 58 24 59 30 61
REMARK H PARENT 30 62 25 64 25 65 29 66 29 67
REMARK Flexibility Score: inf
ROOT
ATOM      1  C   UNL     1     -45.511  38.430  28.704  1.00  0.00     0.066 A 
ATOM      2  C   UNL     1     -45.210  38.038  30.005  1.00  0.00     0.051 A 
ATOM      3  N   UNL     1     -45.676  36.908  30.592  1.00  0.00    -0.262 NA
ATOM      4  C   UNL     1     -46.468  36.109  29.843  1.00  0.00     0.034 A 
ATOM      5  C   UNL     1     -46.844  36.402  28.541  1.00  0.00     0.010 A 
ATOM      6  C   UNL     1     -46.375  37.600  27.985  1.00  0.00    -0.028 A 
ATOM      7  H   UNL     1     -44.542  38.597  30.652  1.00  0.00     0.086 H 
ATOM      8  H   UNL     1     -46.795  35.196  30.334  1.00  0.00     0.084 H 
ATOM      9  H   UNL     1     -46.697  37.849  26.979  1.00  0.00     0.065 H 
ENDROOT
BRANCH   1  10
ATOM     10  N   UNL     1     -44.933  39.607  28.131  1.00  0.00    -0.299 N 
ATOM     11  C   UNL     1     -44.670  41.414  26.801  1.00  0.00     0.033 A 
ATOM     12  C   UNL     1     -45.469  40.322  27.073  1.00  0.00     0.021 A 
ATOM     13  C   UNL     1     -43.599  41.406  27.739  1.00  0.00     0.071 A 
ATOM     14  H   UNL     1     -46.359  39.988  26.560  1.00  0.00     0.083 H 
ATOM     15  C   UNL     1     -43.765  40.266  28.525  1.00  0.00     0.150 A 
ATOM     16  C   UNL     1     -42.494  42.223  28.043  1.00  0.00     0.137 A 
ATOM     17  N   UNL     1     -42.943  39.894  29.529  1.00  0.00    -0.218 NA
ATOM     18  N   UNL     1     -41.652  41.857  29.028  1.00  0.00    -0.219 NA
ATOM     19  C   UNL     1     -41.919  40.735  29.707  1.00  0.00     0.120 A 
ATOM     20  H   UNL     1     -41.222  40.479  30.498  1.00  0.00     0.106 H 
BRANCH  11  21
ATOM     21  C   UNL     1     -44.887  42.391  25.730  1.00  0.00     0.095 A 
ATOM     22  N   UNL     1     -44.632  43.539  23.971  1.00  0.00    -0.275 N 
ATOM     23  C   UNL     1     -45.820  43.965  24.484  1.00  0.00     0.025 A 
ATOM     24  N   UNL     1     -44.044  42.573  24.704  1.00  0.00    -0.173 NA
ATOM     25  C   UNL     1     -46.017  43.234  25.632  1.00  0.00    -0.016 A 
ATOM     26  H   UNL     1     -46.410  44.735  24.008  1.00  0.00     0.084 H 
ATOM     27  H   UNL     1     -46.858  43.310  26.306  1.00  0.00     0.066 H 
BRANCH  22  28
ATOM     28  C   UNL     1     -43.985  44.012  22.771  1.00  0.00     0.030 C 
ATOM     29  H   UNL     1     -42.903  43.919  22.903  1.00  0.00     0.048 H 
ATOM     30  H   UNL     1     -44.265  45.057  22.618  1.00  0.00     0.048 H 
ATOM     31  H   UNL     1     -44.310  43.409  21.920  1.00  0.00     0.048 H 
ENDBRANCH  22  28
ENDBRANCH  11  21
BRANCH  16  32
ATOM     32  N   UNL     1     -42.202  43.411  27.390  1.00  0.00    -0.383 N 
ATOM     33  H   UNL     1     -41.288  43.761  27.640  1.00  0.00     0.158 HD
ATOM     34  H   UNL     1     -42.430  43.379  26.393  1.00  0.00     0.158 HD
ENDBRANCH  16  32
ENDBRANCH   1  10
BRANCH   5  35
ATOM     35  C   UNL     1     -47.723  35.471  27.750  1.00  0.00     0.115 C 
ATOM     36  H   UNL     1     -47.607  34.464  28.169  1.00  0.00     0.076 H 
ATOM     37  H   UNL     1     -48.790  35.710  27.851  1.00  0.00     0.076 H 
BRANCH  35  38
ATOM     38  O   UNL     1     -47.334  35.395  26.375  1.00  0.00    -0.489 OA
BRANCH  38  39
ATOM     39  C   UNL     1     -47.244  34.153  25.805  1.00  0.00     0.122 A 
ATOM     40  C   UNL     1     -46.354  34.055  24.738  1.00  0.00    -0.019 A 
ATOM     41  C   UNL     1     -47.984  33.029  26.176  1.00  0.00     0.007 A 
ATOM     42  C   UNL     1     -46.188  32.842  24.070  1.00  0.00    -0.049 A 
ATOM     43  H   UNL     1     -45.781  34.927  24.427  1.00  0.00     0.066 H 
ATOM     44  C   UNL     1     -47.852  31.813  25.520  1.00  0.00     0.076 A 
ATOM     45  H   UNL     1     -48.710  33.064  26.978  1.00  0.00     0.069 H 
ATOM     46  C   UNL     1     -46.935  31.718  24.460  1.00  0.00     0.001 A 
ATOM     47  H   UNL     1     -45.482  32.781  23.246  1.00  0.00     0.063 H 
ATOM     48  N   UNL     1     -48.608  30.775  25.917  1.00  0.00    -0.231 NA
ATOM     49  C   UNL     1     -46.809  30.481  23.826  1.00  0.00    -0.049 A 
ATOM     50  C   UNL     1     -48.513  29.588  25.282  1.00  0.00     0.129 A 
ATOM     51  C   UNL     1     -47.597  29.411  24.246  1.00  0.00    -0.019 A 
ATOM     52  H   UNL     1     -46.104  30.338  23.012  1.00  0.00     0.063 H 
ATOM     53  H   UNL     1     -47.482  28.443  23.770  1.00  0.00     0.066 H 
BRANCH  50  54
ATOM     54  N   UNL     1     -49.331  28.506  25.690  1.00  0.00    -0.356 N 
ATOM     55  C   UNL     1     -50.155  27.987  24.579  1.00  0.00     0.025 C 
ATOM     56  C   UNL     1     -48.551  27.457  26.369  1.00  0.00     0.025 C 
ATOM     57  C   UNL     1     -51.145  26.967  25.116  1.00  0.00     0.029 C 
ATOM     58  H   UNL     1     -49.527  27.524  23.805  1.00  0.00     0.050 H 
ATOM     59  H   UNL     1     -50.729  28.799  24.114  1.00  0.00     0.050 H 
ATOM     60  C   UNL     1     -49.504  26.427  26.956  1.00  0.00     0.029 C 
ATOM     61  H   UNL     1     -47.858  26.978  25.665  1.00  0.00     0.050 H 
ATOM     62  H   UNL     1     -47.953  27.860  27.194  1.00  0.00     0.050 H 
ATOM     63  C   UNL     1     -50.406  25.885  25.869  1.00  0.00     0.251 C 
ATOM     64  H   UNL     1     -51.713  26.528  24.287  1.00  0.00     0.035 H 
ATOM     65  H   UNL     1     -51.871  27.451  25.781  1.00  0.00     0.035 H 
ATOM     66  H   UNL     1     -50.109  26.876  27.752  1.00  0.00     0.035 H 
ATOM     67  H   UNL     1     -48.932  25.610  27.410  1.00  0.00     0.035 H 
ATOM     68  F   UNL     1     -51.303  25.029  26.424  1.00  0.00    -0.207 F 
ATOM     69  F   UNL     1     -49.666  25.146  25.002  1.00  0.00    -0.207 F 
ENDBRANCH  50  54
ENDBRANCH  38  39
ENDBRANCH  35  38
ENDBRANCH   5  35
TORSDOF 8
ENDMDL
MODEL 7
REMARK VINA RESULT:     -10.0      1.593      2.132
REMARK SMILES Cn1ccc(-c2cn(-c3cncc(COc4ccc5ccc(N6CCC(F)(F)CC6)nc5c4)c3)c3ncnc(N)c23)n1
REMARK SMILES IDX 9 1 10 2 11 3 12 4 13 5 34 6 8 10 6 11 7 12 41 13 35 15
REMARK SMILES IDX 39 16 36 17 38 18 37 19 5 21 2 22 3 23 42 24 4 25 1 28 40 32
REMARK SMILES IDX 14 35 15 38 16 39 17 40 33 41 18 42 32 44 19 46 31 48 20 49
REMARK SMILES IDX 22 50 21 51 23 54 24 55 30 56 25 57 29 60 26 63 27 68 28 69
REMARK H PARENT 10 7 12 8 34 9 7 14 37 20 3 26 4 27 1 29 1 30 1 31 40 33 40 34
REMARK H PARENT 14 36 14 37 17 43 33 45 18 47 20 52 21 53 24 58 24 59 30 61
REMARK H PARENT 30 62 25 64 25 65 29 66 29 67
REMARK Flexibility Score: inf
ROOT
ATOM      1  C   UNL     1     -47.911  32.506  25.402  1.00  0.00     0.066 A 
ATOM      2  C   UNL     1     -46.600  32.889  25.132  1.00  0.00     0.051 A 
ATOM      3  N   UNL     1     -46.050  34.066  25.522  1.00  0.00    -0.262 NA
ATOM      4  C   UNL     1     -46.833  34.902  26.238  1.00  0.00     0.034 A 
ATOM      5  C   UNL     1     -48.156  34.632  26.556  1.00  0.00     0.010 A 
ATOM      6  C   UNL     1     -48.699  33.424  26.099  1.00  0.00    -0.028 A 
ATOM      7  H   UNL     1     -45.893  32.253  24.608  1.00  0.00     0.086 H 
ATOM      8  H   UNL     1     -46.349  35.819  26.563  1.00  0.00     0.084 H 
ATOM      9  H   UNL     1     -49.744  33.228  26.316  1.00  0.00     0.065 H 
ENDROOT
BRANCH   1  10
ATOM     10  N   UNL     1     -48.404  31.222  25.009  1.00  0.00    -0.299 N 
ATOM     11  C   UNL     1     -48.914  29.023  25.097  1.00  0.00     0.033 A 
ATOM     12  C   UNL     1     -48.305  30.066  25.765  1.00  0.00     0.021 A 
ATOM     13  C   UNL     1     -49.441  29.542  23.881  1.00  0.00     0.071 A 
ATOM     14  H   UNL     1     -47.778  30.052  26.707  1.00  0.00     0.083 H 
ATOM     15  C   UNL     1     -49.087  30.890  23.835  1.00  0.00     0.150 A 
ATOM     16  C   UNL     1     -50.190  29.052  22.794  1.00  0.00     0.137 A 
ATOM     17  N   UNL     1     -49.394  31.735  22.828  1.00  0.00    -0.218 NA
ATOM     18  N   UNL     1     -50.489  29.875  21.772  1.00  0.00    -0.219 NA
ATOM     19  C   UNL     1     -50.085  31.150  21.845  1.00  0.00     0.120 A 
ATOM     20  H   UNL     1     -50.353  31.784  21.005  1.00  0.00     0.106 H 
BRANCH  11  21
ATOM     21  C   UNL     1     -48.986  27.633  25.559  1.00  0.00     0.095 A 
ATOM     22  N   UNL     1     -48.433  25.705  26.229  1.00  0.00    -0.275 N 
ATOM     23  C   UNL     1     -49.796  25.683  26.225  1.00  0.00     0.025 A 
ATOM     24  N   UNL     1     -47.911  26.883  25.837  1.00  0.00    -0.173 NA
ATOM     25  C   UNL     1     -50.189  26.929  25.794  1.00  0.00    -0.016 A 
ATOM     26  H   UNL     1     -50.360  24.809  26.516  1.00  0.00     0.084 H 
ATOM     27  H   UNL     1     -51.205  27.273  25.661  1.00  0.00     0.066 H 
BRANCH  22  28
ATOM     28  C   UNL     1     -47.550  24.625  26.600  1.00  0.00     0.030 C 
ATOM     29  H   UNL     1     -47.216  24.124  25.687  1.00  0.00     0.048 H 
ATOM     30  H   UNL     1     -48.103  23.932  27.239  1.00  0.00     0.048 H 
ATOM     31  H   UNL     1     -46.690  25.027  27.141  1.00  0.00     0.048 H 
ENDBRANCH  22  28
ENDBRANCH  11  21
BRANCH  16  32
ATOM     32  N   UNL     1     -50.658  27.750  22.697  1.00  0.00    -0.383 N 
ATOM     33  H   UNL     1     -51.603  27.718  22.339  1.00  0.00     0.158 HD
ATOM     34  H   UNL     1     -49.979  27.117  22.268  1.00  0.00     0.158 HD
ENDBRANCH  16  32
ENDBRANCH   1  10
BRANCH   5  35
ATOM     35  C   UNL     1     -48.981  35.598  27.364  1.00  0.00     0.115 C 
ATOM     36  H   UNL     1     -49.537  36.232  26.662  1.00  0.00     0.076 H 
ATOM     37  H   UNL     1     -49.743  35.096  27.973  1.00  0.00     0.076 H 
BRANCH  35  38
ATOM     38  O   UNL     1     -48.172  36.471  28.158  1.00  0.00    -0.489 OA
BRANCH  38  39
ATOM     39  C   UNL     1     -48.261  37.817  27.920  1.00  0.00     0.122 A 
ATOM     40  C   UNL     1     -49.468  38.404  28.290  1.00  0.00    -0.019 A 
ATOM     41  C   UNL     1     -47.279  38.606  27.316  1.00  0.00     0.007 A 
ATOM     42  C   UNL     1     -49.679  39.768  28.083  1.00  0.00    -0.049 A 
ATOM     43  H   UNL     1     -50.249  37.799  28.747  1.00  0.00     0.066 H 
ATOM     44  C   UNL     1     -47.467  39.961  27.083  1.00  0.00     0.076 A 
ATOM     45  H   UNL     1     -46.338  38.189  26.983  1.00  0.00     0.069 H 
ATOM     46  C   UNL     1     -48.680  40.549  27.481  1.00  0.00     0.001 A 
ATOM     47  H   UNL     1     -50.624  40.211  28.387  1.00  0.00     0.063 H 
ATOM     48  N   UNL     1     -46.488  40.658  26.482  1.00  0.00    -0.231 NA
ATOM     49  C   UNL     1     -48.839  41.916  27.250  1.00  0.00    -0.049 A 
ATOM     50  C   UNL     1     -46.655  41.974  26.225  1.00  0.00     0.129 A 
ATOM     51  C   UNL     1     -47.818  42.630  26.626  1.00  0.00    -0.019 A 
ATOM     52  H   UNL     1     -49.745  42.433  27.551  1.00  0.00     0.063 H 
ATOM     53  H   UNL     1     -47.930  43.698  26.468  1.00  0.00     0.066 H 
BRANCH  50  54
ATOM     54  N   UNL     1     -45.629  42.696  25.569  1.00  0.00    -0.356 N 
ATOM     55  C   UNL     1     -45.139  43.824  26.388  1.00  0.00     0.025 C 
ATOM     56  C   UNL     1     -44.550  41.811  25.100  1.00  0.00     0.025 C 
ATOM     57  C   UNL     1     -44.186  44.673  25.562  1.00  0.00     0.029 C 
ATOM     58  H   UNL     1     -44.626  43.461  27.290  1.00  0.00     0.050 H 
ATOM     59  H   UNL     1     -45.973  44.465  26.701  1.00  0.00     0.050 H 
ATOM     60  C   UNL     1     -43.587  42.610  24.236  1.00  0.00     0.029 C 
ATOM     61  H   UNL     1     -44.020  41.367  25.953  1.00  0.00     0.050 H 
ATOM     62  H   UNL     1     -44.934  40.986  24.488  1.00  0.00     0.050 H 
ATOM     63  C   UNL     1     -43.078  43.806  25.009  1.00  0.00     0.251 C 
ATOM     64  H   UNL     1     -43.765  45.471  26.185  1.00  0.00     0.035 H 
ATOM     65  H   UNL     1     -44.723  45.158  24.737  1.00  0.00     0.035 H 
ATOM     66  H   UNL     1     -44.084  42.945  23.319  1.00  0.00     0.035 H 
ATOM     67  H   UNL     1     -42.747  41.976  23.933  1.00  0.00     0.035 H 
ATOM     68  F   UNL     1     -42.284  44.553  24.198  1.00  0.00    -0.207 F 
ATOM     69  F   UNL     1     -42.282  43.377  26.023  1.00  0.00    -0.207 F 
ENDBRANCH  50  54
ENDBRANCH  38  39
ENDBRANCH  35  38
ENDBRANCH   5  35
TORSDOF 8
ENDMDL
