MODEL 1
REMARK VINA RESULT:      -9.0      0.000      0.000
REMARK SMILES C=CC(=O)Nc1nc(N)c2ccn(-c3cncc(COc4ccc5ccc(NC)nc5c4)c3)c2n1
REMARK SMILES IDX 19 1 18 4 14 5 15 6 33 7 16 8 17 11 13 13 6 14 7 15 35 16
REMARK SMILES IDX 8 17 34 18 10 19 11 20 12 21 5 24 3 25 4 26 2 28 1 29 9 33
REMARK SMILES IDX 20 36 21 37 22 38 32 39 23 40 31 42 24 44 30 46 25 47 27 48
REMARK SMILES IDX 26 49 28 52 29 54
REMARK H PARENT 19 2 19 3 15 9 33 10 17 12 11 22 12 23 5 27 1 30 1 31 2 32
REMARK H PARENT 9 34 9 35 22 41 32 43 23 45 25 50 26 51 28 53 29 55 29 56
REMARK H PARENT 29 57
REMARK Flexibility Score: inf
ROOT
ATOM      1  C   UNL     1     -47.195  32.660  25.007  1.00  0.00     0.115 C 
ATOM      2  H   UNL     1     -46.689  31.690  25.109  1.00  0.00     0.076 H 
ATOM      3  H   UNL     1     -46.690  33.172  24.180  1.00  0.00     0.076 H 
ENDROOT
BRANCH   1   4
ATOM      4  C   UNL     1     -47.051  33.508  26.238  1.00  0.00     0.010 A 
ATOM      5  C   UNL     1     -47.671  35.449  27.563  1.00  0.00     0.066 A 
ATOM      6  C   UNL     1     -46.742  35.016  28.505  1.00  0.00     0.051 A 
ATOM      7  C   UNL     1     -47.833  34.656  26.424  1.00  0.00    -0.028 A 
ATOM      8  N   UNL     1     -45.984  33.900  28.370  1.00  0.00    -0.262 NA
ATOM      9  H   UNL     1     -46.526  35.561  29.418  1.00  0.00     0.086 H 
ATOM     10  H   UNL     1     -48.568  34.899  25.664  1.00  0.00     0.065 H 
ATOM     11  C   UNL     1     -46.146  33.181  27.238  1.00  0.00     0.034 A 
ATOM     12  H   UNL     1     -45.506  32.306  27.155  1.00  0.00     0.084 H 
BRANCH   5  13
ATOM     13  N   UNL     1     -48.412  36.654  27.758  1.00  0.00    -0.300 N 
ATOM     14  C   UNL     1     -46.441  39.665  27.841  1.00  0.00     0.233 A 
ATOM     15  N   UNL     1     -47.402  40.581  27.999  1.00  0.00    -0.195 NA
ATOM     16  N   UNL     1     -46.625  38.340  27.750  1.00  0.00    -0.194 NA
ATOM     17  C   UNL     1     -48.683  40.191  28.090  1.00  0.00     0.138 A 
ATOM     18  C   UNL     1     -47.917  37.960  27.820  1.00  0.00     0.152 A 
ATOM     19  C   UNL     1     -48.985  38.829  28.003  1.00  0.00     0.062 A 
ATOM     20  C   UNL     1     -50.161  38.047  28.073  1.00  0.00    -0.031 A 
ATOM     21  C   UNL     1     -49.788  36.729  27.933  1.00  0.00     0.012 A 
ATOM     22  H   UNL     1     -51.171  38.405  28.222  1.00  0.00     0.065 H 
ATOM     23  H   UNL     1     -50.413  35.847  27.918  1.00  0.00     0.082 H 
BRANCH  14  24
ATOM     24  N   UNL     1     -45.105  40.042  27.759  1.00  0.00    -0.291 N 
ATOM     25  C   UNL     1     -44.544  40.796  26.771  1.00  0.00     0.250 C 
ATOM     26  O   UNL     1     -45.083  41.232  25.760  1.00  0.00    -0.270 OA
ATOM     27  H   UNL     1     -44.543  39.672  28.507  1.00  0.00     0.173 HD
BRANCH  25  28
ATOM     28  C   UNL     1     -43.082  41.043  26.935  1.00  0.00    -0.004 C 
ATOM     29  C   UNL     1     -42.507  42.173  27.365  1.00  0.00    -0.094 C 
ATOM     30  H   UNL     1     -43.065  43.062  27.639  1.00  0.00     0.054 H 
ATOM     31  H   UNL     1     -41.425  42.252  27.407  1.00  0.00     0.054 H 
ATOM     32  H   UNL     1     -42.464  40.211  26.608  1.00  0.00     0.067 H 
ENDBRANCH  25  28
ENDBRANCH  14  24
BRANCH  17  33
ATOM     33  N   UNL     1     -49.637  41.185  28.260  1.00  0.00    -0.383 N 
ATOM     34  H   UNL     1     -49.350  42.107  27.964  1.00  0.00     0.158 HD
ATOM     35  H   UNL     1     -50.030  41.119  29.195  1.00  0.00     0.158 HD
ENDBRANCH  17  33
ENDBRANCH   5  13
ENDBRANCH   1   4
BRANCH   1  36
ATOM     36  O   UNL     1     -48.568  32.506  24.628  1.00  0.00    -0.489 OA
BRANCH  36  37
ATOM     37  C   UNL     1     -49.024  31.218  24.553  1.00  0.00     0.122 A 
ATOM     38  C   UNL     1     -50.012  30.979  23.603  1.00  0.00    -0.019 A 
ATOM     39  C   UNL     1     -48.611  30.182  25.394  1.00  0.00     0.007 A 
ATOM     40  C   UNL     1     -50.551  29.700  23.467  1.00  0.00    -0.049 A 
ATOM     41  H   UNL     1     -50.360  31.786  22.963  1.00  0.00     0.066 H 
ATOM     42  C   UNL     1     -49.132  28.901  25.284  1.00  0.00     0.076 A 
ATOM     43  H   UNL     1     -47.888  30.356  26.183  1.00  0.00     0.069 H 
ATOM     44  C   UNL     1     -50.112  28.660  24.301  1.00  0.00     0.001 A 
ATOM     45  H   UNL     1     -51.315  29.523  22.714  1.00  0.00     0.063 H 
ATOM     46  N   UNL     1     -48.689  27.940  26.115  1.00  0.00    -0.231 NA
ATOM     47  C   UNL     1     -50.621  27.363  24.200  1.00  0.00    -0.049 A 
ATOM     48  C   UNL     1     -49.215  26.701  26.033  1.00  0.00     0.126 A 
ATOM     49  C   UNL     1     -50.164  26.378  25.068  1.00  0.00    -0.019 A 
ATOM     50  H   UNL     1     -51.371  27.114  23.454  1.00  0.00     0.063 H 
ATOM     51  H   UNL     1     -50.546  25.365  24.989  1.00  0.00     0.066 H 
BRANCH  48  52
ATOM     52  N   UNL     1     -48.761  25.674  26.878  1.00  0.00    -0.373 N 
ATOM     53  H   UNL     1     -48.655  26.043  27.820  1.00  0.00     0.161 HD
BRANCH  52  54
ATOM     54  C   UNL     1     -47.539  25.021  26.431  1.00  0.00     0.005 C 
ATOM     55  H   UNL     1     -47.246  24.212  27.111  1.00  0.00     0.045 H 
ATOM     56  H   UNL     1     -46.715  25.731  26.329  1.00  0.00     0.045 H 
ATOM     57  H   UNL     1     -47.713  24.579  25.445  1.00  0.00     0.045 H 
ENDBRANCH  52  54
ENDBRANCH  48  52
ENDBRANCH  36  37
ENDBRANCH   1  36
TORSDOF 9
ENDMDL
MODEL 2
REMARK VINA RESULT:      -8.8      1.659      2.352
REMARK SMILES C=CC(=O)Nc1nc(N)c2ccn(-c3cncc(COc4ccc5ccc(NC)nc5c4)c3)c2n1
REMARK SMILES IDX 19 1 18 4 14 5 15 6 33 7 16 8 17 11 13 13 6 14 7 15 35 16
REMARK SMILES IDX 8 17 34 18 10 19 11 20 12 21 5 24 3 25 4 26 2 28 1 29 9 33
REMARK SMILES IDX 20 36 21 37 22 38 32 39 23 40 31 42 24 44 30 46 25 47 27 48
REMARK SMILES IDX 26 49 28 52 29 54
REMARK H PARENT 19 2 19 3 15 9 33 10 17 12 11 22 12 23 5 27 1 30 1 31 2 32
REMARK H PARENT 9 34 9 35 22 41 32 43 23 45 25 50 26 51 28 53 29 55 29 56
REMARK H PARENT 29 57
REMARK Flexibility Score: inf
ROOT
ATOM      1  C   UNL     1     -46.429  34.252  26.050  1.00  0.00     0.115 C 
ATOM      2  H   UNL     1     -45.682  33.489  26.310  1.00  0.00     0.076 H 
ATOM      3  H   UNL     1     -46.001  34.812  25.210  1.00  0.00     0.076 H 
ENDROOT
BRANCH   1   4
ATOM      4  C   UNL     1     -46.671  35.217  27.177  1.00  0.00     0.010 A 
ATOM      5  C   UNL     1     -47.501  37.345  28.007  1.00  0.00     0.066 A 
ATOM      6  C   UNL     1     -47.084  36.934  29.270  1.00  0.00     0.051 A 
ATOM      7  C   UNL     1     -47.304  36.447  26.954  1.00  0.00    -0.028 A 
ATOM      8  N   UNL     1     -46.490  35.743  29.527  1.00  0.00    -0.262 NA
ATOM      9  H   UNL     1     -47.177  37.556  30.155  1.00  0.00     0.086 H 
ATOM     10  H   UNL     1     -47.640  36.671  25.947  1.00  0.00     0.065 H 
ATOM     11  C   UNL     1     -46.286  34.920  28.475  1.00  0.00     0.034 A 
ATOM     12  H   UNL     1     -45.786  33.984  28.717  1.00  0.00     0.084 H 
BRANCH   5  13
ATOM     13  N   UNL     1     -48.093  38.629  27.806  1.00  0.00    -0.300 N 
ATOM     14  C   UNL     1     -45.825  41.203  26.715  1.00  0.00     0.233 A 
ATOM     15  N   UNL     1     -46.668  42.233  26.593  1.00  0.00    -0.195 NA
ATOM     16  N   UNL     1     -46.151  39.962  27.107  1.00  0.00    -0.194 NA
ATOM     17  C   UNL     1     -47.966  42.068  26.886  1.00  0.00     0.138 A 
ATOM     18  C   UNL     1     -47.463  39.800  27.377  1.00  0.00     0.152 A 
ATOM     19  C   UNL     1     -48.414  40.810  27.301  1.00  0.00     0.062 A 
ATOM     20  C   UNL     1     -49.651  40.259  27.708  1.00  0.00    -0.031 A 
ATOM     21  C   UNL     1     -49.430  38.937  28.020  1.00  0.00     0.012 A 
ATOM     22  H   UNL     1     -50.600  40.775  27.776  1.00  0.00     0.065 H 
ATOM     23  H   UNL     1     -50.141  38.192  28.351  1.00  0.00     0.082 H 
BRANCH  14  24
ATOM     24  N   UNL     1     -44.472  41.351  26.432  1.00  0.00    -0.291 N 
ATOM     25  C   UNL     1     -43.631  42.268  26.990  1.00  0.00     0.250 C 
ATOM     26  O   UNL     1     -43.910  43.154  27.790  1.00  0.00    -0.270 OA
ATOM     27  H   UNL     1     -44.145  40.716  25.722  1.00  0.00     0.173 HD
BRANCH  25  28
ATOM     28  C   UNL     1     -42.226  42.204  26.492  1.00  0.00    -0.004 C 
ATOM     29  C   UNL     1     -41.201  41.574  27.080  1.00  0.00    -0.094 C 
ATOM     30  H   UNL     1     -41.287  41.034  28.016  1.00  0.00     0.054 H 
ATOM     31  H   UNL     1     -40.207  41.628  26.645  1.00  0.00     0.054 H 
ATOM     32  H   UNL     1     -42.059  42.787  25.591  1.00  0.00     0.067 H 
ENDBRANCH  25  28
ENDBRANCH  14  24
BRANCH  17  33
ATOM     33  N   UNL     1     -48.793  43.175  26.748  1.00  0.00    -0.383 N 
ATOM     34  H   UNL     1     -49.782  42.969  26.726  1.00  0.00     0.158 HD
ATOM     35  H   UNL     1     -48.444  43.765  25.998  1.00  0.00     0.158 HD
ENDBRANCH  17  33
ENDBRANCH   5  13
ENDBRANCH   1   4
BRANCH   1  36
ATOM     36  O   UNL     1     -47.650  33.665  25.584  1.00  0.00    -0.489 OA
BRANCH  36  37
ATOM     37  C   UNL     1     -47.545  32.399  25.075  1.00  0.00     0.122 A 
ATOM     38  C   UNL     1     -46.519  32.198  24.158  1.00  0.00    -0.019 A 
ATOM     39  C   UNL     1     -48.423  31.353  25.369  1.00  0.00     0.007 A 
ATOM     40  C   UNL     1     -46.346  30.945  23.572  1.00  0.00    -0.049 A 
ATOM     41  H   UNL     1     -45.848  33.014  23.902  1.00  0.00     0.066 H 
ATOM     42  C   UNL     1     -48.278  30.097  24.798  1.00  0.00     0.076 A 
ATOM     43  H   UNL     1     -49.267  31.500  26.033  1.00  0.00     0.069 H 
ATOM     44  C   UNL     1     -47.219  29.893  23.892  1.00  0.00     0.001 A 
ATOM     45  H   UNL     1     -45.534  30.797  22.865  1.00  0.00     0.063 H 
ATOM     46  N   UNL     1     -49.147  29.124  25.125  1.00  0.00    -0.231 NA
ATOM     47  C   UNL     1     -47.083  28.621  23.331  1.00  0.00    -0.049 A 
ATOM     48  C   UNL     1     -49.028  27.910  24.549  1.00  0.00     0.126 A 
ATOM     49  C   UNL     1     -47.992  27.623  23.669  1.00  0.00    -0.019 A 
ATOM     50  H   UNL     1     -46.280  28.400  22.634  1.00  0.00     0.063 H 
ATOM     51  H   UNL     1     -47.887  26.628  23.247  1.00  0.00     0.066 H 
BRANCH  48  52
ATOM     52  N   UNL     1     -49.914  26.871  24.884  1.00  0.00    -0.373 N 
ATOM     53  H   UNL     1     -50.855  27.249  24.957  1.00  0.00     0.161 HD
BRANCH  52  54
ATOM     54  C   UNL     1     -49.552  26.133  26.085  1.00  0.00     0.005 C 
ATOM     55  H   UNL     1     -50.440  25.801  26.634  1.00  0.00     0.045 H 
ATOM     56  H   UNL     1     -48.912  26.724  26.745  1.00  0.00     0.045 H 
ATOM     57  H   UNL     1     -48.987  25.240  25.797  1.00  0.00     0.045 H 
ENDBRANCH  52  54
ENDBRANCH  48  52
ENDBRANCH  36  37
ENDBRANCH   1  36
TORSDOF 9
ENDMDL
MODEL 3
REMARK VINA RESULT:      -8.8      2.834      4.043
REMARK SMILES C=CC(=O)Nc1nc(N)c2ccn(-c3cncc(COc4ccc5ccc(NC)nc5c4)c3)c2n1
REMARK SMILES IDX 19 1 18 4 14 5 15 6 33 7 16 8 17 11 13 13 6 14 7 15 35 16
REMARK SMILES IDX 8 17 34 18 10 19 11 20 12 21 5 24 3 25 4 26 2 28 1 29 9 33
REMARK SMILES IDX 20 36 21 37 22 38 32 39 23 40 31 42 24 44 30 46 25 47 27 48
REMARK SMILES IDX 26 49 28 52 29 54
REMARK H PARENT 19 2 19 3 15 9 33 10 17 12 11 22 12 23 5 27 1 30 1 31 2 32
REMARK H PARENT 9 34 9 35 22 41 32 43 23 45 25 50 26 51 28 53 29 55 29 56
REMARK H PARENT 29 57
REMARK Flexibility Score: inf
ROOT
ATOM      1  C   UNL     1     -48.133  34.796  26.962  1.00  0.00     0.115 C 
ATOM      2  H   UNL     1     -48.661  34.857  26.000  1.00  0.00     0.076 H 
ATOM      3  H   UNL     1     -48.911  34.640  27.718  1.00  0.00     0.076 H 
ENDROOT
BRANCH   1   4
ATOM      4  C   UNL     1     -47.408  36.069  27.294  1.00  0.00     0.010 A 
ATOM      5  C   UNL     1     -47.369  38.486  27.548  1.00  0.00     0.066 A 
ATOM      6  C   UNL     1     -46.032  38.357  27.911  1.00  0.00     0.051 A 
ATOM      7  C   UNL     1     -48.063  37.307  27.260  1.00  0.00    -0.028 A 
ATOM      8  N   UNL     1     -45.371  37.174  27.977  1.00  0.00    -0.262 NA
ATOM      9  H   UNL     1     -45.397  39.205  28.142  1.00  0.00     0.086 H 
ATOM     10  H   UNL     1     -49.119  37.317  27.012  1.00  0.00     0.065 H 
ATOM     11  C   UNL     1     -46.069  36.062  27.656  1.00  0.00     0.034 A 
ATOM     12  H   UNL     1     -45.500  35.137  27.698  1.00  0.00     0.084 H 
BRANCH   5  13
ATOM     13  N   UNL     1     -47.992  39.769  27.469  1.00  0.00    -0.300 N 
ATOM     14  C   UNL     1     -45.860  42.435  26.327  1.00  0.00     0.233 A 
ATOM     15  N   UNL     1     -46.723  43.456  26.335  1.00  0.00    -0.195 NA
ATOM     16  N   UNL     1     -46.136  41.170  26.677  1.00  0.00    -0.194 NA
ATOM     17  C   UNL     1     -47.989  43.253  26.730  1.00  0.00     0.138 A 
ATOM     18  C   UNL     1     -47.417  40.972  27.051  1.00  0.00     0.152 A 
ATOM     19  C   UNL     1     -48.383  41.968  27.114  1.00  0.00     0.062 A 
ATOM     20  C   UNL     1     -49.572  41.376  27.596  1.00  0.00    -0.031 A 
ATOM     21  C   UNL     1     -49.309  40.042  27.815  1.00  0.00     0.012 A 
ATOM     22  H   UNL     1     -50.518  41.871  27.775  1.00  0.00     0.065 H 
ATOM     23  H   UNL     1     -49.979  39.270  28.166  1.00  0.00     0.082 H 
BRANCH  14  24
ATOM     24  N   UNL     1     -44.540  42.621  25.935  1.00  0.00    -0.291 N 
ATOM     25  C   UNL     1     -43.464  42.738  26.766  1.00  0.00     0.250 C 
ATOM     26  O   UNL     1     -43.461  42.756  27.992  1.00  0.00    -0.270 OA
ATOM     27  H   UNL     1     -44.430  42.697  24.937  1.00  0.00     0.173 HD
BRANCH  25  28
ATOM     28  C   UNL     1     -42.161  42.937  26.068  1.00  0.00    -0.004 C 
ATOM     29  C   UNL     1     -41.976  43.520  24.877  1.00  0.00    -0.094 C 
ATOM     30  H   UNL     1     -42.783  43.915  24.271  1.00  0.00     0.054 H 
ATOM     31  H   UNL     1     -40.980  43.575  24.447  1.00  0.00     0.054 H 
ATOM     32  H   UNL     1     -41.318  42.498  26.594  1.00  0.00     0.067 H 
ENDBRANCH  25  28
ENDBRANCH  14  24
BRANCH  17  33
ATOM     33  N   UNL     1     -48.838  44.352  26.725  1.00  0.00    -0.383 N 
ATOM     34  H   UNL     1     -48.812  44.907  25.881  1.00  0.00     0.158 HD
ATOM     35  H   UNL     1     -48.734  44.863  27.598  1.00  0.00     0.158 HD
ENDBRANCH  17  33
ENDBRANCH   5  13
ENDBRANCH   1   4
BRANCH   1  36
ATOM     36  O   UNL     1     -47.261  33.660  27.019  1.00  0.00    -0.489 OA
BRANCH  36  37
ATOM     37  C   UNL     1     -47.432  32.729  26.030  1.00  0.00     0.122 A 
ATOM     38  C   UNL     1     -48.318  31.695  26.319  1.00  0.00    -0.019 A 
ATOM     39  C   UNL     1     -46.741  32.727  24.817  1.00  0.00     0.007 A 
ATOM     40  C   UNL     1     -48.542  30.690  25.379  1.00  0.00    -0.049 A 
ATOM     41  H   UNL     1     -48.839  31.674  27.272  1.00  0.00     0.066 H 
ATOM     42  C   UNL     1     -46.941  31.737  23.865  1.00  0.00     0.076 A 
ATOM     43  H   UNL     1     -46.001  33.486  24.592  1.00  0.00     0.069 H 
ATOM     44  C   UNL     1     -47.860  30.709  24.152  1.00  0.00     0.001 A 
ATOM     45  H   UNL     1     -49.244  29.893  25.611  1.00  0.00     0.063 H 
ATOM     46  N   UNL     1     -46.254  31.791  22.709  1.00  0.00    -0.231 NA
ATOM     47  C   UNL     1     -48.054  29.725  23.181  1.00  0.00    -0.049 A 
ATOM     48  C   UNL     1     -46.422  30.815  21.794  1.00  0.00     0.126 A 
ATOM     49  C   UNL     1     -47.334  29.784  21.992  1.00  0.00    -0.019 A 
ATOM     50  H   UNL     1     -48.758  28.912  23.340  1.00  0.00     0.063 H 
ATOM     51  H   UNL     1     -47.486  29.030  21.227  1.00  0.00     0.066 H 
BRANCH  48  52
ATOM     52  N   UNL     1     -45.728  30.855  20.572  1.00  0.00    -0.373 N 
ATOM     53  H   UNL     1     -44.732  30.934  20.759  1.00  0.00     0.161 HD
BRANCH  52  54
ATOM     54  C   UNL     1     -46.175  31.896  19.658  1.00  0.00     0.005 C 
ATOM     55  H   UNL     1     -45.715  32.861  19.896  1.00  0.00     0.045 H 
ATOM     56  H   UNL     1     -47.263  31.996  19.662  1.00  0.00     0.045 H 
ATOM     57  H   UNL     1     -45.876  31.627  18.640  1.00  0.00     0.045 H 
ENDBRANCH  52  54
ENDBRANCH  48  52
ENDBRANCH  36  37
ENDBRANCH   1  36
TORSDOF 9
ENDMDL
MODEL 4
REMARK VINA RESULT:      -8.7      2.234      3.850
REMARK SMILES C=CC(=O)Nc1nc(N)c2ccn(-c3cncc(COc4ccc5ccc(NC)nc5c4)c3)c2n1
REMARK SMILES IDX 19 1 18 4 14 5 15 6 33 7 16 8 17 11 13 13 6 14 7 15 35 16
REMARK SMILES IDX 8 17 34 18 10 19 11 20 12 21 5 24 3 25 4 26 2 28 1 29 9 33
REMARK SMILES IDX 20 36 21 37 22 38 32 39 23 40 31 42 24 44 30 46 25 47 27 48
REMARK SMILES IDX 26 49 28 52 29 54
REMARK H PARENT 19 2 19 3 15 9 33 10 17 12 11 22 12 23 5 27 1 30 1 31 2 32
REMARK H PARENT 9 34 9 35 22 41 32 43 23 45 25 50 26 51 28 53 29 55 29 56
REMARK H PARENT 29 57
REMARK Flexibility Score: inf
ROOT
ATOM      1  C   UNL     1     -47.393  34.063  27.132  1.00  0.00     0.115 C 
ATOM      2  H   UNL     1     -47.843  33.407  27.889  1.00  0.00     0.076 H 
ATOM      3  H   UNL     1     -46.340  33.764  27.068  1.00  0.00     0.076 H 
ENDROOT
BRANCH   1   4
ATOM      4  C   UNL     1     -47.442  35.511  27.532  1.00  0.00     0.010 A 
ATOM      5  C   UNL     1     -46.374  37.505  28.421  1.00  0.00     0.066 A 
ATOM      6  C   UNL     1     -47.594  38.152  28.245  1.00  0.00     0.051 A 
ATOM      7  C   UNL     1     -46.308  36.165  28.030  1.00  0.00    -0.028 A 
ATOM      8  N   UNL     1     -48.706  37.558  27.744  1.00  0.00    -0.262 NA
ATOM      9  H   UNL     1     -47.761  39.186  28.525  1.00  0.00     0.086 H 
ATOM     10  H   UNL     1     -45.383  35.601  28.093  1.00  0.00     0.065 H 
ATOM     11  C   UNL     1     -48.608  36.252  27.412  1.00  0.00     0.034 A 
ATOM     12  H   UNL     1     -49.526  35.805  27.037  1.00  0.00     0.084 H 
BRANCH   5  13
ATOM     13  N   UNL     1     -45.252  38.186  28.984  1.00  0.00    -0.300 N 
ATOM     14  C   UNL     1     -44.275  41.197  27.270  1.00  0.00     0.233 A 
ATOM     15  N   UNL     1     -43.256  41.594  28.039  1.00  0.00    -0.195 NA
ATOM     16  N   UNL     1     -45.019  40.098  27.458  1.00  0.00    -0.194 NA
ATOM     17  C   UNL     1     -42.897  40.856  29.100  1.00  0.00     0.138 A 
ATOM     18  C   UNL     1     -44.666  39.374  28.541  1.00  0.00     0.152 A 
ATOM     19  C   UNL     1     -43.611  39.689  29.388  1.00  0.00     0.062 A 
ATOM     20  C   UNL     1     -43.532  38.668  30.363  1.00  0.00    -0.031 A 
ATOM     21  C   UNL     1     -44.531  37.761  30.091  1.00  0.00     0.012 A 
ATOM     22  H   UNL     1     -42.816  38.596  31.171  1.00  0.00     0.065 H 
ATOM     23  H   UNL     1     -44.791  36.860  30.630  1.00  0.00     0.082 H 
BRANCH  14  24
ATOM     24  N   UNL     1     -44.658  41.936  26.157  1.00  0.00    -0.291 N 
ATOM     25  C   UNL     1     -44.855  43.285  26.118  1.00  0.00     0.250 C 
ATOM     26  O   UNL     1     -44.788  44.081  27.049  1.00  0.00    -0.270 OA
ATOM     27  H   UNL     1     -44.817  41.369  25.341  1.00  0.00     0.173 HD
BRANCH  25  28
ATOM     28  C   UNL     1     -45.269  43.813  24.786  1.00  0.00    -0.004 C 
ATOM     29  C   UNL     1     -46.395  44.482  24.509  1.00  0.00    -0.094 C 
ATOM     30  H   UNL     1     -47.153  44.711  25.249  1.00  0.00     0.054 H 
ATOM     31  H   UNL     1     -46.611  44.785  23.488  1.00  0.00     0.054 H 
ATOM     32  H   UNL     1     -44.581  43.553  23.986  1.00  0.00     0.067 H 
ENDBRANCH  25  28
ENDBRANCH  14  24
BRANCH  17  33
ATOM     33  N   UNL     1     -41.827  41.313  29.857  1.00  0.00    -0.383 N 
ATOM     34  H   UNL     1     -41.924  41.185  30.855  1.00  0.00     0.158 HD
ATOM     35  H   UNL     1     -41.572  42.248  29.551  1.00  0.00     0.158 HD
ENDBRANCH  17  33
ENDBRANCH   5  13
ENDBRANCH   1   4
BRANCH   1  36
ATOM     36  O   UNL     1     -47.967  33.853  25.836  1.00  0.00    -0.489 OA
BRANCH  36  37
ATOM     37  C   UNL     1     -47.770  32.612  25.293  1.00  0.00     0.122 A 
ATOM     38  C   UNL     1     -46.654  32.480  24.473  1.00  0.00    -0.019 A 
ATOM     39  C   UNL     1     -48.635  31.528  25.461  1.00  0.00     0.007 A 
ATOM     40  C   UNL     1     -46.383  31.257  23.860  1.00  0.00    -0.049 A 
ATOM     41  H   UNL     1     -45.991  33.326  24.314  1.00  0.00     0.066 H 
ATOM     42  C   UNL     1     -48.392  30.301  24.860  1.00  0.00     0.076 A 
ATOM     43  H   UNL     1     -49.544  31.622  26.044  1.00  0.00     0.069 H 
ATOM     44  C   UNL     1     -47.245  30.166  24.054  1.00  0.00     0.001 A 
ATOM     45  H   UNL     1     -45.501  31.163  23.230  1.00  0.00     0.063 H 
ATOM     46  N   UNL     1     -49.255  29.289  25.065  1.00  0.00    -0.231 NA
ATOM     47  C   UNL     1     -47.012  28.923  23.463  1.00  0.00    -0.049 A 
ATOM     48  C   UNL     1     -49.040  28.104  24.459  1.00  0.00     0.126 A 
ATOM     49  C   UNL     1     -47.914  27.885  23.673  1.00  0.00    -0.019 A 
ATOM     50  H   UNL     1     -46.138  28.755  22.839  1.00  0.00     0.063 H 
ATOM     51  H   UNL     1     -47.735  26.912  23.226  1.00  0.00     0.066 H 
BRANCH  48  52
ATOM     52  N   UNL     1     -49.917  27.026  24.667  1.00  0.00    -0.373 N 
ATOM     53  H   UNL     1     -50.865  27.323  24.450  1.00  0.00     0.161 HD
BRANCH  52  54
ATOM     54  C   UNL     1     -49.843  26.435  25.995  1.00  0.00     0.005 C 
ATOM     55  H   UNL     1     -50.497  26.958  26.703  1.00  0.00     0.045 H 
ATOM     56  H   UNL     1     -48.820  26.429  26.378  1.00  0.00     0.045 H 
ATOM     57  H   UNL     1     -50.177  25.394  25.941  1.00  0.00     0.045 H 
ENDBRANCH  52  54
ENDBRANCH  48  52
ENDBRANCH  36  37
ENDBRANCH   1  36
TORSDOF 9
ENDMDL
MODEL 5
REMARK VINA RESULT:      -8.7      2.495     11.327
REMARK SMILES C=CC(=O)Nc1nc(N)c2ccn(-c3cncc(COc4ccc5ccc(NC)nc5c4)c3)c2n1
REMARK SMILES IDX 19 1 18 4 14 5 15 6 33 7 16 8 17 11 13 13 6 14 7 15 35 16
REMARK SMILES IDX 8 17 34 18 10 19 11 20 12 21 5 24 3 25 4 26 2 28 1 29 9 33
REMARK SMILES IDX 20 36 21 37 22 38 32 39 23 40 31 42 24 44 30 46 25 47 27 48
REMARK SMILES IDX 26 49 28 52 29 54
REMARK H PARENT 19 2 19 3 15 9 33 10 17 12 11 22 12 23 5 27 1 30 1 31 2 32
REMARK H PARENT 9 34 9 35 22 41 32 43 23 45 25 50 26 51 28 53 29 55 29 56
REMARK H PARENT 29 57
REMARK Flexibility Score: inf
ROOT
ATOM      1  C   UNL     1     -48.006  35.027  27.253  1.00  0.00     0.115 C 
ATOM      2  H   UNL     1     -47.608  34.811  28.254  1.00  0.00     0.076 H 
ATOM      3  H   UNL     1     -49.094  35.095  27.375  1.00  0.00     0.076 H 
ENDROOT
BRANCH   1   4
ATOM      4  C   UNL     1     -47.715  33.923  26.276  1.00  0.00     0.010 A 
ATOM      5  C   UNL     1     -48.465  32.179  24.758  1.00  0.00     0.066 A 
ATOM      6  C   UNL     1     -47.122  31.919  24.504  1.00  0.00     0.051 A 
ATOM      7  C   UNL     1     -48.751  33.220  25.646  1.00  0.00    -0.028 A 
ATOM      8  N   UNL     1     -46.094  32.593  25.077  1.00  0.00    -0.262 NA
ATOM      9  H   UNL     1     -46.787  31.128  23.843  1.00  0.00     0.086 H 
ATOM     10  H   UNL     1     -49.772  33.516  25.864  1.00  0.00     0.065 H 
ATOM     11  C   UNL     1     -46.413  33.568  25.957  1.00  0.00     0.034 A 
ATOM     12  H   UNL     1     -45.563  34.070  26.413  1.00  0.00     0.084 H 
BRANCH   5  13
ATOM     13  N   UNL     1     -49.496  31.407  24.141  1.00  0.00    -0.300 N 
ATOM     14  C   UNL     1     -49.673  27.971  25.201  1.00  0.00     0.233 A 
ATOM     15  N   UNL     1     -50.723  27.551  24.487  1.00  0.00    -0.195 NA
ATOM     16  N   UNL     1     -49.157  29.209  25.185  1.00  0.00    -0.194 NA
ATOM     17  C   UNL     1     -51.346  28.401  23.658  1.00  0.00     0.138 A 
ATOM     18  C   UNL     1     -49.805  30.063  24.366  1.00  0.00     0.152 A 
ATOM     19  C   UNL     1     -50.890  29.720  23.569  1.00  0.00     0.062 A 
ATOM     20  C   UNL     1     -51.248  30.867  22.824  1.00  0.00    -0.031 A 
ATOM     21  C   UNL     1     -50.382  31.876  23.180  1.00  0.00     0.012 A 
ATOM     22  H   UNL     1     -52.046  30.946  22.097  1.00  0.00     0.065 H 
ATOM     23  H   UNL     1     -50.358  32.900  22.833  1.00  0.00     0.082 H 
BRANCH  14  24
ATOM     24  N   UNL     1     -49.001  27.106  26.057  1.00  0.00    -0.291 N 
ATOM     25  C   UNL     1     -47.930  26.327  25.732  1.00  0.00     0.250 C 
ATOM     26  O   UNL     1     -47.399  26.200  24.635  1.00  0.00    -0.270 OA
ATOM     27  H   UNL     1     -49.403  27.072  26.979  1.00  0.00     0.173 HD
BRANCH  25  28
ATOM     28  C   UNL     1     -47.411  25.489  26.852  1.00  0.00    -0.004 C 
ATOM     29  C   UNL     1     -46.241  25.640  27.485  1.00  0.00    -0.094 C 
ATOM     30  H   UNL     1     -45.519  26.409  27.233  1.00  0.00     0.054 H 
ATOM     31  H   UNL     1     -45.949  24.942  28.264  1.00  0.00     0.054 H 
ATOM     32  H   UNL     1     -48.060  24.655  27.103  1.00  0.00     0.067 H 
ENDBRANCH  25  28
ENDBRANCH  14  24
BRANCH  17  33
ATOM     33  N   UNL     1     -52.425  27.907  22.937  1.00  0.00    -0.383 N 
ATOM     34  H   UNL     1     -52.523  28.282  22.004  1.00  0.00     0.158 HD
ATOM     35  H   UNL     1     -53.259  27.933  23.517  1.00  0.00     0.158 HD
ENDBRANCH  17  33
ENDBRANCH   5  13
ENDBRANCH   1   4
BRANCH   1  36
ATOM     36  O   UNL     1     -47.559  36.297  26.765  1.00  0.00    -0.489 OA
BRANCH  36  37
ATOM     37  C   UNL     1     -46.621  36.933  27.532  1.00  0.00     0.122 A 
ATOM     38  C   UNL     1     -46.373  36.366  28.778  1.00  0.00    -0.019 A 
ATOM     39  C   UNL     1     -45.970  38.114  27.168  1.00  0.00     0.007 A 
ATOM     40  C   UNL     1     -45.446  36.956  29.637  1.00  0.00    -0.049 A 
ATOM     41  H   UNL     1     -46.895  35.463  29.081  1.00  0.00     0.066 H 
ATOM     42  C   UNL     1     -45.046  38.725  28.005  1.00  0.00     0.076 A 
ATOM     43  H   UNL     1     -46.190  38.609  26.230  1.00  0.00     0.069 H 
ATOM     44  C   UNL     1     -44.779  38.130  29.253  1.00  0.00     0.001 A 
ATOM     45  H   UNL     1     -45.252  36.498  30.604  1.00  0.00     0.063 H 
ATOM     46  N   UNL     1     -44.442  39.856  27.599  1.00  0.00    -0.231 NA
ATOM     47  C   UNL     1     -43.841  38.754  30.080  1.00  0.00    -0.049 A 
ATOM     48  C   UNL     1     -43.567  40.470  28.420  1.00  0.00     0.126 A 
ATOM     49  C   UNL     1     -43.229  39.928  29.655  1.00  0.00    -0.019 A 
ATOM     50  H   UNL     1     -43.586  38.337  31.050  1.00  0.00     0.063 H 
ATOM     51  H   UNL     1     -42.491  40.414  30.286  1.00  0.00     0.066 H 
BRANCH  48  52
ATOM     52  N   UNL     1     -42.911  41.645  28.015  1.00  0.00    -0.373 N 
ATOM     53  H   UNL     1     -42.927  41.700  27.000  1.00  0.00     0.161 HD
BRANCH  52  54
ATOM     54  C   UNL     1     -41.556  41.787  28.527  1.00  0.00     0.005 C 
ATOM     55  H   UNL     1     -41.552  42.195  29.544  1.00  0.00     0.045 H 
ATOM     56  H   UNL     1     -40.943  42.417  27.877  1.00  0.00     0.045 H 
ATOM     57  H   UNL     1     -41.084  40.800  28.564  1.00  0.00     0.045 H 
ENDBRANCH  52  54
ENDBRANCH  48  52
ENDBRANCH  36  37
ENDBRANCH   1  36
TORSDOF 9
ENDMDL
MODEL 6
REMARK VINA RESULT:      -8.7      3.922      7.626
REMARK SMILES C=CC(=O)Nc1nc(N)c2ccn(-c3cncc(COc4ccc5ccc(NC)nc5c4)c3)c2n1
REMARK SMILES IDX 19 1 18 4 14 5 15 6 33 7 16 8 17 11 13 13 6 14 7 15 35 16
REMARK SMILES IDX 8 17 34 18 10 19 11 20 12 21 5 24 3 25 4 26 2 28 1 29 9 33
REMARK SMILES IDX 20 36 21 37 22 38 32 39 23 40 31 42 24 44 30 46 25 47 27 48
REMARK SMILES IDX 26 49 28 52 29 54
REMARK H PARENT 19 2 19 3 15 9 33 10 17 12 11 22 12 23 5 27 1 30 1 31 2 32
REMARK H PARENT 9 34 9 35 22 41 32 43 23 45 25 50 26 51 28 53 29 55 29 56
REMARK H PARENT 29 57
REMARK Flexibility Score: inf
ROOT
ATOM      1  C   UNL     1     -44.275  38.626  29.316  1.00  0.00     0.115 C 
ATOM      2  H   UNL     1     -44.129  38.230  30.330  1.00  0.00     0.076 H 
ATOM      3  H   UNL     1     -43.930  37.837  28.637  1.00  0.00     0.076 H 
ENDROOT
BRANCH   1   4
ATOM      4  C   UNL     1     -43.449  39.855  29.062  1.00  0.00     0.010 A 
ATOM      5  C   UNL     1     -42.919  41.818  27.731  1.00  0.00     0.066 A 
ATOM      6  C   UNL     1     -41.907  42.081  28.650  1.00  0.00     0.051 A 
ATOM      7  C   UNL     1     -43.712  40.692  27.969  1.00  0.00    -0.028 A 
ATOM      8  N   UNL     1     -41.638  41.307  29.730  1.00  0.00    -0.262 NA
ATOM      9  H   UNL     1     -41.226  42.920  28.555  1.00  0.00     0.086 H 
ATOM     10  H   UNL     1     -44.549  40.441  27.327  1.00  0.00     0.065 H 
ATOM     11  C   UNL     1     -42.405  40.208  29.904  1.00  0.00     0.034 A 
ATOM     12  H   UNL     1     -42.145  39.600  30.767  1.00  0.00     0.084 H 
BRANCH   5  13
ATOM     13  N   UNL     1     -43.125  42.662  26.598  1.00  0.00    -0.300 N 
ATOM     14  C   UNL     1     -46.566  43.405  25.849  1.00  0.00     0.233 A 
ATOM     15  N   UNL     1     -46.417  44.211  24.793  1.00  0.00    -0.195 NA
ATOM     16  N   UNL     1     -45.576  42.821  26.539  1.00  0.00    -0.194 NA
ATOM     17  C   UNL     1     -45.186  44.485  24.335  1.00  0.00     0.138 A 
ATOM     18  C   UNL     1     -44.341  43.121  26.085  1.00  0.00     0.152 A 
ATOM     19  C   UNL     1     -44.080  43.929  24.986  1.00  0.00     0.062 A 
ATOM     20  C   UNL     1     -42.679  43.957  24.803  1.00  0.00    -0.031 A 
ATOM     21  C   UNL     1     -42.120  43.172  25.786  1.00  0.00     0.012 A 
ATOM     22  H   UNL     1     -42.135  44.485  24.030  1.00  0.00     0.065 H 
ATOM     23  H   UNL     1     -41.075  42.968  25.976  1.00  0.00     0.082 H 
BRANCH  14  24
ATOM     24  N   UNL     1     -47.831  43.094  26.334  1.00  0.00    -0.291 N 
ATOM     25  C   UNL     1     -48.995  43.724  26.004  1.00  0.00     0.250 C 
ATOM     26  O   UNL     1     -49.140  44.700  25.276  1.00  0.00    -0.270 OA
ATOM     27  H   UNL     1     -47.824  42.345  27.007  1.00  0.00     0.173 HD
BRANCH  25  28
ATOM     28  C   UNL     1     -50.207  43.182  26.683  1.00  0.00    -0.004 C 
ATOM     29  C   UNL     1     -51.294  43.875  27.047  1.00  0.00    -0.094 C 
ATOM     30  H   UNL     1     -51.405  44.941  26.888  1.00  0.00     0.054 H 
ATOM     31  H   UNL     1     -52.105  43.379  27.573  1.00  0.00     0.054 H 
ATOM     32  H   UNL     1     -50.127  42.128  26.935  1.00  0.00     0.067 H 
ENDBRANCH  25  28
ENDBRANCH  14  24
BRANCH  17  33
ATOM     33  N   UNL     1     -45.092  45.322  23.231  1.00  0.00    -0.383 N 
ATOM     34  H   UNL     1     -44.196  45.315  22.765  1.00  0.00     0.158 HD
ATOM     35  H   UNL     1     -45.462  46.239  23.470  1.00  0.00     0.158 HD
ENDBRANCH  17  33
ENDBRANCH   5  13
ENDBRANCH   1   4
BRANCH   1  36
ATOM     36  O   UNL     1     -45.660  38.850  29.026  1.00  0.00    -0.489 OA
BRANCH  36  37
ATOM     37  C   UNL     1     -46.310  37.823  28.397  1.00  0.00     0.122 A 
ATOM     38  C   UNL     1     -47.700  37.860  28.453  1.00  0.00    -0.019 A 
ATOM     39  C   UNL     1     -45.673  36.745  27.779  1.00  0.00     0.007 A 
ATOM     40  C   UNL     1     -48.447  36.845  27.856  1.00  0.00    -0.049 A 
ATOM     41  H   UNL     1     -48.204  38.681  28.957  1.00  0.00     0.066 H 
ATOM     42  C   UNL     1     -46.391  35.719  27.180  1.00  0.00     0.076 A 
ATOM     43  H   UNL     1     -44.593  36.660  27.774  1.00  0.00     0.069 H 
ATOM     44  C   UNL     1     -47.798  35.778  27.216  1.00  0.00     0.001 A 
ATOM     45  H   UNL     1     -49.532  36.891  27.897  1.00  0.00     0.063 H 
ATOM     46  N   UNL     1     -45.724  34.710  26.590  1.00  0.00    -0.231 NA
ATOM     47  C   UNL     1     -48.505  34.741  26.603  1.00  0.00    -0.049 A 
ATOM     48  C   UNL     1     -46.417  33.696  26.034  1.00  0.00     0.126 A 
ATOM     49  C   UNL     1     -47.807  33.697  26.003  1.00  0.00    -0.019 A 
ATOM     50  H   UNL     1     -49.591  34.736  26.589  1.00  0.00     0.063 H 
ATOM     51  H   UNL     1     -48.348  32.893  25.515  1.00  0.00     0.066 H 
BRANCH  48  52
ATOM     52  N   UNL     1     -45.746  32.636  25.399  1.00  0.00    -0.373 N 
ATOM     53  H   UNL     1     -44.841  32.965  25.074  1.00  0.00     0.161 HD
BRANCH  52  54
ATOM     54  C   UNL     1     -46.494  32.008  24.320  1.00  0.00     0.005 C 
ATOM     55  H   UNL     1     -46.636  32.695  23.478  1.00  0.00     0.045 H 
ATOM     56  H   UNL     1     -47.466  31.642  24.662  1.00  0.00     0.045 H 
ATOM     57  H   UNL     1     -45.931  31.144  23.953  1.00  0.00     0.045 H 
ENDBRANCH  52  54
ENDBRANCH  48  52
ENDBRANCH  36  37
ENDBRANCH   1  36
TORSDOF 9
ENDMDL
MODEL 7
REMARK VINA RESULT:      -8.5      3.219      5.332
REMARK SMILES C=CC(=O)Nc1nc(N)c2ccn(-c3cncc(COc4ccc5ccc(NC)nc5c4)c3)c2n1
REMARK SMILES IDX 19 1 18 4 14 5 15 6 33 7 16 8 17 11 13 13 6 14 7 15 35 16
REMARK SMILES IDX 8 17 34 18 10 19 11 20 12 21 5 24 3 25 4 26 2 28 1 29 9 33
REMARK SMILES IDX 20 36 21 37 22 38 32 39 23 40 31 42 24 44 30 46 25 47 27 48
REMARK SMILES IDX 26 49 28 52 29 54
REMARK H PARENT 19 2 19 3 15 9 33 10 17 12 11 22 12 23 5 27 1 30 1 31 2 32
REMARK H PARENT 9 34 9 35 22 41 32 43 23 45 25 50 26 51 28 53 29 55 29 56
REMARK H PARENT 29 57
REMARK Flexibility Score: inf
ROOT
ATOM      1  C   UNL     1     -47.219  36.112  26.753  1.00  0.00     0.115 C 
ATOM      2  H   UNL     1     -47.645  36.320  25.762  1.00  0.00     0.076 H 
ATOM      3  H   UNL     1     -48.077  35.958  27.419  1.00  0.00     0.076 H 
ENDROOT
BRANCH   1   4
ATOM      4  C   UNL     1     -46.420  37.269  27.283  1.00  0.00     0.010 A 
ATOM      5  C   UNL     1     -45.609  39.552  27.094  1.00  0.00     0.066 A 
ATOM      6  C   UNL     1     -44.945  39.342  28.299  1.00  0.00     0.051 A 
ATOM      7  C   UNL     1     -46.376  38.493  26.602  1.00  0.00    -0.028 A 
ATOM      8  N   UNL     1     -44.983  38.180  28.997  1.00  0.00    -0.262 NA
ATOM      9  H   UNL     1     -44.313  40.091  28.764  1.00  0.00     0.086 H 
ATOM     10  H   UNL     1     -46.959  38.589  25.692  1.00  0.00     0.065 H 
ATOM     11  C   UNL     1     -45.707  37.170  28.469  1.00  0.00     0.034 A 
ATOM     12  H   UNL     1     -45.695  36.248  29.045  1.00  0.00     0.084 H 
BRANCH   5  13
ATOM     13  N   UNL     1     -45.498  40.794  26.396  1.00  0.00    -0.300 N 
ATOM     14  C   UNL     1     -48.328  42.993  26.731  1.00  0.00     0.233 A 
ATOM     15  N   UNL     1     -47.908  44.040  26.013  1.00  0.00    -0.195 NA
ATOM     16  N   UNL     1     -47.645  41.858  26.940  1.00  0.00    -0.194 NA
ATOM     17  C   UNL     1     -46.707  43.999  25.419  1.00  0.00     0.138 A 
ATOM     18  C   UNL     1     -46.428  41.836  26.357  1.00  0.00     0.152 A 
ATOM     19  C   UNL     1     -45.910  42.861  25.576  1.00  0.00     0.062 A 
ATOM     20  C   UNL     1     -44.644  42.439  25.109  1.00  0.00    -0.031 A 
ATOM     21  C   UNL     1     -44.420  41.177  25.610  1.00  0.00     0.012 A 
ATOM     22  H   UNL     1     -43.972  42.993  24.465  1.00  0.00     0.065 H 
ATOM     23  H   UNL     1     -43.553  40.543  25.482  1.00  0.00     0.082 H 
BRANCH  14  24
ATOM     24  N   UNL     1     -49.575  43.005  27.346  1.00  0.00    -0.291 N 
ATOM     25  C   UNL     1     -49.827  43.342  28.643  1.00  0.00     0.250 C 
ATOM     26  O   UNL     1     -49.016  43.640  29.513  1.00  0.00    -0.270 OA
ATOM     27  H   UNL     1     -50.318  42.700  26.739  1.00  0.00     0.173 HD
BRANCH  25  28
ATOM     28  C   UNL     1     -51.264  43.259  29.036  1.00  0.00    -0.004 C 
ATOM     29  C   UNL     1     -51.886  44.020  29.947  1.00  0.00    -0.094 C 
ATOM     30  H   UNL     1     -51.390  44.795  30.519  1.00  0.00     0.054 H 
ATOM     31  H   UNL     1     -52.932  43.843  30.181  1.00  0.00     0.054 H 
ATOM     32  H   UNL     1     -51.800  42.451  28.548  1.00  0.00     0.067 H 
ENDBRANCH  25  28
ENDBRANCH  14  24
BRANCH  17  33
ATOM     33  N   UNL     1     -46.327  45.112  24.680  1.00  0.00    -0.383 N 
ATOM     34  H   UNL     1     -47.047  45.811  24.561  1.00  0.00     0.158 HD
ATOM     35  H   UNL     1     -45.854  44.810  23.832  1.00  0.00     0.158 HD
ENDBRANCH  17  33
ENDBRANCH   5  13
ENDBRANCH   1   4
BRANCH   1  36
ATOM     36  O   UNL     1     -46.459  34.897  26.762  1.00  0.00    -0.489 OA
BRANCH  36  37
ATOM     37  C   UNL     1     -46.968  33.873  26.009  1.00  0.00     0.122 A 
ATOM     38  C   UNL     1     -48.287  33.522  26.275  1.00  0.00    -0.019 A 
ATOM     39  C   UNL     1     -46.237  33.145  25.067  1.00  0.00     0.007 A 
ATOM     40  C   UNL     1     -48.884  32.478  25.571  1.00  0.00    -0.049 A 
ATOM     41  H   UNL     1     -48.855  34.065  27.027  1.00  0.00     0.066 H 
ATOM     42  C   UNL     1     -46.804  32.098  24.354  1.00  0.00     0.076 A 
ATOM     43  H   UNL     1     -45.190  33.357  24.885  1.00  0.00     0.069 H 
ATOM     44  C   UNL     1     -48.150  31.767  24.609  1.00  0.00     0.001 A 
ATOM     45  H   UNL     1     -49.920  32.220  25.780  1.00  0.00     0.063 H 
ATOM     46  N   UNL     1     -46.056  31.438  23.452  1.00  0.00    -0.231 NA
ATOM     47  C   UNL     1     -48.707  30.716  23.878  1.00  0.00    -0.049 A 
ATOM     48  C   UNL     1     -46.593  30.400  22.780  1.00  0.00     0.126 A 
ATOM     49  C   UNL     1     -47.923  30.033  22.954  1.00  0.00    -0.019 A 
ATOM     50  H   UNL     1     -49.742  30.421  24.023  1.00  0.00     0.063 H 
ATOM     51  H   UNL     1     -48.351  29.222  22.373  1.00  0.00     0.066 H 
BRANCH  48  52
ATOM     52  N   UNL     1     -45.838  29.703  21.821  1.00  0.00    -0.373 N 
ATOM     53  H   UNL     1     -46.468  29.166  21.230  1.00  0.00     0.161 HD
BRANCH  52  54
ATOM     54  C   UNL     1     -44.791  28.857  22.375  1.00  0.00     0.005 C 
ATOM     55  H   UNL     1     -44.467  28.097  21.656  1.00  0.00     0.045 H 
ATOM     56  H   UNL     1     -45.111  28.374  23.302  1.00  0.00     0.045 H 
ATOM     57  H   UNL     1     -43.922  29.479  22.615  1.00  0.00     0.045 H 
ENDBRANCH  52  54
ENDBRANCH  48  52
ENDBRANCH  36  37
ENDBRANCH   1  36
TORSDOF 9
ENDMDL
