MODEL 1
REMARK VINA RESULT:      -9.4      0.000      0.000
REMARK SMILES CNc1nc2cc(OC[C@H]3O[C@@H](n4cc(-n5ccc(C)n5)c5c(N)ncnc54)C[C@@H]3O)ccc2cc1F
REMARK SMILES IDX 9 1 8 4 7 5 3 6 4 7 36 8 5 9 35 10 37 11 6 12 34 13 33 16
REMARK SMILES IDX 32 17 2 20 1 22 10 26 11 27 30 28 12 30 29 31 31 36 13 38
REMARK SMILES IDX 14 39 28 40 15 41 22 43 27 44 23 45 26 46 25 47 16 49 17 50
REMARK SMILES IDX 21 51 18 52 19 54 20 56 24 60
REMARK H PARENT 9 2 9 3 35 14 6 15 33 18 32 19 2 21 1 23 1 24 1 25 10 29 30 32
REMARK H PARENT 12 33 29 34 29 35 31 37 14 42 26 48 17 53 18 55 20 57 20 58
REMARK H PARENT 20 59 24 61 24 62
REMARK Flexibility Score: inf
ROOT
ATOM      1  C   UNL     1     -45.630  35.422  27.060  1.00  0.00     0.117 C 
ATOM      2  H   UNL     1     -45.148  34.463  27.287  1.00  0.00     0.073 H 
ATOM      3  H   UNL     1     -44.840  36.015  26.584  1.00  0.00     0.073 H 
ENDROOT
BRANCH   1   4
ATOM      4  O   UNL     1     -46.685  35.302  26.104  1.00  0.00    -0.491 OA
BRANCH   4   5
ATOM      5  C   UNL     1     -47.165  34.057  25.807  1.00  0.00     0.121 A 
ATOM      6  C   UNL     1     -46.420  30.289  22.978  1.00  0.00     0.162 A 
ATOM      7  N   UNL     1     -46.071  31.524  23.406  1.00  0.00    -0.228 NA
ATOM      8  C   UNL     1     -47.514  29.618  23.532  1.00  0.00     0.166 A 
ATOM      9  C   UNL     1     -46.801  32.117  24.370  1.00  0.00     0.077 A 
ATOM     10  C   UNL     1     -48.273  30.220  24.523  1.00  0.00    -0.013 A 
ATOM     11  F   UNL     1     -47.856  28.393  23.100  1.00  0.00    -0.203 F 
ATOM     12  C   UNL     1     -46.449  33.386  24.808  1.00  0.00     0.007 A 
ATOM     13  C   UNL     1     -47.921  31.498  24.962  1.00  0.00     0.004 A 
ATOM     14  H   UNL     1     -49.121  29.687  24.936  1.00  0.00     0.066 H 
ATOM     15  H   UNL     1     -45.583  33.867  24.358  1.00  0.00     0.069 H 
ATOM     16  C   UNL     1     -48.648  32.162  25.963  1.00  0.00    -0.049 A 
ATOM     17  C   UNL     1     -48.270  33.440  26.382  1.00  0.00    -0.019 A 
ATOM     18  H   UNL     1     -49.514  31.690  26.421  1.00  0.00     0.063 H 
ATOM     19  H   UNL     1     -48.867  33.915  27.154  1.00  0.00     0.066 H 
BRANCH   6  20
ATOM     20  N   UNL     1     -45.637  29.628  22.010  1.00  0.00    -0.371 N 
ATOM     21  H   UNL     1     -45.267  30.315  21.357  1.00  0.00     0.161 HD
BRANCH  20  22
ATOM     22  C   UNL     1     -44.613  28.755  22.554  1.00  0.00     0.005 C 
ATOM     23  H   UNL     1     -44.868  27.717  22.316  1.00  0.00     0.045 H 
ATOM     24  H   UNL     1     -44.556  28.834  23.645  1.00  0.00     0.045 H 
ATOM     25  H   UNL     1     -43.631  28.964  22.118  1.00  0.00     0.045 H 
ENDBRANCH  20  22
ENDBRANCH   6  20
ENDBRANCH   4   5
ENDBRANCH   1   4
BRANCH   1  26
ATOM     26  C   UNL     1     -46.102  36.143  28.323  1.00  0.00     0.120 C 
ATOM     27  O   UNL     1     -45.022  36.880  28.924  1.00  0.00    -0.348 OA
ATOM     28  C   UNL     1     -47.212  37.154  28.051  1.00  0.00     0.088 C 
ATOM     29  H   UNL     1     -46.452  35.406  29.055  1.00  0.00     0.067 H 
ATOM     30  C   UNL     1     -45.564  38.119  29.444  1.00  0.00     0.138 C 
ATOM     31  C   UNL     1     -47.072  38.072  29.241  1.00  0.00     0.022 C 
ATOM     32  H   UNL     1     -47.040  37.710  27.122  1.00  0.00     0.063 H 
ATOM     33  H   UNL     1     -45.293  38.187  30.502  1.00  0.00     0.085 H 
ATOM     34  H   UNL     1     -47.556  37.621  30.118  1.00  0.00     0.034 H 
ATOM     35  H   UNL     1     -47.544  39.047  29.084  1.00  0.00     0.034 H 
BRANCH  28  36
ATOM     36  O   UNL     1     -48.502  36.571  28.008  1.00  0.00    -0.390 OA
ATOM     37  H   UNL     1     -49.149  37.287  28.165  1.00  0.00     0.211 HD
ENDBRANCH  28  36
BRANCH  30  38
ATOM     38  N   UNL     1     -44.932  39.247  28.765  1.00  0.00    -0.303 N 
ATOM     39  C   UNL     1     -45.425  39.962  27.709  1.00  0.00     0.035 A 
ATOM     40  C   UNL     1     -43.717  39.771  29.134  1.00  0.00     0.149 A 
ATOM     41  C   UNL     1     -44.491  40.922  27.359  1.00  0.00     0.096 A 
ATOM     42  H   UNL     1     -46.367  39.705  27.239  1.00  0.00     0.084 H 
ATOM     43  C   UNL     1     -43.429  40.863  28.315  1.00  0.00     0.087 A 
ATOM     44  N   UNL     1     -42.968  39.303  30.148  1.00  0.00    -0.218 NA
ATOM     45  C   UNL     1     -42.270  41.582  28.659  1.00  0.00     0.138 A 
ATOM     46  C   UNL     1     -41.857  40.026  30.323  1.00  0.00     0.120 A 
ATOM     47  N   UNL     1     -41.482  41.130  29.654  1.00  0.00    -0.219 NA
ATOM     48  H   UNL     1     -41.184  39.694  31.109  1.00  0.00     0.106 H 
BRANCH  41  49
ATOM     49  N   UNL     1     -44.648  41.767  26.219  1.00  0.00    -0.238 N 
ATOM     50  C   UNL     1     -45.789  42.398  25.778  1.00  0.00     0.031 A 
ATOM     51  N   UNL     1     -43.586  42.102  25.434  1.00  0.00    -0.173 NA
ATOM     52  C   UNL     1     -45.468  43.087  24.634  1.00  0.00    -0.021 A 
ATOM     53  H   UNL     1     -46.714  42.348  26.329  1.00  0.00     0.084 H 
ATOM     54  C   UNL     1     -44.089  42.870  24.464  1.00  0.00     0.060 A 
ATOM     55  H   UNL     1     -46.131  43.691  24.031  1.00  0.00     0.066 H 
BRANCH  54  56
ATOM     56  C   UNL     1     -43.203  43.401  23.400  1.00  0.00    -0.020 C 
ATOM     57  H   UNL     1     -42.255  42.855  23.381  1.00  0.00     0.030 H 
ATOM     58  H   UNL     1     -42.991  44.461  23.572  1.00  0.00     0.030 H 
ATOM     59  H   UNL     1     -43.669  43.303  22.415  1.00  0.00     0.030 H 
ENDBRANCH  54  56
ENDBRANCH  41  49
BRANCH  45  60
ATOM     60  N   UNL     1     -41.887  42.800  28.110  1.00  0.00    -0.383 N 
ATOM     61  H   UNL     1     -41.975  42.826  27.100  1.00  0.00     0.158 HD
ATOM     62  H   UNL     1     -42.392  43.543  28.585  1.00  0.00     0.158 HD
ENDBRANCH  45  60
ENDBRANCH  30  38
ENDBRANCH   1  26
TORSDOF 10
ENDMDL
MODEL 2
REMARK VINA RESULT:      -9.1      1.467      2.190
REMARK SMILES CNc1nc2cc(OC[C@H]3O[C@@H](n4cc(-n5ccc(C)n5)c5c(N)ncnc54)C[C@@H]3O)ccc2cc1F
REMARK SMILES IDX 9 1 8 4 7 5 3 6 4 7 36 8 5 9 35 10 37 11 6 12 34 13 33 16
REMARK SMILES IDX 32 17 2 20 1 22 10 26 11 27 30 28 12 30 29 31 31 36 13 38
REMARK SMILES IDX 14 39 28 40 15 41 22 43 27 44 23 45 26 46 25 47 16 49 17 50
REMARK SMILES IDX 21 51 18 52 19 54 20 56 24 60
REMARK H PARENT 9 2 9 3 35 14 6 15 33 18 32 19 2 21 1 23 1 24 1 25 10 29 30 32
REMARK H PARENT 12 33 29 34 29 35 31 37 14 42 26 48 17 53 18 55 20 57 20 58
REMARK H PARENT 20 59 24 61 24 62
REMARK Flexibility Score: inf
ROOT
ATOM      1  C   UNL     1     -46.620  36.001  26.539  1.00  0.00     0.117 C 
ATOM      2  H   UNL     1     -45.712  35.701  26.001  1.00  0.00     0.073 H 
ATOM      3  H   UNL     1     -46.941  36.920  26.033  1.00  0.00     0.073 H 
ENDROOT
BRANCH   1   4
ATOM      4  O   UNL     1     -47.687  35.062  26.397  1.00  0.00    -0.491 OA
BRANCH   4   5
ATOM      5  C   UNL     1     -47.449  33.891  25.733  1.00  0.00     0.121 A 
ATOM      6  C   UNL     1     -49.603  29.954  24.115  1.00  0.00     0.162 A 
ATOM      7  N   UNL     1     -49.661  31.152  24.740  1.00  0.00    -0.228 NA
ATOM      8  C   UNL     1     -48.393  29.459  23.618  1.00  0.00     0.166 A 
ATOM      9  C   UNL     1     -48.532  31.870  24.895  1.00  0.00     0.077 A 
ATOM     10  C   UNL     1     -47.225  30.187  23.776  1.00  0.00    -0.013 A 
ATOM     11  F   UNL     1     -48.343  28.267  23.002  1.00  0.00    -0.203 F 
ATOM     12  C   UNL     1     -48.586  33.097  25.540  1.00  0.00     0.007 A 
ATOM     13  C   UNL     1     -47.279  31.422  24.426  1.00  0.00     0.004 A 
ATOM     14  H   UNL     1     -46.296  29.785  23.389  1.00  0.00     0.066 H 
ATOM     15  H   UNL     1     -49.550  33.449  25.899  1.00  0.00     0.069 H 
ATOM     16  C   UNL     1     -46.132  32.209  24.617  1.00  0.00    -0.049 A 
ATOM     17  C   UNL     1     -46.218  33.440  25.270  1.00  0.00    -0.019 A 
ATOM     18  H   UNL     1     -45.163  31.867  24.258  1.00  0.00     0.063 H 
ATOM     19  H   UNL     1     -45.303  34.009  25.399  1.00  0.00     0.066 H 
BRANCH   6  20
ATOM     20  N   UNL     1     -50.782  29.214  23.893  1.00  0.00    -0.371 N 
ATOM     21  H   UNL     1     -50.937  28.592  24.683  1.00  0.00     0.161 HD
BRANCH  20  22
ATOM     22  C   UNL     1     -51.947  30.016  23.566  1.00  0.00     0.005 C 
ATOM     23  H   UNL     1     -52.649  29.405  22.991  1.00  0.00     0.045 H 
ATOM     24  H   UNL     1     -51.680  30.878  22.944  1.00  0.00     0.045 H 
ATOM     25  H   UNL     1     -52.465  30.359  24.467  1.00  0.00     0.045 H 
ENDBRANCH  20  22
ENDBRANCH   6  20
ENDBRANCH   4   5
ENDBRANCH   1   4
BRANCH   1  26
ATOM     26  C   UNL     1     -46.343  36.313  28.010  1.00  0.00     0.120 C 
ATOM     27  O   UNL     1     -45.011  36.830  28.181  1.00  0.00    -0.348 OA
ATOM     28  C   UNL     1     -47.289  37.366  28.582  1.00  0.00     0.088 C 
ATOM     29  H   UNL     1     -46.423  35.393  28.600  1.00  0.00     0.067 H 
ATOM     30  C   UNL     1     -45.061  37.859  29.199  1.00  0.00     0.138 C 
ATOM     31  C   UNL     1     -46.481  37.883  29.747  1.00  0.00     0.022 C 
ATOM     32  H   UNL     1     -47.482  38.173  27.867  1.00  0.00     0.063 H 
ATOM     33  H   UNL     1     -44.327  37.606  29.970  1.00  0.00     0.085 H 
ATOM     34  H   UNL     1     -46.568  37.194  30.597  1.00  0.00     0.034 H 
ATOM     35  H   UNL     1     -46.821  38.863  30.097  1.00  0.00     0.034 H 
BRANCH  28  36
ATOM     36  O   UNL     1     -48.525  36.829  29.019  1.00  0.00    -0.390 OA
ATOM     37  H   UNL     1     -49.157  37.573  29.080  1.00  0.00     0.211 HD
ENDBRANCH  28  36
BRANCH  30  38
ATOM     38  N   UNL     1     -44.651  39.136  28.619  1.00  0.00    -0.303 N 
ATOM     39  C   UNL     1     -45.274  39.830  27.619  1.00  0.00     0.035 A 
ATOM     40  C   UNL     1     -43.552  39.842  29.041  1.00  0.00     0.149 A 
ATOM     41  C   UNL     1     -44.534  40.971  27.356  1.00  0.00     0.096 A 
ATOM     42  H   UNL     1     -46.154  39.443  27.121  1.00  0.00     0.084 H 
ATOM     43  C   UNL     1     -43.474  41.031  28.315  1.00  0.00     0.087 A 
ATOM     44  N   UNL     1     -42.724  39.440  30.021  1.00  0.00    -0.218 NA
ATOM     45  C   UNL     1     -42.465  41.921  28.727  1.00  0.00     0.138 A 
ATOM     46  C   UNL     1     -41.764  40.339  30.265  1.00  0.00     0.120 A 
ATOM     47  N   UNL     1     -41.602  41.543  29.690  1.00  0.00    -0.219 NA
ATOM     48  H   UNL     1     -41.038  40.074  31.027  1.00  0.00     0.106 H 
BRANCH  41  49
ATOM     49  N   UNL     1     -44.850  41.862  26.287  1.00  0.00    -0.238 N 
ATOM     50  C   UNL     1     -44.235  41.970  25.059  1.00  0.00     0.031 A 
ATOM     51  N   UNL     1     -45.911  42.713  26.365  1.00  0.00    -0.173 NA
ATOM     52  C   UNL     1     -44.866  42.974  24.366  1.00  0.00    -0.021 A 
ATOM     53  H   UNL     1     -43.443  41.304  24.761  1.00  0.00     0.084 H 
ATOM     54  C   UNL     1     -45.897  43.402  25.220  1.00  0.00     0.060 A 
ATOM     55  H   UNL     1     -44.635  43.319  23.368  1.00  0.00     0.066 H 
BRANCH  54  56
ATOM     56  C   UNL     1     -46.915  44.452  24.972  1.00  0.00    -0.020 C 
ATOM     57  H   UNL     1     -47.866  44.185  25.442  1.00  0.00     0.030 H 
ATOM     58  H   UNL     1     -47.081  44.578  23.898  1.00  0.00     0.030 H 
ATOM     59  H   UNL     1     -46.594  45.415  25.382  1.00  0.00     0.030 H 
ENDBRANCH  54  56
ENDBRANCH  41  49
BRANCH  45  60
ATOM     60  N   UNL     1     -42.317  43.229  28.281  1.00  0.00    -0.383 N 
ATOM     61  H   UNL     1     -42.535  43.919  28.991  1.00  0.00     0.158 HD
ATOM     62  H   UNL     1     -41.388  43.332  27.881  1.00  0.00     0.158 HD
ENDBRANCH  45  60
ENDBRANCH  30  38
ENDBRANCH   1  26
TORSDOF 10
ENDMDL
MODEL 3
REMARK VINA RESULT:      -9.0      2.679      4.107
REMARK SMILES CNc1nc2cc(OC[C@H]3O[C@@H](n4cc(-n5ccc(C)n5)c5c(N)ncnc54)C[C@@H]3O)ccc2cc1F
REMARK SMILES IDX 9 1 8 4 7 5 3 6 4 7 36 8 5 9 35 10 37 11 6 12 34 13 33 16
REMARK SMILES IDX 32 17 2 20 1 22 10 26 11 27 30 28 12 30 29 31 31 36 13 38
REMARK SMILES IDX 14 39 28 40 15 41 22 43 27 44 23 45 26 46 25 47 16 49 17 50
REMARK SMILES IDX 21 51 18 52 19 54 20 56 24 60
REMARK H PARENT 9 2 9 3 35 14 6 15 33 18 32 19 2 21 1 23 1 24 1 25 10 29 30 32
REMARK H PARENT 12 33 29 34 29 35 31 37 14 42 26 48 17 53 18 55 20 57 20 58
REMARK H PARENT 20 59 24 61 24 62
REMARK Flexibility Score: inf
ROOT
ATOM      1  C   UNL     1     -46.141  34.783  26.757  1.00  0.00     0.117 C 
ATOM      2  H   UNL     1     -45.523  34.762  25.851  1.00  0.00     0.073 H 
ATOM      3  H   UNL     1     -47.046  35.323  26.453  1.00  0.00     0.073 H 
ENDROOT
BRANCH   1   4
ATOM      4  O   UNL     1     -46.560  33.483  27.175  1.00  0.00    -0.491 OA
BRANCH   4   5
ATOM      5  C   UNL     1     -47.144  32.654  26.258  1.00  0.00     0.121 A 
ATOM      6  C   UNL     1     -46.652  30.980  21.818  1.00  0.00     0.162 A 
ATOM      7  N   UNL     1     -46.205  31.742  22.842  1.00  0.00    -0.228 NA
ATOM      8  C   UNL     1     -47.824  30.227  21.939  1.00  0.00     0.166 A 
ATOM      9  C   UNL     1     -46.910  31.783  23.989  1.00  0.00     0.077 A 
ATOM     10  C   UNL     1     -48.559  30.265  23.113  1.00  0.00    -0.013 A 
ATOM     11  F   UNL     1     -48.263  29.475  20.917  1.00  0.00    -0.203 F 
ATOM     12  C   UNL     1     -46.458  32.568  25.040  1.00  0.00     0.007 A 
ATOM     13  C   UNL     1     -48.105  31.056  24.171  1.00  0.00     0.004 A 
ATOM     14  H   UNL     1     -49.467  29.679  23.187  1.00  0.00     0.066 H 
ATOM     15  H   UNL     1     -45.535  33.128  24.907  1.00  0.00     0.069 H 
ATOM     16  C   UNL     1     -48.803  31.137  25.386  1.00  0.00    -0.049 A 
ATOM     17  C   UNL     1     -48.323  31.936  26.426  1.00  0.00    -0.019 A 
ATOM     18  H   UNL     1     -49.725  30.579  25.531  1.00  0.00     0.063 H 
ATOM     19  H   UNL     1     -48.900  31.972  27.344  1.00  0.00     0.066 H 
BRANCH   6  20
ATOM     20  N   UNL     1     -45.899  30.879  20.631  1.00  0.00    -0.371 N 
ATOM     21  H   UNL     1     -45.990  29.936  20.259  1.00  0.00     0.161 HD
BRANCH  20  22
ATOM     22  C   UNL     1     -46.184  31.905  19.644  1.00  0.00     0.005 C 
ATOM     23  H   UNL     1     -46.768  31.463  18.830  1.00  0.00     0.045 H 
ATOM     24  H   UNL     1     -45.264  32.307  19.205  1.00  0.00     0.045 H 
ATOM     25  H   UNL     1     -46.775  32.721  20.071  1.00  0.00     0.045 H 
ENDBRANCH  20  22
ENDBRANCH   6  20
ENDBRANCH   4   5
ENDBRANCH   1   4
BRANCH   1  26
ATOM     26  C   UNL     1     -45.467  35.546  27.898  1.00  0.00     0.120 C 
ATOM     27  O   UNL     1     -45.083  36.866  27.474  1.00  0.00    -0.348 OA
ATOM     28  C   UNL     1     -46.377  35.731  29.109  1.00  0.00     0.088 C 
ATOM     29  H   UNL     1     -44.557  35.015  28.204  1.00  0.00     0.067 H 
ATOM     30  C   UNL     1     -45.306  37.771  28.583  1.00  0.00     0.138 C 
ATOM     31  C   UNL     1     -45.742  36.928  29.773  1.00  0.00     0.022 C 
ATOM     32  H   UNL     1     -47.407  35.964  28.814  1.00  0.00     0.063 H 
ATOM     33  H   UNL     1     -44.369  38.303  28.778  1.00  0.00     0.085 H 
ATOM     34  H   UNL     1     -44.865  36.611  30.352  1.00  0.00     0.034 H 
ATOM     35  H   UNL     1     -46.417  37.434  30.471  1.00  0.00     0.034 H 
BRANCH  28  36
ATOM     36  O   UNL     1     -46.387  34.612  29.979  1.00  0.00    -0.390 OA
ATOM     37  H   UNL     1     -46.496  33.815  29.423  1.00  0.00     0.211 HD
ENDBRANCH  28  36
BRANCH  30  38
ATOM     38  N   UNL     1     -46.297  38.774  28.200  1.00  0.00    -0.303 N 
ATOM     39  C   UNL     1     -47.593  38.863  28.627  1.00  0.00     0.035 A 
ATOM     40  C   UNL     1     -46.032  39.812  27.342  1.00  0.00     0.149 A 
ATOM     41  C   UNL     1     -48.185  39.943  27.992  1.00  0.00     0.096 A 
ATOM     42  H   UNL     1     -48.023  38.129  29.296  1.00  0.00     0.084 H 
ATOM     43  C   UNL     1     -47.174  40.606  27.229  1.00  0.00     0.087 A 
ATOM     44  N   UNL     1     -44.843  40.020  26.749  1.00  0.00    -0.218 NA
ATOM     45  C   UNL     1     -47.014  41.784  26.477  1.00  0.00     0.138 A 
ATOM     46  C   UNL     1     -44.845  41.130  26.003  1.00  0.00     0.120 A 
ATOM     47  N   UNL     1     -45.843  42.015  25.849  1.00  0.00    -0.219 NA
ATOM     48  H   UNL     1     -43.925  41.352  25.469  1.00  0.00     0.106 H 
BRANCH  41  49
ATOM     49  N   UNL     1     -49.572  40.248  28.131  1.00  0.00    -0.238 N 
ATOM     50  C   UNL     1     -50.632  39.373  28.225  1.00  0.00     0.031 A 
ATOM     51  N   UNL     1     -50.005  41.534  28.254  1.00  0.00    -0.173 NA
ATOM     52  C   UNL     1     -51.780  40.121  28.327  1.00  0.00    -0.021 A 
ATOM     53  H   UNL     1     -50.485  38.307  28.261  1.00  0.00     0.084 H 
ATOM     54  C   UNL     1     -51.336  41.454  28.340  1.00  0.00     0.060 A 
ATOM     55  H   UNL     1     -52.791  39.749  28.417  1.00  0.00     0.066 H 
BRANCH  54  56
ATOM     56  C   UNL     1     -52.149  42.689  28.460  1.00  0.00    -0.020 C 
ATOM     57  H   UNL     1     -52.005  43.331  27.585  1.00  0.00     0.030 H 
ATOM     58  H   UNL     1     -51.863  43.250  29.354  1.00  0.00     0.030 H 
ATOM     59  H   UNL     1     -53.215  42.452  28.533  1.00  0.00     0.030 H 
ENDBRANCH  54  56
ENDBRANCH  41  49
BRANCH  45  60
ATOM     60  N   UNL     1     -47.947  42.810  26.382  1.00  0.00    -0.383 N 
ATOM     61  H   UNL     1     -47.622  43.593  25.827  1.00  0.00     0.158 HD
ATOM     62  H   UNL     1     -48.828  42.418  26.061  1.00  0.00     0.158 HD
ENDBRANCH  45  60
ENDBRANCH  30  38
ENDBRANCH   1  26
TORSDOF 10
ENDMDL
MODEL 4
REMARK VINA RESULT:      -8.8      2.714      4.063
REMARK SMILES CNc1nc2cc(OC[C@H]3O[C@@H](n4cc(-n5ccc(C)n5)c5c(N)ncnc54)C[C@@H]3O)ccc2cc1F
REMARK SMILES IDX 9 1 8 4 7 5 3 6 4 7 36 8 5 9 35 10 37 11 6 12 34 13 33 16
REMARK SMILES IDX 32 17 2 20 1 22 10 26 11 27 30 28 12 30 29 31 31 36 13 38
REMARK SMILES IDX 14 39 28 40 15 41 22 43 27 44 23 45 26 46 25 47 16 49 17 50
REMARK SMILES IDX 21 51 18 52 19 54 20 56 24 60
REMARK H PARENT 9 2 9 3 35 14 6 15 33 18 32 19 2 21 1 23 1 24 1 25 10 29 30 32
REMARK H PARENT 12 33 29 34 29 35 31 37 14 42 26 48 17 53 18 55 20 57 20 58
REMARK H PARENT 20 59 24 61 24 62
REMARK Flexibility Score: inf
ROOT
ATOM      1  C   UNL     1     -47.501  34.878  27.937  1.00  0.00     0.117 C 
ATOM      2  H   UNL     1     -48.361  35.216  28.527  1.00  0.00     0.073 H 
ATOM      3  H   UNL     1     -47.381  33.823  28.215  1.00  0.00     0.073 H 
ENDROOT
BRANCH   1   4
ATOM      4  O   UNL     1     -47.747  34.904  26.529  1.00  0.00    -0.491 OA
BRANCH   4   5
ATOM      5  C   UNL     1     -47.435  33.800  25.787  1.00  0.00     0.121 A 
ATOM      6  C   UNL     1     -48.906  29.374  24.786  1.00  0.00     0.162 A 
ATOM      7  N   UNL     1     -49.073  30.548  25.436  1.00  0.00    -0.228 NA
ATOM      8  C   UNL     1     -47.823  29.175  23.924  1.00  0.00     0.166 A 
ATOM      9  C   UNL     1     -48.171  31.533  25.258  1.00  0.00     0.077 A 
ATOM     10  C   UNL     1     -46.888  30.181  23.737  1.00  0.00    -0.013 A 
ATOM     11  F   UNL     1     -47.663  28.006  23.285  1.00  0.00    -0.203 F 
ATOM     12  C   UNL     1     -48.335  32.737  25.928  1.00  0.00     0.007 A 
ATOM     13  C   UNL     1     -47.052  31.393  24.412  1.00  0.00     0.004 A 
ATOM     14  H   UNL     1     -46.052  30.007  23.070  1.00  0.00     0.066 H 
ATOM     15  H   UNL     1     -49.199  32.853  26.579  1.00  0.00     0.069 H 
ATOM     16  C   UNL     1     -46.141  32.450  24.265  1.00  0.00    -0.049 A 
ATOM     17  C   UNL     1     -46.333  33.651  24.953  1.00  0.00    -0.019 A 
ATOM     18  H   UNL     1     -45.275  32.346  23.614  1.00  0.00     0.063 H 
ATOM     19  H   UNL     1     -45.598  34.437  24.812  1.00  0.00     0.066 H 
BRANCH   6  20
ATOM     20  N   UNL     1     -49.868  28.351  24.914  1.00  0.00    -0.371 N 
ATOM     21  H   UNL     1     -50.070  27.968  23.994  1.00  0.00     0.161 HD
BRANCH  20  22
ATOM     22  C   UNL     1     -49.539  27.330  25.892  1.00  0.00     0.005 C 
ATOM     23  H   UNL     1     -49.239  26.418  25.366  1.00  0.00     0.045 H 
ATOM     24  H   UNL     1     -50.404  27.077  26.516  1.00  0.00     0.045 H 
ATOM     25  H   UNL     1     -48.703  27.637  26.529  1.00  0.00     0.045 H 
ENDBRANCH  20  22
ENDBRANCH   6  20
ENDBRANCH   4   5
ENDBRANCH   1   4
BRANCH   1  26
ATOM     26  C   UNL     1     -46.221  35.635  28.294  1.00  0.00     0.120 C 
ATOM     27  O   UNL     1     -45.867  36.560  27.250  1.00  0.00    -0.348 OA
ATOM     28  C   UNL     1     -46.354  36.459  29.571  1.00  0.00     0.088 C 
ATOM     29  H   UNL     1     -45.395  34.922  28.404  1.00  0.00     0.067 H 
ATOM     30  C   UNL     1     -45.336  37.754  27.876  1.00  0.00     0.138 C 
ATOM     31  C   UNL     1     -45.266  37.485  29.373  1.00  0.00     0.022 C 
ATOM     32  H   UNL     1     -47.331  36.951  29.640  1.00  0.00     0.063 H 
ATOM     33  H   UNL     1     -44.348  37.949  27.447  1.00  0.00     0.085 H 
ATOM     34  H   UNL     1     -44.292  37.050  29.632  1.00  0.00     0.034 H 
ATOM     35  H   UNL     1     -45.396  38.370  30.004  1.00  0.00     0.034 H 
BRANCH  28  36
ATOM     36  O   UNL     1     -46.133  35.704  30.750  1.00  0.00    -0.390 OA
ATOM     37  H   UNL     1     -45.395  36.128  31.230  1.00  0.00     0.211 HD
ENDBRANCH  28  36
BRANCH  30  38
ATOM     38  N   UNL     1     -46.183  38.895  27.540  1.00  0.00    -0.303 N 
ATOM     39  C   UNL     1     -47.501  39.072  27.859  1.00  0.00     0.035 A 
ATOM     40  C   UNL     1     -45.735  39.994  26.849  1.00  0.00     0.149 A 
ATOM     41  C   UNL     1     -47.921  40.277  27.319  1.00  0.00     0.096 A 
ATOM     42  H   UNL     1     -48.065  38.313  28.387  1.00  0.00     0.084 H 
ATOM     43  C   UNL     1     -46.779  40.914  26.740  1.00  0.00     0.087 A 
ATOM     44  N   UNL     1     -44.478  40.143  26.394  1.00  0.00    -0.218 NA
ATOM     45  C   UNL     1     -46.432  42.149  26.163  1.00  0.00     0.138 A 
ATOM     46  C   UNL     1     -44.299  41.327  25.801  1.00  0.00     0.120 A 
ATOM     47  N   UNL     1     -45.188  42.326  25.676  1.00  0.00    -0.219 NA
ATOM     48  H   UNL     1     -43.313  41.511  25.382  1.00  0.00     0.106 H 
BRANCH  41  49
ATOM     49  N   UNL     1     -49.279  40.711  27.374  1.00  0.00    -0.238 N 
ATOM     50  C   UNL     1     -50.225  40.425  28.333  1.00  0.00     0.031 A 
ATOM     51  N   UNL     1     -49.789  41.563  26.441  1.00  0.00    -0.173 NA
ATOM     52  C   UNL     1     -51.394  41.043  27.960  1.00  0.00    -0.021 A 
ATOM     53  H   UNL     1     -49.985  39.855  29.215  1.00  0.00     0.084 H 
ATOM     54  C   UNL     1     -51.070  41.735  26.780  1.00  0.00     0.060 A 
ATOM     55  H   UNL     1     -52.336  41.025  28.489  1.00  0.00     0.066 H 
BRANCH  54  56
ATOM     56  C   UNL     1     -51.948  42.599  25.954  1.00  0.00    -0.020 C 
ATOM     57  H   UNL     1     -52.624  43.179  26.589  1.00  0.00     0.030 H 
ATOM     58  H   UNL     1     -52.548  41.990  25.270  1.00  0.00     0.030 H 
ATOM     59  H   UNL     1     -51.359  43.301  25.356  1.00  0.00     0.030 H 
ENDBRANCH  54  56
ENDBRANCH  41  49
BRANCH  45  60
ATOM     60  N   UNL     1     -47.249  43.273  26.120  1.00  0.00    -0.383 N 
ATOM     61  H   UNL     1     -48.035  43.170  25.489  1.00  0.00     0.158 HD
ATOM     62  H   UNL     1     -47.515  43.518  27.070  1.00  0.00     0.158 HD
ENDBRANCH  45  60
ENDBRANCH  30  38
ENDBRANCH   1  26
TORSDOF 10
ENDMDL
MODEL 5
REMARK VINA RESULT:      -8.6      3.516     11.755
REMARK SMILES CNc1nc2cc(OC[C@H]3O[C@@H](n4cc(-n5ccc(C)n5)c5c(N)ncnc54)C[C@@H]3O)ccc2cc1F
REMARK SMILES IDX 9 1 8 4 7 5 3 6 4 7 36 8 5 9 35 10 37 11 6 12 34 13 33 16
REMARK SMILES IDX 32 17 2 20 1 22 10 26 11 27 30 28 12 30 29 31 31 36 13 38
REMARK SMILES IDX 14 39 28 40 15 41 22 43 27 44 23 45 26 46 25 47 16 49 17 50
REMARK SMILES IDX 21 51 18 52 19 54 20 56 24 60
REMARK H PARENT 9 2 9 3 35 14 6 15 33 18 32 19 2 21 1 23 1 24 1 25 10 29 30 32
REMARK H PARENT 12 33 29 34 29 35 31 37 14 42 26 48 17 53 18 55 20 57 20 58
REMARK H PARENT 20 59 24 61 24 62
REMARK Flexibility Score: inf
ROOT
ATOM      1  C   UNL     1     -46.591  33.449  26.838  1.00  0.00     0.117 C 
ATOM      2  H   UNL     1     -45.566  33.577  26.471  1.00  0.00     0.073 H 
ATOM      3  H   UNL     1     -46.567  32.493  27.377  1.00  0.00     0.073 H 
ENDROOT
BRANCH   1   4
ATOM      4  O   UNL     1     -46.970  34.445  27.789  1.00  0.00    -0.491 OA
BRANCH   4   5
ATOM      5  C   UNL     1     -46.625  35.747  27.552  1.00  0.00     0.121 A 
ATOM      6  C   UNL     1     -43.964  39.325  29.247  1.00  0.00     0.162 A 
ATOM      7  N   UNL     1     -44.399  38.046  29.323  1.00  0.00    -0.228 NA
ATOM      8  C   UNL     1     -44.392  40.171  28.219  1.00  0.00     0.166 A 
ATOM      9  C   UNL     1     -45.269  37.590  28.401  1.00  0.00     0.077 A 
ATOM     10  C   UNL     1     -45.289  39.713  27.268  1.00  0.00    -0.013 A 
ATOM     11  F   UNL     1     -43.958  41.440  28.152  1.00  0.00    -0.203 F 
ATOM     12  C   UNL     1     -45.722  36.281  28.478  1.00  0.00     0.007 A 
ATOM     13  C   UNL     1     -45.747  38.395  27.346  1.00  0.00     0.004 A 
ATOM     14  H   UNL     1     -45.614  40.385  26.482  1.00  0.00     0.066 H 
ATOM     15  H   UNL     1     -45.353  35.654  29.287  1.00  0.00     0.069 H 
ATOM     16  C   UNL     1     -46.655  37.871  26.413  1.00  0.00    -0.049 A 
ATOM     17  C   UNL     1     -47.093  36.549  26.518  1.00  0.00    -0.019 A 
ATOM     18  H   UNL     1     -47.027  38.489  25.599  1.00  0.00     0.063 H 
ATOM     19  H   UNL     1     -47.800  36.191  25.776  1.00  0.00     0.066 H 
BRANCH   6  20
ATOM     20  N   UNL     1     -43.011  39.804  30.168  1.00  0.00    -0.371 N 
ATOM     21  H   UNL     1     -42.715  39.037  30.768  1.00  0.00     0.161 HD
BRANCH  20  22
ATOM     22  C   UNL     1     -41.898  40.518  29.571  1.00  0.00     0.005 C 
ATOM     23  H   UNL     1     -41.616  41.349  30.225  1.00  0.00     0.045 H 
ATOM     24  H   UNL     1     -42.170  40.947  28.600  1.00  0.00     0.045 H 
ATOM     25  H   UNL     1     -41.021  39.873  29.456  1.00  0.00     0.045 H 
ENDBRANCH  20  22
ENDBRANCH   6  20
ENDBRANCH   4   5
ENDBRANCH   1   4
BRANCH   1  26
ATOM     26  C   UNL     1     -47.606  33.351  25.698  1.00  0.00     0.120 C 
ATOM     27  O   UNL     1     -47.056  32.623  24.586  1.00  0.00    -0.348 OA
ATOM     28  C   UNL     1     -48.883  32.619  26.100  1.00  0.00     0.088 C 
ATOM     29  H   UNL     1     -47.858  34.359  25.347  1.00  0.00     0.067 H 
ATOM     30  C   UNL     1     -48.115  31.818  24.013  1.00  0.00     0.138 C 
ATOM     31  C   UNL     1     -49.398  32.167  24.756  1.00  0.00     0.022 C 
ATOM     32  H   UNL     1     -48.674  31.752  26.737  1.00  0.00     0.063 H 
ATOM     33  H   UNL     1     -48.180  32.055  22.947  1.00  0.00     0.085 H 
ATOM     34  H   UNL     1     -49.909  32.998  24.253  1.00  0.00     0.034 H 
ATOM     35  H   UNL     1     -50.120  31.348  24.831  1.00  0.00     0.034 H 
BRANCH  28  36
ATOM     36  O   UNL     1     -49.826  33.454  26.751  1.00  0.00    -0.390 OA
ATOM     37  H   UNL     1     -50.624  32.914  26.915  1.00  0.00     0.211 HD
ENDBRANCH  28  36
BRANCH  30  38
ATOM     38  N   UNL     1     -47.761  30.405  24.118  1.00  0.00    -0.303 N 
ATOM     39  C   UNL     1     -48.452  29.424  24.774  1.00  0.00     0.035 A 
ATOM     40  C   UNL     1     -46.651  29.855  23.526  1.00  0.00     0.149 A 
ATOM     41  C   UNL     1     -47.748  28.237  24.647  1.00  0.00     0.096 A 
ATOM     42  H   UNL     1     -49.353  29.640  25.334  1.00  0.00     0.084 H 
ATOM     43  C   UNL     1     -46.635  28.483  23.783  1.00  0.00     0.087 A 
ATOM     44  N   UNL     1     -45.761  30.549  22.796  1.00  0.00    -0.218 NA
ATOM     45  C   UNL     1     -45.619  27.762  23.130  1.00  0.00     0.138 A 
ATOM     46  C   UNL     1     -44.804  29.761  22.294  1.00  0.00     0.120 A 
ATOM     47  N   UNL     1     -44.696  28.427  22.408  1.00  0.00    -0.219 NA
ATOM     48  H   UNL     1     -44.030  30.254  21.712  1.00  0.00     0.106 H 
BRANCH  41  49
ATOM     49  N   UNL     1     -48.140  27.037  25.312  1.00  0.00    -0.238 N 
ATOM     50  C   UNL     1     -49.411  26.534  25.482  1.00  0.00     0.031 A 
ATOM     51  N   UNL     1     -47.216  26.179  25.829  1.00  0.00    -0.173 NA
ATOM     52  C   UNL     1     -49.303  25.368  26.199  1.00  0.00    -0.021 A 
ATOM     53  H   UNL     1     -50.273  27.012  25.046  1.00  0.00     0.084 H 
ATOM     54  C   UNL     1     -47.922  25.192  26.389  1.00  0.00     0.060 A 
ATOM     55  H   UNL     1     -50.110  24.717  26.506  1.00  0.00     0.066 H 
BRANCH  54  56
ATOM     56  C   UNL     1     -47.226  24.080  27.079  1.00  0.00    -0.020 C 
ATOM     57  H   UNL     1     -46.226  23.933  26.660  1.00  0.00     0.030 H 
ATOM     58  H   UNL     1     -47.790  23.148  26.968  1.00  0.00     0.030 H 
ATOM     59  H   UNL     1     -47.118  24.286  28.149  1.00  0.00     0.030 H 
ENDBRANCH  54  56
ENDBRANCH  41  49
BRANCH  45  60
ATOM     60  N   UNL     1     -45.518  26.377  23.087  1.00  0.00    -0.383 N 
ATOM     61  H   UNL     1     -45.642  25.998  22.155  1.00  0.00     0.158 HD
ATOM     62  H   UNL     1     -44.646  26.101  23.529  1.00  0.00     0.158 HD
ENDBRANCH  45  60
ENDBRANCH  30  38
ENDBRANCH   1  26
TORSDOF 10
ENDMDL
MODEL 6
REMARK VINA RESULT:      -8.5      2.132      3.627
REMARK SMILES CNc1nc2cc(OC[C@H]3O[C@@H](n4cc(-n5ccc(C)n5)c5c(N)ncnc54)C[C@@H]3O)ccc2cc1F
REMARK SMILES IDX 9 1 8 4 7 5 3 6 4 7 36 8 5 9 35 10 37 11 6 12 34 13 33 16
REMARK SMILES IDX 32 17 2 20 1 22 10 26 11 27 30 28 12 30 29 31 31 36 13 38
REMARK SMILES IDX 14 39 28 40 15 41 22 43 27 44 23 45 26 46 25 47 16 49 17 50
REMARK SMILES IDX 21 51 18 52 19 54 20 56 24 60
REMARK H PARENT 9 2 9 3 35 14 6 15 33 18 32 19 2 21 1 23 1 24 1 25 10 29 30 32
REMARK H PARENT 12 33 29 34 29 35 31 37 14 42 26 48 17 53 18 55 20 57 20 58
REMARK H PARENT 20 59 24 61 24 62
REMARK Flexibility Score: inf
ROOT
ATOM      1  C   UNL     1     -46.003  34.340  26.693  1.00  0.00     0.117 C 
ATOM      2  H   UNL     1     -45.497  33.407  26.972  1.00  0.00     0.073 H 
ATOM      3  H   UNL     1     -45.183  35.042  26.497  1.00  0.00     0.073 H 
ENDROOT
BRANCH   1   4
ATOM      4  O   UNL     1     -46.747  34.229  25.479  1.00  0.00    -0.491 OA
BRANCH   4   5
ATOM      5  C   UNL     1     -46.787  33.020  24.840  1.00  0.00     0.121 A 
ATOM      6  C   UNL     1     -48.882  28.737  24.978  1.00  0.00     0.162 A 
ATOM      7  N   UNL     1     -48.728  29.986  25.475  1.00  0.00    -0.228 NA
ATOM      8  C   UNL     1     -48.155  28.311  23.863  1.00  0.00     0.166 A 
ATOM      9  C   UNL     1     -47.849  30.823  24.891  1.00  0.00     0.077 A 
ATOM     10  C   UNL     1     -47.246  29.163  23.257  1.00  0.00    -0.013 A 
ATOM     11  F   UNL     1     -48.312  27.069  23.377  1.00  0.00    -0.203 F 
ATOM     12  C   UNL     1     -47.684  32.103  25.401  1.00  0.00     0.007 A 
ATOM     13  C   UNL     1     -47.078  30.451  23.771  1.00  0.00     0.004 A 
ATOM     14  H   UNL     1     -46.687  28.814  22.396  1.00  0.00     0.066 H 
ATOM     15  H   UNL     1     -48.279  32.397  26.262  1.00  0.00     0.069 H 
ATOM     16  C   UNL     1     -46.174  31.362  23.202  1.00  0.00    -0.049 A 
ATOM     17  C   UNL     1     -46.029  32.644  23.738  1.00  0.00    -0.019 A 
ATOM     18  H   UNL     1     -45.576  31.079  22.338  1.00  0.00     0.063 H 
ATOM     19  H   UNL     1     -45.313  33.310  23.268  1.00  0.00     0.066 H 
BRANCH   6  20
ATOM     20  N   UNL     1     -49.837  27.866  25.539  1.00  0.00    -0.371 N 
ATOM     21  H   UNL     1     -50.377  27.438  24.791  1.00  0.00     0.161 HD
BRANCH  20  22
ATOM     22  C   UNL     1     -49.295  26.894  26.472  1.00  0.00     0.005 C 
ATOM     23  H   UNL     1     -48.853  26.068  25.906  1.00  0.00     0.045 H 
ATOM     24  H   UNL     1     -50.078  26.469  27.110  1.00  0.00     0.045 H 
ATOM     25  H   UNL     1     -48.508  27.329  27.095  1.00  0.00     0.045 H 
ENDBRANCH  20  22
ENDBRANCH   6  20
ENDBRANCH   4   5
ENDBRANCH   1   4
BRANCH   1  26
ATOM     26  C   UNL     1     -46.867  34.889  27.829  1.00  0.00     0.120 C 
ATOM     27  O   UNL     1     -46.111  35.794  28.654  1.00  0.00    -0.348 OA
ATOM     28  C   UNL     1     -48.077  35.673  27.329  1.00  0.00     0.088 C 
ATOM     29  H   UNL     1     -47.205  34.061  28.463  1.00  0.00     0.067 H 
ATOM     30  C   UNL     1     -46.992  36.873  29.052  1.00  0.00     0.138 C 
ATOM     31  C   UNL     1     -48.381  36.539  28.527  1.00  0.00     0.022 C 
ATOM     32  H   UNL     1     -47.830  36.298  26.463  1.00  0.00     0.063 H 
ATOM     33  H   UNL     1     -46.970  36.941  30.144  1.00  0.00     0.085 H 
ATOM     34  H   UNL     1     -48.936  35.958  29.276  1.00  0.00     0.034 H 
ATOM     35  H   UNL     1     -48.998  37.408  28.278  1.00  0.00     0.034 H 
BRANCH  28  36
ATOM     36  O   UNL     1     -49.183  34.849  27.004  1.00  0.00    -0.390 OA
ATOM     37  H   UNL     1     -49.992  35.351  27.225  1.00  0.00     0.211 HD
ENDBRANCH  28  36
BRANCH  30  38
ATOM     38  N   UNL     1     -46.475  38.137  28.533  1.00  0.00    -0.303 N 
ATOM     39  C   UNL     1     -45.168  38.536  28.472  1.00  0.00     0.035 A 
ATOM     40  C   UNL     1     -47.271  39.120  27.998  1.00  0.00     0.149 A 
ATOM     41  C   UNL     1     -45.129  39.815  27.939  1.00  0.00     0.096 A 
ATOM     42  H   UNL     1     -44.367  37.922  28.863  1.00  0.00     0.084 H 
ATOM     43  C   UNL     1     -46.461  40.167  27.557  1.00  0.00     0.087 A 
ATOM     44  N   UNL     1     -48.610  39.039  27.899  1.00  0.00    -0.218 NA
ATOM     45  C   UNL     1     -47.131  41.194  26.868  1.00  0.00     0.138 A 
ATOM     46  C   UNL     1     -49.132  40.111  27.293  1.00  0.00     0.120 A 
ATOM     47  N   UNL     1     -48.474  41.158  26.769  1.00  0.00    -0.219 NA
ATOM     48  H   UNL     1     -50.214  40.131  27.199  1.00  0.00     0.106 H 
BRANCH  41  49
ATOM     49  N   UNL     1     -43.921  40.569  27.843  1.00  0.00    -0.238 N 
ATOM     50  C   UNL     1     -42.930  40.713  28.787  1.00  0.00     0.031 A 
ATOM     51  N   UNL     1     -43.582  41.219  26.694  1.00  0.00    -0.173 NA
ATOM     52  C   UNL     1     -41.972  41.545  28.260  1.00  0.00    -0.021 A 
ATOM     53  H   UNL     1     -42.959  40.184  29.725  1.00  0.00     0.084 H 
ATOM     54  C   UNL     1     -42.424  41.830  26.960  1.00  0.00     0.060 A 
ATOM     55  H   UNL     1     -41.057  41.866  28.737  1.00  0.00     0.066 H 
BRANCH  54  56
ATOM     56  C   UNL     1     -41.768  42.663  25.924  1.00  0.00    -0.020 C 
ATOM     57  H   UNL     1     -42.212  43.663  25.896  1.00  0.00     0.030 H 
ATOM     58  H   UNL     1     -41.881  42.205  24.937  1.00  0.00     0.030 H 
ATOM     59  H   UNL     1     -40.698  42.773  26.127  1.00  0.00     0.030 H 
ENDBRANCH  54  56
ENDBRANCH  41  49
BRANCH  45  60
ATOM     60  N   UNL     1     -46.516  42.236  26.183  1.00  0.00    -0.383 N 
ATOM     61  H   UNL     1     -46.257  43.009  26.784  1.00  0.00     0.158 HD
ATOM     62  H   UNL     1     -45.740  41.857  25.645  1.00  0.00     0.158 HD
ENDBRANCH  45  60
ENDBRANCH  30  38
ENDBRANCH   1  26
TORSDOF 10
ENDMDL
MODEL 7
REMARK VINA RESULT:      -8.4      3.620     11.715
REMARK SMILES CNc1nc2cc(OC[C@H]3O[C@@H](n4cc(-n5ccc(C)n5)c5c(N)ncnc54)C[C@@H]3O)ccc2cc1F
REMARK SMILES IDX 9 1 8 4 7 5 3 6 4 7 36 8 5 9 35 10 37 11 6 12 34 13 33 16
REMARK SMILES IDX 32 17 2 20 1 22 10 26 11 27 30 28 12 30 29 31 31 36 13 38
REMARK SMILES IDX 14 39 28 40 15 41 22 43 27 44 23 45 26 46 25 47 16 49 17 50
REMARK SMILES IDX 21 51 18 52 19 54 20 56 24 60
REMARK H PARENT 9 2 9 3 35 14 6 15 33 18 32 19 2 21 1 23 1 24 1 25 10 29 30 32
REMARK H PARENT 12 33 29 34 29 35 31 37 14 42 26 48 17 53 18 55 20 57 20 58
REMARK H PARENT 20 59 24 61 24 62
REMARK Flexibility Score: inf
ROOT
ATOM      1  C   UNL     1     -46.648  33.424  26.572  1.00  0.00     0.117 C 
ATOM      2  H   UNL     1     -45.897  32.625  26.589  1.00  0.00     0.073 H 
ATOM      3  H   UNL     1     -47.186  33.309  27.522  1.00  0.00     0.073 H 
ENDROOT
BRANCH   1   4
ATOM      4  O   UNL     1     -46.070  34.731  26.586  1.00  0.00    -0.491 OA
BRANCH   4   5
ATOM      5  C   UNL     1     -46.826  35.779  27.033  1.00  0.00     0.121 A 
ATOM      6  C   UNL     1     -47.200  40.530  26.830  1.00  0.00     0.162 A 
ATOM      7  N   UNL     1     -46.576  39.385  26.471  1.00  0.00    -0.228 NA
ATOM      8  C   UNL     1     -48.319  40.509  27.667  1.00  0.00     0.166 A 
ATOM      9  C   UNL     1     -47.037  38.210  26.941  1.00  0.00     0.077 A 
ATOM     10  C   UNL     1     -48.799  39.305  28.159  1.00  0.00    -0.013 A 
ATOM     11  F   UNL     1     -48.931  41.651  28.021  1.00  0.00    -0.203 F 
ATOM     12  C   UNL     1     -46.397  37.033  26.580  1.00  0.00     0.007 A 
ATOM     13  C   UNL     1     -48.154  38.121  27.796  1.00  0.00     0.004 A 
ATOM     14  H   UNL     1     -49.665  39.309  28.810  1.00  0.00     0.066 H 
ATOM     15  H   UNL     1     -45.537  37.095  25.916  1.00  0.00     0.069 H 
ATOM     16  C   UNL     1     -48.591  36.870  28.259  1.00  0.00    -0.049 A 
ATOM     17  C   UNL     1     -47.926  35.702  27.878  1.00  0.00    -0.019 A 
ATOM     18  H   UNL     1     -49.452  36.796  28.921  1.00  0.00     0.063 H 
ATOM     19  H   UNL     1     -48.297  34.759  28.267  1.00  0.00     0.066 H 
BRANCH   6  20
ATOM     20  N   UNL     1     -46.768  41.765  26.305  1.00  0.00    -0.371 N 
ATOM     21  H   UNL     1     -46.984  42.503  26.971  1.00  0.00     0.161 HD
BRANCH  20  22
ATOM     22  C   UNL     1     -45.384  41.785  25.866  1.00  0.00     0.005 C 
ATOM     23  H   UNL     1     -45.314  42.362  24.938  1.00  0.00     0.045 H 
ATOM     24  H   UNL     1     -45.016  40.776  25.651  1.00  0.00     0.045 H 
ATOM     25  H   UNL     1     -44.734  42.264  26.605  1.00  0.00     0.045 H 
ENDBRANCH  20  22
ENDBRANCH   6  20
ENDBRANCH   4   5
ENDBRANCH   1   4
BRANCH   1  26
ATOM     26  C   UNL     1     -47.637  33.264  25.417  1.00  0.00     0.120 C 
ATOM     27  O   UNL     1     -47.052  32.502  24.346  1.00  0.00    -0.348 OA
ATOM     28  C   UNL     1     -48.910  32.526  25.823  1.00  0.00     0.088 C 
ATOM     29  H   UNL     1     -47.900  34.252  25.022  1.00  0.00     0.067 H 
ATOM     30  C   UNL     1     -48.087  31.657  23.785  1.00  0.00     0.138 C 
ATOM     31  C   UNL     1     -49.390  32.012  24.488  1.00  0.00     0.022 C 
ATOM     32  H   UNL     1     -48.699  31.688  26.498  1.00  0.00     0.063 H 
ATOM     33  H   UNL     1     -48.134  31.851  22.709  1.00  0.00     0.085 H 
ATOM     34  H   UNL     1     -49.905  32.814  23.943  1.00  0.00     0.034 H 
ATOM     35  H   UNL     1     -50.100  31.184  24.582  1.00  0.00     0.034 H 
BRANCH  28  36
ATOM     36  O   UNL     1     -49.879  33.368  26.422  1.00  0.00    -0.390 OA
ATOM     37  H   UNL     1     -50.644  33.407  25.814  1.00  0.00     0.211 HD
ENDBRANCH  28  36
BRANCH  30  38
ATOM     38  N   UNL     1     -47.711  30.255  23.953  1.00  0.00    -0.303 N 
ATOM     39  C   UNL     1     -48.407  29.285  24.619  1.00  0.00     0.035 A 
ATOM     40  C   UNL     1     -46.571  29.707  23.420  1.00  0.00     0.149 A 
ATOM     41  C   UNL     1     -47.677  28.109  24.560  1.00  0.00     0.096 A 
ATOM     42  H   UNL     1     -49.331  29.503  25.140  1.00  0.00     0.084 H 
ATOM     43  C   UNL     1     -46.539  28.346  23.726  1.00  0.00     0.087 A 
ATOM     44  N   UNL     1     -45.668  30.391  22.696  1.00  0.00    -0.218 NA
ATOM     45  C   UNL     1     -45.488  27.622  23.135  1.00  0.00     0.138 A 
ATOM     46  C   UNL     1     -44.680  29.605  22.256  1.00  0.00     0.120 A 
ATOM     47  N   UNL     1     -44.552  28.278  22.422  1.00  0.00    -0.219 NA
ATOM     48  H   UNL     1     -43.895  30.092  21.684  1.00  0.00     0.106 H 
BRANCH  41  49
ATOM     49  N   UNL     1     -48.071  26.925  25.253  1.00  0.00    -0.238 N 
ATOM     50  C   UNL     1     -49.332  26.386  25.369  1.00  0.00     0.031 A 
ATOM     51  N   UNL     1     -47.153  26.123  25.863  1.00  0.00    -0.173 NA
ATOM     52  C   UNL     1     -49.232  25.256  26.143  1.00  0.00    -0.021 A 
ATOM     53  H   UNL     1     -50.181  26.814  24.861  1.00  0.00     0.084 H 
ATOM     54  C   UNL     1     -47.860  25.137  26.423  1.00  0.00     0.060 A 
ATOM     55  H   UNL     1     -50.035  24.592  26.430  1.00  0.00     0.066 H 
BRANCH  54  56
ATOM     56  C   UNL     1     -47.172  24.080  27.204  1.00  0.00    -0.020 C 
ATOM     57  H   UNL     1     -47.557  23.092  26.935  1.00  0.00     0.030 H 
ATOM     58  H   UNL     1     -47.328  24.234  28.276  1.00  0.00     0.030 H 
ATOM     59  H   UNL     1     -46.095  24.088  27.012  1.00  0.00     0.030 H 
ENDBRANCH  54  56
ENDBRANCH  41  49
BRANCH  45  60
ATOM     60  N   UNL     1     -45.361  26.238  23.145  1.00  0.00    -0.383 N 
ATOM     61  H   UNL     1     -45.034  25.862  22.262  1.00  0.00     0.158 HD
ATOM     62  H   UNL     1     -44.788  25.970  23.941  1.00  0.00     0.158 HD
ENDBRANCH  45  60
ENDBRANCH  30  38
ENDBRANCH   1  26
TORSDOF 10
ENDMDL
