MODEL 1
REMARK VINA RESULT:     -10.9      0.000      0.000
REMARK SMILES Cc1ccn(-c2cn([C@@H]3O[C@H](COc4ccc5ccc(N6CC(N)C6)nc5c4)[C@@H](O)[C@@H]3F)c3ncnc(N)c23)n1
REMARK SMILES IDX 12 1 11 4 9 5 10 6 31 7 29 9 32 10 8 14 6 15 7 16 39 17
REMARK SMILES IDX 33 19 37 20 34 21 36 22 35 23 5 25 2 26 3 27 40 28 4 29 1 32
REMARK SMILES IDX 38 36 30 39 13 41 14 42 15 43 28 44 16 45 27 47 17 49 26 51
REMARK SMILES IDX 18 52 20 53 19 54 21 57 22 58 25 59 23 60 24 66
REMARK H PARENT 12 2 12 3 9 8 31 11 11 12 29 13 7 18 35 24 3 30 4 31 1 33 1 34
REMARK H PARENT 1 35 38 37 38 38 30 40 15 46 28 48 16 50 18 55 19 56 22 61
REMARK H PARENT 22 62 25 63 25 64 23 65 24 67 24 68
REMARK Flexibility Score: inf
ROOT
ATOM      1  C   UNL     1     -46.588  35.916  26.756  1.00  0.00     0.117 C 
ATOM      2  H   UNL     1     -46.513  36.530  25.851  1.00  0.00     0.073 H 
ATOM      3  H   UNL     1     -45.703  35.269  26.761  1.00  0.00     0.073 H 
ENDROOT
BRANCH   1   4
ATOM      4  C   UNL     1     -46.609  36.747  28.041  1.00  0.00     0.123 C 
ATOM      5  C   UNL     1     -45.597  38.656  28.906  1.00  0.00     0.170 C 
ATOM      6  O   UNL     1     -45.338  37.397  28.251  1.00  0.00    -0.345 OA
ATOM      7  C   UNL     1     -47.108  38.831  29.013  1.00  0.00     0.173 C 
ATOM      8  H   UNL     1     -45.169  38.583  29.912  1.00  0.00     0.088 H 
ATOM      9  C   UNL     1     -47.651  37.855  27.993  1.00  0.00     0.119 C 
ATOM     10  F   UNL     1     -47.536  40.086  28.746  1.00  0.00    -0.239 F 
ATOM     11  H   UNL     1     -47.458  38.573  30.020  1.00  0.00     0.074 H 
ATOM     12  H   UNL     1     -46.779  36.096  28.907  1.00  0.00     0.067 H 
ATOM     13  H   UNL     1     -47.729  38.315  27.005  1.00  0.00     0.066 H 
BRANCH   5  14
ATOM     14  N   UNL     1     -44.879  39.717  28.215  1.00  0.00    -0.301 N 
ATOM     15  C   UNL     1     -44.422  41.300  26.707  1.00  0.00     0.096 A 
ATOM     16  C   UNL     1     -45.308  40.293  27.046  1.00  0.00     0.035 A 
ATOM     17  C   UNL     1     -43.343  41.259  27.643  1.00  0.00     0.087 A 
ATOM     18  H   UNL     1     -46.235  39.991  26.572  1.00  0.00     0.084 H 
ATOM     19  C   UNL     1     -43.696  40.301  28.597  1.00  0.00     0.149 A 
ATOM     20  C   UNL     1     -42.083  41.859  27.827  1.00  0.00     0.138 A 
ATOM     21  N   UNL     1     -42.994  39.973  29.696  1.00  0.00    -0.218 NA
ATOM     22  N   UNL     1     -41.367  41.571  28.931  1.00  0.00    -0.219 NA
ATOM     23  C   UNL     1     -41.861  40.675  29.799  1.00  0.00     0.120 A 
ATOM     24  H   UNL     1     -41.258  40.487  30.682  1.00  0.00     0.106 H 
BRANCH  15  25
ATOM     25  N   UNL     1     -44.643  42.179  25.605  1.00  0.00    -0.238 N 
ATOM     26  C   UNL     1     -45.550  43.757  24.466  1.00  0.00     0.060 A 
ATOM     27  C   UNL     1     -44.524  43.238  23.657  1.00  0.00    -0.021 A 
ATOM     28  N   UNL     1     -45.605  43.144  25.652  1.00  0.00    -0.173 NA
ATOM     29  C   UNL     1     -43.942  42.257  24.422  1.00  0.00     0.031 A 
ATOM     30  H   UNL     1     -44.220  43.558  22.670  1.00  0.00     0.066 H 
ATOM     31  H   UNL     1     -43.069  41.652  24.241  1.00  0.00     0.084 H 
BRANCH  26  32
ATOM     32  C   UNL     1     -46.488  44.862  24.155  1.00  0.00    -0.020 C 
ATOM     33  H   UNL     1     -46.878  45.320  25.069  1.00  0.00     0.030 H 
ATOM     34  H   UNL     1     -47.338  44.491  23.573  1.00  0.00     0.030 H 
ATOM     35  H   UNL     1     -45.985  45.642  23.575  1.00  0.00     0.030 H 
ENDBRANCH  26  32
ENDBRANCH  15  25
BRANCH  20  36
ATOM     36  N   UNL     1     -41.445  42.686  26.910  1.00  0.00    -0.383 N 
ATOM     37  H   UNL     1     -40.457  42.484  26.815  1.00  0.00     0.158 HD
ATOM     38  H   UNL     1     -41.646  43.652  27.151  1.00  0.00     0.158 HD
ENDBRANCH  20  36
ENDBRANCH   5  14
BRANCH   9  39
ATOM     39  O   UNL     1     -48.946  37.373  28.343  1.00  0.00    -0.387 OA
ATOM     40  H   UNL     1     -48.833  36.455  28.654  1.00  0.00     0.211 HD
ENDBRANCH   9  39
ENDBRANCH   1   4
BRANCH   1  41
ATOM     41  O   UNL     1     -47.710  35.029  26.690  1.00  0.00    -0.491 OA
BRANCH  41  42
ATOM     42  C   UNL     1     -47.580  33.851  26.009  1.00  0.00     0.121 A 
ATOM     43  C   UNL     1     -46.533  33.834  25.088  1.00  0.00    -0.019 A 
ATOM     44  C   UNL     1     -48.370  32.710  26.162  1.00  0.00     0.007 A 
ATOM     45  C   UNL     1     -46.282  32.694  24.328  1.00  0.00    -0.049 A 
ATOM     46  H   UNL     1     -45.908  34.716  24.966  1.00  0.00     0.066 H 
ATOM     47  C   UNL     1     -48.142  31.558  25.416  1.00  0.00     0.076 A 
ATOM     48  H   UNL     1     -49.189  32.674  26.875  1.00  0.00     0.069 H 
ATOM     49  C   UNL     1     -47.084  31.556  24.488  1.00  0.00     0.001 A 
ATOM     50  H   UNL     1     -45.461  32.702  23.615  1.00  0.00     0.063 H 
ATOM     51  N   UNL     1     -48.934  30.487  25.604  1.00  0.00    -0.231 NA
ATOM     52  C   UNL     1     -46.867  30.391  23.749  1.00  0.00    -0.049 A 
ATOM     53  C   UNL     1     -48.722  29.366  24.878  1.00  0.00     0.129 A 
ATOM     54  C   UNL     1     -47.691  29.289  23.949  1.00  0.00    -0.019 A 
ATOM     55  H   UNL     1     -46.060  30.332  23.023  1.00  0.00     0.063 H 
ATOM     56  H   UNL     1     -47.519  28.377  23.388  1.00  0.00     0.066 H 
BRANCH  53  57
ATOM     57  N   UNL     1     -49.554  28.254  25.100  1.00  0.00    -0.353 N 
ATOM     58  C   UNL     1     -49.870  27.268  24.098  1.00  0.00     0.036 C 
ATOM     59  C   UNL     1     -49.390  27.255  26.125  1.00  0.00     0.036 C 
ATOM     60  C   UNL     1     -50.261  26.324  25.255  1.00  0.00     0.040 C 
ATOM     61  H   UNL     1     -50.662  27.581  23.413  1.00  0.00     0.051 H 
ATOM     62  H   UNL     1     -48.989  26.944  23.533  1.00  0.00     0.051 H 
ATOM     63  H   UNL     1     -49.792  27.555  27.098  1.00  0.00     0.051 H 
ATOM     64  H   UNL     1     -48.348  26.931  26.231  1.00  0.00     0.051 H 
ATOM     65  H   UNL     1     -49.935  25.286  25.173  1.00  0.00     0.050 H 
BRANCH  60  66
ATOM     66  N   UNL     1     -51.685  26.504  25.601  1.00  0.00    -0.325 NA
ATOM     67  H   UNL     1     -52.018  25.829  26.288  1.00  0.00     0.119 HD
ATOM     68  H   UNL     1     -52.291  26.374  24.788  1.00  0.00     0.119 HD
ENDBRANCH  60  66
ENDBRANCH  53  57
ENDBRANCH  41  42
ENDBRANCH   1  41
TORSDOF 10
ENDMDL
MODEL 2
REMARK VINA RESULT:     -10.1      2.689     12.444
REMARK SMILES Cc1ccn(-c2cn([C@@H]3O[C@H](COc4ccc5ccc(N6CC(N)C6)nc5c4)[C@@H](O)[C@@H]3F)c3ncnc(N)c23)n1
REMARK SMILES IDX 12 1 11 4 9 5 10 6 31 7 29 9 32 10 8 14 6 15 7 16 39 17
REMARK SMILES IDX 33 19 37 20 34 21 36 22 35 23 5 25 2 26 3 27 40 28 4 29 1 32
REMARK SMILES IDX 38 36 30 39 13 41 14 42 15 43 28 44 16 45 27 47 17 49 26 51
REMARK SMILES IDX 18 52 20 53 19 54 21 57 22 58 25 59 23 60 24 66
REMARK H PARENT 12 2 12 3 9 8 31 11 11 12 29 13 7 18 35 24 3 30 4 31 1 33 1 34
REMARK H PARENT 1 35 38 37 38 38 30 40 15 46 28 48 16 50 18 55 19 56 22 61
REMARK H PARENT 22 62 25 63 25 64 23 65 24 67 24 68
REMARK Flexibility Score: inf
ROOT
ATOM      1  C   UNL     1     -46.611  33.699  27.160  1.00  0.00     0.117 C 
ATOM      2  H   UNL     1     -46.407  32.745  27.659  1.00  0.00     0.073 H 
ATOM      3  H   UNL     1     -45.635  34.119  26.891  1.00  0.00     0.073 H 
ENDROOT
BRANCH   1   4
ATOM      4  C   UNL     1     -47.456  33.542  25.895  1.00  0.00     0.123 C 
ATOM      5  C   UNL     1     -47.809  31.975  24.210  1.00  0.00     0.170 C 
ATOM      6  O   UNL     1     -46.789  32.693  24.936  1.00  0.00    -0.345 OA
ATOM      7  C   UNL     1     -49.161  32.328  24.820  1.00  0.00     0.173 C 
ATOM      8  H   UNL     1     -47.772  32.336  23.176  1.00  0.00     0.088 H 
ATOM      9  C   UNL     1     -48.803  32.891  26.176  1.00  0.00     0.119 C 
ATOM     10  F   UNL     1     -49.997  31.272  24.948  1.00  0.00    -0.239 F 
ATOM     11  H   UNL     1     -49.676  33.081  24.212  1.00  0.00     0.074 H 
ATOM     12  H   UNL     1     -47.594  34.517  25.411  1.00  0.00     0.067 H 
ATOM     13  H   UNL     1     -48.736  32.102  26.930  1.00  0.00     0.066 H 
BRANCH   5  14
ATOM     14  N   UNL     1     -47.472  30.559  24.178  1.00  0.00    -0.301 N 
ATOM     15  C   UNL     1     -47.555  28.375  24.638  1.00  0.00     0.096 A 
ATOM     16  C   UNL     1     -48.069  29.615  24.974  1.00  0.00     0.035 A 
ATOM     17  C   UNL     1     -46.514  28.584  23.681  1.00  0.00     0.087 A 
ATOM     18  H   UNL     1     -48.853  29.877  25.675  1.00  0.00     0.084 H 
ATOM     19  C   UNL     1     -46.537  29.949  23.379  1.00  0.00     0.149 A 
ATOM     20  C   UNL     1     -45.513  27.838  23.032  1.00  0.00     0.138 A 
ATOM     21  N   UNL     1     -45.761  30.579  22.480  1.00  0.00    -0.218 NA
ATOM     22  N   UNL     1     -44.736  28.435  22.107  1.00  0.00    -0.219 NA
ATOM     23  C   UNL     1     -44.912  29.744  21.871  1.00  0.00     0.120 A 
ATOM     24  H   UNL     1     -44.277  30.179  21.106  1.00  0.00     0.106 H 
BRANCH  15  25
ATOM     25  N   UNL     1     -48.052  27.159  25.197  1.00  0.00    -0.238 N 
ATOM     26  C   UNL     1     -48.007  25.275  26.225  1.00  0.00     0.060 A 
ATOM     27  C   UNL     1     -49.347  25.481  25.855  1.00  0.00    -0.021 A 
ATOM     28  N   UNL     1     -47.228  26.298  25.860  1.00  0.00    -0.173 NA
ATOM     29  C   UNL     1     -49.351  26.705  25.231  1.00  0.00     0.031 A 
ATOM     30  H   UNL     1     -50.202  24.848  26.048  1.00  0.00     0.066 H 
ATOM     31  H   UNL     1     -50.169  27.299  24.860  1.00  0.00     0.084 H 
BRANCH  26  32
ATOM     32  C   UNL     1     -47.427  24.123  26.956  1.00  0.00    -0.020 C 
ATOM     33  H   UNL     1     -46.492  24.399  27.453  1.00  0.00     0.030 H 
ATOM     34  H   UNL     1     -47.215  23.299  26.268  1.00  0.00     0.030 H 
ATOM     35  H   UNL     1     -48.123  23.764  27.722  1.00  0.00     0.030 H 
ENDBRANCH  26  32
ENDBRANCH  15  25
BRANCH  20  36
ATOM     36  N   UNL     1     -45.179  26.520  23.320  1.00  0.00    -0.383 N 
ATOM     37  H   UNL     1     -44.562  26.433  24.119  1.00  0.00     0.158 HD
ATOM     38  H   UNL     1     -44.821  26.084  22.475  1.00  0.00     0.158 HD
ENDBRANCH  20  36
ENDBRANCH   5  14
BRANCH   9  39
ATOM     39  O   UNL     1     -49.759  33.841  26.637  1.00  0.00    -0.387 OA
ATOM     40  H   UNL     1     -50.141  34.266  25.845  1.00  0.00     0.211 HD
ENDBRANCH   9  39
ENDBRANCH   1   4
BRANCH   1  41
ATOM     41  O   UNL     1     -47.197  34.643  28.064  1.00  0.00    -0.491 OA
BRANCH  41  42
ATOM     42  C   UNL     1     -46.985  35.976  27.854  1.00  0.00     0.121 A 
ATOM     43  C   UNL     1     -48.086  36.658  27.338  1.00  0.00    -0.019 A 
ATOM     44  C   UNL     1     -45.808  36.682  28.115  1.00  0.00     0.007 A 
ATOM     45  C   UNL     1     -48.011  38.025  27.080  1.00  0.00    -0.049 A 
ATOM     46  H   UNL     1     -49.009  36.118  27.137  1.00  0.00     0.066 H 
ATOM     47  C   UNL     1     -45.705  38.047  27.867  1.00  0.00     0.076 A 
ATOM     48  H   UNL     1     -44.930  36.195  28.527  1.00  0.00     0.069 H 
ATOM     49  C   UNL     1     -46.823  38.722  27.342  1.00  0.00     0.001 A 
ATOM     50  H   UNL     1     -48.881  38.538  26.677  1.00  0.00     0.063 H 
ATOM     51  N   UNL     1     -44.548  38.677  28.137  1.00  0.00    -0.231 NA
ATOM     52  C   UNL     1     -46.705  40.092  27.102  1.00  0.00    -0.049 A 
ATOM     53  C   UNL     1     -44.439  40.003  27.893  1.00  0.00     0.129 A 
ATOM     54  C   UNL     1     -45.504  40.736  27.383  1.00  0.00    -0.019 A 
ATOM     55  H   UNL     1     -47.539  40.664  26.704  1.00  0.00     0.063 H 
ATOM     56  H   UNL     1     -45.411  41.803  27.211  1.00  0.00     0.066 H 
BRANCH  53  57
ATOM     57  N   UNL     1     -43.224  40.645  28.195  1.00  0.00    -0.353 N 
ATOM     58  C   UNL     1     -42.998  42.059  28.043  1.00  0.00     0.036 C 
ATOM     59  C   UNL     1     -42.523  40.601  29.452  1.00  0.00     0.036 C 
ATOM     60  C   UNL     1     -41.812  41.900  29.018  1.00  0.00     0.040 C 
ATOM     61  H   UNL     1     -42.770  42.357  27.016  1.00  0.00     0.051 H 
ATOM     62  H   UNL     1     -43.824  42.664  28.436  1.00  0.00     0.051 H 
ATOM     63  H   UNL     1     -41.905  39.708  29.578  1.00  0.00     0.051 H 
ATOM     64  H   UNL     1     -43.195  40.718  30.310  1.00  0.00     0.051 H 
ATOM     65  H   UNL     1     -41.696  42.672  29.781  1.00  0.00     0.050 H 
BRANCH  60  66
ATOM     66  N   UNL     1     -40.580  41.570  28.274  1.00  0.00    -0.325 NA
ATOM     67  H   UNL     1     -40.410  40.568  28.205  1.00  0.00     0.119 HD
ATOM     68  H   UNL     1     -39.749  41.949  28.734  1.00  0.00     0.119 HD
ENDBRANCH  60  66
ENDBRANCH  53  57
ENDBRANCH  41  42
ENDBRANCH   1  41
TORSDOF 10
ENDMDL
MODEL 3
REMARK VINA RESULT:     -10.0      2.276      3.534
REMARK SMILES Cc1ccn(-c2cn([C@@H]3O[C@H](COc4ccc5ccc(N6CC(N)C6)nc5c4)[C@@H](O)[C@@H]3F)c3ncnc(N)c23)n1
REMARK SMILES IDX 12 1 11 4 9 5 10 6 31 7 29 9 32 10 8 14 6 15 7 16 39 17
REMARK SMILES IDX 33 19 37 20 34 21 36 22 35 23 5 25 2 26 3 27 40 28 4 29 1 32
REMARK SMILES IDX 38 36 30 39 13 41 14 42 15 43 28 44 16 45 27 47 17 49 26 51
REMARK SMILES IDX 18 52 20 53 19 54 21 57 22 58 25 59 23 60 24 66
REMARK H PARENT 12 2 12 3 9 8 31 11 11 12 29 13 7 18 35 24 3 30 4 31 1 33 1 34
REMARK H PARENT 1 35 38 37 38 38 30 40 15 46 28 48 16 50 18 55 19 56 22 61
REMARK H PARENT 22 62 25 63 25 64 23 65 24 67 24 68
REMARK Flexibility Score: inf
ROOT
ATOM      1  C   UNL     1     -47.470  34.741  27.266  1.00  0.00     0.117 C 
ATOM      2  H   UNL     1     -47.658  33.797  27.790  1.00  0.00     0.073 H 
ATOM      3  H   UNL     1     -48.376  35.346  27.390  1.00  0.00     0.073 H 
ENDROOT
BRANCH   1   4
ATOM      4  C   UNL     1     -46.273  35.510  27.830  1.00  0.00     0.123 C 
ATOM      5  C   UNL     1     -45.475  37.695  27.903  1.00  0.00     0.170 C 
ATOM      6  O   UNL     1     -45.984  36.671  27.023  1.00  0.00    -0.345 OA
ATOM      7  C   UNL     1     -45.547  37.169  29.332  1.00  0.00     0.173 C 
ATOM      8  H   UNL     1     -44.426  37.853  27.628  1.00  0.00     0.088 H 
ATOM      9  C   UNL     1     -46.531  36.024  29.240  1.00  0.00     0.119 C 
ATOM     10  F   UNL     1     -45.969  38.086  30.234  1.00  0.00    -0.239 F 
ATOM     11  H   UNL     1     -44.566  36.811  29.664  1.00  0.00     0.074 H 
ATOM     12  H   UNL     1     -45.376  34.878  27.808  1.00  0.00     0.067 H 
ATOM     13  H   UNL     1     -47.558  36.369  29.378  1.00  0.00     0.066 H 
BRANCH   5  14
ATOM     14  N   UNL     1     -46.174  38.945  27.646  1.00  0.00    -0.301 N 
ATOM     15  C   UNL     1     -47.783  40.495  27.696  1.00  0.00     0.096 A 
ATOM     16  C   UNL     1     -47.460  39.197  28.053  1.00  0.00     0.035 A 
ATOM     17  C   UNL     1     -46.691  41.017  26.935  1.00  0.00     0.087 A 
ATOM     18  H   UNL     1     -48.031  38.466  28.613  1.00  0.00     0.084 H 
ATOM     19  C   UNL     1     -45.690  40.043  26.979  1.00  0.00     0.149 A 
ATOM     20  C   UNL     1     -46.389  42.159  26.170  1.00  0.00     0.138 A 
ATOM     21  N   UNL     1     -44.461  40.138  26.441  1.00  0.00    -0.218 NA
ATOM     22  N   UNL     1     -45.159  42.296  25.640  1.00  0.00    -0.219 NA
ATOM     23  C   UNL     1     -44.272  41.305  25.816  1.00  0.00     0.120 A 
ATOM     24  H   UNL     1     -43.288  41.466  25.387  1.00  0.00     0.106 H 
BRANCH  15  25
ATOM     25  N   UNL     1     -49.010  41.115  28.079  1.00  0.00    -0.238 N 
ATOM     26  C   UNL     1     -50.445  42.069  29.359  1.00  0.00     0.060 A 
ATOM     27  C   UNL     1     -51.052  41.984  28.094  1.00  0.00    -0.021 A 
ATOM     28  N   UNL     1     -49.203  41.577  29.347  1.00  0.00    -0.173 NA
ATOM     29  C   UNL     1     -50.102  41.402  27.291  1.00  0.00     0.031 A 
ATOM     30  H   UNL     1     -52.031  42.333  27.795  1.00  0.00     0.066 H 
ATOM     31  H   UNL     1     -50.099  41.218  26.230  1.00  0.00     0.084 H 
BRANCH  26  32
ATOM     32  C   UNL     1     -51.006  42.641  30.606  1.00  0.00    -0.020 C 
ATOM     33  H   UNL     1     -50.215  43.031  31.254  1.00  0.00     0.030 H 
ATOM     34  H   UNL     1     -51.556  41.877  31.166  1.00  0.00     0.030 H 
ATOM     35  H   UNL     1     -51.692  43.464  30.377  1.00  0.00     0.030 H 
ENDBRANCH  26  32
ENDBRANCH  15  25
BRANCH  20  36
ATOM     36  N   UNL     1     -47.293  43.158  25.828  1.00  0.00    -0.383 N 
ATOM     37  H   UNL     1     -48.094  42.809  25.314  1.00  0.00     0.158 HD
ATOM     38  H   UNL     1     -46.790  43.900  25.350  1.00  0.00     0.158 HD
ENDBRANCH  20  36
ENDBRANCH   5  14
BRANCH   9  39
ATOM     39  O   UNL     1     -46.282  35.018  30.218  1.00  0.00    -0.387 OA
ATOM     40  H   UNL     1     -45.347  34.755  30.124  1.00  0.00     0.211 HD
ENDBRANCH   9  39
ENDBRANCH   1   4
BRANCH   1  41
ATOM     41  O   UNL     1     -47.339  34.535  25.855  1.00  0.00    -0.491 OA
BRANCH  41  42
ATOM     42  C   UNL     1     -47.339  33.256  25.373  1.00  0.00     0.121 A 
ATOM     43  C   UNL     1     -46.387  33.017  24.383  1.00  0.00    -0.019 A 
ATOM     44  C   UNL     1     -48.171  32.213  25.783  1.00  0.00     0.007 A 
ATOM     45  C   UNL     1     -46.271  31.754  23.806  1.00  0.00    -0.049 A 
ATOM     46  H   UNL     1     -45.729  33.822  24.061  1.00  0.00     0.066 H 
ATOM     47  C   UNL     1     -48.078  30.942  25.225  1.00  0.00     0.076 A 
ATOM     48  H   UNL     1     -48.919  32.349  26.558  1.00  0.00     0.069 H 
ATOM     49  C   UNL     1     -47.115  30.715  24.223  1.00  0.00     0.001 A 
ATOM     50  H   UNL     1     -45.523  31.589  23.035  1.00  0.00     0.063 H 
ATOM     51  N   UNL     1     -48.905  29.973  25.657  1.00  0.00    -0.231 NA
ATOM     52  C   UNL     1     -47.032  29.434  23.675  1.00  0.00    -0.049 A 
ATOM     53  C   UNL     1     -48.824  28.737  25.115  1.00  0.00     0.129 A 
ATOM     54  C   UNL     1     -47.892  28.438  24.127  1.00  0.00    -0.019 A 
ATOM     55  H   UNL     1     -46.303  29.202  22.904  1.00  0.00     0.063 H 
ATOM     56  H   UNL     1     -47.824  27.438  23.715  1.00  0.00     0.066 H 
BRANCH  53  57
ATOM     57  N   UNL     1     -49.690  27.736  25.591  1.00  0.00    -0.353 N 
ATOM     58  C   UNL     1     -50.560  26.954  24.751  1.00  0.00     0.036 C 
ATOM     59  C   UNL     1     -49.319  26.591  26.384  1.00  0.00     0.036 C 
ATOM     60  C   UNL     1     -50.624  25.925  25.899  1.00  0.00     0.040 C 
ATOM     61  H   UNL     1     -51.486  27.469  24.484  1.00  0.00     0.051 H 
ATOM     62  H   UNL     1     -50.059  26.588  23.848  1.00  0.00     0.051 H 
ATOM     63  H   UNL     1     -49.233  26.809  27.453  1.00  0.00     0.051 H 
ATOM     64  H   UNL     1     -48.404  26.110  26.022  1.00  0.00     0.051 H 
ATOM     65  H   UNL     1     -50.561  24.872  25.620  1.00  0.00     0.050 H 
BRANCH  60  66
ATOM     66  N   UNL     1     -51.728  26.258  26.822  1.00  0.00    -0.325 NA
ATOM     67  H   UNL     1     -52.570  25.709  26.653  1.00  0.00     0.119 HD
ATOM     68  H   UNL     1     -52.023  27.232  26.723  1.00  0.00     0.119 HD
ENDBRANCH  60  66
ENDBRANCH  53  57
ENDBRANCH  41  42
ENDBRANCH   1  41
TORSDOF 10
ENDMDL
MODEL 4
REMARK VINA RESULT:      -9.8      1.749      2.811
REMARK SMILES Cc1ccn(-c2cn([C@@H]3O[C@H](COc4ccc5ccc(N6CC(N)C6)nc5c4)[C@@H](O)[C@@H]3F)c3ncnc(N)c23)n1
REMARK SMILES IDX 12 1 11 4 9 5 10 6 31 7 29 9 32 10 8 14 6 15 7 16 39 17
REMARK SMILES IDX 33 19 37 20 34 21 36 22 35 23 5 25 2 26 3 27 40 28 4 29 1 32
REMARK SMILES IDX 38 36 30 39 13 41 14 42 15 43 28 44 16 45 27 47 17 49 26 51
REMARK SMILES IDX 18 52 20 53 19 54 21 57 22 58 25 59 23 60 24 66
REMARK H PARENT 12 2 12 3 9 8 31 11 11 12 29 13 7 18 35 24 3 30 4 31 1 33 1 34
REMARK H PARENT 1 35 38 37 38 38 30 40 15 46 28 48 16 50 18 55 19 56 22 61
REMARK H PARENT 22 62 25 63 25 64 23 65 24 67 24 68
REMARK Flexibility Score: inf
ROOT
ATOM      1  C   UNL     1     -47.458  34.999  27.778  1.00  0.00     0.117 C 
ATOM      2  H   UNL     1     -47.677  34.036  28.253  1.00  0.00     0.073 H 
ATOM      3  H   UNL     1     -48.281  35.670  28.051  1.00  0.00     0.073 H 
ENDROOT
BRANCH   1   4
ATOM      4  C   UNL     1     -46.137  35.610  28.250  1.00  0.00     0.123 C 
ATOM      5  C   UNL     1     -44.954  37.603  28.027  1.00  0.00     0.170 C 
ATOM      6  O   UNL     1     -45.647  36.573  27.292  1.00  0.00    -0.345 OA
ATOM      7  C   UNL     1     -45.110  37.308  29.515  1.00  0.00     0.173 C 
ATOM      8  H   UNL     1     -43.895  37.527  27.752  1.00  0.00     0.088 H 
ATOM      9  C   UNL     1     -46.286  36.359  29.567  1.00  0.00     0.119 C 
ATOM     10  F   UNL     1     -45.350  38.406  30.270  1.00  0.00    -0.239 F 
ATOM     11  H   UNL     1     -44.208  36.829  29.913  1.00  0.00     0.074 H 
ATOM     12  H   UNL     1     -45.370  34.831  28.335  1.00  0.00     0.067 H 
ATOM     13  H   UNL     1     -47.232  36.901  29.636  1.00  0.00     0.066 H 
BRANCH   5  14
ATOM     14  N   UNL     1     -45.415  38.909  27.582  1.00  0.00    -0.301 N 
ATOM     15  C   UNL     1     -45.357  40.972  26.726  1.00  0.00     0.096 A 
ATOM     16  C   UNL     1     -44.582  39.895  27.118  1.00  0.00     0.035 A 
ATOM     17  C   UNL     1     -46.712  40.678  27.075  1.00  0.00     0.087 A 
ATOM     18  H   UNL     1     -43.511  39.744  27.044  1.00  0.00     0.084 H 
ATOM     19  C   UNL     1     -46.711  39.363  27.549  1.00  0.00     0.149 A 
ATOM     20  C   UNL     1     -47.959  41.329  27.104  1.00  0.00     0.138 A 
ATOM     21  N   UNL     1     -47.785  38.655  27.938  1.00  0.00    -0.218 NA
ATOM     22  N   UNL     1     -49.059  40.640  27.464  1.00  0.00    -0.219 NA
ATOM     23  C   UNL     1     -48.918  39.358  27.837  1.00  0.00     0.120 A 
ATOM     24  H   UNL     1     -49.832  38.837  28.101  1.00  0.00     0.106 H 
BRANCH  15  25
ATOM     25  N   UNL     1     -44.808  42.122  26.084  1.00  0.00    -0.238 N 
ATOM     26  C   UNL     1     -44.687  43.772  24.716  1.00  0.00     0.060 A 
ATOM     27  C   UNL     1     -43.507  43.815  25.479  1.00  0.00    -0.021 A 
ATOM     28  N   UNL     1     -45.488  42.774  25.099  1.00  0.00    -0.173 NA
ATOM     29  C   UNL     1     -43.627  42.772  26.364  1.00  0.00     0.031 A 
ATOM     30  H   UNL     1     -42.696  44.529  25.422  1.00  0.00     0.066 H 
ATOM     31  H   UNL     1     -42.999  42.477  27.189  1.00  0.00     0.084 H 
BRANCH  26  32
ATOM     32  C   UNL     1     -45.104  44.686  23.626  1.00  0.00    -0.020 C 
ATOM     33  H   UNL     1     -44.570  44.464  22.697  1.00  0.00     0.030 H 
ATOM     34  H   UNL     1     -44.897  45.726  23.896  1.00  0.00     0.030 H 
ATOM     35  H   UNL     1     -46.177  44.585  23.430  1.00  0.00     0.030 H 
ENDBRANCH  26  32
ENDBRANCH  15  25
BRANCH  20  36
ATOM     36  N   UNL     1     -48.164  42.683  26.867  1.00  0.00    -0.383 N 
ATOM     37  H   UNL     1     -49.142  42.922  26.754  1.00  0.00     0.158 HD
ATOM     38  H   UNL     1     -47.578  42.968  26.088  1.00  0.00     0.158 HD
ENDBRANCH  20  36
ENDBRANCH   5  14
BRANCH   9  39
ATOM     39  O   UNL     1     -46.218  35.475  30.683  1.00  0.00    -0.387 OA
ATOM     40  H   UNL     1     -46.083  34.577  30.326  1.00  0.00     0.211 HD
ENDBRANCH   9  39
ENDBRANCH   1   4
BRANCH   1  41
ATOM     41  O   UNL     1     -47.504  34.897  26.351  1.00  0.00    -0.491 OA
BRANCH  41  42
ATOM     42  C   UNL     1     -47.441  33.659  25.776  1.00  0.00     0.121 A 
ATOM     43  C   UNL     1     -46.470  33.537  24.782  1.00  0.00    -0.019 A 
ATOM     44  C   UNL     1     -48.229  32.552  26.098  1.00  0.00     0.007 A 
ATOM     45  C   UNL     1     -46.293  32.327  24.116  1.00  0.00    -0.049 A 
ATOM     46  H   UNL     1     -45.848  34.392  24.528  1.00  0.00     0.066 H 
ATOM     47  C   UNL     1     -48.073  31.331  25.449  1.00  0.00     0.076 A 
ATOM     48  H   UNL     1     -48.989  32.597  26.872  1.00  0.00     0.069 H 
ATOM     49  C   UNL     1     -47.092  31.223  24.445  1.00  0.00     0.001 A 
ATOM     50  H   UNL     1     -45.531  32.253  23.344  1.00  0.00     0.063 H 
ATOM     51  N   UNL     1     -48.859  30.297  25.798  1.00  0.00    -0.231 NA
ATOM     52  C   UNL     1     -46.946  29.991  23.805  1.00  0.00    -0.049 A 
ATOM     53  C   UNL     1     -48.716  29.109  25.168  1.00  0.00     0.129 A 
ATOM     54  C   UNL     1     -47.763  28.927  24.172  1.00  0.00    -0.019 A 
ATOM     55  H   UNL     1     -46.200  29.849  23.028  1.00  0.00     0.063 H 
ATOM     56  H   UNL     1     -47.645  27.963  23.688  1.00  0.00     0.066 H 
BRANCH  53  57
ATOM     57  N   UNL     1     -49.540  28.037  25.558  1.00  0.00    -0.353 N 
ATOM     58  C   UNL     1     -50.328  27.250  24.645  1.00  0.00     0.036 C 
ATOM     59  C   UNL     1     -49.134  26.878  26.311  1.00  0.00     0.036 C 
ATOM     60  C   UNL     1     -50.377  26.163  25.740  1.00  0.00     0.040 C 
ATOM     61  H   UNL     1     -51.272  27.724  24.364  1.00  0.00     0.051 H 
ATOM     62  H   UNL     1     -49.770  26.959  23.748  1.00  0.00     0.051 H 
ATOM     63  H   UNL     1     -49.103  27.046  27.391  1.00  0.00     0.051 H 
ATOM     64  H   UNL     1     -48.178  26.468  25.965  1.00  0.00     0.051 H 
ATOM     65  H   UNL     1     -50.240  25.131  25.413  1.00  0.00     0.050 H 
BRANCH  60  66
ATOM     66  N   UNL     1     -51.534  26.386  26.630  1.00  0.00    -0.325 NA
ATOM     67  H   UNL     1     -51.276  26.794  27.527  1.00  0.00     0.119 HD
ATOM     68  H   UNL     1     -52.005  25.509  26.864  1.00  0.00     0.119 HD
ENDBRANCH  60  66
ENDBRANCH  53  57
ENDBRANCH  41  42
ENDBRANCH   1  41
TORSDOF 10
ENDMDL
MODEL 5
REMARK VINA RESULT:      -9.3      2.557      4.755
REMARK SMILES Cc1ccn(-c2cn([C@@H]3O[C@H](COc4ccc5ccc(N6CC(N)C6)nc5c4)[C@@H](O)[C@@H]3F)c3ncnc(N)c23)n1
REMARK SMILES IDX 12 1 11 4 9 5 10 6 31 7 29 9 32 10 8 14 6 15 7 16 39 17
REMARK SMILES IDX 33 19 37 20 34 21 36 22 35 23 5 25 2 26 3 27 40 28 4 29 1 32
REMARK SMILES IDX 38 36 30 39 13 41 14 42 15 43 28 44 16 45 27 47 17 49 26 51
REMARK SMILES IDX 18 52 20 53 19 54 21 57 22 58 25 59 23 60 24 66
REMARK H PARENT 12 2 12 3 9 8 31 11 11 12 29 13 7 18 35 24 3 30 4 31 1 33 1 34
REMARK H PARENT 1 35 38 37 38 38 30 40 15 46 28 48 16 50 18 55 19 56 22 61
REMARK H PARENT 22 62 25 63 25 64 23 65 24 67 24 68
REMARK Flexibility Score: inf
ROOT
ATOM      1  C   UNL     1     -45.432  38.418  28.276  1.00  0.00     0.117 C 
ATOM      2  H   UNL     1     -45.736  38.735  29.279  1.00  0.00     0.073 H 
ATOM      3  H   UNL     1     -46.312  38.542  27.634  1.00  0.00     0.073 H 
ENDROOT
BRANCH   1   4
ATOM      4  C   UNL     1     -44.279  39.250  27.711  1.00  0.00     0.123 C 
ATOM      5  C   UNL     1     -43.970  41.097  26.328  1.00  0.00     0.170 C 
ATOM      6  O   UNL     1     -44.639  39.823  26.436  1.00  0.00    -0.345 OA
ATOM      7  C   UNL     1     -43.243  41.362  27.642  1.00  0.00     0.173 C 
ATOM      8  H   UNL     1     -43.234  41.000  25.521  1.00  0.00     0.088 H 
ATOM      9  C   UNL     1     -43.915  40.420  28.615  1.00  0.00     0.119 C 
ATOM     10  F   UNL     1     -43.340  42.641  28.075  1.00  0.00    -0.239 F 
ATOM     11  H   UNL     1     -42.176  41.128  27.550  1.00  0.00     0.074 H 
ATOM     12  H   UNL     1     -43.404  38.612  27.535  1.00  0.00     0.067 H 
ATOM     13  H   UNL     1     -44.791  40.882  29.076  1.00  0.00     0.066 H 
BRANCH   5  14
ATOM     14  N   UNL     1     -44.926  42.112  25.910  1.00  0.00    -0.301 N 
ATOM     15  C   UNL     1     -46.847  43.242  25.754  1.00  0.00     0.096 A 
ATOM     16  C   UNL     1     -46.249  42.107  26.273  1.00  0.00     0.035 A 
ATOM     17  C   UNL     1     -45.877  43.907  24.941  1.00  0.00     0.087 A 
ATOM     18  H   UNL     1     -46.658  41.337  26.917  1.00  0.00     0.084 H 
ATOM     19  C   UNL     1     -44.681  43.203  25.114  1.00  0.00     0.149 A 
ATOM     20  C   UNL     1     -45.817  44.987  24.041  1.00  0.00     0.138 A 
ATOM     21  N   UNL     1     -43.489  43.513  24.577  1.00  0.00    -0.218 NA
ATOM     22  N   UNL     1     -44.632  45.339  23.505  1.00  0.00    -0.219 NA
ATOM     23  C   UNL     1     -43.548  44.608  23.812  1.00  0.00     0.120 A 
ATOM     24  H   UNL     1     -42.613  44.939  23.372  1.00  0.00     0.106 H 
BRANCH  15  25
ATOM     25  N   UNL     1     -48.196  43.604  26.047  1.00  0.00    -0.238 N 
ATOM     26  C   UNL     1     -50.247  44.115  25.674  1.00  0.00     0.060 A 
ATOM     27  C   UNL     1     -50.092  44.137  27.070  1.00  0.00    -0.021 A 
ATOM     28  N   UNL     1     -49.116  43.763  25.054  1.00  0.00    -0.173 NA
ATOM     29  C   UNL     1     -48.783  43.776  27.280  1.00  0.00     0.031 A 
ATOM     30  H   UNL     1     -50.837  44.347  27.826  1.00  0.00     0.066 H 
ATOM     31  H   UNL     1     -48.248  43.582  28.195  1.00  0.00     0.084 H 
BRANCH  26  32
ATOM     32  C   UNL     1     -51.470  44.398  24.885  1.00  0.00    -0.020 C 
ATOM     33  H   UNL     1     -52.372  44.259  25.490  1.00  0.00     0.030 H 
ATOM     34  H   UNL     1     -51.535  43.727  24.023  1.00  0.00     0.030 H 
ATOM     35  H   UNL     1     -51.464  45.431  24.522  1.00  0.00     0.030 H 
ENDBRANCH  26  32
ENDBRANCH  15  25
BRANCH  20  36
ATOM     36  N   UNL     1     -46.912  45.701  23.569  1.00  0.00    -0.383 N 
ATOM     37  H   UNL     1     -47.329  45.286  22.744  1.00  0.00     0.158 HD
ATOM     38  H   UNL     1     -46.638  46.671  23.447  1.00  0.00     0.158 HD
ENDBRANCH  20  36
ENDBRANCH   5  14
BRANCH   9  39
ATOM     39  O   UNL     1     -43.042  40.016  29.667  1.00  0.00    -0.387 OA
ATOM     40  H   UNL     1     -42.151  39.925  29.278  1.00  0.00     0.211 HD
ENDBRANCH   9  39
ENDBRANCH   1   4
BRANCH   1  41
ATOM     41  O   UNL     1     -45.129  37.019  28.243  1.00  0.00    -0.491 OA
BRANCH  41  42
ATOM     42  C   UNL     1     -46.052  36.156  27.722  1.00  0.00     0.121 A 
ATOM     43  C   UNL     1     -47.377  36.518  27.966  1.00  0.00    -0.019 A 
ATOM     44  C   UNL     1     -45.787  34.998  26.988  1.00  0.00     0.007 A 
ATOM     45  C   UNL     1     -48.421  35.731  27.487  1.00  0.00    -0.049 A 
ATOM     46  H   UNL     1     -47.593  37.421  28.532  1.00  0.00     0.066 H 
ATOM     47  C   UNL     1     -46.811  34.193  26.497  1.00  0.00     0.076 A 
ATOM     48  H   UNL     1     -44.772  34.683  26.764  1.00  0.00     0.069 H 
ATOM     49  C   UNL     1     -48.143  34.569  26.754  1.00  0.00     0.001 A 
ATOM     50  H   UNL     1     -49.447  36.031  27.689  1.00  0.00     0.063 H 
ATOM     51  N   UNL     1     -46.498  33.089  25.796  1.00  0.00    -0.231 NA
ATOM     52  C   UNL     1     -49.159  33.753  26.253  1.00  0.00    -0.049 A 
ATOM     53  C   UNL     1     -47.489  32.300  25.321  1.00  0.00     0.129 A 
ATOM     54  C   UNL     1     -48.827  32.612  25.530  1.00  0.00    -0.019 A 
ATOM     55  H   UNL     1     -50.205  33.998  26.416  1.00  0.00     0.063 H 
ATOM     56  H   UNL     1     -49.612  31.981  25.126  1.00  0.00     0.066 H 
BRANCH  53  57
ATOM     57  N   UNL     1     -47.140  31.157  24.580  1.00  0.00    -0.353 N 
ATOM     58  C   UNL     1     -48.095  30.259  23.981  1.00  0.00     0.036 C 
ATOM     59  C   UNL     1     -46.280  31.116  23.425  1.00  0.00     0.036 C 
ATOM     60  C   UNL     1     -46.955  29.777  23.060  1.00  0.00     0.040 C 
ATOM     61  H   UNL     1     -48.514  29.536  24.685  1.00  0.00     0.051 H 
ATOM     62  H   UNL     1     -48.901  30.788  23.459  1.00  0.00     0.051 H 
ATOM     63  H   UNL     1     -45.215  31.091  23.672  1.00  0.00     0.051 H 
ATOM     64  H   UNL     1     -46.484  31.932  22.722  1.00  0.00     0.051 H 
ATOM     65  H   UNL     1     -47.203  29.626  22.008  1.00  0.00     0.050 H 
BRANCH  60  66
ATOM     66  N   UNL     1     -46.224  28.661  23.693  1.00  0.00    -0.325 NA
ATOM     67  H   UNL     1     -45.451  28.971  24.280  1.00  0.00     0.119 HD
ATOM     68  H   UNL     1     -45.797  28.046  22.996  1.00  0.00     0.119 HD
ENDBRANCH  60  66
ENDBRANCH  53  57
ENDBRANCH  41  42
ENDBRANCH   1  41
TORSDOF 10
ENDMDL
MODEL 6
REMARK VINA RESULT:      -8.8      3.357      6.738
REMARK SMILES Cc1ccn(-c2cn([C@@H]3O[C@H](COc4ccc5ccc(N6CC(N)C6)nc5c4)[C@@H](O)[C@@H]3F)c3ncnc(N)c23)n1
REMARK SMILES IDX 12 1 11 4 9 5 10 6 31 7 29 9 32 10 8 14 6 15 7 16 39 17
REMARK SMILES IDX 33 19 37 20 34 21 36 22 35 23 5 25 2 26 3 27 40 28 4 29 1 32
REMARK SMILES IDX 38 36 30 39 13 41 14 42 15 43 28 44 16 45 27 47 17 49 26 51
REMARK SMILES IDX 18 52 20 53 19 54 21 57 22 58 25 59 23 60 24 66
REMARK H PARENT 12 2 12 3 9 8 31 11 11 12 29 13 7 18 35 24 3 30 4 31 1 33 1 34
REMARK H PARENT 1 35 38 37 38 38 30 40 15 46 28 48 16 50 18 55 19 56 22 61
REMARK H PARENT 22 62 25 63 25 64 23 65 24 67 24 68
REMARK Flexibility Score: inf
ROOT
ATOM      1  C   UNL     1     -43.814  40.085  26.989  1.00  0.00     0.117 C 
ATOM      2  H   UNL     1     -44.051  39.313  26.249  1.00  0.00     0.073 H 
ATOM      3  H   UNL     1     -42.979  39.695  27.583  1.00  0.00     0.073 H 
ENDROOT
BRANCH   1   4
ATOM      4  C   UNL     1     -43.398  41.414  26.355  1.00  0.00     0.123 C 
ATOM      5  C   UNL     1     -44.396  43.244  25.319  1.00  0.00     0.170 C 
ATOM      6  O   UNL     1     -44.332  41.803  25.325  1.00  0.00    -0.345 OA
ATOM      7  C   UNL     1     -43.534  43.760  26.465  1.00  0.00     0.173 C 
ATOM      8  H   UNL     1     -43.966  43.575  24.366  1.00  0.00     0.088 H 
ATOM      9  C   UNL     1     -43.378  42.554  27.363  1.00  0.00     0.119 C 
ATOM     10  F   UNL     1     -44.086  44.792  27.146  1.00  0.00    -0.239 F 
ATOM     11  H   UNL     1     -42.558  44.097  26.097  1.00  0.00     0.074 H 
ATOM     12  H   UNL     1     -42.419  41.310  25.871  1.00  0.00     0.067 H 
ATOM     13  H   UNL     1     -44.195  42.487  28.086  1.00  0.00     0.066 H 
BRANCH   5  14
ATOM     14  N   UNL     1     -45.788  43.666  25.325  1.00  0.00    -0.301 N 
ATOM     15  C   UNL     1     -47.969  43.686  25.809  1.00  0.00     0.096 A 
ATOM     16  C   UNL     1     -46.792  42.973  25.952  1.00  0.00     0.035 A 
ATOM     17  C   UNL     1     -47.697  44.802  24.959  1.00  0.00     0.087 A 
ATOM     18  H   UNL     1     -46.593  42.059  26.501  1.00  0.00     0.084 H 
ATOM     19  C   UNL     1     -46.318  44.784  24.730  1.00  0.00     0.149 A 
ATOM     20  C   UNL     1     -48.405  45.825  24.301  1.00  0.00     0.138 A 
ATOM     21  N   UNL     1     -45.615  45.688  24.024  1.00  0.00    -0.218 NA
ATOM     22  N   UNL     1     -47.728  46.760  23.607  1.00  0.00    -0.219 NA
ATOM     23  C   UNL     1     -46.393  46.654  23.524  1.00  0.00     0.120 A 
ATOM     24  H   UNL     1     -45.888  47.439  22.971  1.00  0.00     0.106 H 
BRANCH  15  25
ATOM     25  N   UNL     1     -49.185  43.300  26.449  1.00  0.00    -0.238 N 
ATOM     26  C   UNL     1     -50.856  42.055  26.966  1.00  0.00     0.060 A 
ATOM     27  C   UNL     1     -51.024  43.246  27.691  1.00  0.00    -0.021 A 
ATOM     28  N   UNL     1     -49.733  42.069  26.241  1.00  0.00    -0.173 NA
ATOM     29  C   UNL     1     -49.928  44.008  27.367  1.00  0.00     0.031 A 
ATOM     30  H   UNL     1     -51.812  43.505  28.385  1.00  0.00     0.066 H 
ATOM     31  H   UNL     1     -49.598  44.960  27.749  1.00  0.00     0.084 H 
BRANCH  26  32
ATOM     32  C   UNL     1     -51.732  40.859  26.956  1.00  0.00    -0.020 C 
ATOM     33  H   UNL     1     -51.459  40.174  26.147  1.00  0.00     0.030 H 
ATOM     34  H   UNL     1     -52.778  41.150  26.814  1.00  0.00     0.030 H 
ATOM     35  H   UNL     1     -51.649  40.313  27.902  1.00  0.00     0.030 H 
ENDBRANCH  26  32
ENDBRANCH  15  25
BRANCH  20  36
ATOM     36  N   UNL     1     -49.790  45.922  24.225  1.00  0.00    -0.383 N 
ATOM     37  H   UNL     1     -50.265  45.339  24.903  1.00  0.00     0.158 HD
ATOM     38  H   UNL     1     -50.074  45.752  23.265  1.00  0.00     0.158 HD
ENDBRANCH  20  36
ENDBRANCH   5  14
BRANCH   9  39
ATOM     39  O   UNL     1     -42.158  42.581  28.099  1.00  0.00    -0.387 OA
ATOM     40  H   UNL     1     -41.596  41.867  27.743  1.00  0.00     0.211 HD
ENDBRANCH   9  39
ENDBRANCH   1   4
BRANCH   1  41
ATOM     41  O   UNL     1     -44.891  40.264  27.916  1.00  0.00    -0.491 OA
BRANCH  41  42
ATOM     42  C   UNL     1     -45.964  39.421  27.850  1.00  0.00     0.121 A 
ATOM     43  C   UNL     1     -47.187  40.025  28.139  1.00  0.00    -0.019 A 
ATOM     44  C   UNL     1     -45.937  38.064  27.519  1.00  0.00     0.007 A 
ATOM     45  C   UNL     1     -48.366  39.284  28.104  1.00  0.00    -0.049 A 
ATOM     46  H   UNL     1     -47.219  41.083  28.392  1.00  0.00     0.066 H 
ATOM     47  C   UNL     1     -47.098  37.299  27.476  1.00  0.00     0.076 A 
ATOM     48  H   UNL     1     -45.010  37.554  27.276  1.00  0.00     0.069 H 
ATOM     49  C   UNL     1     -48.325  37.922  27.774  1.00  0.00     0.001 A 
ATOM     50  H   UNL     1     -49.308  39.774  28.333  1.00  0.00     0.063 H 
ATOM     51  N   UNL     1     -47.014  35.997  27.152  1.00  0.00    -0.231 NA
ATOM     52  C   UNL     1     -49.482  37.141  27.724  1.00  0.00    -0.049 A 
ATOM     53  C   UNL     1     -48.138  35.246  27.114  1.00  0.00     0.129 A 
ATOM     54  C   UNL     1     -49.386  35.794  27.389  1.00  0.00    -0.019 A 
ATOM     55  H   UNL     1     -50.456  37.571  27.938  1.00  0.00     0.063 H 
ATOM     56  H   UNL     1     -50.282  35.186  27.334  1.00  0.00     0.066 H 
BRANCH  53  57
ATOM     57  N   UNL     1     -48.029  33.889  26.760  1.00  0.00    -0.353 N 
ATOM     58  C   UNL     1     -49.016  33.172  25.994  1.00  0.00     0.036 C 
ATOM     59  C   UNL     1     -46.937  33.277  26.048  1.00  0.00     0.036 C 
ATOM     60  C   UNL     1     -47.913  32.141  25.674  1.00  0.00     0.040 C 
ATOM     61  H   UNL     1     -49.866  32.831  26.591  1.00  0.00     0.051 H 
ATOM     62  H   UNL     1     -49.369  33.737  25.124  1.00  0.00     0.051 H 
ATOM     63  H   UNL     1     -46.087  33.019  26.687  1.00  0.00     0.051 H 
ATOM     64  H   UNL     1     -46.600  33.881  25.198  1.00  0.00     0.051 H 
ATOM     65  H   UNL     1     -47.866  31.775  24.647  1.00  0.00     0.050 H 
BRANCH  60  66
ATOM     66  N   UNL     1     -47.878  31.091  26.712  1.00  0.00    -0.325 NA
ATOM     67  H   UNL     1     -48.660  31.146  27.363  1.00  0.00     0.119 HD
ATOM     68  H   UNL     1     -47.042  31.164  27.296  1.00  0.00     0.119 HD
ENDBRANCH  60  66
ENDBRANCH  53  57
ENDBRANCH  41  42
ENDBRANCH   1  41
TORSDOF 10
ENDMDL
MODEL 7
REMARK VINA RESULT:      -8.6      2.232      3.660
REMARK SMILES Cc1ccn(-c2cn([C@@H]3O[C@H](COc4ccc5ccc(N6CC(N)C6)nc5c4)[C@@H](O)[C@@H]3F)c3ncnc(N)c23)n1
REMARK SMILES IDX 12 1 11 4 9 5 10 6 31 7 29 9 32 10 8 14 6 15 7 16 39 17
REMARK SMILES IDX 33 19 37 20 34 21 36 22 35 23 5 25 2 26 3 27 40 28 4 29 1 32
REMARK SMILES IDX 38 36 30 39 13 41 14 42 15 43 28 44 16 45 27 47 17 49 26 51
REMARK SMILES IDX 18 52 20 53 19 54 21 57 22 58 25 59 23 60 24 66
REMARK H PARENT 12 2 12 3 9 8 31 11 11 12 29 13 7 18 35 24 3 30 4 31 1 33 1 34
REMARK H PARENT 1 35 38 37 38 38 30 40 15 46 28 48 16 50 18 55 19 56 22 61
REMARK H PARENT 22 62 25 63 25 64 23 65 24 67 24 68
REMARK Flexibility Score: inf
ROOT
ATOM      1  C   UNL     1     -47.478  38.196  27.676  1.00  0.00     0.117 C 
ATOM      2  H   UNL     1     -47.973  38.967  28.279  1.00  0.00     0.073 H 
ATOM      3  H   UNL     1     -48.039  38.134  26.737  1.00  0.00     0.073 H 
ENDROOT
BRANCH   1   4
ATOM      4  C   UNL     1     -46.017  38.528  27.367  1.00  0.00     0.123 C 
ATOM      5  C   UNL     1     -44.781  40.245  26.397  1.00  0.00     0.170 C 
ATOM      6  O   UNL     1     -45.920  39.380  26.206  1.00  0.00    -0.345 OA
ATOM      7  C   UNL     1     -44.210  39.977  27.784  1.00  0.00     0.173 C 
ATOM      8  H   UNL     1     -44.040  39.962  25.639  1.00  0.00     0.088 H 
ATOM      9  C   UNL     1     -45.343  39.281  28.505  1.00  0.00     0.119 C 
ATOM     10  F   UNL     1     -43.837  41.094  28.451  1.00  0.00    -0.239 F 
ATOM     11  H   UNL     1     -43.331  39.324  27.723  1.00  0.00     0.074 H 
ATOM     12  H   UNL     1     -45.464  37.610  27.132  1.00  0.00     0.067 H 
ATOM     13  H   UNL     1     -46.011  40.000  28.985  1.00  0.00     0.066 H 
BRANCH   5  14
ATOM     14  N   UNL     1     -45.167  41.621  26.119  1.00  0.00    -0.301 N 
ATOM     15  C   UNL     1     -46.461  43.427  25.883  1.00  0.00     0.096 A 
ATOM     16  C   UNL     1     -46.465  42.065  26.125  1.00  0.00     0.035 A 
ATOM     17  C   UNL     1     -45.113  43.810  25.599  1.00  0.00     0.087 A 
ATOM     18  H   UNL     1     -47.290  41.401  26.357  1.00  0.00     0.084 H 
ATOM     19  C   UNL     1     -44.334  42.669  25.815  1.00  0.00     0.149 A 
ATOM     20  C   UNL     1     -44.411  44.945  25.152  1.00  0.00     0.138 A 
ATOM     21  N   UNL     1     -42.996  42.588  25.720  1.00  0.00    -0.218 NA
ATOM     22  N   UNL     1     -43.067  44.903  25.070  1.00  0.00    -0.219 NA
ATOM     23  C   UNL     1     -42.442  43.755  25.371  1.00  0.00     0.120 A 
ATOM     24  H   UNL     1     -41.359  43.772  25.309  1.00  0.00     0.106 H 
BRANCH  15  25
ATOM     25  N   UNL     1     -47.644  44.222  25.940  1.00  0.00    -0.238 N 
ATOM     26  C   UNL     1     -49.640  44.861  25.474  1.00  0.00     0.060 A 
ATOM     27  C   UNL     1     -49.162  45.763  26.440  1.00  0.00    -0.021 A 
ATOM     28  N   UNL     1     -48.741  43.912  25.194  1.00  0.00    -0.173 NA
ATOM     29  C   UNL     1     -47.900  45.312  26.742  1.00  0.00     0.031 A 
ATOM     30  H   UNL     1     -49.676  46.603  26.886  1.00  0.00     0.066 H 
ATOM     31  H   UNL     1     -47.197  45.645  27.487  1.00  0.00     0.084 H 
BRANCH  26  32
ATOM     32  C   UNL     1     -50.964  44.850  24.809  1.00  0.00    -0.020 C 
ATOM     33  H   UNL     1     -51.644  45.576  25.268  1.00  0.00     0.030 H 
ATOM     34  H   UNL     1     -51.425  43.860  24.885  1.00  0.00     0.030 H 
ATOM     35  H   UNL     1     -50.865  45.106  23.748  1.00  0.00     0.030 H 
ENDBRANCH  26  32
ENDBRANCH  15  25
BRANCH  20  36
ATOM     36  N   UNL     1     -44.993  46.120  24.691  1.00  0.00    -0.383 N 
ATOM     37  H   UNL     1     -45.891  46.311  25.119  1.00  0.00     0.158 HD
ATOM     38  H   UNL     1     -45.019  46.093  23.676  1.00  0.00     0.158 HD
ENDBRANCH  20  36
ENDBRANCH   5  14
BRANCH   9  39
ATOM     39  O   UNL     1     -44.875  38.393  29.517  1.00  0.00    -0.387 OA
ATOM     40  H   UNL     1     -45.664  38.007  29.943  1.00  0.00     0.211 HD
ENDBRANCH   9  39
ENDBRANCH   1   4
BRANCH   1  41
ATOM     41  O   UNL     1     -47.602  36.904  28.282  1.00  0.00    -0.491 OA
BRANCH  41  42
ATOM     42  C   UNL     1     -47.409  35.793  27.509  1.00  0.00     0.121 A 
ATOM     43  C   UNL     1     -46.070  35.487  27.269  1.00  0.00    -0.019 A 
ATOM     44  C   UNL     1     -48.402  34.969  26.975  1.00  0.00     0.007 A 
ATOM     45  C   UNL     1     -45.727  34.377  26.501  1.00  0.00    -0.049 A 
ATOM     46  H   UNL     1     -45.289  36.120  27.687  1.00  0.00     0.066 H 
ATOM     47  C   UNL     1     -48.089  33.854  26.204  1.00  0.00     0.076 A 
ATOM     48  H   UNL     1     -49.457  35.162  27.145  1.00  0.00     0.069 H 
ATOM     49  C   UNL     1     -46.733  33.559  25.967  1.00  0.00     0.001 A 
ATOM     50  H   UNL     1     -44.677  34.157  26.326  1.00  0.00     0.063 H 
ATOM     51  N   UNL     1     -49.084  33.095  25.714  1.00  0.00    -0.231 NA
ATOM     52  C   UNL     1     -46.435  32.435  25.195  1.00  0.00    -0.049 A 
ATOM     53  C   UNL     1     -48.787  32.012  24.959  1.00  0.00     0.129 A 
ATOM     54  C   UNL     1     -47.471  31.656  24.690  1.00  0.00    -0.019 A 
ATOM     55  H   UNL     1     -45.405  32.157  24.985  1.00  0.00     0.063 H 
ATOM     56  H   UNL     1     -47.245  30.774  24.101  1.00  0.00     0.066 H 
BRANCH  53  57
ATOM     57  N   UNL     1     -49.844  31.225  24.467  1.00  0.00    -0.353 N 
ATOM     58  C   UNL     1     -50.468  31.421  23.184  1.00  0.00     0.036 C 
ATOM     59  C   UNL     1     -49.847  29.791  24.323  1.00  0.00     0.036 C 
ATOM     60  C   UNL     1     -50.983  29.971  23.295  1.00  0.00     0.040 C 
ATOM     61  H   UNL     1     -51.212  32.221  23.179  1.00  0.00     0.051 H 
ATOM     62  H   UNL     1     -49.740  31.578  22.380  1.00  0.00     0.051 H 
ATOM     63  H   UNL     1     -50.085  29.258  25.248  1.00  0.00     0.051 H 
ATOM     64  H   UNL     1     -48.910  29.411  23.900  1.00  0.00     0.051 H 
ATOM     65  H   UNL     1     -50.927  29.359  22.393  1.00  0.00     0.050 H 
BRANCH  60  66
ATOM     66  N   UNL     1     -52.289  29.944  23.984  1.00  0.00    -0.325 NA
ATOM     67  H   UNL     1     -53.080  29.970  23.342  1.00  0.00     0.119 HD
ATOM     68  H   UNL     1     -52.413  30.758  24.591  1.00  0.00     0.119 HD
ENDBRANCH  60  66
ENDBRANCH  53  57
ENDBRANCH  41  42
ENDBRANCH   1  41
TORSDOF 10
ENDMDL
