MODEL 1
REMARK VINA RESULT:      -9.6      0.000      0.000
REMARK SMILES CNc1ccc2ccc(OCc3cc(-n4cc(Cl)c5c(N)ncnc54)cnc3N)cc2n1
REMARK SMILES IDX 11 1 10 4 9 5 3 6 4 7 32 8 5 9 31 11 6 12 30 14 7 15 8 17
REMARK SMILES IDX 2 20 1 22 12 26 13 27 28 28 14 29 27 31 26 32 29 34 15 37
REMARK SMILES IDX 16 38 25 39 17 40 19 42 24 43 18 44 20 45 23 46 22 47 21 49
REMARK H PARENT 11 2 11 3 4 10 5 13 30 16 7 18 8 19 2 21 1 23 1 24 1 25 13 30
REMARK H PARENT 26 33 29 35 29 36 16 41 23 48 21 50 21 51
REMARK Flexibility Score: inf
ROOT
ATOM      1  C   UNL     1     -47.524  35.959  28.322  1.00  0.00     0.117 C 
ATOM      2  H   UNL     1     -47.878  35.752  29.339  1.00  0.00     0.076 H 
ATOM      3  H   UNL     1     -46.507  35.548  28.274  1.00  0.00     0.076 H 
ENDROOT
BRANCH   1   4
ATOM      4  O   UNL     1     -48.398  35.257  27.433  1.00  0.00    -0.489 OA
BRANCH   4   5
ATOM      5  C   UNL     1     -47.854  34.361  26.554  1.00  0.00     0.122 A 
ATOM      6  C   UNL     1     -48.718  30.267  24.288  1.00  0.00     0.126 A 
ATOM      7  C   UNL     1     -47.492  30.302  23.640  1.00  0.00    -0.019 A 
ATOM      8  N   UNL     1     -49.104  31.223  25.152  1.00  0.00    -0.231 NA
ATOM      9  C   UNL     1     -46.636  31.373  23.876  1.00  0.00    -0.049 A 
ATOM     10  H   UNL     1     -47.192  29.500  22.976  1.00  0.00     0.066 H 
ATOM     11  C   UNL     1     -48.280  32.262  25.384  1.00  0.00     0.076 A 
ATOM     12  C   UNL     1     -47.024  32.382  24.762  1.00  0.00     0.001 A 
ATOM     13  H   UNL     1     -45.674  31.407  23.374  1.00  0.00     0.063 H 
ATOM     14  C   UNL     1     -48.671  33.261  26.266  1.00  0.00     0.007 A 
ATOM     15  C   UNL     1     -46.201  33.487  25.035  1.00  0.00    -0.049 A 
ATOM     16  H   UNL     1     -49.641  33.174  26.748  1.00  0.00     0.069 H 
ATOM     17  C   UNL     1     -46.619  34.475  25.928  1.00  0.00    -0.019 A 
ATOM     18  H   UNL     1     -45.234  33.587  24.547  1.00  0.00     0.063 H 
ATOM     19  H   UNL     1     -45.962  35.322  26.092  1.00  0.00     0.066 H 
BRANCH   6  20
ATOM     20  N   UNL     1     -49.622  29.217  24.112  1.00  0.00    -0.373 N 
ATOM     21  H   UNL     1     -50.256  29.565  23.393  1.00  0.00     0.161 HD
BRANCH  20  22
ATOM     22  C   UNL     1     -49.003  27.966  23.705  1.00  0.00     0.005 C 
ATOM     23  H   UNL     1     -48.420  27.568  24.543  1.00  0.00     0.045 H 
ATOM     24  H   UNL     1     -48.313  28.108  22.868  1.00  0.00     0.045 H 
ATOM     25  H   UNL     1     -49.754  27.215  23.435  1.00  0.00     0.045 H 
ENDBRANCH  20  22
ENDBRANCH   6  20
ENDBRANCH   4   5
ENDBRANCH   1   4
BRANCH   1  26
ATOM     26  C   UNL     1     -47.547  37.459  28.134  1.00  0.00     0.034 A 
ATOM     27  C   UNL     1     -46.327  38.153  28.004  1.00  0.00    -0.026 A 
ATOM     28  C   UNL     1     -48.727  38.203  28.132  1.00  0.00     0.130 A 
ATOM     29  C   UNL     1     -46.304  39.543  27.851  1.00  0.00     0.066 A 
ATOM     30  H   UNL     1     -45.414  37.566  28.020  1.00  0.00     0.065 H 
ATOM     31  N   UNL     1     -48.723  39.537  27.998  1.00  0.00    -0.237 NA
ATOM     32  C   UNL     1     -47.536  40.178  27.852  1.00  0.00     0.053 A 
ATOM     33  H   UNL     1     -47.664  41.250  27.750  1.00  0.00     0.086 H 
BRANCH  28  34
ATOM     34  N   UNL     1     -49.977  37.607  28.315  1.00  0.00    -0.383 N 
ATOM     35  H   UNL     1     -50.391  37.388  27.416  1.00  0.00     0.158 HD
ATOM     36  H   UNL     1     -50.596  38.278  28.770  1.00  0.00     0.158 HD
ENDBRANCH  28  34
BRANCH  29  37
ATOM     37  N   UNL     1     -45.072  40.262  27.705  1.00  0.00    -0.298 N 
ATOM     38  C   UNL     1     -43.960  40.103  28.516  1.00  0.00     0.031 A 
ATOM     39  C   UNL     1     -44.746  41.234  26.753  1.00  0.00     0.151 A 
ATOM     40  C   UNL     1     -42.960  40.944  28.091  1.00  0.00     0.072 A 
ATOM     41  H   UNL     1     -43.946  39.413  29.346  1.00  0.00     0.084 H 
ATOM     42  C   UNL     1     -43.440  41.663  26.975  1.00  0.00     0.080 A 
ATOM     43  N   UNL     1     -45.544  41.691  25.768  1.00  0.00    -0.218 NA
ATOM     44  Cl  UNL     1     -41.422  41.091  28.801  1.00  0.00    -0.082 Cl
ATOM     45  C   UNL     1     -42.930  42.641  26.106  1.00  0.00     0.137 A 
ATOM     46  C   UNL     1     -44.957  42.622  25.005  1.00  0.00     0.120 A 
ATOM     47  N   UNL     1     -43.716  43.116  25.124  1.00  0.00    -0.219 NA
ATOM     48  H   UNL     1     -45.556  43.026  24.194  1.00  0.00     0.106 H 
BRANCH  45  49
ATOM     49  N   UNL     1     -41.652  43.166  26.190  1.00  0.00    -0.383 N 
ATOM     50  H   UNL     1     -41.544  43.992  25.614  1.00  0.00     0.158 HD
ATOM     51  H   UNL     1     -41.236  43.185  27.112  1.00  0.00     0.158 HD
ENDBRANCH  45  49
ENDBRANCH  29  37
ENDBRANCH   1  26
TORSDOF 8
ENDMDL
MODEL 2
REMARK VINA RESULT:      -9.6      2.074      3.137
REMARK SMILES CNc1ccc2ccc(OCc3cc(-n4cc(Cl)c5c(N)ncnc54)cnc3N)cc2n1
REMARK SMILES IDX 11 1 10 4 9 5 3 6 4 7 32 8 5 9 31 11 6 12 30 14 7 15 8 17
REMARK SMILES IDX 2 20 1 22 12 26 13 27 28 28 14 29 27 31 26 32 29 34 15 37
REMARK SMILES IDX 16 38 25 39 17 40 19 42 24 43 18 44 20 45 23 46 22 47 21 49
REMARK H PARENT 11 2 11 3 4 10 5 13 30 16 7 18 8 19 2 21 1 23 1 24 1 25 13 30
REMARK H PARENT 26 33 29 35 29 36 16 41 23 48 21 50 21 51
REMARK Flexibility Score: inf
ROOT
ATOM      1  C   UNL     1     -46.873  35.058  26.098  1.00  0.00     0.117 C 
ATOM      2  H   UNL     1     -45.794  34.880  26.187  1.00  0.00     0.076 H 
ATOM      3  H   UNL     1     -47.083  35.064  25.022  1.00  0.00     0.076 H 
ENDROOT
BRANCH   1   4
ATOM      4  O   UNL     1     -47.523  33.956  26.738  1.00  0.00    -0.489 OA
BRANCH   4   5
ATOM      5  C   UNL     1     -47.727  32.811  26.018  1.00  0.00     0.122 A 
ATOM      6  C   UNL     1     -46.461  30.565  22.019  1.00  0.00     0.126 A 
ATOM      7  C   UNL     1     -47.259  29.470  22.314  1.00  0.00    -0.019 A 
ATOM      8  N   UNL     1     -46.382  31.639  22.826  1.00  0.00    -0.231 NA
ATOM      9  C   UNL     1     -47.992  29.471  23.496  1.00  0.00    -0.049 A 
ATOM     10  H   UNL     1     -47.330  28.633  21.629  1.00  0.00     0.066 H 
ATOM     11  C   UNL     1     -47.089  31.645  23.972  1.00  0.00     0.076 A 
ATOM     12  C   UNL     1     -47.915  30.572  24.353  1.00  0.00     0.001 A 
ATOM     13  H   UNL     1     -48.621  28.618  23.735  1.00  0.00     0.063 H 
ATOM     14  C   UNL     1     -47.010  32.742  24.819  1.00  0.00     0.007 A 
ATOM     15  C   UNL     1     -48.631  30.624  25.560  1.00  0.00    -0.049 A 
ATOM     16  H   UNL     1     -46.371  33.573  24.529  1.00  0.00     0.069 H 
ATOM     17  C   UNL     1     -48.534  31.742  26.392  1.00  0.00    -0.019 A 
ATOM     18  H   UNL     1     -49.262  29.792  25.863  1.00  0.00     0.063 H 
ATOM     19  H   UNL     1     -49.086  31.731  27.325  1.00  0.00     0.066 H 
BRANCH   6  20
ATOM     20  N   UNL     1     -45.709  30.641  20.844  1.00  0.00    -0.373 N 
ATOM     21  H   UNL     1     -45.883  29.744  20.389  1.00  0.00     0.161 HD
BRANCH  20  22
ATOM     22  C   UNL     1     -46.075  31.749  19.979  1.00  0.00     0.005 C 
ATOM     23  H   UNL     1     -45.270  32.492  19.992  1.00  0.00     0.045 H 
ATOM     24  H   UNL     1     -46.985  32.250  20.324  1.00  0.00     0.045 H 
ATOM     25  H   UNL     1     -46.210  31.422  18.942  1.00  0.00     0.045 H 
ENDBRANCH  20  22
ENDBRANCH   6  20
ENDBRANCH   4   5
ENDBRANCH   1   4
BRANCH   1  26
ATOM     26  C   UNL     1     -47.163  36.392  26.748  1.00  0.00     0.034 A 
ATOM     27  C   UNL     1     -46.139  37.358  26.818  1.00  0.00    -0.026 A 
ATOM     28  C   UNL     1     -48.392  36.697  27.332  1.00  0.00     0.130 A 
ATOM     29  C   UNL     1     -46.360  38.596  27.431  1.00  0.00     0.066 A 
ATOM     30  H   UNL     1     -45.182  37.105  26.373  1.00  0.00     0.065 H 
ATOM     31  N   UNL     1     -48.617  37.875  27.934  1.00  0.00    -0.237 NA
ATOM     32  C   UNL     1     -47.621  38.795  27.968  1.00  0.00     0.053 A 
ATOM     33  H   UNL     1     -47.926  39.703  28.476  1.00  0.00     0.086 H 
BRANCH  28  34
ATOM     34  N   UNL     1     -49.445  35.780  27.364  1.00  0.00    -0.383 N 
ATOM     35  H   UNL     1     -50.095  36.023  28.103  1.00  0.00     0.158 HD
ATOM     36  H   UNL     1     -49.070  34.859  27.591  1.00  0.00     0.158 HD
ENDBRANCH  28  34
BRANCH  29  37
ATOM     37  N   UNL     1     -45.332  39.593  27.499  1.00  0.00    -0.298 N 
ATOM     38  C   UNL     1     -45.171  40.631  26.594  1.00  0.00     0.031 A 
ATOM     39  C   UNL     1     -44.316  39.724  28.452  1.00  0.00     0.151 A 
ATOM     40  C   UNL     1     -44.092  41.396  26.964  1.00  0.00     0.072 A 
ATOM     41  H   UNL     1     -45.823  40.760  25.744  1.00  0.00     0.084 H 
ATOM     42  C   UNL     1     -43.542  40.839  28.138  1.00  0.00     0.080 A 
ATOM     43  N   UNL     1     -44.105  38.921  29.514  1.00  0.00    -0.218 NA
ATOM     44  Cl  UNL     1     -43.521  42.767  26.135  1.00  0.00    -0.082 Cl
ATOM     45  C   UNL     1     -42.471  41.136  28.995  1.00  0.00     0.137 A 
ATOM     46  C   UNL     1     -43.056  39.297  30.256  1.00  0.00     0.120 A 
ATOM     47  N   UNL     1     -42.239  40.340  30.052  1.00  0.00    -0.219 NA
ATOM     48  H   UNL     1     -42.840  38.684  31.126  1.00  0.00     0.106 H 
BRANCH  45  49
ATOM     49  N   UNL     1     -41.614  42.211  28.823  1.00  0.00    -0.383 N 
ATOM     50  H   UNL     1     -41.738  42.652  27.920  1.00  0.00     0.158 HD
ATOM     51  H   UNL     1     -41.491  42.817  29.623  1.00  0.00     0.158 HD
ENDBRANCH  45  49
ENDBRANCH  29  37
ENDBRANCH   1  26
TORSDOF 8
ENDMDL
MODEL 3
REMARK VINA RESULT:      -9.5      3.369     10.241
REMARK SMILES CNc1ccc2ccc(OCc3cc(-n4cc(Cl)c5c(N)ncnc54)cnc3N)cc2n1
REMARK SMILES IDX 11 1 10 4 9 5 3 6 4 7 32 8 5 9 31 11 6 12 30 14 7 15 8 17
REMARK SMILES IDX 2 20 1 22 12 26 13 27 28 28 14 29 27 31 26 32 29 34 15 37
REMARK SMILES IDX 16 38 25 39 17 40 19 42 24 43 18 44 20 45 23 46 22 47 21 49
REMARK H PARENT 11 2 11 3 4 10 5 13 30 16 7 18 8 19 2 21 1 23 1 24 1 25 13 30
REMARK H PARENT 26 33 29 35 29 36 16 41 23 48 21 50 21 51
REMARK Flexibility Score: inf
ROOT
ATOM      1  C   UNL     1     -48.050  36.327  27.595  1.00  0.00     0.117 C 
ATOM      2  H   UNL     1     -47.751  36.589  28.617  1.00  0.00     0.076 H 
ATOM      3  H   UNL     1     -49.146  36.371  27.587  1.00  0.00     0.076 H 
ENDROOT
BRANCH   1   4
ATOM      4  O   UNL     1     -47.495  37.329  26.737  1.00  0.00    -0.489 OA
BRANCH   4   5
ATOM      5  C   UNL     1     -46.472  38.103  27.212  1.00  0.00     0.122 A 
ATOM      6  C   UNL     1     -43.756  41.865  26.161  1.00  0.00     0.126 A 
ATOM      7  C   UNL     1     -43.066  41.774  27.361  1.00  0.00    -0.019 A 
ATOM      8  N   UNL     1     -44.733  41.005  25.824  1.00  0.00    -0.231 NA
ATOM      9  C   UNL     1     -43.409  40.769  28.259  1.00  0.00    -0.049 A 
ATOM     10  H   UNL     1     -42.259  42.460  27.591  1.00  0.00     0.066 H 
ATOM     11  C   UNL     1     -45.070  40.030  26.689  1.00  0.00     0.076 A 
ATOM     12  C   UNL     1     -44.429  39.872  27.932  1.00  0.00     0.001 A 
ATOM     13  H   UNL     1     -42.874  40.689  29.201  1.00  0.00     0.063 H 
ATOM     14  C   UNL     1     -46.084  39.142  26.358  1.00  0.00     0.007 A 
ATOM     15  C   UNL     1     -44.818  38.840  28.802  1.00  0.00    -0.049 A 
ATOM     16  H   UNL     1     -46.583  39.261  25.400  1.00  0.00     0.069 H 
ATOM     17  C   UNL     1     -45.840  37.960  28.442  1.00  0.00    -0.019 A 
ATOM     18  H   UNL     1     -44.332  38.722  29.768  1.00  0.00     0.063 H 
ATOM     19  H   UNL     1     -46.123  37.192  29.153  1.00  0.00     0.066 H 
BRANCH   6  20
ATOM     20  N   UNL     1     -43.457  42.839  25.205  1.00  0.00    -0.373 N 
ATOM     21  H   UNL     1     -44.249  43.480  25.260  1.00  0.00     0.161 HD
BRANCH  20  22
ATOM     22  C   UNL     1     -42.202  43.534  25.441  1.00  0.00     0.005 C 
ATOM     23  H   UNL     1     -42.229  44.501  24.928  1.00  0.00     0.045 H 
ATOM     24  H   UNL     1     -41.349  42.977  25.041  1.00  0.00     0.045 H 
ATOM     25  H   UNL     1     -42.043  43.727  26.508  1.00  0.00     0.045 H 
ENDBRANCH  20  22
ENDBRANCH   6  20
ENDBRANCH   4   5
ENDBRANCH   1   4
BRANCH   1  26
ATOM     26  C   UNL     1     -47.527  34.936  27.317  1.00  0.00     0.034 A 
ATOM     27  C   UNL     1     -48.072  34.202  26.244  1.00  0.00    -0.026 A 
ATOM     28  C   UNL     1     -46.558  34.320  28.108  1.00  0.00     0.130 A 
ATOM     29  C   UNL     1     -47.632  32.902  25.967  1.00  0.00     0.066 A 
ATOM     30  H   UNL     1     -48.835  34.685  25.643  1.00  0.00     0.065 H 
ATOM     31  N   UNL     1     -46.134  33.071  27.863  1.00  0.00    -0.237 NA
ATOM     32  C   UNL     1     -46.658  32.394  26.811  1.00  0.00     0.053 A 
ATOM     33  H   UNL     1     -46.234  31.401  26.716  1.00  0.00     0.086 H 
BRANCH  28  34
ATOM     34  N   UNL     1     -46.007  34.949  29.226  1.00  0.00    -0.383 N 
ATOM     35  H   UNL     1     -46.639  35.663  29.569  1.00  0.00     0.158 HD
ATOM     36  H   UNL     1     -45.149  35.423  28.946  1.00  0.00     0.158 HD
ENDBRANCH  28  34
BRANCH  29  37
ATOM     37  N   UNL     1     -48.167  32.147  24.872  1.00  0.00    -0.298 N 
ATOM     38  C   UNL     1     -49.517  31.957  24.623  1.00  0.00     0.031 A 
ATOM     39  C   UNL     1     -47.469  31.470  23.866  1.00  0.00     0.151 A 
ATOM     40  C   UNL     1     -49.670  31.188  23.495  1.00  0.00     0.072 A 
ATOM     41  H   UNL     1     -50.285  32.370  25.261  1.00  0.00     0.084 H 
ATOM     42  C   UNL     1     -48.386  30.875  23.002  1.00  0.00     0.080 A 
ATOM     43  N   UNL     1     -46.130  31.397  23.729  1.00  0.00    -0.218 NA
ATOM     44  Cl  UNL     1     -51.155  30.698  22.826  1.00  0.00    -0.082 Cl
ATOM     45  C   UNL     1     -47.866  30.152  21.917  1.00  0.00     0.137 A 
ATOM     46  C   UNL     1     -45.749  30.680  22.665  1.00  0.00     0.120 A 
ATOM     47  N   UNL     1     -46.533  30.060  21.771  1.00  0.00    -0.219 NA
ATOM     48  H   UNL     1     -44.679  30.589  22.505  1.00  0.00     0.106 H 
BRANCH  45  49
ATOM     49  N   UNL     1     -48.643  29.509  20.968  1.00  0.00    -0.383 N 
ATOM     50  H   UNL     1     -48.683  28.510  21.127  1.00  0.00     0.158 HD
ATOM     51  H   UNL     1     -49.503  29.972  20.706  1.00  0.00     0.158 HD
ENDBRANCH  45  49
ENDBRANCH  29  37
ENDBRANCH   1  26
TORSDOF 8
ENDMDL
MODEL 4
REMARK VINA RESULT:      -9.5      4.272     11.763
REMARK SMILES CNc1ccc2ccc(OCc3cc(-n4cc(Cl)c5c(N)ncnc54)cnc3N)cc2n1
REMARK SMILES IDX 11 1 10 4 9 5 3 6 4 7 32 8 5 9 31 11 6 12 30 14 7 15 8 17
REMARK SMILES IDX 2 20 1 22 12 26 13 27 28 28 14 29 27 31 26 32 29 34 15 37
REMARK SMILES IDX 16 38 25 39 17 40 19 42 24 43 18 44 20 45 23 46 22 47 21 49
REMARK H PARENT 11 2 11 3 4 10 5 13 30 16 7 18 8 19 2 21 1 23 1 24 1 25 13 30
REMARK H PARENT 26 33 29 35 29 36 16 41 23 48 21 50 21 51
REMARK Flexibility Score: inf
ROOT
ATOM      1  C   UNL     1     -46.095  32.093  23.493  1.00  0.00     0.117 C 
ATOM      2  H   UNL     1     -46.594  33.005  23.143  1.00  0.00     0.076 H 
ATOM      3  H   UNL     1     -45.080  32.134  23.079  1.00  0.00     0.076 H 
ENDROOT
BRANCH   1   4
ATOM      4  O   UNL     1     -46.064  32.166  24.922  1.00  0.00    -0.489 OA
BRANCH   4   5
ATOM      5  C   UNL     1     -46.885  33.063  25.548  1.00  0.00     0.122 A 
ATOM      6  C   UNL     1     -47.027  37.466  27.347  1.00  0.00     0.126 A 
ATOM      7  C   UNL     1     -48.360  37.336  27.708  1.00  0.00    -0.019 A 
ATOM      8  N   UNL     1     -46.341  36.474  26.750  1.00  0.00    -0.231 NA
ATOM      9  C   UNL     1     -49.020  36.144  27.428  1.00  0.00    -0.049 A 
ATOM     10  H   UNL     1     -48.877  38.140  28.219  1.00  0.00     0.066 H 
ATOM     11  C   UNL     1     -46.975  35.318  26.476  1.00  0.00     0.076 A 
ATOM     12  C   UNL     1     -48.328  35.106  26.798  1.00  0.00     0.001 A 
ATOM     13  H   UNL     1     -50.063  36.034  27.708  1.00  0.00     0.063 H 
ATOM     14  C   UNL     1     -46.283  34.290  25.851  1.00  0.00     0.007 A 
ATOM     15  C   UNL     1     -48.946  33.883  26.489  1.00  0.00    -0.049 A 
ATOM     16  H   UNL     1     -45.238  34.449  25.598  1.00  0.00     0.069 H 
ATOM     17  C   UNL     1     -48.225  32.865  25.862  1.00  0.00    -0.019 A 
ATOM     18  H   UNL     1     -49.995  33.720  26.727  1.00  0.00     0.063 H 
ATOM     19  H   UNL     1     -48.747  31.946  25.622  1.00  0.00     0.066 H 
BRANCH   6  20
ATOM     20  N   UNL     1     -46.296  38.627  27.609  1.00  0.00    -0.373 N 
ATOM     21  H   UNL     1     -45.848  38.835  26.716  1.00  0.00     0.161 HD
BRANCH  20  22
ATOM     22  C   UNL     1     -47.105  39.745  28.065  1.00  0.00     0.005 C 
ATOM     23  H   UNL     1     -48.155  39.545  27.827  1.00  0.00     0.045 H 
ATOM     24  H   UNL     1     -46.829  40.677  27.562  1.00  0.00     0.045 H 
ATOM     25  H   UNL     1     -47.028  39.880  29.150  1.00  0.00     0.045 H 
ENDBRANCH  20  22
ENDBRANCH   6  20
ENDBRANCH   4   5
ENDBRANCH   1   4
BRANCH   1  26
ATOM     26  C   UNL     1     -46.885  30.917  22.965  1.00  0.00     0.034 A 
ATOM     27  C   UNL     1     -47.398  29.972  23.876  1.00  0.00    -0.026 A 
ATOM     28  C   UNL     1     -47.091  30.695  21.604  1.00  0.00     0.130 A 
ATOM     29  C   UNL     1     -48.115  28.857  23.427  1.00  0.00     0.066 A 
ATOM     30  H   UNL     1     -47.220  30.147  24.932  1.00  0.00     0.065 H 
ATOM     31  N   UNL     1     -47.767  29.626  21.156  1.00  0.00    -0.237 NA
ATOM     32  C   UNL     1     -48.269  28.742  22.054  1.00  0.00     0.053 A 
ATOM     33  H   UNL     1     -48.794  27.927  21.571  1.00  0.00     0.086 H 
BRANCH  28  34
ATOM     34  N   UNL     1     -46.569  31.546  20.628  1.00  0.00    -0.383 N 
ATOM     35  H   UNL     1     -46.007  31.016  19.971  1.00  0.00     0.158 HD
ATOM     36  H   UNL     1     -45.946  32.216  21.077  1.00  0.00     0.158 HD
ENDBRANCH  28  34
BRANCH  29  37
ATOM     37  N   UNL     1     -48.653  27.893  24.341  1.00  0.00    -0.298 N 
ATOM     38  C   UNL     1     -47.899  27.047  25.138  1.00  0.00     0.031 A 
ATOM     39  C   UNL     1     -49.998  27.615  24.611  1.00  0.00     0.151 A 
ATOM     40  C   UNL     1     -48.737  26.260  25.891  1.00  0.00     0.072 A 
ATOM     41  H   UNL     1     -46.819  27.047  25.118  1.00  0.00     0.084 H 
ATOM     42  C   UNL     1     -50.066  26.609  25.573  1.00  0.00     0.080 A 
ATOM     43  N   UNL     1     -51.068  28.213  24.052  1.00  0.00    -0.218 NA
ATOM     44  Cl  UNL     1     -48.244  25.069  27.001  1.00  0.00    -0.082 Cl
ATOM     45  C   UNL     1     -51.346  26.198  25.979  1.00  0.00     0.137 A 
ATOM     46  C   UNL     1     -52.234  27.740  24.511  1.00  0.00     0.120 A 
ATOM     47  N   UNL     1     -52.425  26.776  25.425  1.00  0.00    -0.219 NA
ATOM     48  H   UNL     1     -53.131  28.187  24.095  1.00  0.00     0.106 H 
BRANCH  45  49
ATOM     49  N   UNL     1     -51.582  25.217  26.927  1.00  0.00    -0.383 N 
ATOM     50  H   UNL     1     -51.645  25.602  27.862  1.00  0.00     0.158 HD
ATOM     51  H   UNL     1     -52.251  24.502  26.674  1.00  0.00     0.158 HD
ENDBRANCH  45  49
ENDBRANCH  29  37
ENDBRANCH   1  26
TORSDOF 8
ENDMDL
MODEL 5
REMARK VINA RESULT:      -9.4      2.275      2.957
REMARK SMILES CNc1ccc2ccc(OCc3cc(-n4cc(Cl)c5c(N)ncnc54)cnc3N)cc2n1
REMARK SMILES IDX 11 1 10 4 9 5 3 6 4 7 32 8 5 9 31 11 6 12 30 14 7 15 8 17
REMARK SMILES IDX 2 20 1 22 12 26 13 27 28 28 14 29 27 31 26 32 29 34 15 37
REMARK SMILES IDX 16 38 25 39 17 40 19 42 24 43 18 44 20 45 23 46 22 47 21 49
REMARK H PARENT 11 2 11 3 4 10 5 13 30 16 7 18 8 19 2 21 1 23 1 24 1 25 13 30
REMARK H PARENT 26 33 29 35 29 36 16 41 23 48 21 50 21 51
REMARK Flexibility Score: inf
ROOT
ATOM      1  C   UNL     1     -47.377  36.061  26.812  1.00  0.00     0.117 C 
ATOM      2  H   UNL     1     -48.096  36.600  26.184  1.00  0.00     0.076 H 
ATOM      3  H   UNL     1     -47.981  35.482  27.522  1.00  0.00     0.076 H 
ENDROOT
BRANCH   1   4
ATOM      4  O   UNL     1     -46.644  35.193  25.943  1.00  0.00    -0.489 OA
BRANCH   4   5
ATOM      5  C   UNL     1     -47.158  33.955  25.670  1.00  0.00     0.122 A 
ATOM      6  C   UNL     1     -46.469  30.059  23.027  1.00  0.00     0.126 A 
ATOM      7  C   UNL     1     -47.576  29.425  23.571  1.00  0.00    -0.019 A 
ATOM      8  N   UNL     1     -46.100  31.302  23.386  1.00  0.00    -0.231 NA
ATOM      9  C   UNL     1     -48.324  30.089  24.538  1.00  0.00    -0.049 A 
ATOM     10  H   UNL     1     -47.870  28.437  23.237  1.00  0.00     0.066 H 
ATOM     11  C   UNL     1     -46.820  31.949  24.322  1.00  0.00     0.076 A 
ATOM     12  C   UNL     1     -47.950  31.377  24.933  1.00  0.00     0.001 A 
ATOM     13  H   UNL     1     -49.193  29.601  24.969  1.00  0.00     0.063 H 
ATOM     14  C   UNL     1     -46.445  33.228  24.710  1.00  0.00     0.007 A 
ATOM     15  C   UNL     1     -48.667  32.092  25.906  1.00  0.00    -0.049 A 
ATOM     16  H   UNL     1     -45.570  33.675  24.242  1.00  0.00     0.069 H 
ATOM     17  C   UNL     1     -48.268  33.378  26.275  1.00  0.00    -0.019 A 
ATOM     18  H   UNL     1     -49.535  31.648  26.388  1.00  0.00     0.063 H 
ATOM     19  H   UNL     1     -48.837  33.884  27.047  1.00  0.00     0.066 H 
BRANCH   6  20
ATOM     20  N   UNL     1     -45.680  29.460  22.042  1.00  0.00    -0.373 N 
ATOM     21  H   UNL     1     -45.287  30.253  21.535  1.00  0.00     0.161 HD
BRANCH  20  22
ATOM     22  C   UNL     1     -44.633  28.599  22.566  1.00  0.00     0.005 C 
ATOM     23  H   UNL     1     -44.145  28.085  21.732  1.00  0.00     0.045 H 
ATOM     24  H   UNL     1     -45.036  27.829  23.231  1.00  0.00     0.045 H 
ATOM     25  H   UNL     1     -43.867  29.175  23.097  1.00  0.00     0.045 H 
ENDBRANCH  20  22
ENDBRANCH   6  20
ENDBRANCH   4   5
ENDBRANCH   1   4
BRANCH   1  26
ATOM     26  C   UNL     1     -46.517  37.097  27.499  1.00  0.00     0.034 A 
ATOM     27  C   UNL     1     -46.378  38.371  26.913  1.00  0.00    -0.026 A 
ATOM     28  C   UNL     1     -45.806  36.834  28.671  1.00  0.00     0.130 A 
ATOM     29  C   UNL     1     -45.573  39.351  27.505  1.00  0.00     0.066 A 
ATOM     30  H   UNL     1     -46.924  38.561  25.994  1.00  0.00     0.065 H 
ATOM     31  N   UNL     1     -45.021  37.758  29.245  1.00  0.00    -0.237 NA
ATOM     32  C   UNL     1     -44.923  38.984  28.672  1.00  0.00     0.053 A 
ATOM     33  H   UNL     1     -44.264  39.639  29.229  1.00  0.00     0.086 H 
BRANCH  28  34
ATOM     34  N   UNL     1     -45.836  35.582  29.288  1.00  0.00    -0.383 N 
ATOM     35  H   UNL     1     -46.789  35.337  29.531  1.00  0.00     0.158 HD
ATOM     36  H   UNL     1     -45.313  35.635  30.162  1.00  0.00     0.158 HD
ENDBRANCH  28  34
BRANCH  29  37
ATOM     37  N   UNL     1     -45.432  40.655  26.927  1.00  0.00    -0.298 N 
ATOM     38  C   UNL     1     -46.470  41.407  26.400  1.00  0.00     0.031 A 
ATOM     39  C   UNL     1     -44.265  41.413  26.779  1.00  0.00     0.151 A 
ATOM     40  C   UNL     1     -45.979  42.603  25.936  1.00  0.00     0.072 A 
ATOM     41  H   UNL     1     -47.488  41.048  26.377  1.00  0.00     0.084 H 
ATOM     42  C   UNL     1     -44.588  42.625  26.172  1.00  0.00     0.080 A 
ATOM     43  N   UNL     1     -43.024  41.056  27.161  1.00  0.00    -0.218 NA
ATOM     44  Cl  UNL     1     -46.897  43.831  25.199  1.00  0.00    -0.082 Cl
ATOM     45  C   UNL     1     -43.537  43.528  25.948  1.00  0.00     0.137 A 
ATOM     46  C   UNL     1     -42.102  41.990  26.894  1.00  0.00     0.120 A 
ATOM     47  N   UNL     1     -42.290  43.184  26.312  1.00  0.00    -0.219 NA
ATOM     48  H   UNL     1     -41.082  41.755  27.182  1.00  0.00     0.106 H 
BRANCH  45  49
ATOM     49  N   UNL     1     -43.694  44.773  25.361  1.00  0.00    -0.383 N 
ATOM     50  H   UNL     1     -43.552  44.738  24.359  1.00  0.00     0.158 HD
ATOM     51  H   UNL     1     -44.463  45.334  25.701  1.00  0.00     0.158 HD
ENDBRANCH  45  49
ENDBRANCH  29  37
ENDBRANCH   1  26
TORSDOF 8
ENDMDL
MODEL 6
REMARK VINA RESULT:      -9.4      2.251      3.719
REMARK SMILES CNc1ccc2ccc(OCc3cc(-n4cc(Cl)c5c(N)ncnc54)cnc3N)cc2n1
REMARK SMILES IDX 11 1 10 4 9 5 3 6 4 7 32 8 5 9 31 11 6 12 30 14 7 15 8 17
REMARK SMILES IDX 2 20 1 22 12 26 13 27 28 28 14 29 27 31 26 32 29 34 15 37
REMARK SMILES IDX 16 38 25 39 17 40 19 42 24 43 18 44 20 45 23 46 22 47 21 49
REMARK H PARENT 11 2 11 3 4 10 5 13 30 16 7 18 8 19 2 21 1 23 1 24 1 25 13 30
REMARK H PARENT 26 33 29 35 29 36 16 41 23 48 21 50 21 51
REMARK Flexibility Score: inf
ROOT
ATOM      1  C   UNL     1     -46.790  33.520  25.892  1.00  0.00     0.117 C 
ATOM      2  H   UNL     1     -46.941  32.755  26.663  1.00  0.00     0.076 H 
ATOM      3  H   UNL     1     -45.707  33.552  25.717  1.00  0.00     0.076 H 
ENDROOT
BRANCH   1   4
ATOM      4  O   UNL     1     -47.481  33.066  24.725  1.00  0.00    -0.489 OA
BRANCH   4   5
ATOM      5  C   UNL     1     -47.412  31.740  24.399  1.00  0.00     0.122 A 
ATOM      6  C   UNL     1     -48.994  27.434  25.662  1.00  0.00     0.126 A 
ATOM      7  C   UNL     1     -48.306  26.816  24.630  1.00  0.00    -0.019 A 
ATOM      8  N   UNL     1     -48.944  28.762  25.869  1.00  0.00    -0.231 NA
ATOM      9  C   UNL     1     -47.549  27.597  23.763  1.00  0.00    -0.049 A 
ATOM     10  H   UNL     1     -48.336  25.739  24.508  1.00  0.00     0.066 H 
ATOM     11  C   UNL     1     -48.213  29.524  25.033  1.00  0.00     0.076 A 
ATOM     12  C   UNL     1     -47.493  28.980  23.954  1.00  0.00     0.001 A 
ATOM     13  H   UNL     1     -47.005  27.121  22.952  1.00  0.00     0.063 H 
ATOM     14  C   UNL     1     -48.161  30.897  25.229  1.00  0.00     0.007 A 
ATOM     15  C   UNL     1     -46.747  29.817  23.108  1.00  0.00    -0.049 A 
ATOM     16  H   UNL     1     -48.718  31.323  26.060  1.00  0.00     0.069 H 
ATOM     17  C   UNL     1     -46.710  31.195  23.330  1.00  0.00    -0.019 A 
ATOM     18  H   UNL     1     -46.197  29.401  22.267  1.00  0.00     0.063 H 
ATOM     19  H   UNL     1     -46.140  31.806  22.639  1.00  0.00     0.066 H 
BRANCH   6  20
ATOM     20  N   UNL     1     -49.762  26.713  26.580  1.00  0.00    -0.373 N 
ATOM     21  H   UNL     1     -49.815  27.333  27.388  1.00  0.00     0.161 HD
BRANCH  20  22
ATOM     22  C   UNL     1     -51.088  26.364  26.096  1.00  0.00     0.005 C 
ATOM     23  H   UNL     1     -51.754  27.222  26.234  1.00  0.00     0.045 H 
ATOM     24  H   UNL     1     -51.517  25.527  26.656  1.00  0.00     0.045 H 
ATOM     25  H   UNL     1     -51.075  26.119  25.028  1.00  0.00     0.045 H 
ENDBRANCH  20  22
ENDBRANCH   6  20
ENDBRANCH   4   5
ENDBRANCH   1   4
BRANCH   1  26
ATOM     26  C   UNL     1     -47.323  34.824  26.442  1.00  0.00     0.034 A 
ATOM     27  C   UNL     1     -46.437  35.906  26.617  1.00  0.00    -0.026 A 
ATOM     28  C   UNL     1     -48.650  34.993  26.834  1.00  0.00     0.130 A 
ATOM     29  C   UNL     1     -46.885  37.123  27.144  1.00  0.00     0.066 A 
ATOM     30  H   UNL     1     -45.403  35.760  26.321  1.00  0.00     0.065 H 
ATOM     31  N   UNL     1     -49.094  36.149  27.351  1.00  0.00    -0.237 NA
ATOM     32  C   UNL     1     -48.226  37.182  27.489  1.00  0.00     0.053 A 
ATOM     33  H   UNL     1     -48.702  38.058  27.913  1.00  0.00     0.086 H 
BRANCH  28  34
ATOM     34  N   UNL     1     -49.583  33.958  26.753  1.00  0.00    -0.383 N 
ATOM     35  H   UNL     1     -49.496  33.348  27.559  1.00  0.00     0.158 HD
ATOM     36  H   UNL     1     -49.376  33.393  25.930  1.00  0.00     0.158 HD
ENDBRANCH  28  34
BRANCH  29  37
ATOM     37  N   UNL     1     -45.999  38.237  27.316  1.00  0.00    -0.298 N 
ATOM     38  C   UNL     1     -45.857  39.285  26.421  1.00  0.00     0.031 A 
ATOM     39  C   UNL     1     -45.128  38.491  28.381  1.00  0.00     0.151 A 
ATOM     40  C   UNL     1     -44.929  40.176  26.903  1.00  0.00     0.072 A 
ATOM     41  H   UNL     1     -46.413  39.333  25.497  1.00  0.00     0.084 H 
ATOM     42  C   UNL     1     -44.461  39.691  28.143  1.00  0.00     0.080 A 
ATOM     43  N   UNL     1     -44.951  37.722  29.473  1.00  0.00    -0.218 NA
ATOM     44  Cl  UNL     1     -44.431  41.604  26.125  1.00  0.00    -0.082 Cl
ATOM     45  C   UNL     1     -43.543  40.117  29.116  1.00  0.00     0.137 A 
ATOM     46  C   UNL     1     -44.051  38.223  30.329  1.00  0.00     0.120 A 
ATOM     47  N   UNL     1     -43.345  39.357  30.206  1.00  0.00    -0.219 NA
ATOM     48  H   UNL     1     -43.868  37.642  31.228  1.00  0.00     0.106 H 
BRANCH  45  49
ATOM     49  N   UNL     1     -42.806  41.287  29.029  1.00  0.00    -0.383 N 
ATOM     50  H   UNL     1     -42.043  41.204  28.369  1.00  0.00     0.158 HD
ATOM     51  H   UNL     1     -43.335  42.149  29.022  1.00  0.00     0.158 HD
ENDBRANCH  45  49
ENDBRANCH  29  37
ENDBRANCH   1  26
TORSDOF 8
ENDMDL
MODEL 7
REMARK VINA RESULT:      -9.4      3.057     10.204
REMARK SMILES CNc1ccc2ccc(OCc3cc(-n4cc(Cl)c5c(N)ncnc54)cnc3N)cc2n1
REMARK SMILES IDX 11 1 10 4 9 5 3 6 4 7 32 8 5 9 31 11 6 12 30 14 7 15 8 17
REMARK SMILES IDX 2 20 1 22 12 26 13 27 28 28 14 29 27 31 26 32 29 34 15 37
REMARK SMILES IDX 16 38 25 39 17 40 19 42 24 43 18 44 20 45 23 46 22 47 21 49
REMARK H PARENT 11 2 11 3 4 10 5 13 30 16 7 18 8 19 2 21 1 23 1 24 1 25 13 30
REMARK H PARENT 26 33 29 35 29 36 16 41 23 48 21 50 21 51
REMARK Flexibility Score: inf
ROOT
ATOM      1  C   UNL     1     -47.391  36.966  27.257  1.00  0.00     0.117 C 
ATOM      2  H   UNL     1     -47.436  37.330  28.290  1.00  0.00     0.076 H 
ATOM      3  H   UNL     1     -48.403  37.094  26.854  1.00  0.00     0.076 H 
ENDROOT
BRANCH   1   4
ATOM      4  O   UNL     1     -46.460  37.806  26.568  1.00  0.00    -0.489 OA
BRANCH   4   5
ATOM      5  C   UNL     1     -45.543  38.506  27.302  1.00  0.00     0.122 A 
ATOM      6  C   UNL     1     -42.503  42.160  27.089  1.00  0.00     0.126 A 
ATOM      7  C   UNL     1     -42.114  41.986  28.409  1.00  0.00    -0.019 A 
ATOM      8  N   UNL     1     -43.412  41.366  26.495  1.00  0.00    -0.231 NA
ATOM      9  C   UNL     1     -42.696  40.966  29.153  1.00  0.00    -0.049 A 
ATOM     10  H   UNL     1     -41.354  42.620  28.852  1.00  0.00     0.066 H 
ATOM     11  C   UNL     1     -43.979  40.377  27.210  1.00  0.00     0.076 A 
ATOM     12  C   UNL     1     -43.650  40.137  28.557  1.00  0.00     0.001 A 
ATOM     13  H   UNL     1     -42.396  40.822  30.187  1.00  0.00     0.063 H 
ATOM     14  C   UNL     1     -44.925  39.556  26.613  1.00  0.00     0.007 A 
ATOM     15  C   UNL     1     -44.271  39.094  29.263  1.00  0.00    -0.049 A 
ATOM     16  H   UNL     1     -45.184  39.738  25.572  1.00  0.00     0.069 H 
ATOM     17  C   UNL     1     -45.219  38.282  28.635  1.00  0.00    -0.019 A 
ATOM     18  H   UNL     1     -44.027  38.913  30.307  1.00  0.00     0.063 H 
ATOM     19  H   UNL     1     -45.690  37.503  29.223  1.00  0.00     0.066 H 
BRANCH   6  20
ATOM     20  N   UNL     1     -41.952  43.154  26.277  1.00  0.00    -0.373 N 
ATOM     21  H   UNL     1     -41.119  42.711  25.888  1.00  0.00     0.161 HD
BRANCH  20  22
ATOM     22  C   UNL     1     -42.840  43.618  25.225  1.00  0.00     0.005 C 
ATOM     23  H   UNL     1     -42.289  44.298  24.567  1.00  0.00     0.045 H 
ATOM     24  H   UNL     1     -43.691  44.175  25.629  1.00  0.00     0.045 H 
ATOM     25  H   UNL     1     -43.207  42.786  24.612  1.00  0.00     0.045 H 
ENDBRANCH  20  22
ENDBRANCH   6  20
ENDBRANCH   4   5
ENDBRANCH   1   4
BRANCH   1  26
ATOM     26  C   UNL     1     -46.972  35.515  27.310  1.00  0.00     0.034 A 
ATOM     27  C   UNL     1     -47.170  34.702  26.175  1.00  0.00    -0.026 A 
ATOM     28  C   UNL     1     -46.439  34.922  28.455  1.00  0.00     0.130 A 
ATOM     29  C   UNL     1     -46.816  33.348  26.191  1.00  0.00     0.066 A 
ATOM     30  H   UNL     1     -47.597  35.169  25.294  1.00  0.00     0.065 H 
ATOM     31  N   UNL     1     -46.105  33.624  28.491  1.00  0.00    -0.237 NA
ATOM     32  C   UNL     1     -46.286  32.869  27.378  1.00  0.00     0.053 A 
ATOM     33  H   UNL     1     -45.977  31.841  27.531  1.00  0.00     0.086 H 
BRANCH  28  34
ATOM     34  N   UNL     1     -46.263  35.635  29.643  1.00  0.00    -0.383 N 
ATOM     35  H   UNL     1     -47.025  35.435  30.283  1.00  0.00     0.158 HD
ATOM     36  H   UNL     1     -46.305  36.633  29.436  1.00  0.00     0.158 HD
ENDBRANCH  28  34
BRANCH  29  37
ATOM     37  N   UNL     1     -47.000  32.512  25.041  1.00  0.00    -0.298 N 
ATOM     38  C   UNL     1     -45.981  32.050  24.224  1.00  0.00     0.031 A 
ATOM     39  C   UNL     1     -48.197  32.007  24.522  1.00  0.00     0.151 A 
ATOM     40  C   UNL     1     -46.513  31.274  23.223  1.00  0.00     0.072 A 
ATOM     41  H   UNL     1     -44.945  32.302  24.396  1.00  0.00     0.084 H 
ATOM     42  C   UNL     1     -47.913  31.234  23.399  1.00  0.00     0.080 A 
ATOM     43  N   UNL     1     -49.435  32.214  25.015  1.00  0.00    -0.218 NA
ATOM     44  Cl  UNL     1     -45.630  30.511  21.986  1.00  0.00    -0.082 Cl
ATOM     45  C   UNL     1     -48.999  30.634  22.743  1.00  0.00     0.137 A 
ATOM     46  C   UNL     1     -50.391  31.598  24.308  1.00  0.00     0.120 A 
ATOM     47  N   UNL     1     -50.241  30.838  23.214  1.00  0.00    -0.219 NA
ATOM     48  H   UNL     1     -51.409  31.730  24.662  1.00  0.00     0.106 H 
BRANCH  45  49
ATOM     49  N   UNL     1     -48.882  29.834  21.618  1.00  0.00    -0.383 N 
ATOM     50  H   UNL     1     -49.768  29.721  21.142  1.00  0.00     0.158 HD
ATOM     51  H   UNL     1     -48.062  29.985  21.045  1.00  0.00     0.158 HD
ENDBRANCH  45  49
ENDBRANCH  29  37
ENDBRANCH   1  26
TORSDOF 8
ENDMDL
