MODEL 1
REMARK VINA RESULT:      -9.5      0.000      0.000
REMARK SMILES CCc1ncc(-n2cc(Cl)c3c(N)ncnc32)cc1COc1ccc2ccc(NC)nc2c1
REMARK SMILES IDX 20 1 19 4 3 5 4 6 5 7 18 8 6 9 2 12 1 15 7 19 8 20 17 21
REMARK SMILES IDX 9 22 11 24 16 25 10 26 12 27 15 28 14 29 13 31 21 34 22 35
REMARK SMILES IDX 23 36 33 37 24 38 32 40 25 42 31 44 26 45 28 46 27 47 29 50
REMARK SMILES IDX 30 52
REMARK H PARENT 20 2 20 3 5 10 18 11 2 13 2 14 1 16 1 17 1 18 8 23 15 30 13 32
REMARK H PARENT 13 33 23 39 33 41 24 43 26 48 27 49 29 51 30 53 30 54 30 55
REMARK Flexibility Score: inf
ROOT
ATOM      1  C   UNL     1     -46.569  35.532  28.098  1.00  0.00     0.115 C 
ATOM      2  H   UNL     1     -45.861  35.357  28.917  1.00  0.00     0.076 H 
ATOM      3  H   UNL     1     -47.491  35.004  28.365  1.00  0.00     0.076 H 
ENDROOT
BRANCH   1   4
ATOM      4  C   UNL     1     -46.769  37.028  27.990  1.00  0.00     0.013 A 
ATOM      5  C   UNL     1     -48.045  37.600  28.018  1.00  0.00     0.047 A 
ATOM      6  N   UNL     1     -48.236  38.939  27.935  1.00  0.00    -0.259 NA
ATOM      7  C   UNL     1     -47.150  39.746  27.840  1.00  0.00     0.051 A 
ATOM      8  C   UNL     1     -45.667  37.902  27.913  1.00  0.00    -0.028 A 
ATOM      9  C   UNL     1     -45.842  39.289  27.825  1.00  0.00     0.066 A 
ATOM     10  H   UNL     1     -47.422  40.793  27.761  1.00  0.00     0.086 H 
ATOM     11  H   UNL     1     -44.675  37.461  27.935  1.00  0.00     0.065 H 
BRANCH   5  12
ATOM     12  C   UNL     1     -49.311  36.787  28.121  1.00  0.00    -0.013 C 
ATOM     13  H   UNL     1     -49.284  36.209  29.053  1.00  0.00     0.033 H 
ATOM     14  H   UNL     1     -49.370  36.047  27.316  1.00  0.00     0.033 H 
BRANCH  12  15
ATOM     15  C   UNL     1     -50.550  37.670  28.126  1.00  0.00    -0.060 C 
ATOM     16  H   UNL     1     -50.599  38.288  29.028  1.00  0.00     0.023 H 
ATOM     17  H   UNL     1     -51.465  37.070  28.082  1.00  0.00     0.023 H 
ATOM     18  H   UNL     1     -50.542  38.338  27.259  1.00  0.00     0.023 H 
ENDBRANCH  12  15
ENDBRANCH   5  12
BRANCH   9  19
ATOM     19  N   UNL     1     -44.724  40.176  27.717  1.00  0.00    -0.298 N 
ATOM     20  C   UNL     1     -43.672  40.239  28.618  1.00  0.00     0.031 A 
ATOM     21  C   UNL     1     -44.465  41.120  26.719  1.00  0.00     0.151 A 
ATOM     22  C   UNL     1     -42.776  41.195  28.204  1.00  0.00     0.072 A 
ATOM     23  H   UNL     1     -43.615  39.593  29.480  1.00  0.00     0.084 H 
ATOM     24  C   UNL     1     -43.263  41.764  27.008  1.00  0.00     0.080 A 
ATOM     25  N   UNL     1     -45.243  41.392  25.651  1.00  0.00    -0.218 NA
ATOM     26  Cl  UNL     1     -41.327  41.603  28.996  1.00  0.00    -0.082 Cl
ATOM     27  C   UNL     1     -42.840  42.760  26.114  1.00  0.00     0.137 A 
ATOM     28  C   UNL     1     -44.738  42.355  24.868  1.00  0.00     0.120 A 
ATOM     29  N   UNL     1     -43.595  43.036  25.036  1.00  0.00    -0.219 NA
ATOM     30  H   UNL     1     -45.323  42.615  23.992  1.00  0.00     0.106 H 
BRANCH  27  31
ATOM     31  N   UNL     1     -41.674  43.492  26.263  1.00  0.00    -0.383 N 
ATOM     32  H   UNL     1     -41.193  43.619  25.381  1.00  0.00     0.158 HD
ATOM     33  H   UNL     1     -41.110  43.273  27.073  1.00  0.00     0.158 HD
ENDBRANCH  27  31
ENDBRANCH   9  19
ENDBRANCH   1   4
BRANCH   1  34
ATOM     34  O   UNL     1     -45.977  34.936  26.935  1.00  0.00    -0.489 OA
BRANCH  34  35
ATOM     35  C   UNL     1     -46.709  34.014  26.239  1.00  0.00     0.122 A 
ATOM     36  C   UNL     1     -48.071  34.006  26.539  1.00  0.00    -0.019 A 
ATOM     37  C   UNL     1     -46.208  33.093  25.316  1.00  0.00     0.007 A 
ATOM     38  C   UNL     1     -48.922  33.103  25.907  1.00  0.00    -0.049 A 
ATOM     39  H   UNL     1     -48.470  34.710  27.265  1.00  0.00     0.066 H 
ATOM     40  C   UNL     1     -47.035  32.182  24.671  1.00  0.00     0.076 A 
ATOM     41  H   UNL     1     -45.151  33.045  25.078  1.00  0.00     0.069 H 
ATOM     42  C   UNL     1     -48.410  32.192  24.971  1.00  0.00     0.001 A 
ATOM     43  H   UNL     1     -49.983  33.115  26.146  1.00  0.00     0.063 H 
ATOM     44  N   UNL     1     -46.497  31.323  23.787  1.00  0.00    -0.231 NA
ATOM     45  C   UNL     1     -49.227  31.272  24.311  1.00  0.00    -0.049 A 
ATOM     46  C   UNL     1     -47.293  30.431  23.162  1.00  0.00     0.126 A 
ATOM     47  C   UNL     1     -48.662  30.390  23.396  1.00  0.00    -0.019 A 
ATOM     48  H   UNL     1     -50.297  31.240  24.494  1.00  0.00     0.063 H 
ATOM     49  H   UNL     1     -49.291  29.684  22.862  1.00  0.00     0.066 H 
BRANCH  46  50
ATOM     50  N   UNL     1     -46.760  29.541  22.212  1.00  0.00    -0.373 N 
ATOM     51  H   UNL     1     -47.167  28.621  22.359  1.00  0.00     0.161 HD
BRANCH  50  52
ATOM     52  C   UNL     1     -45.307  29.491  22.190  1.00  0.00     0.005 C 
ATOM     53  H   UNL     1     -44.965  29.594  21.155  1.00  0.00     0.045 H 
ATOM     54  H   UNL     1     -44.867  30.315  22.762  1.00  0.00     0.045 H 
ATOM     55  H   UNL     1     -44.930  28.535  22.570  1.00  0.00     0.045 H 
ENDBRANCH  50  52
ENDBRANCH  46  50
ENDBRANCH  34  35
ENDBRANCH   1  34
TORSDOF 9
ENDMDL
MODEL 2
REMARK VINA RESULT:      -9.3      4.358     11.543
REMARK SMILES CCc1ncc(-n2cc(Cl)c3c(N)ncnc32)cc1COc1ccc2ccc(NC)nc2c1
REMARK SMILES IDX 20 1 19 4 3 5 4 6 5 7 18 8 6 9 2 12 1 15 7 19 8 20 17 21
REMARK SMILES IDX 9 22 11 24 16 25 10 26 12 27 15 28 14 29 13 31 21 34 22 35
REMARK SMILES IDX 23 36 33 37 24 38 32 40 25 42 31 44 26 45 28 46 27 47 29 50
REMARK SMILES IDX 30 52
REMARK H PARENT 20 2 20 3 5 10 18 11 2 13 2 14 1 16 1 17 1 18 8 23 15 30 13 32
REMARK H PARENT 13 33 23 39 33 41 24 43 26 48 27 49 29 51 30 53 30 54 30 55
REMARK Flexibility Score: inf
ROOT
ATOM      1  C   UNL     1     -46.239  32.667  24.092  1.00  0.00     0.115 C 
ATOM      2  H   UNL     1     -45.194  32.828  23.800  1.00  0.00     0.076 H 
ATOM      3  H   UNL     1     -46.807  33.513  23.692  1.00  0.00     0.076 H 
ENDROOT
BRANCH   1   4
ATOM      4  C   UNL     1     -46.672  31.345  23.497  1.00  0.00     0.013 A 
ATOM      5  C   UNL     1     -46.431  31.031  22.156  1.00  0.00     0.047 A 
ATOM      6  N   UNL     1     -46.803  29.846  21.615  1.00  0.00    -0.259 NA
ATOM      7  C   UNL     1     -47.412  28.931  22.411  1.00  0.00     0.051 A 
ATOM      8  C   UNL     1     -47.287  30.359  24.295  1.00  0.00    -0.028 A 
ATOM      9  C   UNL     1     -47.680  29.128  23.756  1.00  0.00     0.066 A 
ATOM     10  H   UNL     1     -47.681  28.030  21.870  1.00  0.00     0.086 H 
ATOM     11  H   UNL     1     -47.434  30.585  25.347  1.00  0.00     0.065 H 
BRANCH   5  12
ATOM     12  C   UNL     1     -45.762  31.981  21.194  1.00  0.00    -0.013 C 
ATOM     13  H   UNL     1     -44.691  31.745  21.155  1.00  0.00     0.033 H 
ATOM     14  H   UNL     1     -45.825  33.013  21.554  1.00  0.00     0.033 H 
BRANCH  12  15
ATOM     15  C   UNL     1     -46.343  31.867  19.793  1.00  0.00    -0.060 C 
ATOM     16  H   UNL     1     -46.799  30.886  19.625  1.00  0.00     0.023 H 
ATOM     17  H   UNL     1     -45.570  32.011  19.031  1.00  0.00     0.023 H 
ATOM     18  H   UNL     1     -47.114  32.629  19.641  1.00  0.00     0.023 H 
ENDBRANCH  12  15
ENDBRANCH   5  12
BRANCH   9  19
ATOM     19  N   UNL     1     -48.331  28.137  24.558  1.00  0.00    -0.298 N 
ATOM     20  C   UNL     1     -47.682  27.241  25.395  1.00  0.00     0.031 A 
ATOM     21  C   UNL     1     -49.701  27.880  24.669  1.00  0.00     0.151 A 
ATOM     22  C   UNL     1     -48.611  26.441  26.013  1.00  0.00     0.072 A 
ATOM     23  H   UNL     1     -46.609  27.241  25.513  1.00  0.00     0.084 H 
ATOM     24  C   UNL     1     -49.892  26.828  25.563  1.00  0.00     0.080 A 
ATOM     25  N   UNL     1     -50.692  28.519  24.014  1.00  0.00    -0.218 NA
ATOM     26  Cl  UNL     1     -48.268  25.210  27.135  1.00  0.00    -0.082 Cl
ATOM     27  C   UNL     1     -51.214  26.419  25.796  1.00  0.00     0.137 A 
ATOM     28  C   UNL     1     -51.908  28.047  24.319  1.00  0.00     0.120 A 
ATOM     29  N   UNL     1     -52.217  27.054  25.165  1.00  0.00    -0.219 NA
ATOM     30  H   UNL     1     -52.746  28.527  23.820  1.00  0.00     0.106 H 
BRANCH  27  31
ATOM     31  N   UNL     1     -51.569  25.389  26.651  1.00  0.00    -0.383 N 
ATOM     32  H   UNL     1     -51.031  25.408  27.510  1.00  0.00     0.158 HD
ATOM     33  H   UNL     1     -51.725  24.487  26.221  1.00  0.00     0.158 HD
ENDBRANCH  27  31
ENDBRANCH   9  19
ENDBRANCH   1   4
BRANCH   1  34
ATOM     34  O   UNL     1     -46.253  32.694  25.526  1.00  0.00    -0.489 OA
BRANCH  34  35
ATOM     35  C   UNL     1     -46.680  33.837  26.145  1.00  0.00     0.122 A 
ATOM     36  C   UNL     1     -48.066  33.961  26.244  1.00  0.00    -0.019 A 
ATOM     37  C   UNL     1     -45.867  34.861  26.633  1.00  0.00     0.007 A 
ATOM     38  C   UNL     1     -48.627  35.086  26.842  1.00  0.00    -0.049 A 
ATOM     39  H   UNL     1     -48.710  33.175  25.857  1.00  0.00     0.066 H 
ATOM     40  C   UNL     1     -46.401  35.995  27.235  1.00  0.00     0.076 A 
ATOM     41  H   UNL     1     -44.786  34.818  26.549  1.00  0.00     0.069 H 
ATOM     42  C   UNL     1     -47.800  36.103  27.341  1.00  0.00     0.001 A 
ATOM     43  H   UNL     1     -49.710  35.164  26.917  1.00  0.00     0.063 H 
ATOM     44  N   UNL     1     -45.567  36.946  27.692  1.00  0.00    -0.231 NA
ATOM     45  C   UNL     1     -48.319  37.247  27.952  1.00  0.00    -0.049 A 
ATOM     46  C   UNL     1     -46.079  38.052  28.270  1.00  0.00     0.126 A 
ATOM     47  C   UNL     1     -47.450  38.224  28.424  1.00  0.00    -0.019 A 
ATOM     48  H   UNL     1     -49.390  37.381  28.071  1.00  0.00     0.063 H 
ATOM     49  H   UNL     1     -47.841  39.107  28.918  1.00  0.00     0.066 H 
BRANCH  46  50
ATOM     50  N   UNL     1     -45.229  39.049  28.782  1.00  0.00    -0.373 N 
ATOM     51  H   UNL     1     -45.765  39.653  29.399  1.00  0.00     0.161 HD
BRANCH  50  52
ATOM     52  C   UNL     1     -44.521  39.809  27.765  1.00  0.00     0.005 C 
ATOM     53  H   UNL     1     -43.482  39.945  28.083  1.00  0.00     0.045 H 
ATOM     54  H   UNL     1     -44.501  39.278  26.807  1.00  0.00     0.045 H 
ATOM     55  H   UNL     1     -44.957  40.804  27.628  1.00  0.00     0.045 H 
ENDBRANCH  50  52
ENDBRANCH  46  50
ENDBRANCH  34  35
ENDBRANCH   1  34
TORSDOF 9
ENDMDL
MODEL 3
REMARK VINA RESULT:      -9.1      2.966     10.352
REMARK SMILES CCc1ncc(-n2cc(Cl)c3c(N)ncnc32)cc1COc1ccc2ccc(NC)nc2c1
REMARK SMILES IDX 20 1 19 4 3 5 4 6 5 7 18 8 6 9 2 12 1 15 7 19 8 20 17 21
REMARK SMILES IDX 9 22 11 24 16 25 10 26 12 27 15 28 14 29 13 31 21 34 22 35
REMARK SMILES IDX 23 36 33 37 24 38 32 40 25 42 31 44 26 45 28 46 27 47 29 50
REMARK SMILES IDX 30 52
REMARK H PARENT 20 2 20 3 5 10 18 11 2 13 2 14 1 16 1 17 1 18 8 23 15 30 13 32
REMARK H PARENT 13 33 23 39 33 41 24 43 26 48 27 49 29 51 30 53 30 54 30 55
REMARK Flexibility Score: inf
ROOT
ATOM      1  C   UNL     1     -45.873  36.090  27.528  1.00  0.00     0.115 C 
ATOM      2  H   UNL     1     -45.765  35.908  28.604  1.00  0.00     0.076 H 
ATOM      3  H   UNL     1     -44.897  35.875  27.077  1.00  0.00     0.076 H 
ENDROOT
BRANCH   1   4
ATOM      4  C   UNL     1     -46.960  35.166  27.023  1.00  0.00     0.013 A 
ATOM      5  C   UNL     1     -48.307  35.382  27.330  1.00  0.00     0.047 A 
ATOM      6  N   UNL     1     -49.290  34.569  26.873  1.00  0.00    -0.259 NA
ATOM      7  C   UNL     1     -48.951  33.524  26.077  1.00  0.00     0.051 A 
ATOM      8  C   UNL     1     -46.652  34.083  26.176  1.00  0.00    -0.028 A 
ATOM      9  C   UNL     1     -47.653  33.229  25.694  1.00  0.00     0.066 A 
ATOM     10  H   UNL     1     -49.812  32.933  25.787  1.00  0.00     0.086 H 
ATOM     11  H   UNL     1     -45.612  33.940  25.901  1.00  0.00     0.065 H 
BRANCH   5  12
ATOM     12  C   UNL     1     -48.781  36.515  28.205  1.00  0.00    -0.013 C 
ATOM     13  H   UNL     1     -48.141  37.389  28.028  1.00  0.00     0.033 H 
ATOM     14  H   UNL     1     -48.660  36.271  29.265  1.00  0.00     0.033 H 
BRANCH  12  15
ATOM     15  C   UNL     1     -50.224  36.893  27.906  1.00  0.00    -0.060 C 
ATOM     16  H   UNL     1     -50.605  37.626  28.624  1.00  0.00     0.023 H 
ATOM     17  H   UNL     1     -50.879  36.016  27.944  1.00  0.00     0.023 H 
ATOM     18  H   UNL     1     -50.301  37.329  26.905  1.00  0.00     0.023 H 
ENDBRANCH  12  15
ENDBRANCH   5  12
BRANCH   9  19
ATOM     19  N   UNL     1     -47.338  32.111  24.856  1.00  0.00    -0.298 N 
ATOM     20  C   UNL     1     -46.488  32.154  23.761  1.00  0.00     0.031 A 
ATOM     21  C   UNL     1     -47.797  30.795  24.967  1.00  0.00     0.151 A 
ATOM     22  C   UNL     1     -46.414  30.905  23.196  1.00  0.00     0.072 A 
ATOM     23  H   UNL     1     -45.977  33.057  23.467  1.00  0.00     0.084 H 
ATOM     24  C   UNL     1     -47.238  30.035  23.941  1.00  0.00     0.080 A 
ATOM     25  N   UNL     1     -48.655  30.320  25.893  1.00  0.00    -0.218 NA
ATOM     26  Cl  UNL     1     -45.476  30.486  21.839  1.00  0.00    -0.082 Cl
ATOM     27  C   UNL     1     -47.593  28.678  23.884  1.00  0.00     0.137 A 
ATOM     28  C   UNL     1     -48.917  29.015  25.742  1.00  0.00     0.120 A 
ATOM     29  N   UNL     1     -48.435  28.182  24.808  1.00  0.00    -0.219 NA
ATOM     30  H   UNL     1     -49.602  28.578  26.462  1.00  0.00     0.106 H 
BRANCH  27  31
ATOM     31  N   UNL     1     -47.127  27.793  22.927  1.00  0.00    -0.383 N 
ATOM     32  H   UNL     1     -47.330  26.831  23.170  1.00  0.00     0.158 HD
ATOM     33  H   UNL     1     -46.212  27.992  22.544  1.00  0.00     0.158 HD
ENDBRANCH  27  31
ENDBRANCH   9  19
ENDBRANCH   1   4
BRANCH   1  34
ATOM     34  O   UNL     1     -46.183  37.484  27.395  1.00  0.00    -0.489 OA
BRANCH  34  35
ATOM     35  C   UNL     1     -45.265  38.395  27.840  1.00  0.00     0.122 A 
ATOM     36  C   UNL     1     -44.742  38.123  29.104  1.00  0.00    -0.019 A 
ATOM     37  C   UNL     1     -44.857  39.548  27.166  1.00  0.00     0.007 A 
ATOM     38  C   UNL     1     -43.807  38.982  29.675  1.00  0.00    -0.049 A 
ATOM     39  H   UNL     1     -45.061  37.234  29.643  1.00  0.00     0.066 H 
ATOM     40  C   UNL     1     -43.925  40.423  27.713  1.00  0.00     0.076 A 
ATOM     41  H   UNL     1     -45.263  39.812  26.195  1.00  0.00     0.069 H 
ATOM     42  C   UNL     1     -43.394  40.130  28.983  1.00  0.00     0.001 A 
ATOM     43  H   UNL     1     -43.402  38.751  30.658  1.00  0.00     0.063 H 
ATOM     44  N   UNL     1     -43.566  41.514  27.015  1.00  0.00    -0.231 NA
ATOM     45  C   UNL     1     -42.456  41.018  29.515  1.00  0.00    -0.049 A 
ATOM     46  C   UNL     1     -42.668  42.371  27.542  1.00  0.00     0.126 A 
ATOM     47  C   UNL     1     -42.088  42.142  28.785  1.00  0.00    -0.019 A 
ATOM     48  H   UNL     1     -42.004  40.839  30.486  1.00  0.00     0.063 H 
ATOM     49  H   UNL     1     -41.346  42.828  29.179  1.00  0.00     0.066 H 
BRANCH  46  50
ATOM     50  N   UNL     1     -42.253  43.505  26.821  1.00  0.00    -0.373 N 
ATOM     51  H   UNL     1     -42.965  44.226  26.903  1.00  0.00     0.161 HD
BRANCH  50  52
ATOM     52  C   UNL     1     -41.914  43.237  25.432  1.00  0.00     0.005 C 
ATOM     53  H   UNL     1     -42.165  44.117  24.830  1.00  0.00     0.045 H 
ATOM     54  H   UNL     1     -40.841  43.053  25.308  1.00  0.00     0.045 H 
ATOM     55  H   UNL     1     -42.483  42.391  25.034  1.00  0.00     0.045 H 
ENDBRANCH  50  52
ENDBRANCH  46  50
ENDBRANCH  34  35
ENDBRANCH   1  34
TORSDOF 9
ENDMDL
MODEL 4
REMARK VINA RESULT:      -9.1      1.766      2.244
REMARK SMILES CCc1ncc(-n2cc(Cl)c3c(N)ncnc32)cc1COc1ccc2ccc(NC)nc2c1
REMARK SMILES IDX 20 1 19 4 3 5 4 6 5 7 18 8 6 9 2 12 1 15 7 19 8 20 17 21
REMARK SMILES IDX 9 22 11 24 16 25 10 26 12 27 15 28 14 29 13 31 21 34 22 35
REMARK SMILES IDX 23 36 33 37 24 38 32 40 25 42 31 44 26 45 28 46 27 47 29 50
REMARK SMILES IDX 30 52
REMARK H PARENT 20 2 20 3 5 10 18 11 2 13 2 14 1 16 1 17 1 18 8 23 15 30 13 32
REMARK H PARENT 13 33 23 39 33 41 24 43 26 48 27 49 29 51 30 53 30 54 30 55
REMARK Flexibility Score: inf
ROOT
ATOM      1  C   UNL     1     -46.977  35.126  25.957  1.00  0.00     0.115 C 
ATOM      2  H   UNL     1     -47.556  35.271  25.037  1.00  0.00     0.076 H 
ATOM      3  H   UNL     1     -45.938  34.969  25.648  1.00  0.00     0.076 H 
ENDROOT
BRANCH   1   4
ATOM      4  C   UNL     1     -47.149  36.373  26.797  1.00  0.00     0.013 A 
ATOM      5  C   UNL     1     -48.363  36.672  27.424  1.00  0.00     0.047 A 
ATOM      6  N   UNL     1     -48.526  37.779  28.189  1.00  0.00    -0.259 NA
ATOM      7  C   UNL     1     -47.467  38.610  28.363  1.00  0.00     0.051 A 
ATOM      8  C   UNL     1     -46.069  37.249  27.021  1.00  0.00    -0.028 A 
ATOM      9  C   UNL     1     -46.216  38.399  27.807  1.00  0.00     0.066 A 
ATOM     10  H   UNL     1     -47.716  39.468  28.976  1.00  0.00     0.086 H 
ATOM     11  H   UNL     1     -45.114  36.994  26.571  1.00  0.00     0.065 H 
BRANCH   5  12
ATOM     12  C   UNL     1     -49.594  35.812  27.290  1.00  0.00    -0.013 C 
ATOM     13  H   UNL     1     -49.507  34.962  27.979  1.00  0.00     0.033 H 
ATOM     14  H   UNL     1     -49.661  35.374  26.288  1.00  0.00     0.033 H 
BRANCH  12  15
ATOM     15  C   UNL     1     -50.862  36.585  27.621  1.00  0.00    -0.060 C 
ATOM     16  H   UNL     1     -51.449  36.082  28.396  1.00  0.00     0.023 H 
ATOM     17  H   UNL     1     -51.500  36.696  26.738  1.00  0.00     0.023 H 
ATOM     18  H   UNL     1     -50.610  37.586  27.984  1.00  0.00     0.023 H 
ENDBRANCH  12  15
ENDBRANCH   5  12
BRANCH   9  19
ATOM     19  N   UNL     1     -45.127  39.305  28.012  1.00  0.00    -0.298 N 
ATOM     20  C   UNL     1     -44.215  39.228  29.054  1.00  0.00     0.031 A 
ATOM     21  C   UNL     1     -44.764  40.408  27.233  1.00  0.00     0.151 A 
ATOM     22  C   UNL     1     -43.306  40.251  28.940  1.00  0.00     0.072 A 
ATOM     23  H   UNL     1     -44.256  38.445  29.796  1.00  0.00     0.084 H 
ATOM     24  C   UNL     1     -43.640  41.009  27.797  1.00  0.00     0.080 A 
ATOM     25  N   UNL     1     -45.393  40.848  26.124  1.00  0.00    -0.218 NA
ATOM     26  Cl  UNL     1     -41.999  40.537  29.990  1.00  0.00    -0.082 Cl
ATOM     27  C   UNL     1     -43.132  42.147  27.153  1.00  0.00     0.137 A 
ATOM     28  C   UNL     1     -44.819  41.936  25.594  1.00  0.00     0.120 A 
ATOM     29  N   UNL     1     -43.737  42.593  26.037  1.00  0.00    -0.219 NA
ATOM     30  H   UNL     1     -45.284  42.334  24.698  1.00  0.00     0.106 H 
BRANCH  27  31
ATOM     31  N   UNL     1     -42.027  42.858  27.588  1.00  0.00    -0.383 N 
ATOM     32  H   UNL     1     -41.162  42.366  27.400  1.00  0.00     0.158 HD
ATOM     33  H   UNL     1     -42.115  43.313  28.488  1.00  0.00     0.158 HD
ENDBRANCH  27  31
ENDBRANCH   9  19
ENDBRANCH   1   4
BRANCH   1  34
ATOM     34  O   UNL     1     -47.498  33.936  26.565  1.00  0.00    -0.489 OA
BRANCH  34  35
ATOM     35  C   UNL     1     -47.481  32.779  25.836  1.00  0.00     0.122 A 
ATOM     36  C   UNL     1     -46.498  32.729  24.847  1.00  0.00    -0.019 A 
ATOM     37  C   UNL     1     -48.361  31.704  25.978  1.00  0.00     0.007 A 
ATOM     38  C   UNL     1     -46.385  31.608  24.028  1.00  0.00    -0.049 A 
ATOM     39  H   UNL     1     -45.815  33.565  24.719  1.00  0.00     0.066 H 
ATOM     40  C   UNL     1     -48.270  30.574  25.174  1.00  0.00     0.076 A 
ATOM     41  H   UNL     1     -49.158  31.716  26.714  1.00  0.00     0.069 H 
ATOM     42  C   UNL     1     -47.265  30.529  24.189  1.00  0.00     0.001 A 
ATOM     43  H   UNL     1     -45.608  31.582  23.267  1.00  0.00     0.063 H 
ATOM     44  N   UNL     1     -49.142  29.567  25.362  1.00  0.00    -0.231 NA
ATOM     45  C   UNL     1     -47.186  29.384  23.393  1.00  0.00    -0.049 A 
ATOM     46  C   UNL     1     -49.064  28.470  24.580  1.00  0.00     0.126 A 
ATOM     47  C   UNL     1     -48.090  28.347  23.596  1.00  0.00    -0.019 A 
ATOM     48  H   UNL     1     -46.426  29.288  22.624  1.00  0.00     0.063 H 
ATOM     49  H   UNL     1     -48.025  27.444  22.997  1.00  0.00     0.066 H 
BRANCH  46  50
ATOM     50  N   UNL     1     -49.945  27.391  24.774  1.00  0.00    -0.373 N 
ATOM     51  H   UNL     1     -50.741  27.710  25.318  1.00  0.00     0.161 HD
BRANCH  50  52
ATOM     52  C   UNL     1     -49.325  26.215  25.364  1.00  0.00     0.005 C 
ATOM     53  H   UNL     1     -49.765  25.319  24.913  1.00  0.00     0.045 H 
ATOM     54  H   UNL     1     -48.248  26.184  25.165  1.00  0.00     0.045 H 
ATOM     55  H   UNL     1     -49.504  26.163  26.443  1.00  0.00     0.045 H 
ENDBRANCH  50  52
ENDBRANCH  46  50
ENDBRANCH  34  35
ENDBRANCH   1  34
TORSDOF 9
ENDMDL
MODEL 5
REMARK VINA RESULT:      -9.0      1.675      2.606
REMARK SMILES CCc1ncc(-n2cc(Cl)c3c(N)ncnc32)cc1COc1ccc2ccc(NC)nc2c1
REMARK SMILES IDX 20 1 19 4 3 5 4 6 5 7 18 8 6 9 2 12 1 15 7 19 8 20 17 21
REMARK SMILES IDX 9 22 11 24 16 25 10 26 12 27 15 28 14 29 13 31 21 34 22 35
REMARK SMILES IDX 23 36 33 37 24 38 32 40 25 42 31 44 26 45 28 46 27 47 29 50
REMARK SMILES IDX 30 52
REMARK H PARENT 20 2 20 3 5 10 18 11 2 13 2 14 1 16 1 17 1 18 8 23 15 30 13 32
REMARK H PARENT 13 33 23 39 33 41 24 43 26 48 27 49 29 51 30 53 30 54 30 55
REMARK Flexibility Score: inf
ROOT
ATOM      1  C   UNL     1     -47.561  35.497  27.911  1.00  0.00     0.115 C 
ATOM      2  H   UNL     1     -46.573  35.216  27.527  1.00  0.00     0.076 H 
ATOM      3  H   UNL     1     -47.613  35.120  28.939  1.00  0.00     0.076 H 
ENDROOT
BRANCH   1   4
ATOM      4  C   UNL     1     -47.657  37.005  27.843  1.00  0.00     0.013 A 
ATOM      5  C   UNL     1     -48.879  37.669  27.993  1.00  0.00     0.047 A 
ATOM      6  N   UNL     1     -48.975  39.020  27.947  1.00  0.00    -0.259 NA
ATOM      7  C   UNL     1     -47.844  39.747  27.767  1.00  0.00     0.051 A 
ATOM      8  C   UNL     1     -46.503  37.797  27.681  1.00  0.00    -0.028 A 
ATOM      9  C   UNL     1     -46.580  39.195  27.629  1.00  0.00     0.066 A 
ATOM     10  H   UNL     1     -48.042  40.812  27.728  1.00  0.00     0.086 H 
ATOM     11  H   UNL     1     -45.548  37.284  27.609  1.00  0.00     0.065 H 
BRANCH   5  12
ATOM     12  C   UNL     1     -50.188  36.950  28.197  1.00  0.00    -0.013 C 
ATOM     13  H   UNL     1     -50.074  36.238  29.025  1.00  0.00     0.033 H 
ATOM     14  H   UNL     1     -50.446  36.346  27.321  1.00  0.00     0.033 H 
BRANCH  12  15
ATOM     15  C   UNL     1     -51.316  37.915  28.530  1.00  0.00    -0.060 C 
ATOM     16  H   UNL     1     -51.135  38.907  28.104  1.00  0.00     0.023 H 
ATOM     17  H   UNL     1     -51.431  38.032  29.613  1.00  0.00     0.023 H 
ATOM     18  H   UNL     1     -52.263  37.543  28.128  1.00  0.00     0.023 H 
ENDBRANCH  12  15
ENDBRANCH   5  12
BRANCH   9  19
ATOM     19  N   UNL     1     -45.412  39.999  27.435  1.00  0.00    -0.298 N 
ATOM     20  C   UNL     1     -45.205  40.853  26.362  1.00  0.00     0.031 A 
ATOM     21  C   UNL     1     -44.284  40.094  28.255  1.00  0.00     0.151 A 
ATOM     22  C   UNL     1     -43.985  41.467  26.498  1.00  0.00     0.072 A 
ATOM     23  H   UNL     1     -45.942  40.985  25.584  1.00  0.00     0.084 H 
ATOM     24  C   UNL     1     -43.387  40.996  27.686  1.00  0.00     0.080 A 
ATOM     25  N   UNL     1     -44.069  39.421  29.404  1.00  0.00    -0.218 NA
ATOM     26  Cl  UNL     1     -43.324  42.606  25.422  1.00  0.00    -0.082 Cl
ATOM     27  C   UNL     1     -42.181  41.217  28.370  1.00  0.00     0.137 A 
ATOM     28  C   UNL     1     -42.890  39.714  29.969  1.00  0.00     0.120 A 
ATOM     29  N   UNL     1     -41.955  40.566  29.525  1.00  0.00    -0.219 NA
ATOM     30  H   UNL     1     -42.664  39.200  30.899  1.00  0.00     0.106 H 
BRANCH  27  31
ATOM     31  N   UNL     1     -41.188  42.077  27.935  1.00  0.00    -0.383 N 
ATOM     32  H   UNL     1     -40.667  41.691  27.157  1.00  0.00     0.158 HD
ATOM     33  H   UNL     1     -40.662  42.552  28.657  1.00  0.00     0.158 HD
ENDBRANCH  27  31
ENDBRANCH   9  19
ENDBRANCH   1   4
BRANCH   1  34
ATOM     34  O   UNL     1     -48.513  34.813  27.085  1.00  0.00    -0.489 OA
BRANCH  34  35
ATOM     35  C   UNL     1     -48.059  33.811  26.272  1.00  0.00     0.122 A 
ATOM     36  C   UNL     1     -46.841  34.076  25.646  1.00  0.00    -0.019 A 
ATOM     37  C   UNL     1     -48.715  32.607  26.006  1.00  0.00     0.007 A 
ATOM     38  C   UNL     1     -46.278  33.139  24.783  1.00  0.00    -0.049 A 
ATOM     39  H   UNL     1     -46.327  35.014  25.836  1.00  0.00     0.066 H 
ATOM     40  C   UNL     1     -48.176  31.655  25.149  1.00  0.00     0.076 A 
ATOM     41  H   UNL     1     -49.678  32.375  26.448  1.00  0.00     0.069 H 
ATOM     42  C   UNL     1     -46.940  31.928  24.534  1.00  0.00     0.001 A 
ATOM     43  H   UNL     1     -45.324  33.358  24.309  1.00  0.00     0.063 H 
ATOM     44  N   UNL     1     -48.851  30.511  24.936  1.00  0.00    -0.231 NA
ATOM     45  C   UNL     1     -46.411  30.958  23.679  1.00  0.00    -0.049 A 
ATOM     46  C   UNL     1     -48.337  29.586  24.100  1.00  0.00     0.126 A 
ATOM     47  C   UNL     1     -47.114  29.777  23.467  1.00  0.00    -0.019 A 
ATOM     48  H   UNL     1     -45.456  31.108  23.184  1.00  0.00     0.063 H 
ATOM     49  H   UNL     1     -46.704  29.008  22.820  1.00  0.00     0.066 H 
BRANCH  46  50
ATOM     50  N   UNL     1     -49.008  28.369  23.881  1.00  0.00    -0.373 N 
ATOM     51  H   UNL     1     -49.998  28.558  23.752  1.00  0.00     0.161 HD
BRANCH  50  52
ATOM     52  C   UNL     1     -48.781  27.369  24.913  1.00  0.00     0.005 C 
ATOM     53  H   UNL     1     -49.378  27.627  25.794  1.00  0.00     0.045 H 
ATOM     54  H   UNL     1     -49.097  26.373  24.585  1.00  0.00     0.045 H 
ATOM     55  H   UNL     1     -47.731  27.341  25.222  1.00  0.00     0.045 H 
ENDBRANCH  50  52
ENDBRANCH  46  50
ENDBRANCH  34  35
ENDBRANCH   1  34
TORSDOF 9
ENDMDL
MODEL 6
REMARK VINA RESULT:      -9.0      2.059      2.759
REMARK SMILES CCc1ncc(-n2cc(Cl)c3c(N)ncnc32)cc1COc1ccc2ccc(NC)nc2c1
REMARK SMILES IDX 20 1 19 4 3 5 4 6 5 7 18 8 6 9 2 12 1 15 7 19 8 20 17 21
REMARK SMILES IDX 9 22 11 24 16 25 10 26 12 27 15 28 14 29 13 31 21 34 22 35
REMARK SMILES IDX 23 36 33 37 24 38 32 40 25 42 31 44 26 45 28 46 27 47 29 50
REMARK SMILES IDX 30 52
REMARK H PARENT 20 2 20 3 5 10 18 11 2 13 2 14 1 16 1 17 1 18 8 23 15 30 13 32
REMARK H PARENT 13 33 23 39 33 41 24 43 26 48 27 49 29 51 30 53 30 54 30 55
REMARK Flexibility Score: inf
ROOT
ATOM      1  C   UNL     1     -46.933  36.968  26.680  1.00  0.00     0.115 C 
ATOM      2  H   UNL     1     -47.685  36.730  27.442  1.00  0.00     0.076 H 
ATOM      3  H   UNL     1     -47.485  37.228  25.770  1.00  0.00     0.076 H 
ENDROOT
BRANCH   1   4
ATOM      4  C   UNL     1     -46.110  38.123  27.207  1.00  0.00     0.013 A 
ATOM      5  C   UNL     1     -45.293  37.986  28.334  1.00  0.00     0.047 A 
ATOM      6  N   UNL     1     -44.541  39.009  28.807  1.00  0.00    -0.259 NA
ATOM      7  C   UNL     1     -44.573  40.197  28.152  1.00  0.00     0.051 A 
ATOM      8  C   UNL     1     -46.097  39.365  26.542  1.00  0.00    -0.028 A 
ATOM      9  C   UNL     1     -45.329  40.436  27.016  1.00  0.00     0.066 A 
ATOM     10  H   UNL     1     -43.950  40.945  28.628  1.00  0.00     0.086 H 
ATOM     11  H   UNL     1     -46.697  39.459  25.642  1.00  0.00     0.065 H 
BRANCH   5  12
ATOM     12  C   UNL     1     -45.191  36.708  29.128  1.00  0.00    -0.013 C 
ATOM     13  H   UNL     1     -44.153  36.584  29.463  1.00  0.00     0.033 H 
ATOM     14  H   UNL     1     -45.406  35.837  28.500  1.00  0.00     0.033 H 
BRANCH  12  15
ATOM     15  C   UNL     1     -46.102  36.727  30.346  1.00  0.00    -0.060 C 
ATOM     16  H   UNL     1     -45.777  37.470  31.081  1.00  0.00     0.023 H 
ATOM     17  H   UNL     1     -46.120  35.751  30.842  1.00  0.00     0.023 H 
ATOM     18  H   UNL     1     -47.126  36.972  30.048  1.00  0.00     0.023 H 
ENDBRANCH  12  15
ENDBRANCH   5  12
BRANCH   9  19
ATOM     19  N   UNL     1     -45.338  41.708  26.358  1.00  0.00    -0.298 N 
ATOM     20  C   UNL     1     -46.479  42.390  25.965  1.00  0.00     0.031 A 
ATOM     21  C   UNL     1     -44.244  42.499  25.995  1.00  0.00     0.151 A 
ATOM     22  C   UNL     1     -46.119  43.574  25.370  1.00  0.00     0.072 A 
ATOM     23  H   UNL     1     -47.470  42.004  26.149  1.00  0.00     0.084 H 
ATOM     24  C   UNL     1     -44.710  43.658  25.377  1.00  0.00     0.080 A 
ATOM     25  N   UNL     1     -42.942  42.203  26.186  1.00  0.00    -0.218 NA
ATOM     26  Cl  UNL     1     -47.193  44.738  24.750  1.00  0.00    -0.082 Cl
ATOM     27  C   UNL     1     -43.747  44.577  24.932  1.00  0.00     0.137 A 
ATOM     28  C   UNL     1     -42.117  43.153  25.726  1.00  0.00     0.120 A 
ATOM     29  N   UNL     1     -42.444  44.307  25.126  1.00  0.00    -0.219 NA
ATOM     30  H   UNL     1     -41.054  42.967  25.853  1.00  0.00     0.106 H 
BRANCH  27  31
ATOM     31  N   UNL     1     -44.048  45.770  24.297  1.00  0.00    -0.383 N 
ATOM     32  H   UNL     1     -44.881  46.203  24.680  1.00  0.00     0.158 HD
ATOM     33  H   UNL     1     -43.940  45.780  23.292  1.00  0.00     0.158 HD
ENDBRANCH  27  31
ENDBRANCH   9  19
ENDBRANCH   1   4
BRANCH   1  34
ATOM     34  O   UNL     1     -46.184  35.762  26.477  1.00  0.00    -0.489 OA
BRANCH  34  35
ATOM     35  C   UNL     1     -46.861  34.642  26.080  1.00  0.00     0.122 A 
ATOM     36  C   UNL     1     -48.175  34.562  26.540  1.00  0.00    -0.019 A 
ATOM     37  C   UNL     1     -46.344  33.598  25.309  1.00  0.00     0.007 A 
ATOM     38  C   UNL     1     -48.966  33.463  26.214  1.00  0.00    -0.049 A 
ATOM     39  H   UNL     1     -48.585  35.363  27.150  1.00  0.00     0.066 H 
ATOM     40  C   UNL     1     -47.111  32.490  24.969  1.00  0.00     0.076 A 
ATOM     41  H   UNL     1     -45.317  33.606  24.957  1.00  0.00     0.069 H 
ATOM     42  C   UNL     1     -48.440  32.427  25.428  1.00  0.00     0.001 A 
ATOM     43  H   UNL     1     -49.992  33.420  26.575  1.00  0.00     0.063 H 
ATOM     44  N   UNL     1     -46.560  31.519  24.220  1.00  0.00    -0.231 NA
ATOM     45  C   UNL     1     -49.198  31.309  25.075  1.00  0.00    -0.049 A 
ATOM     46  C   UNL     1     -47.297  30.437  23.893  1.00  0.00     0.126 A 
ATOM     47  C   UNL     1     -48.621  30.311  24.296  1.00  0.00    -0.019 A 
ATOM     48  H   UNL     1     -50.232  31.210  25.391  1.00  0.00     0.063 H 
ATOM     49  H   UNL     1     -49.206  29.447  23.999  1.00  0.00     0.066 H 
BRANCH  46  50
ATOM     50  N   UNL     1     -46.755  29.421  23.086  1.00  0.00    -0.373 N 
ATOM     51  H   UNL     1     -46.519  28.625  23.673  1.00  0.00     0.161 HD
BRANCH  50  52
ATOM     52  C   UNL     1     -45.626  29.844  22.272  1.00  0.00     0.005 C 
ATOM     53  H   UNL     1     -45.882  30.784  21.772  1.00  0.00     0.045 H 
ATOM     54  H   UNL     1     -44.737  30.033  22.884  1.00  0.00     0.045 H 
ATOM     55  H   UNL     1     -45.390  29.109  21.496  1.00  0.00     0.045 H 
ENDBRANCH  50  52
ENDBRANCH  46  50
ENDBRANCH  34  35
ENDBRANCH   1  34
TORSDOF 9
ENDMDL
MODEL 7
REMARK VINA RESULT:      -8.9      3.122      9.888
REMARK SMILES CCc1ncc(-n2cc(Cl)c3c(N)ncnc32)cc1COc1ccc2ccc(NC)nc2c1
REMARK SMILES IDX 20 1 19 4 3 5 4 6 5 7 18 8 6 9 2 12 1 15 7 19 8 20 17 21
REMARK SMILES IDX 9 22 11 24 16 25 10 26 12 27 15 28 14 29 13 31 21 34 22 35
REMARK SMILES IDX 23 36 33 37 24 38 32 40 25 42 31 44 26 45 28 46 27 47 29 50
REMARK SMILES IDX 30 52
REMARK H PARENT 20 2 20 3 5 10 18 11 2 13 2 14 1 16 1 17 1 18 8 23 15 30 13 32
REMARK H PARENT 13 33 23 39 33 41 24 43 26 48 27 49 29 51 30 53 30 54 30 55
REMARK Flexibility Score: inf
ROOT
ATOM      1  C   UNL     1     -46.430  36.791  27.124  1.00  0.00     0.115 C 
ATOM      2  H   UNL     1     -45.524  36.313  26.733  1.00  0.00     0.076 H 
ATOM      3  H   UNL     1     -46.576  37.706  26.540  1.00  0.00     0.076 H 
ENDROOT
BRANCH   1   4
ATOM      4  C   UNL     1     -47.566  35.806  26.952  1.00  0.00     0.013 A 
ATOM      5  C   UNL     1     -48.878  36.132  27.311  1.00  0.00     0.047 A 
ATOM      6  N   UNL     1     -49.906  35.264  27.149  1.00  0.00    -0.259 NA
ATOM      7  C   UNL     1     -49.650  34.048  26.604  1.00  0.00     0.051 A 
ATOM      8  C   UNL     1     -47.347  34.543  26.369  1.00  0.00    -0.028 A 
ATOM      9  C   UNL     1     -48.394  33.630  26.194  1.00  0.00     0.066 A 
ATOM     10  H   UNL     1     -50.540  33.432  26.540  1.00  0.00     0.086 H 
ATOM     11  H   UNL     1     -46.336  34.306  26.050  1.00  0.00     0.065 H 
BRANCH   5  12
ATOM     12  C   UNL     1     -49.261  37.456  27.923  1.00  0.00    -0.013 C 
ATOM     13  H   UNL     1     -48.919  38.262  27.261  1.00  0.00     0.033 H 
ATOM     14  H   UNL     1     -48.743  37.614  28.874  1.00  0.00     0.033 H 
BRANCH  12  15
ATOM     15  C   UNL     1     -50.767  37.577  28.108  1.00  0.00    -0.060 C 
ATOM     16  H   UNL     1     -51.141  36.855  28.840  1.00  0.00     0.023 H 
ATOM     17  H   UNL     1     -51.297  37.404  27.166  1.00  0.00     0.023 H 
ATOM     18  H   UNL     1     -51.024  38.581  28.461  1.00  0.00     0.023 H 
ENDBRANCH  12  15
ENDBRANCH   5  12
BRANCH   9  19
ATOM     19  N   UNL     1     -48.167  32.335  25.629  1.00  0.00    -0.298 N 
ATOM     20  C   UNL     1     -48.783  31.165  26.050  1.00  0.00     0.031 A 
ATOM     21  C   UNL     1     -47.318  31.991  24.573  1.00  0.00     0.151 A 
ATOM     22  C   UNL     1     -48.336  30.116  25.286  1.00  0.00     0.072 A 
ATOM     23  H   UNL     1     -49.510  31.155  26.847  1.00  0.00     0.084 H 
ATOM     24  C   UNL     1     -47.406  30.618  24.351  1.00  0.00     0.080 A 
ATOM     25  N   UNL     1     -46.521  32.830  23.879  1.00  0.00    -0.218 NA
ATOM     26  Cl  UNL     1     -48.833  28.496  25.440  1.00  0.00    -0.082 Cl
ATOM     27  C   UNL     1     -46.611  30.083  23.326  1.00  0.00     0.137 A 
ATOM     28  C   UNL     1     -45.813  32.210  22.926  1.00  0.00     0.120 A 
ATOM     29  N   UNL     1     -45.821  30.906  22.613  1.00  0.00    -0.219 NA
ATOM     30  H   UNL     1     -45.153  32.838  22.335  1.00  0.00     0.106 H 
BRANCH  27  31
ATOM     31  N   UNL     1     -46.582  28.742  22.984  1.00  0.00    -0.383 N 
ATOM     32  H   UNL     1     -45.671  28.457  22.645  1.00  0.00     0.158 HD
ATOM     33  H   UNL     1     -47.392  28.390  22.490  1.00  0.00     0.158 HD
ENDBRANCH  27  31
ENDBRANCH   9  19
ENDBRANCH   1   4
BRANCH   1  34
ATOM     34  O   UNL     1     -46.142  37.117  28.491  1.00  0.00    -0.489 OA
BRANCH  34  35
ATOM     35  C   UNL     1     -45.177  38.053  28.741  1.00  0.00     0.122 A 
ATOM     36  C   UNL     1     -44.515  37.896  29.958  1.00  0.00    -0.019 A 
ATOM     37  C   UNL     1     -44.844  39.132  27.918  1.00  0.00     0.007 A 
ATOM     38  C   UNL     1     -43.519  38.792  30.336  1.00  0.00    -0.049 A 
ATOM     39  H   UNL     1     -44.774  37.067  30.613  1.00  0.00     0.066 H 
ATOM     40  C   UNL     1     -43.854  40.041  28.270  1.00  0.00     0.076 A 
ATOM     41  H   UNL     1     -45.356  39.308  26.978  1.00  0.00     0.069 H 
ATOM     42  C   UNL     1     -43.183  39.864  29.495  1.00  0.00     0.001 A 
ATOM     43  H   UNL     1     -43.007  38.650  31.285  1.00  0.00     0.063 H 
ATOM     44  N   UNL     1     -43.573  41.057  27.435  1.00  0.00    -0.231 NA
ATOM     45  C   UNL     1     -42.188  40.785  29.831  1.00  0.00    -0.049 A 
ATOM     46  C   UNL     1     -42.618  41.947  27.773  1.00  0.00     0.126 A 
ATOM     47  C   UNL     1     -41.902  41.830  28.959  1.00  0.00    -0.019 A 
ATOM     48  H   UNL     1     -41.630  40.693  30.758  1.00  0.00     0.063 H 
ATOM     49  H   UNL     1     -41.118  42.540  29.201  1.00  0.00     0.066 H 
BRANCH  46  50
ATOM     50  N   UNL     1     -42.284  43.002  26.905  1.00  0.00    -0.373 N 
ATOM     51  H   UNL     1     -42.374  43.882  27.405  1.00  0.00     0.161 HD
BRANCH  50  52
ATOM     52  C   UNL     1     -43.037  43.010  25.660  1.00  0.00     0.005 C 
ATOM     53  H   UNL     1     -43.703  42.141  25.643  1.00  0.00     0.045 H 
ATOM     54  H   UNL     1     -43.664  43.904  25.575  1.00  0.00     0.045 H 
ATOM     55  H   UNL     1     -42.377  42.937  24.789  1.00  0.00     0.045 H 
ENDBRANCH  50  52
ENDBRANCH  46  50
ENDBRANCH  34  35
ENDBRANCH   1  34
TORSDOF 9
ENDMDL
