MODEL 1
REMARK VINA RESULT:      -9.7      0.000      0.000
REMARK SMILES CN(C)C(=O)c1ccc(OCc2cncc(-n3cc(-c4ccn(C)n4)c4c(N)ncnc43)c2)cc1N
REMARK SMILES IDX 11 1 10 4 9 5 6 6 7 7 35 8 8 9 34 11 4 14 2 15 5 16 1 17
REMARK SMILES IDX 3 21 36 25 12 28 13 29 33 30 14 31 16 33 15 35 17 37 18 38
REMARK SMILES IDX 32 39 19 40 26 42 31 43 27 44 30 45 29 46 20 48 21 49 25 50
REMARK SMILES IDX 22 51 23 53 24 55 28 59
REMARK H PARENT 11 2 11 3 7 10 8 12 34 13 1 18 1 19 1 20 3 22 3 23 3 24 36 26
REMARK H PARENT 36 27 13 32 33 34 15 36 18 41 30 47 21 52 22 54 24 56 24 57
REMARK H PARENT 24 58 28 60 28 61
REMARK Flexibility Score: inf
ROOT
ATOM      1  C   UNL     1     -45.854  34.572  27.492  1.00  0.00     0.115 C 
ATOM      2  H   UNL     1     -45.007  34.595  26.795  1.00  0.00     0.076 H 
ATOM      3  H   UNL     1     -45.765  33.704  28.156  1.00  0.00     0.076 H 
ENDROOT
BRANCH   1   4
ATOM      4  O   UNL     1     -47.089  34.499  26.781  1.00  0.00    -0.489 OA
BRANCH   4   5
ATOM      5  C   UNL     1     -47.275  33.423  25.957  1.00  0.00     0.121 A 
ATOM      6  C   UNL     1     -47.901  31.167  24.425  1.00  0.00     0.063 A 
ATOM      7  C   UNL     1     -48.864  31.725  25.276  1.00  0.00    -0.044 A 
ATOM      8  C   UNL     1     -46.645  31.783  24.263  1.00  0.00     0.048 A 
ATOM      9  C   UNL     1     -48.546  32.850  26.037  1.00  0.00    -0.019 A 
ATOM     10  H   UNL     1     -49.855  31.287  25.349  1.00  0.00     0.063 H 
ATOM     11  C   UNL     1     -46.329  32.878  25.083  1.00  0.00     0.004 A 
ATOM     12  H   UNL     1     -49.291  33.277  26.704  1.00  0.00     0.066 H 
ATOM     13  H   UNL     1     -45.327  33.292  25.015  1.00  0.00     0.068 H 
BRANCH   6  14
ATOM     14  C   UNL     1     -48.259  29.970  23.621  1.00  0.00     0.255 C 
ATOM     15  N   UNL     1     -48.954  30.138  22.422  1.00  0.00    -0.345 N 
ATOM     16  O   UNL     1     -47.902  28.871  24.046  1.00  0.00    -0.269 OA
BRANCH  15  17
ATOM     17  C   UNL     1     -49.822  31.276  22.145  1.00  0.00     0.009 C 
ATOM     18  H   UNL     1     -49.344  32.182  22.532  1.00  0.00     0.046 H 
ATOM     19  H   UNL     1     -50.004  31.426  21.080  1.00  0.00     0.046 H 
ATOM     20  H   UNL     1     -50.775  31.122  22.660  1.00  0.00     0.046 H 
ENDBRANCH  15  17
BRANCH  15  21
ATOM     21  C   UNL     1     -49.169  28.963  21.596  1.00  0.00     0.009 C 
ATOM     22  H   UNL     1     -48.785  28.085  22.126  1.00  0.00     0.046 H 
ATOM     23  H   UNL     1     -48.650  29.055  20.638  1.00  0.00     0.046 H 
ATOM     24  H   UNL     1     -50.239  28.844  21.408  1.00  0.00     0.046 H 
ENDBRANCH  15  21
ENDBRANCH   6  14
BRANCH   8  25
ATOM     25  N   UNL     1     -45.626  31.210  23.474  1.00  0.00    -0.398 N 
ATOM     26  H   UNL     1     -45.916  30.375  22.975  1.00  0.00     0.156 HD
ATOM     27  H   UNL     1     -44.789  31.022  24.039  1.00  0.00     0.156 HD
ENDBRANCH   8  25
ENDBRANCH   4   5
ENDBRANCH   1   4
BRANCH   1  28
ATOM     28  C   UNL     1     -45.827  35.838  28.306  1.00  0.00     0.010 A 
ATOM     29  C   UNL     1     -46.321  35.867  29.603  1.00  0.00     0.034 A 
ATOM     30  C   UNL     1     -45.351  37.043  27.766  1.00  0.00    -0.028 A 
ATOM     31  N   UNL     1     -46.358  36.977  30.370  1.00  0.00    -0.262 NA
ATOM     32  H   UNL     1     -46.714  34.971  30.079  1.00  0.00     0.084 H 
ATOM     33  C   UNL     1     -45.366  38.217  28.525  1.00  0.00     0.066 A 
ATOM     34  H   UNL     1     -44.957  37.020  26.757  1.00  0.00     0.065 H 
ATOM     35  C   UNL     1     -45.880  38.120  29.816  1.00  0.00     0.051 A 
ATOM     36  H   UNL     1     -45.961  38.965  30.489  1.00  0.00     0.086 H 
BRANCH  33  37
ATOM     37  N   UNL     1     -44.883  39.469  28.019  1.00  0.00    -0.299 N 
ATOM     38  C   UNL     1     -45.433  40.154  26.948  1.00  0.00     0.021 A 
ATOM     39  C   UNL     1     -43.806  40.227  28.483  1.00  0.00     0.150 A 
ATOM     40  C   UNL     1     -44.737  41.327  26.739  1.00  0.00     0.033 A 
ATOM     41  H   UNL     1     -46.308  39.790  26.430  1.00  0.00     0.083 H 
ATOM     42  C   UNL     1     -43.684  41.373  27.694  1.00  0.00     0.071 A 
ATOM     43  N   UNL     1     -42.989  39.908  29.509  1.00  0.00    -0.218 NA
ATOM     44  C   UNL     1     -42.619  42.241  28.003  1.00  0.00     0.137 A 
ATOM     45  C   UNL     1     -42.034  40.820  29.721  1.00  0.00     0.120 A 
ATOM     46  N   UNL     1     -41.813  41.953  29.042  1.00  0.00    -0.219 NA
ATOM     47  H   UNL     1     -41.352  40.620  30.541  1.00  0.00     0.106 H 
BRANCH  40  48
ATOM     48  C   UNL     1     -45.049  42.341  25.726  1.00  0.00     0.095 A 
ATOM     49  C   UNL     1     -46.160  43.212  25.783  1.00  0.00    -0.016 A 
ATOM     50  N   UNL     1     -44.293  42.572  24.645  1.00  0.00    -0.173 NA
ATOM     51  C   UNL     1     -46.055  43.998  24.658  1.00  0.00     0.025 A 
ATOM     52  H   UNL     1     -46.937  43.262  26.531  1.00  0.00     0.066 H 
ATOM     53  N   UNL     1     -44.931  43.576  24.013  1.00  0.00    -0.275 N 
ATOM     54  H   UNL     1     -46.674  44.797  24.275  1.00  0.00     0.084 H 
BRANCH  53  55
ATOM     55  C   UNL     1     -44.395  44.091  22.776  1.00  0.00     0.030 C 
ATOM     56  H   UNL     1     -43.948  43.275  22.205  1.00  0.00     0.048 H 
ATOM     57  H   UNL     1     -43.636  44.840  23.016  1.00  0.00     0.048 H 
ATOM     58  H   UNL     1     -45.213  44.540  22.208  1.00  0.00     0.048 H 
ENDBRANCH  53  55
ENDBRANCH  40  48
BRANCH  44  59
ATOM     59  N   UNL     1     -42.329  43.400  27.299  1.00  0.00    -0.383 N 
ATOM     60  H   UNL     1     -41.374  43.695  27.445  1.00  0.00     0.158 HD
ATOM     61  H   UNL     1     -43.055  44.115  27.404  1.00  0.00     0.158 HD
ENDBRANCH  44  59
ENDBRANCH  33  37
ENDBRANCH   1  28
TORSDOF 11
ENDMDL
MODEL 2
REMARK VINA RESULT:      -9.5      1.824      2.628
REMARK SMILES CN(C)C(=O)c1ccc(OCc2cncc(-n3cc(-c4ccn(C)n4)c4c(N)ncnc43)c2)cc1N
REMARK SMILES IDX 11 1 10 4 9 5 6 6 7 7 35 8 8 9 34 11 4 14 2 15 5 16 1 17
REMARK SMILES IDX 3 21 36 25 12 28 13 29 33 30 14 31 16 33 15 35 17 37 18 38
REMARK SMILES IDX 32 39 19 40 26 42 31 43 27 44 30 45 29 46 20 48 21 49 25 50
REMARK SMILES IDX 22 51 23 53 24 55 28 59
REMARK H PARENT 11 2 11 3 7 10 8 12 34 13 1 18 1 19 1 20 3 22 3 23 3 24 36 26
REMARK H PARENT 36 27 13 32 33 34 15 36 18 41 30 47 21 52 22 54 24 56 24 57
REMARK H PARENT 24 58 28 60 28 61
REMARK Flexibility Score: inf
ROOT
ATOM      1  C   UNL     1     -46.752  33.370  25.893  1.00  0.00     0.115 C 
ATOM      2  H   UNL     1     -46.318  33.620  24.917  1.00  0.00     0.076 H 
ATOM      3  H   UNL     1     -45.987  32.920  26.536  1.00  0.00     0.076 H 
ENDROOT
BRANCH   1   4
ATOM      4  O   UNL     1     -47.841  32.459  25.742  1.00  0.00    -0.489 OA
BRANCH   4   5
ATOM      5  C   UNL     1     -47.941  31.794  24.551  1.00  0.00     0.121 A 
ATOM      6  C   UNL     1     -48.435  30.436  22.155  1.00  0.00     0.063 A 
ATOM      7  C   UNL     1     -49.487  31.064  22.835  1.00  0.00    -0.044 A 
ATOM      8  C   UNL     1     -47.111  30.556  22.618  1.00  0.00     0.048 A 
ATOM      9  C   UNL     1     -49.234  31.741  24.028  1.00  0.00    -0.019 A 
ATOM     10  H   UNL     1     -50.499  31.027  22.440  1.00  0.00     0.063 H 
ATOM     11  C   UNL     1     -46.891  31.190  23.852  1.00  0.00     0.004 A 
ATOM     12  H   UNL     1     -50.053  32.220  24.560  1.00  0.00     0.066 H 
ATOM     13  H   UNL     1     -45.878  31.200  24.244  1.00  0.00     0.068 H 
BRANCH   6  14
ATOM     14  C   UNL     1     -48.725  29.723  20.885  1.00  0.00     0.255 C 
ATOM     15  N   UNL     1     -49.425  28.516  20.926  1.00  0.00    -0.345 N 
ATOM     16  O   UNL     1     -48.345  30.248  19.838  1.00  0.00    -0.269 OA
BRANCH  15  17
ATOM     17  C   UNL     1     -49.433  27.625  22.079  1.00  0.00     0.009 C 
ATOM     18  H   UNL     1     -49.189  26.613  21.739  1.00  0.00     0.046 H 
ATOM     19  H   UNL     1     -48.704  27.903  22.841  1.00  0.00     0.046 H 
ATOM     20  H   UNL     1     -50.437  27.628  22.515  1.00  0.00     0.046 H 
ENDBRANCH  15  17
BRANCH  15  21
ATOM     21  C   UNL     1     -49.809  27.916  19.660  1.00  0.00     0.009 C 
ATOM     22  H   UNL     1     -49.028  27.214  19.351  1.00  0.00     0.046 H 
ATOM     23  H   UNL     1     -49.931  28.676  18.884  1.00  0.00     0.046 H 
ATOM     24  H   UNL     1     -50.757  27.385  19.785  1.00  0.00     0.046 H 
ENDBRANCH  15  21
ENDBRANCH   6  14
BRANCH   8  25
ATOM     25  N   UNL     1     -46.039  29.876  22.004  1.00  0.00    -0.398 N 
ATOM     26  H   UNL     1     -46.215  28.888  21.851  1.00  0.00     0.156 HD
ATOM     27  H   UNL     1     -45.169  30.012  22.533  1.00  0.00     0.156 HD
ENDBRANCH   8  25
ENDBRANCH   4   5
ENDBRANCH   1   4
BRANCH   1  28
ATOM     28  C   UNL     1     -47.257  34.642  26.521  1.00  0.00     0.010 A 
ATOM     29  C   UNL     1     -48.567  34.749  26.970  1.00  0.00     0.034 A 
ATOM     30  C   UNL     1     -46.440  35.778  26.628  1.00  0.00    -0.028 A 
ATOM     31  N   UNL     1     -49.088  35.872  27.509  1.00  0.00    -0.262 NA
ATOM     32  H   UNL     1     -49.257  33.911  26.908  1.00  0.00     0.084 H 
ATOM     33  C   UNL     1     -46.936  36.962  27.183  1.00  0.00     0.066 A 
ATOM     34  H   UNL     1     -45.415  35.693  26.286  1.00  0.00     0.065 H 
ATOM     35  C   UNL     1     -48.264  36.945  27.604  1.00  0.00     0.051 A 
ATOM     36  H   UNL     1     -48.764  37.807  28.030  1.00  0.00     0.086 H 
BRANCH  33  37
ATOM     37  N   UNL     1     -46.137  38.144  27.320  1.00  0.00    -0.299 N 
ATOM     38  C   UNL     1     -46.137  39.206  26.432  1.00  0.00     0.021 A 
ATOM     39  C   UNL     1     -45.232  38.458  28.337  1.00  0.00     0.150 A 
ATOM     40  C   UNL     1     -45.267  40.182  26.874  1.00  0.00     0.033 A 
ATOM     41  H   UNL     1     -46.786  39.225  25.569  1.00  0.00     0.083 H 
ATOM     42  C   UNL     1     -44.667  39.707  28.072  1.00  0.00     0.071 A 
ATOM     43  N   UNL     1     -44.920  37.681  29.397  1.00  0.00    -0.218 NA
ATOM     44  C   UNL     1     -43.698  40.168  28.985  1.00  0.00     0.137 A 
ATOM     45  C   UNL     1     -44.009  38.237  30.203  1.00  0.00     0.120 A 
ATOM     46  N   UNL     1     -43.399  39.420  30.063  1.00  0.00    -0.219 NA
ATOM     47  H   UNL     1     -43.728  37.660  31.078  1.00  0.00     0.106 H 
BRANCH  40  48
ATOM     48  C   UNL     1     -45.031  41.477  26.226  1.00  0.00     0.095 A 
ATOM     49  C   UNL     1     -44.175  41.674  25.119  1.00  0.00    -0.016 A 
ATOM     50  N   UNL     1     -45.627  42.618  26.600  1.00  0.00    -0.173 NA
ATOM     51  C   UNL     1     -44.267  43.016  24.830  1.00  0.00     0.025 A 
ATOM     52  H   UNL     1     -43.568  40.945  24.602  1.00  0.00     0.066 H 
ATOM     53  N   UNL     1     -45.140  43.533  25.740  1.00  0.00    -0.275 N 
ATOM     54  H   UNL     1     -43.793  43.625  24.074  1.00  0.00     0.084 H 
BRANCH  53  55
ATOM     55  C   UNL     1     -45.563  44.909  25.852  1.00  0.00     0.030 C 
ATOM     56  H   UNL     1     -44.698  45.566  25.739  1.00  0.00     0.048 H 
ATOM     57  H   UNL     1     -46.014  45.050  26.837  1.00  0.00     0.048 H 
ATOM     58  H   UNL     1     -46.291  45.109  25.063  1.00  0.00     0.048 H 
ENDBRANCH  53  55
ENDBRANCH  40  48
BRANCH  44  59
ATOM     59  N   UNL     1     -43.011  41.365  28.853  1.00  0.00    -0.383 N 
ATOM     60  H   UNL     1     -42.011  41.220  28.836  1.00  0.00     0.158 HD
ATOM     61  H   UNL     1     -43.362  42.091  29.484  1.00  0.00     0.158 HD
ENDBRANCH  44  59
ENDBRANCH  33  37
ENDBRANCH   1  28
TORSDOF 11
ENDMDL
MODEL 3
REMARK VINA RESULT:      -9.4      1.920      2.906
REMARK SMILES CN(C)C(=O)c1ccc(OCc2cncc(-n3cc(-c4ccn(C)n4)c4c(N)ncnc43)c2)cc1N
REMARK SMILES IDX 11 1 10 4 9 5 6 6 7 7 35 8 8 9 34 11 4 14 2 15 5 16 1 17
REMARK SMILES IDX 3 21 36 25 12 28 13 29 33 30 14 31 16 33 15 35 17 37 18 38
REMARK SMILES IDX 32 39 19 40 26 42 31 43 27 44 30 45 29 46 20 48 21 49 25 50
REMARK SMILES IDX 22 51 23 53 24 55 28 59
REMARK H PARENT 11 2 11 3 7 10 8 12 34 13 1 18 1 19 1 20 3 22 3 23 3 24 36 26
REMARK H PARENT 36 27 13 32 33 34 15 36 18 41 30 47 21 52 22 54 24 56 24 57
REMARK H PARENT 24 58 28 60 28 61
REMARK Flexibility Score: inf
ROOT
ATOM      1  C   UNL     1     -47.670  35.058  26.571  1.00  0.00     0.115 C 
ATOM      2  H   UNL     1     -48.638  34.981  27.081  1.00  0.00     0.076 H 
ATOM      3  H   UNL     1     -47.823  35.321  25.518  1.00  0.00     0.076 H 
ENDROOT
BRANCH   1   4
ATOM      4  O   UNL     1     -46.960  33.822  26.650  1.00  0.00    -0.489 OA
BRANCH   4   5
ATOM      5  C   UNL     1     -47.173  32.912  25.651  1.00  0.00     0.121 A 
ATOM      6  C   UNL     1     -47.884  31.032  23.705  1.00  0.00     0.063 A 
ATOM      7  C   UNL     1     -48.879  31.684  24.447  1.00  0.00    -0.044 A 
ATOM      8  C   UNL     1     -46.529  31.378  23.866  1.00  0.00     0.048 A 
ATOM      9  C   UNL     1     -48.518  32.620  25.415  1.00  0.00    -0.019 A 
ATOM     10  H   UNL     1     -49.928  31.464  24.274  1.00  0.00     0.063 H 
ATOM     11  C   UNL     1     -46.187  32.279  24.888  1.00  0.00     0.004 A 
ATOM     12  H   UNL     1     -49.289  33.119  25.997  1.00  0.00     0.066 H 
ATOM     13  H   UNL     1     -45.133  32.472  25.063  1.00  0.00     0.068 H 
BRANCH   6  14
ATOM     14  C   UNL     1     -48.289  30.039  22.677  1.00  0.00     0.255 C 
ATOM     15  N   UNL     1     -48.751  28.786  23.085  1.00  0.00    -0.345 N 
ATOM     16  O   UNL     1     -48.216  30.380  21.496  1.00  0.00    -0.269 OA
BRANCH  15  17
ATOM     17  C   UNL     1     -48.381  28.161  24.348  1.00  0.00     0.009 C 
ATOM     18  H   UNL     1     -48.378  28.928  25.130  1.00  0.00     0.046 H 
ATOM     19  H   UNL     1     -49.074  27.377  24.657  1.00  0.00     0.046 H 
ATOM     20  H   UNL     1     -47.376  27.742  24.249  1.00  0.00     0.046 H 
ENDBRANCH  15  17
BRANCH  15  21
ATOM     21  C   UNL     1     -49.265  27.892  22.063  1.00  0.00     0.009 C 
ATOM     22  H   UNL     1     -49.125  28.358  21.082  1.00  0.00     0.046 H 
ATOM     23  H   UNL     1     -50.330  27.692  22.213  1.00  0.00     0.046 H 
ATOM     24  H   UNL     1     -48.720  26.945  22.104  1.00  0.00     0.046 H 
ENDBRANCH  15  21
ENDBRANCH   6  14
BRANCH   8  25
ATOM     25  N   UNL     1     -45.496  30.691  23.194  1.00  0.00    -0.398 N 
ATOM     26  H   UNL     1     -45.813  29.871  22.687  1.00  0.00     0.156 HD
ATOM     27  H   UNL     1     -44.738  30.448  23.841  1.00  0.00     0.156 HD
ENDBRANCH   8  25
ENDBRANCH   4   5
ENDBRANCH   1   4
BRANCH   1  28
ATOM     28  C   UNL     1     -46.865  36.133  27.250  1.00  0.00     0.010 A 
ATOM     29  C   UNL     1     -46.242  35.901  28.469  1.00  0.00     0.034 A 
ATOM     30  C   UNL     1     -46.759  37.421  26.703  1.00  0.00    -0.028 A 
ATOM     31  N   UNL     1     -45.537  36.834  29.144  1.00  0.00    -0.262 NA
ATOM     32  H   UNL     1     -46.292  34.928  28.954  1.00  0.00     0.084 H 
ATOM     33  C   UNL     1     -46.036  38.419  27.365  1.00  0.00     0.066 A 
ATOM     34  H   UNL     1     -47.238  37.602  25.747  1.00  0.00     0.065 H 
ATOM     35  C   UNL     1     -45.449  38.064  28.577  1.00  0.00     0.051 A 
ATOM     36  H   UNL     1     -44.883  38.756  29.189  1.00  0.00     0.086 H 
BRANCH  33  37
ATOM     37  N   UNL     1     -45.894  39.745  26.841  1.00  0.00    -0.299 N 
ATOM     38  C   UNL     1     -44.711  40.283  26.359  1.00  0.00     0.021 A 
ATOM     39  C   UNL     1     -46.877  40.729  26.709  1.00  0.00     0.150 A 
ATOM     40  C   UNL     1     -44.933  41.571  25.916  1.00  0.00     0.033 A 
ATOM     41  H   UNL     1     -43.800  39.705  26.317  1.00  0.00     0.083 H 
ATOM     42  C   UNL     1     -46.301  41.875  26.157  1.00  0.00     0.071 A 
ATOM     43  N   UNL     1     -48.171  40.617  27.075  1.00  0.00    -0.218 NA
ATOM     44  C   UNL     1     -47.148  42.987  25.985  1.00  0.00     0.137 A 
ATOM     45  C   UNL     1     -48.879  41.728  26.840  1.00  0.00     0.120 A 
ATOM     46  N   UNL     1     -48.448  42.883  26.317  1.00  0.00    -0.219 NA
ATOM     47  H   UNL     1     -49.931  41.692  27.107  1.00  0.00     0.106 H 
BRANCH  40  48
ATOM     48  C   UNL     1     -43.934  42.448  25.296  1.00  0.00     0.095 A 
ATOM     49  C   UNL     1     -42.734  42.861  25.918  1.00  0.00    -0.016 A 
ATOM     50  N   UNL     1     -44.038  42.933  24.051  1.00  0.00    -0.173 NA
ATOM     51  C   UNL     1     -42.099  43.646  24.984  1.00  0.00     0.025 A 
ATOM     52  H   UNL     1     -42.379  42.629  26.911  1.00  0.00     0.066 H 
ATOM     53  N   UNL     1     -42.916  43.660  23.893  1.00  0.00    -0.275 N 
ATOM     54  H   UNL     1     -41.161  44.182  25.009  1.00  0.00     0.084 H 
BRANCH  53  55
ATOM     55  C   UNL     1     -42.688  44.353  22.647  1.00  0.00     0.030 C 
ATOM     56  H   UNL     1     -42.460  45.402  22.850  1.00  0.00     0.048 H 
ATOM     57  H   UNL     1     -43.594  44.277  22.041  1.00  0.00     0.048 H 
ATOM     58  H   UNL     1     -41.845  43.878  22.139  1.00  0.00     0.048 H 
ENDBRANCH  53  55
ENDBRANCH  40  48
BRANCH  44  59
ATOM     59  N   UNL     1     -46.734  44.213  25.489  1.00  0.00    -0.383 N 
ATOM     60  H   UNL     1     -46.091  44.672  26.119  1.00  0.00     0.158 HD
ATOM     61  H   UNL     1     -47.511  44.776  25.131  1.00  0.00     0.158 HD
ENDBRANCH  44  59
ENDBRANCH  33  37
ENDBRANCH   1  28
TORSDOF 11
ENDMDL
MODEL 4
REMARK VINA RESULT:      -9.4      2.319      3.236
REMARK SMILES CN(C)C(=O)c1ccc(OCc2cncc(-n3cc(-c4ccn(C)n4)c4c(N)ncnc43)c2)cc1N
REMARK SMILES IDX 11 1 10 4 9 5 6 6 7 7 35 8 8 9 34 11 4 14 2 15 5 16 1 17
REMARK SMILES IDX 3 21 36 25 12 28 13 29 33 30 14 31 16 33 15 35 17 37 18 38
REMARK SMILES IDX 32 39 19 40 26 42 31 43 27 44 30 45 29 46 20 48 21 49 25 50
REMARK SMILES IDX 22 51 23 53 24 55 28 59
REMARK H PARENT 11 2 11 3 7 10 8 12 34 13 1 18 1 19 1 20 3 22 3 23 3 24 36 26
REMARK H PARENT 36 27 13 32 33 34 15 36 18 41 30 47 21 52 22 54 24 56 24 57
REMARK H PARENT 24 58 28 60 28 61
REMARK Flexibility Score: inf
ROOT
ATOM      1  C   UNL     1     -46.645  33.045  25.195  1.00  0.00     0.115 C 
ATOM      2  H   UNL     1     -45.740  33.383  24.675  1.00  0.00     0.076 H 
ATOM      3  H   UNL     1     -46.398  32.221  25.875  1.00  0.00     0.076 H 
ENDROOT
BRANCH   1   4
ATOM      4  O   UNL     1     -47.629  32.607  24.258  1.00  0.00    -0.489 OA
BRANCH   4   5
ATOM      5  C   UNL     1     -47.973  31.283  24.284  1.00  0.00     0.121 A 
ATOM      6  C   UNL     1     -48.904  28.654  24.502  1.00  0.00     0.063 A 
ATOM      7  C   UNL     1     -49.728  29.724  24.878  1.00  0.00    -0.044 A 
ATOM      8  C   UNL     1     -47.641  28.892  23.930  1.00  0.00     0.048 A 
ATOM      9  C   UNL     1     -49.259  31.032  24.766  1.00  0.00    -0.019 A 
ATOM     10  H   UNL     1     -50.730  29.540  25.257  1.00  0.00     0.063 H 
ATOM     11  C   UNL     1     -47.167  30.213  23.883  1.00  0.00     0.004 A 
ATOM     12  H   UNL     1     -49.895  31.861  25.067  1.00  0.00     0.066 H 
ATOM     13  H   UNL     1     -46.156  30.379  23.522  1.00  0.00     0.068 H 
BRANCH   6  14
ATOM     14  C   UNL     1     -49.423  27.268  24.627  1.00  0.00     0.255 C 
ATOM     15  N   UNL     1     -49.322  26.611  25.855  1.00  0.00    -0.345 N 
ATOM     16  O   UNL     1     -49.945  26.764  23.632  1.00  0.00    -0.269 OA
BRANCH  15  17
ATOM     17  C   UNL     1     -48.306  26.917  26.853  1.00  0.00     0.009 C 
ATOM     18  H   UNL     1     -47.456  26.242  26.704  1.00  0.00     0.046 H 
ATOM     19  H   UNL     1     -47.932  27.939  26.786  1.00  0.00     0.046 H 
ATOM     20  H   UNL     1     -48.731  26.748  27.847  1.00  0.00     0.046 H 
ENDBRANCH  15  17
BRANCH  15  21
ATOM     21  C   UNL     1     -49.960  25.312  25.979  1.00  0.00     0.009 C 
ATOM     22  H   UNL     1     -50.394  25.226  26.980  1.00  0.00     0.046 H 
ATOM     23  H   UNL     1     -49.238  24.504  25.834  1.00  0.00     0.046 H 
ATOM     24  H   UNL     1     -50.745  25.222  25.224  1.00  0.00     0.046 H 
ENDBRANCH  15  21
ENDBRANCH   6  14
BRANCH   8  25
ATOM     25  N   UNL     1     -46.754  27.842  23.610  1.00  0.00    -0.398 N 
ATOM     26  H   UNL     1     -46.445  27.308  24.416  1.00  0.00     0.156 HD
ATOM     27  H   UNL     1     -45.950  28.192  23.076  1.00  0.00     0.156 HD
ENDBRANCH   8  25
ENDBRANCH   4   5
ENDBRANCH   1   4
BRANCH   1  28
ATOM     28  C   UNL     1     -47.195  34.204  25.983  1.00  0.00     0.010 A 
ATOM     29  C   UNL     1     -48.488  34.177  26.490  1.00  0.00     0.034 A 
ATOM     30  C   UNL     1     -46.442  35.370  26.188  1.00  0.00    -0.028 A 
ATOM     31  N   UNL     1     -49.049  35.198  27.172  1.00  0.00    -0.262 NA
ATOM     32  H   UNL     1     -49.129  33.309  26.358  1.00  0.00     0.084 H 
ATOM     33  C   UNL     1     -46.981  36.451  26.893  1.00  0.00     0.066 A 
ATOM     34  H   UNL     1     -45.430  35.389  25.800  1.00  0.00     0.065 H 
ATOM     35  C   UNL     1     -48.286  36.304  27.358  1.00  0.00     0.051 A 
ATOM     36  H   UNL     1     -48.816  37.079  27.899  1.00  0.00     0.086 H 
BRANCH  33  37
ATOM     37  N   UNL     1     -46.247  37.658  27.134  1.00  0.00    -0.299 N 
ATOM     38  C   UNL     1     -46.220  38.750  26.282  1.00  0.00     0.021 A 
ATOM     39  C   UNL     1     -45.444  37.973  28.233  1.00  0.00     0.150 A 
ATOM     40  C   UNL     1     -45.432  39.744  26.826  1.00  0.00     0.033 A 
ATOM     41  H   UNL     1     -46.795  38.773  25.368  1.00  0.00     0.083 H 
ATOM     42  C   UNL     1     -44.913  39.252  28.055  1.00  0.00     0.071 A 
ATOM     43  N   UNL     1     -45.190  37.173  29.290  1.00  0.00    -0.218 NA
ATOM     44  C   UNL     1     -44.045  39.720  29.061  1.00  0.00     0.137 A 
ATOM     45  C   UNL     1     -44.374  37.736  30.188  1.00  0.00     0.120 A 
ATOM     46  N   UNL     1     -43.804  38.948  30.136  1.00  0.00    -0.219 NA
ATOM     47  H   UNL     1     -44.141  37.141  31.065  1.00  0.00     0.106 H 
BRANCH  40  48
ATOM     48  C   UNL     1     -45.198  41.069  26.241  1.00  0.00     0.095 A 
ATOM     49  C   UNL     1     -46.199  42.048  26.049  1.00  0.00    -0.016 A 
ATOM     50  N   UNL     1     -43.994  41.510  25.850  1.00  0.00    -0.173 NA
ATOM     51  C   UNL     1     -45.544  43.126  25.501  1.00  0.00     0.025 A 
ATOM     52  H   UNL     1     -47.254  41.981  26.271  1.00  0.00     0.066 H 
ATOM     53  N   UNL     1     -44.237  42.755  25.400  1.00  0.00    -0.275 N 
ATOM     54  H   UNL     1     -45.895  44.098  25.182  1.00  0.00     0.084 H 
BRANCH  53  55
ATOM     55  C   UNL     1     -43.148  43.547  24.879  1.00  0.00     0.030 C 
ATOM     56  H   UNL     1     -43.064  43.387  23.802  1.00  0.00     0.048 H 
ATOM     57  H   UNL     1     -42.227  43.234  25.377  1.00  0.00     0.048 H 
ATOM     58  H   UNL     1     -43.358  44.599  25.085  1.00  0.00     0.048 H 
ENDBRANCH  53  55
ENDBRANCH  40  48
BRANCH  44  59
ATOM     59  N   UNL     1     -43.401  40.947  29.025  1.00  0.00    -0.383 N 
ATOM     60  H   UNL     1     -43.961  41.648  28.562  1.00  0.00     0.158 HD
ATOM     61  H   UNL     1     -42.423  40.870  28.732  1.00  0.00     0.158 HD
ENDBRANCH  44  59
ENDBRANCH  33  37
ENDBRANCH   1  28
TORSDOF 11
ENDMDL
