MODEL 1
REMARK VINA RESULT:     -12.3      0.000      0.000
REMARK SMILES O=C(NCc1ccc2cc(CN3CC4(CCCCC4)C3)[nH]c2c1)c1cc(=O)n2ccccc2n1
REMARK SMILES IDX 5 1 6 2 7 3 8 4 9 5 10 6 21 7 22 8 23 9 4 15 3 18 1 19 2 20
REMARK SMILES IDX 24 22 25 23 34 24 26 25 33 27 27 28 28 29 32 30 29 31 31 32
REMARK SMILES IDX 30 34 11 38 12 41 13 42 20 43 14 44 15 49 19 50 16 51 18 54
REMARK SMILES IDX 17 57
REMARK H PARENT 6 10 7 11 9 12 21 13 23 14 4 16 4 17 3 21 25 26 32 33 29 35
REMARK H PARENT 31 36 30 37 11 39 11 40 13 45 13 46 20 47 20 48 15 52 15 53
REMARK H PARENT 19 55 19 56 16 58 16 59 18 60 18 61 17 62 17 63
REMARK Flexibility Score: inf
ROOT
ATOM      1  C   UNL     1     -47.818  34.938  26.898  1.00  0.00    -0.027 A 
ATOM      2  C   UNL     1     -46.528  34.799  26.366  1.00  0.00    -0.057 A 
ATOM      3  C   UNL     1     -46.227  33.781  25.453  1.00  0.00    -0.052 A 
ATOM      4  C   UNL     1     -47.234  32.875  25.072  1.00  0.00    -0.000 A 
ATOM      5  C   UNL     1     -47.280  31.757  24.193  1.00  0.00    -0.032 A 
ATOM      6  C   UNL     1     -48.562  31.245  24.220  1.00  0.00     0.030 A 
ATOM      7  N   UNL     1     -49.288  32.019  25.094  1.00  0.00    -0.357 N 
ATOM      8  C   UNL     1     -48.507  33.019  25.621  1.00  0.00     0.046 A 
ATOM      9  C   UNL     1     -48.828  34.031  26.533  1.00  0.00    -0.033 A 
ATOM     10  H   UNL     1     -45.741  35.490  26.660  1.00  0.00     0.063 H 
ATOM     11  H   UNL     1     -45.224  33.692  25.046  1.00  0.00     0.063 H 
ATOM     12  H   UNL     1     -46.458  31.371  23.605  1.00  0.00     0.065 H 
ATOM     13  H   UNL     1     -50.272  31.878  25.282  1.00  0.00     0.166 HD
ATOM     14  H   UNL     1     -49.828  34.112  26.948  1.00  0.00     0.065 H 
ENDROOT
BRANCH   1  15
ATOM     15  C   UNL     1     -48.109  36.021  27.902  1.00  0.00     0.043 C 
ATOM     16  H   UNL     1     -49.115  36.433  27.752  1.00  0.00     0.054 H 
ATOM     17  H   UNL     1     -48.081  35.625  28.924  1.00  0.00     0.054 H 
BRANCH  15  18
ATOM     18  N   UNL     1     -47.155  37.091  27.793  1.00  0.00    -0.347 N 
ATOM     19  O   UNL     1     -46.255  36.823  29.886  1.00  0.00    -0.268 OA
ATOM     20  C   UNL     1     -46.299  37.413  28.814  1.00  0.00     0.270 C 
ATOM     21  H   UNL     1     -47.116  37.661  26.953  1.00  0.00     0.164 HD
BRANCH  20  22
ATOM     22  C   UNL     1     -45.411  38.586  28.474  1.00  0.00     0.136 A 
ATOM     23  C   UNL     1     -45.715  39.259  27.362  1.00  0.00     0.035 A 
ATOM     24  N   UNL     1     -44.361  38.887  29.312  1.00  0.00    -0.225 NA
ATOM     25  C   UNL     1     -44.878  40.408  26.994  1.00  0.00     0.258 A 
ATOM     26  H   UNL     1     -46.543  39.014  26.710  1.00  0.00     0.071 H 
ATOM     27  C   UNL     1     -43.623  39.902  28.983  1.00  0.00     0.140 A 
ATOM     28  O   UNL     1     -45.149  41.034  25.971  1.00  0.00    -0.269 OA
ATOM     29  N   UNL     1     -43.826  40.690  27.855  1.00  0.00    -0.268 N 
ATOM     30  C   UNL     1     -42.476  40.265  29.861  1.00  0.00    -0.019 A 
ATOM     31  C   UNL     1     -42.989  41.764  27.572  1.00  0.00     0.014 A 
ATOM     32  C   UNL     1     -41.697  41.307  29.548  1.00  0.00    -0.057 A 
ATOM     33  H   UNL     1     -42.310  39.657  30.742  1.00  0.00     0.066 H 
ATOM     34  C   UNL     1     -41.959  42.084  28.366  1.00  0.00    -0.045 A 
ATOM     35  H   UNL     1     -43.206  42.336  26.674  1.00  0.00     0.082 H 
ATOM     36  H   UNL     1     -40.856  41.586  30.176  1.00  0.00     0.062 H 
ATOM     37  H   UNL     1     -41.312  42.924  28.136  1.00  0.00     0.064 H 
ENDBRANCH  20  22
ENDBRANCH  15  18
ENDBRANCH   1  15
BRANCH   6  38
ATOM     38  C   UNL     1     -49.172  30.082  23.507  1.00  0.00     0.039 C 
ATOM     39  H   UNL     1     -50.075  30.407  22.973  1.00  0.00     0.050 H 
ATOM     40  H   UNL     1     -48.457  29.748  22.744  1.00  0.00     0.050 H 
BRANCH  38  41
ATOM     41  N   UNL     1     -49.430  28.975  24.434  1.00  0.00    -0.296 NA
ATOM     42  C   UNL     1     -48.975  27.683  23.858  1.00  0.00     0.005 C 
ATOM     43  C   UNL     1     -48.343  28.883  25.440  1.00  0.00     0.005 C 
ATOM     44  C   UNL     1     -48.367  27.332  25.251  1.00  0.00    -0.004 C 
ATOM     45  H   UNL     1     -48.235  27.755  23.049  1.00  0.00     0.044 H 
ATOM     46  H   UNL     1     -49.784  27.029  23.518  1.00  0.00     0.044 H 
ATOM     47  H   UNL     1     -47.397  29.362  25.159  1.00  0.00     0.044 H 
ATOM     48  H   UNL     1     -48.621  29.247  26.434  1.00  0.00     0.044 H 
ATOM     49  C   UNL     1     -46.987  26.665  25.148  1.00  0.00    -0.045 C 
ATOM     50  C   UNL     1     -49.328  26.615  26.220  1.00  0.00    -0.045 C 
ATOM     51  C   UNL     1     -46.618  26.004  26.470  1.00  0.00    -0.053 C 
ATOM     52  H   UNL     1     -46.996  25.901  24.359  1.00  0.00     0.027 H 
ATOM     53  H   UNL     1     -46.216  27.392  24.867  1.00  0.00     0.027 H 
ATOM     54  C   UNL     1     -49.009  25.126  26.278  1.00  0.00    -0.053 C 
ATOM     55  H   UNL     1     -50.373  26.758  25.922  1.00  0.00     0.027 H 
ATOM     56  H   UNL     1     -49.229  27.036  27.229  1.00  0.00     0.027 H 
ATOM     57  C   UNL     1     -47.598  24.880  26.820  1.00  0.00    -0.053 C 
ATOM     58  H   UNL     1     -46.626  26.756  27.269  1.00  0.00     0.027 H 
ATOM     59  H   UNL     1     -45.600  25.602  26.426  1.00  0.00     0.027 H 
ATOM     60  H   UNL     1     -49.739  24.602  26.906  1.00  0.00     0.027 H 
ATOM     61  H   UNL     1     -49.092  24.696  25.272  1.00  0.00     0.027 H 
ATOM     62  H   UNL     1     -47.230  23.926  26.424  1.00  0.00     0.027 H 
ATOM     63  H   UNL     1     -47.632  24.769  27.911  1.00  0.00     0.027 H 
ENDBRANCH  38  41
ENDBRANCH   6  38
TORSDOF 5
ENDMDL
MODEL 2
REMARK VINA RESULT:     -12.0      1.245      2.016
REMARK SMILES O=C(NCc1ccc2cc(CN3CC4(CCCCC4)C3)[nH]c2c1)c1cc(=O)n2ccccc2n1
REMARK SMILES IDX 5 1 6 2 7 3 8 4 9 5 10 6 21 7 22 8 23 9 4 15 3 18 1 19 2 20
REMARK SMILES IDX 24 22 25 23 34 24 26 25 33 27 27 28 28 29 32 30 29 31 31 32
REMARK SMILES IDX 30 34 11 38 12 41 13 42 20 43 14 44 15 49 19 50 16 51 18 54
REMARK SMILES IDX 17 57
REMARK H PARENT 6 10 7 11 9 12 21 13 23 14 4 16 4 17 3 21 25 26 32 33 29 35
REMARK H PARENT 31 36 30 37 11 39 11 40 13 45 13 46 20 47 20 48 15 52 15 53
REMARK H PARENT 19 55 19 56 16 58 16 59 18 60 18 61 17 62 17 63
REMARK Flexibility Score: inf
ROOT
ATOM      1  C   UNL     1     -47.738  35.628  27.236  1.00  0.00    -0.027 A 
ATOM      2  C   UNL     1     -46.470  35.429  26.673  1.00  0.00    -0.057 A 
ATOM      3  C   UNL     1     -46.219  34.351  25.815  1.00  0.00    -0.052 A 
ATOM      4  C   UNL     1     -47.256  33.445  25.524  1.00  0.00    -0.000 A 
ATOM      5  C   UNL     1     -47.352  32.278  24.717  1.00  0.00    -0.032 A 
ATOM      6  C   UNL     1     -48.642  31.795  24.817  1.00  0.00     0.030 A 
ATOM      7  N   UNL     1     -49.324  32.636  25.664  1.00  0.00    -0.357 N 
ATOM      8  C   UNL     1     -48.507  33.649  26.103  1.00  0.00     0.046 A 
ATOM      9  C   UNL     1     -48.778  34.722  26.961  1.00  0.00    -0.033 A 
ATOM     10  H   UNL     1     -45.660  36.120  26.898  1.00  0.00     0.063 H 
ATOM     11  H   UNL     1     -45.232  34.216  25.382  1.00  0.00     0.063 H 
ATOM     12  H   UNL     1     -46.558  31.839  24.127  1.00  0.00     0.065 H 
ATOM     13  H   UNL     1     -50.304  32.527  25.892  1.00  0.00     0.166 HD
ATOM     14  H   UNL     1     -49.761  34.850  27.402  1.00  0.00     0.065 H 
ENDROOT
BRANCH   1  15
ATOM     15  C   UNL     1     -47.975  36.776  28.180  1.00  0.00     0.043 C 
ATOM     16  H   UNL     1     -48.913  37.293  27.941  1.00  0.00     0.054 H 
ATOM     17  H   UNL     1     -48.068  36.420  29.213  1.00  0.00     0.054 H 
BRANCH  15  18
ATOM     18  N   UNL     1     -46.898  37.726  28.112  1.00  0.00    -0.347 N 
ATOM     19  O   UNL     1     -45.954  37.164  30.126  1.00  0.00    -0.268 OA
ATOM     20  C   UNL     1     -45.967  37.849  29.110  1.00  0.00     0.270 C 
ATOM     21  H   UNL     1     -46.821  38.360  27.322  1.00  0.00     0.164 HD
BRANCH  20  22
ATOM     22  C   UNL     1     -44.952  38.929  28.824  1.00  0.00     0.136 A 
ATOM     23  C   UNL     1     -43.988  39.095  29.733  1.00  0.00     0.035 A 
ATOM     24  N   UNL     1     -45.076  39.665  27.667  1.00  0.00    -0.225 NA
ATOM     25  C   UNL     1     -42.979  40.135  29.494  1.00  0.00     0.258 A 
ATOM     26  H   UNL     1     -43.900  38.511  30.639  1.00  0.00     0.071 H 
ATOM     27  C   UNL     1     -44.183  40.583  27.460  1.00  0.00     0.140 A 
ATOM     28  O   UNL     1     -42.088  40.296  30.325  1.00  0.00    -0.269 OA
ATOM     29  N   UNL     1     -43.127  40.862  28.321  1.00  0.00    -0.268 N 
ATOM     30  C   UNL     1     -44.278  41.403  26.220  1.00  0.00    -0.019 A 
ATOM     31  C   UNL     1     -42.209  41.865  28.025  1.00  0.00     0.014 A 
ATOM     32  C   UNL     1     -43.371  42.358  25.979  1.00  0.00    -0.057 A 
ATOM     33  H   UNL     1     -45.097  41.193  25.543  1.00  0.00     0.066 H 
ATOM     34  C   UNL     1     -42.301  42.599  26.909  1.00  0.00    -0.045 A 
ATOM     35  H   UNL     1     -41.409  42.029  28.743  1.00  0.00     0.082 H 
ATOM     36  H   UNL     1     -43.424  42.966  25.081  1.00  0.00     0.062 H 
ATOM     37  H   UNL     1     -41.579  43.378  26.689  1.00  0.00     0.064 H 
ENDBRANCH  20  22
ENDBRANCH  15  18
ENDBRANCH   1  15
BRANCH   6  38
ATOM     38  C   UNL     1     -49.298  30.605  24.197  1.00  0.00     0.039 C 
ATOM     39  H   UNL     1     -50.303  30.472  24.621  1.00  0.00     0.050 H 
ATOM     40  H   UNL     1     -49.431  30.817  23.128  1.00  0.00     0.050 H 
BRANCH  38  41
ATOM     41  N   UNL     1     -48.461  29.409  24.342  1.00  0.00    -0.296 NA
ATOM     42  C   UNL     1     -48.277  29.058  25.774  1.00  0.00     0.005 C 
ATOM     43  C   UNL     1     -49.281  28.183  24.172  1.00  0.00     0.005 C 
ATOM     44  C   UNL     1     -48.524  27.567  25.391  1.00  0.00    -0.004 C 
ATOM     45  H   UNL     1     -49.022  29.474  26.466  1.00  0.00     0.044 H 
ATOM     46  H   UNL     1     -47.282  29.286  26.172  1.00  0.00     0.044 H 
ATOM     47  H   UNL     1     -50.360  28.313  24.324  1.00  0.00     0.044 H 
ATOM     48  H   UNL     1     -49.136  27.677  23.213  1.00  0.00     0.044 H 
ATOM     49  C   UNL     1     -49.410  26.829  26.406  1.00  0.00    -0.045 C 
ATOM     50  C   UNL     1     -47.260  26.779  24.988  1.00  0.00    -0.045 C 
ATOM     51  C   UNL     1     -49.303  25.323  26.206  1.00  0.00    -0.053 C 
ATOM     52  H   UNL     1     -49.095  27.075  27.429  1.00  0.00     0.027 H 
ATOM     53  H   UNL     1     -50.456  27.144  26.320  1.00  0.00     0.027 H 
ATOM     54  C   UNL     1     -46.811  25.878  26.131  1.00  0.00    -0.053 C 
ATOM     55  H   UNL     1     -46.444  27.455  24.707  1.00  0.00     0.027 H 
ATOM     56  H   UNL     1     -47.469  26.157  24.108  1.00  0.00     0.027 H 
ATOM     57  C   UNL     1     -47.876  24.829  26.464  1.00  0.00    -0.053 C 
ATOM     58  H   UNL     1     -49.597  25.069  25.179  1.00  0.00     0.027 H 
ATOM     59  H   UNL     1     -49.998  24.799  26.872  1.00  0.00     0.027 H 
ATOM     60  H   UNL     1     -45.870  25.376  25.875  1.00  0.00     0.027 H 
ATOM     61  H   UNL     1     -46.612  26.488  27.021  1.00  0.00     0.027 H 
ATOM     62  H   UNL     1     -47.766  24.536  27.514  1.00  0.00     0.027 H 
ATOM     63  H   UNL     1     -47.705  23.922  25.871  1.00  0.00     0.027 H 
ENDBRANCH  38  41
ENDBRANCH   6  38
TORSDOF 5
ENDMDL
MODEL 3
REMARK VINA RESULT:     -11.0      1.689      2.489
REMARK SMILES O=C(NCc1ccc2cc(CN3CC4(CCCCC4)C3)[nH]c2c1)c1cc(=O)n2ccccc2n1
REMARK SMILES IDX 5 1 6 2 7 3 8 4 9 5 10 6 21 7 22 8 23 9 4 15 3 18 1 19 2 20
REMARK SMILES IDX 24 22 25 23 34 24 26 25 33 27 27 28 28 29 32 30 29 31 31 32
REMARK SMILES IDX 30 34 11 38 12 41 13 42 20 43 14 44 15 49 19 50 16 51 18 54
REMARK SMILES IDX 17 57
REMARK H PARENT 6 10 7 11 9 12 21 13 23 14 4 16 4 17 3 21 25 26 32 33 29 35
REMARK H PARENT 31 36 30 37 11 39 11 40 13 45 13 46 20 47 20 48 15 52 15 53
REMARK H PARENT 19 55 19 56 16 58 16 59 18 60 18 61 17 62 17 63
REMARK Flexibility Score: inf
ROOT
ATOM      1  C   UNL     1     -46.312  35.633  27.801  1.00  0.00    -0.027 A 
ATOM      2  C   UNL     1     -47.696  35.799  27.654  1.00  0.00    -0.057 A 
ATOM      3  C   UNL     1     -48.448  34.938  26.844  1.00  0.00    -0.052 A 
ATOM      4  C   UNL     1     -47.798  33.895  26.158  1.00  0.00    -0.000 A 
ATOM      5  C   UNL     1     -48.236  32.864  25.281  1.00  0.00    -0.032 A 
ATOM      6  C   UNL     1     -47.133  32.120  24.911  1.00  0.00     0.030 A 
ATOM      7  N   UNL     1     -46.043  32.677  25.537  1.00  0.00    -0.357 N 
ATOM      8  C   UNL     1     -46.420  33.752  26.305  1.00  0.00     0.046 A 
ATOM      9  C   UNL     1     -45.652  34.601  27.110  1.00  0.00    -0.033 A 
ATOM     10  H   UNL     1     -48.205  36.607  28.174  1.00  0.00     0.063 H 
ATOM     11  H   UNL     1     -49.520  35.077  26.747  1.00  0.00     0.063 H 
ATOM     12  H   UNL     1     -49.254  32.689  24.956  1.00  0.00     0.065 H 
ATOM     13  H   UNL     1     -45.104  32.307  25.460  1.00  0.00     0.166 HD
ATOM     14  H   UNL     1     -44.578  34.468  27.199  1.00  0.00     0.065 H 
ENDROOT
BRANCH   1  15
ATOM     15  C   UNL     1     -45.521  36.590  28.652  1.00  0.00     0.043 C 
ATOM     16  H   UNL     1     -46.038  36.791  29.599  1.00  0.00     0.054 H 
ATOM     17  H   UNL     1     -44.544  36.167  28.912  1.00  0.00     0.054 H 
BRANCH  15  18
ATOM     18  N   UNL     1     -45.319  37.838  27.966  1.00  0.00    -0.347 N 
ATOM     19  O   UNL     1     -44.254  38.896  29.701  1.00  0.00    -0.268 OA
ATOM     20  C   UNL     1     -44.699  38.907  28.560  1.00  0.00     0.270 C 
ATOM     21  H   UNL     1     -45.666  37.966  27.020  1.00  0.00     0.164 HD
BRANCH  20  22
ATOM     22  C   UNL     1     -44.627  40.110  27.651  1.00  0.00     0.136 A 
ATOM     23  C   UNL     1     -45.782  40.529  27.128  1.00  0.00     0.035 A 
ATOM     24  N   UNL     1     -43.402  40.693  27.420  1.00  0.00    -0.225 NA
ATOM     25  C   UNL     1     -45.758  41.698  26.239  1.00  0.00     0.258 A 
ATOM     26  H   UNL     1     -46.740  40.063  27.317  1.00  0.00     0.071 H 
ATOM     27  C   UNL     1     -43.385  41.725  26.634  1.00  0.00     0.140 A 
ATOM     28  O   UNL     1     -46.816  42.092  25.752  1.00  0.00    -0.269 OA
ATOM     29  N   UNL     1     -44.511  42.267  26.023  1.00  0.00    -0.268 N 
ATOM     30  C   UNL     1     -42.081  42.389  26.356  1.00  0.00    -0.019 A 
ATOM     31  C   UNL     1     -44.408  43.378  25.191  1.00  0.00     0.014 A 
ATOM     32  C   UNL     1     -42.032  43.455  25.548  1.00  0.00    -0.057 A 
ATOM     33  H   UNL     1     -41.199  41.974  26.827  1.00  0.00     0.066 H 
ATOM     34  C   UNL     1     -43.232  43.969  24.945  1.00  0.00    -0.045 A 
ATOM     35  H   UNL     1     -45.329  43.748  24.747  1.00  0.00     0.082 H 
ATOM     36  H   UNL     1     -41.091  43.952  25.333  1.00  0.00     0.062 H 
ATOM     37  H   UNL     1     -43.164  44.835  24.295  1.00  0.00     0.064 H 
ENDBRANCH  20  22
ENDBRANCH  15  18
ENDBRANCH   1  15
BRANCH   6  38
ATOM     38  C   UNL     1     -47.002  30.936  24.011  1.00  0.00     0.039 C 
ATOM     39  H   UNL     1     -46.861  31.271  22.974  1.00  0.00     0.050 H 
ATOM     40  H   UNL     1     -46.087  30.401  24.296  1.00  0.00     0.050 H 
BRANCH  38  41
ATOM     41  N   UNL     1     -48.146  30.031  24.163  1.00  0.00    -0.296 NA
ATOM     42  C   UNL     1     -47.821  28.671  23.659  1.00  0.00     0.005 C 
ATOM     43  C   UNL     1     -48.190  29.484  25.542  1.00  0.00     0.005 C 
ATOM     44  C   UNL     1     -48.520  28.088  24.925  1.00  0.00    -0.004 C 
ATOM     45  H   UNL     1     -46.750  28.434  23.587  1.00  0.00     0.044 H 
ATOM     46  H   UNL     1     -48.288  28.419  22.702  1.00  0.00     0.044 H 
ATOM     47  H   UNL     1     -47.244  29.525  26.096  1.00  0.00     0.044 H 
ATOM     48  H   UNL     1     -48.968  29.924  26.174  1.00  0.00     0.044 H 
ATOM     49  C   UNL     1     -47.755  26.905  25.537  1.00  0.00    -0.045 C 
ATOM     50  C   UNL     1     -50.034  27.831  24.773  1.00  0.00    -0.045 C 
ATOM     51  C   UNL     1     -48.649  26.140  26.505  1.00  0.00    -0.053 C 
ATOM     52  H   UNL     1     -47.423  26.221  24.745  1.00  0.00     0.027 H 
ATOM     53  H   UNL     1     -46.850  27.244  26.053  1.00  0.00     0.027 H 
ATOM     54  C   UNL     1     -50.302  26.345  24.568  1.00  0.00    -0.053 C 
ATOM     55  H   UNL     1     -50.451  28.402  23.935  1.00  0.00     0.027 H 
ATOM     56  H   UNL     1     -50.564  28.165  25.674  1.00  0.00     0.027 H 
ATOM     57  C   UNL     1     -49.852  25.527  25.782  1.00  0.00    -0.053 C 
ATOM     58  H   UNL     1     -49.003  26.820  27.290  1.00  0.00     0.027 H 
ATOM     59  H   UNL     1     -48.081  25.348  27.006  1.00  0.00     0.027 H 
ATOM     60  H   UNL     1     -51.368  26.171  24.383  1.00  0.00     0.027 H 
ATOM     61  H   UNL     1     -49.765  25.998  23.677  1.00  0.00     0.027 H 
ATOM     62  H   UNL     1     -49.612  24.510  25.451  1.00  0.00     0.027 H 
ATOM     63  H   UNL     1     -50.681  25.432  26.495  1.00  0.00     0.027 H 
ENDBRANCH  38  41
ENDBRANCH   6  38
TORSDOF 5
ENDMDL
MODEL 4
REMARK VINA RESULT:     -10.9      2.528      4.632
REMARK SMILES O=C(NCc1ccc2cc(CN3CC4(CCCCC4)C3)[nH]c2c1)c1cc(=O)n2ccccc2n1
REMARK SMILES IDX 5 1 6 2 7 3 8 4 9 5 10 6 21 7 22 8 23 9 4 15 3 18 1 19 2 20
REMARK SMILES IDX 24 22 25 23 34 24 26 25 33 27 27 28 28 29 32 30 29 31 31 32
REMARK SMILES IDX 30 34 11 38 12 41 13 42 20 43 14 44 15 49 19 50 16 51 18 54
REMARK SMILES IDX 17 57
REMARK H PARENT 6 10 7 11 9 12 21 13 23 14 4 16 4 17 3 21 25 26 32 33 29 35
REMARK H PARENT 31 36 30 37 11 39 11 40 13 45 13 46 20 47 20 48 15 52 15 53
REMARK H PARENT 19 55 19 56 16 58 16 59 18 60 18 61 17 62 17 63
REMARK Flexibility Score: inf
ROOT
ATOM      1  C   UNL     1     -45.494  37.742  28.293  1.00  0.00    -0.027 A 
ATOM      2  C   UNL     1     -46.632  38.153  27.585  1.00  0.00    -0.057 A 
ATOM      3  C   UNL     1     -47.429  37.231  26.895  1.00  0.00    -0.052 A 
ATOM      4  C   UNL     1     -47.073  35.869  26.905  1.00  0.00    -0.000 A 
ATOM      5  C   UNL     1     -47.637  34.695  26.333  1.00  0.00    -0.032 A 
ATOM      6  C   UNL     1     -46.842  33.623  26.686  1.00  0.00     0.030 A 
ATOM      7  N   UNL     1     -45.812  34.119  27.450  1.00  0.00    -0.357 N 
ATOM      8  C   UNL     1     -45.932  35.479  27.603  1.00  0.00     0.046 A 
ATOM      9  C   UNL     1     -45.124  36.385  28.300  1.00  0.00    -0.033 A 
ATOM     10  H   UNL     1     -46.910  39.205  27.565  1.00  0.00     0.063 H 
ATOM     11  H   UNL     1     -48.310  37.566  26.356  1.00  0.00     0.063 H 
ATOM     12  H   UNL     1     -48.532  34.644  25.726  1.00  0.00     0.065 H 
ATOM     13  H   UNL     1     -45.093  33.540  27.865  1.00  0.00     0.166 HD
ATOM     14  H   UNL     1     -44.237  36.051  28.829  1.00  0.00     0.065 H 
ENDROOT
BRANCH   1  15
ATOM     15  C   UNL     1     -44.636  38.756  29.001  1.00  0.00     0.043 C 
ATOM     16  H   UNL     1     -45.107  39.083  29.937  1.00  0.00     0.054 H 
ATOM     17  H   UNL     1     -43.665  38.326  29.272  1.00  0.00     0.054 H 
BRANCH  15  18
ATOM     18  N   UNL     1     -44.417  39.910  28.171  1.00  0.00    -0.347 N 
ATOM     19  O   UNL     1     -42.516  40.618  29.242  1.00  0.00    -0.268 OA
ATOM     20  C   UNL     1     -43.363  40.763  28.369  1.00  0.00     0.270 C 
ATOM     21  H   UNL     1     -45.069  40.139  27.427  1.00  0.00     0.164 HD
BRANCH  20  22
ATOM     22  C   UNL     1     -43.359  41.913  27.391  1.00  0.00     0.136 A 
ATOM     23  C   UNL     1     -42.230  42.103  26.703  1.00  0.00     0.035 A 
ATOM     24  N   UNL     1     -44.494  42.680  27.266  1.00  0.00    -0.225 NA
ATOM     25  C   UNL     1     -42.183  43.210  25.739  1.00  0.00     0.258 A 
ATOM     26  H   UNL     1     -41.343  41.493  26.809  1.00  0.00     0.071 H 
ATOM     27  C   UNL     1     -44.447  43.658  26.414  1.00  0.00     0.140 A 
ATOM     28  O   UNL     1     -41.148  43.395  25.101  1.00  0.00    -0.269 OA
ATOM     29  N   UNL     1     -43.340  43.969  25.633  1.00  0.00    -0.268 N 
ATOM     30  C   UNL     1     -45.654  44.516  26.246  1.00  0.00    -0.019 A 
ATOM     31  C   UNL     1     -43.371  45.036  24.740  1.00  0.00     0.014 A 
ATOM     32  C   UNL     1     -45.637  45.532  25.374  1.00  0.00    -0.057 A 
ATOM     33  H   UNL     1     -46.522  44.281  26.850  1.00  0.00     0.066 H 
ATOM     34  C   UNL     1     -44.459  45.803  24.595  1.00  0.00    -0.045 A 
ATOM     35  H   UNL     1     -42.469  45.222  24.162  1.00  0.00     0.082 H 
ATOM     36  H   UNL     1     -46.506  46.167  25.238  1.00  0.00     0.062 H 
ATOM     37  H   UNL     1     -44.471  46.632  23.895  1.00  0.00     0.064 H 
ENDBRANCH  20  22
ENDBRANCH  15  18
ENDBRANCH   1  15
BRANCH   6  38
ATOM     38  C   UNL     1     -46.950  32.169  26.363  1.00  0.00     0.039 C 
ATOM     39  H   UNL     1     -45.946  31.726  26.306  1.00  0.00     0.050 H 
ATOM     40  H   UNL     1     -47.463  31.679  27.201  1.00  0.00     0.050 H 
BRANCH  38  41
ATOM     41  N   UNL     1     -47.732  31.959  25.140  1.00  0.00    -0.296 NA
ATOM     42  C   UNL     1     -46.892  31.366  24.067  1.00  0.00     0.005 C 
ATOM     43  C   UNL     1     -48.485  30.683  25.224  1.00  0.00     0.005 C 
ATOM     44  C   UNL     1     -48.073  30.400  23.744  1.00  0.00    -0.004 C 
ATOM     45  H   UNL     1     -45.976  30.860  24.403  1.00  0.00     0.044 H 
ATOM     46  H   UNL     1     -46.620  32.064  23.268  1.00  0.00     0.044 H 
ATOM     47  H   UNL     1     -48.101  29.955  25.950  1.00  0.00     0.044 H 
ATOM     48  H   UNL     1     -49.557  30.806  25.407  1.00  0.00     0.044 H 
ATOM     49  C   UNL     1     -47.608  28.964  23.458  1.00  0.00    -0.045 C 
ATOM     50  C   UNL     1     -49.091  30.935  22.716  1.00  0.00    -0.045 C 
ATOM     51  C   UNL     1     -48.720  28.172  22.782  1.00  0.00    -0.053 C 
ATOM     52  H   UNL     1     -46.730  28.978  22.798  1.00  0.00     0.027 H 
ATOM     53  H   UNL     1     -47.296  28.459  24.378  1.00  0.00     0.027 H 
ATOM     54  C   UNL     1     -48.862  30.286  21.356  1.00  0.00    -0.053 C 
ATOM     55  H   UNL     1     -49.024  32.025  22.622  1.00  0.00     0.027 H 
ATOM     56  H   UNL     1     -50.113  30.711  23.046  1.00  0.00     0.027 H 
ATOM     57  C   UNL     1     -49.080  28.772  21.420  1.00  0.00    -0.053 C 
ATOM     58  H   UNL     1     -49.609  28.170  23.426  1.00  0.00     0.027 H 
ATOM     59  H   UNL     1     -48.420  27.126  22.654  1.00  0.00     0.027 H 
ATOM     60  H   UNL     1     -49.533  30.722  20.607  1.00  0.00     0.027 H 
ATOM     61  H   UNL     1     -47.838  30.493  21.021  1.00  0.00     0.027 H 
ATOM     62  H   UNL     1     -48.482  28.297  20.632  1.00  0.00     0.027 H 
ATOM     63  H   UNL     1     -50.127  28.535  21.196  1.00  0.00     0.027 H 
ENDBRANCH  38  41
ENDBRANCH   6  38
TORSDOF 5
ENDMDL
MODEL 5
REMARK VINA RESULT:     -10.8      2.182      3.419
REMARK SMILES O=C(NCc1ccc2cc(CN3CC4(CCCCC4)C3)[nH]c2c1)c1cc(=O)n2ccccc2n1
REMARK SMILES IDX 5 1 6 2 7 3 8 4 9 5 10 6 21 7 22 8 23 9 4 15 3 18 1 19 2 20
REMARK SMILES IDX 24 22 25 23 34 24 26 25 33 27 27 28 28 29 32 30 29 31 31 32
REMARK SMILES IDX 30 34 11 38 12 41 13 42 20 43 14 44 15 49 19 50 16 51 18 54
REMARK SMILES IDX 17 57
REMARK H PARENT 6 10 7 11 9 12 21 13 23 14 4 16 4 17 3 21 25 26 32 33 29 35
REMARK H PARENT 31 36 30 37 11 39 11 40 13 45 13 46 20 47 20 48 15 52 15 53
REMARK H PARENT 19 55 19 56 16 58 16 59 18 60 18 61 17 62 17 63
REMARK Flexibility Score: inf
ROOT
ATOM      1  C   UNL     1     -46.671  35.723  28.325  1.00  0.00    -0.027 A 
ATOM      2  C   UNL     1     -48.019  35.792  27.949  1.00  0.00    -0.057 A 
ATOM      3  C   UNL     1     -48.522  35.003  26.906  1.00  0.00    -0.052 A 
ATOM      4  C   UNL     1     -47.654  34.134  26.218  1.00  0.00    -0.000 A 
ATOM      5  C   UNL     1     -47.820  33.216  25.145  1.00  0.00    -0.032 A 
ATOM      6  C   UNL     1     -46.595  32.633  24.889  1.00  0.00     0.030 A 
ATOM      7  N   UNL     1     -45.695  33.178  25.774  1.00  0.00    -0.357 N 
ATOM      8  C   UNL     1     -46.314  34.089  26.596  1.00  0.00     0.046 A 
ATOM      9  C   UNL     1     -45.793  34.868  27.636  1.00  0.00    -0.033 A 
ATOM     10  H   UNL     1     -48.696  36.466  28.470  1.00  0.00     0.063 H 
ATOM     11  H   UNL     1     -49.571  35.064  26.632  1.00  0.00     0.063 H 
ATOM     12  H   UNL     1     -48.741  33.006  24.617  1.00  0.00     0.065 H 
ATOM     13  H   UNL     1     -44.722  32.906  25.822  1.00  0.00     0.166 HD
ATOM     14  H   UNL     1     -44.742  34.814  27.902  1.00  0.00     0.065 H 
ENDROOT
BRANCH   1  15
ATOM     15  C   UNL     1     -46.147  36.604  29.428  1.00  0.00     0.043 C 
ATOM     16  H   UNL     1     -46.966  36.963  30.064  1.00  0.00     0.054 H 
ATOM     17  H   UNL     1     -45.463  36.048  30.080  1.00  0.00     0.054 H 
BRANCH  15  18
ATOM     18  N   UNL     1     -45.452  37.741  28.888  1.00  0.00    -0.347 N 
ATOM     19  O   UNL     1     -44.198  38.167  30.762  1.00  0.00    -0.268 OA
ATOM     20  C   UNL     1     -44.527  38.445  29.615  1.00  0.00     0.270 C 
ATOM     21  H   UNL     1     -45.660  38.073  27.951  1.00  0.00     0.164 HD
BRANCH  20  22
ATOM     22  C   UNL     1     -43.953  39.610  28.845  1.00  0.00     0.136 A 
ATOM     23  C   UNL     1     -42.930  40.251  29.414  1.00  0.00     0.035 A 
ATOM     24  N   UNL     1     -44.507  39.937  27.628  1.00  0.00    -0.225 NA
ATOM     25  C   UNL     1     -42.340  41.391  28.699  1.00  0.00     0.258 A 
ATOM     26  H   UNL     1     -42.502  39.985  30.371  1.00  0.00     0.071 H 
ATOM     27  C   UNL     1     -43.984  40.945  27.000  1.00  0.00     0.140 A 
ATOM     28  O   UNL     1     -41.398  41.988  29.214  1.00  0.00    -0.269 OA
ATOM     29  N   UNL     1     -42.917  41.699  27.474  1.00  0.00    -0.268 N 
ATOM     30  C   UNL     1     -44.551  41.334  25.679  1.00  0.00    -0.019 A 
ATOM     31  C   UNL     1     -42.413  42.767  26.739  1.00  0.00     0.014 A 
ATOM     32  C   UNL     1     -44.032  42.369  25.007  1.00  0.00    -0.057 A 
ATOM     33  H   UNL     1     -45.382  40.752  25.301  1.00  0.00     0.066 H 
ATOM     34  C   UNL     1     -42.927  43.111  25.552  1.00  0.00    -0.045 A 
ATOM     35  H   UNL     1     -41.578  43.313  27.170  1.00  0.00     0.082 H 
ATOM     36  H   UNL     1     -44.432  42.668  24.043  1.00  0.00     0.062 H 
ATOM     37  H   UNL     1     -42.526  43.946  24.986  1.00  0.00     0.064 H 
ENDBRANCH  20  22
ENDBRANCH  15  18
ENDBRANCH   1  15
BRANCH   6  38
ATOM     38  C   UNL     1     -46.182  31.614  23.878  1.00  0.00     0.039 C 
ATOM     39  H   UNL     1     -46.201  32.058  22.873  1.00  0.00     0.050 H 
ATOM     40  H   UNL     1     -45.138  31.344  24.084  1.00  0.00     0.050 H 
BRANCH  38  41
ATOM     41  N   UNL     1     -47.011  30.408  23.978  1.00  0.00    -0.296 NA
ATOM     42  C   UNL     1     -48.409  30.687  23.561  1.00  0.00     0.005 C 
ATOM     43  C   UNL     1     -46.842  29.565  22.768  1.00  0.00     0.005 C 
ATOM     44  C   UNL     1     -48.388  29.345  22.766  1.00  0.00    -0.004 C 
ATOM     45  H   UNL     1     -48.550  31.579  22.934  1.00  0.00     0.044 H 
ATOM     46  H   UNL     1     -49.127  30.737  24.386  1.00  0.00     0.044 H 
ATOM     47  H   UNL     1     -46.455  30.084  21.882  1.00  0.00     0.044 H 
ATOM     48  H   UNL     1     -46.232  28.671  22.926  1.00  0.00     0.044 H 
ATOM     49  C   UNL     1     -49.063  29.456  21.390  1.00  0.00    -0.045 C 
ATOM     50  C   UNL     1     -48.828  28.105  23.570  1.00  0.00    -0.045 C 
ATOM     51  C   UNL     1     -49.360  28.069  20.833  1.00  0.00    -0.053 C 
ATOM     52  H   UNL     1     -50.005  30.013  21.477  1.00  0.00     0.027 H 
ATOM     53  H   UNL     1     -48.436  30.015  20.687  1.00  0.00     0.027 H 
ATOM     54  C   UNL     1     -50.252  27.709  23.199  1.00  0.00    -0.053 C 
ATOM     55  H   UNL     1     -48.764  28.288  24.649  1.00  0.00     0.027 H 
ATOM     56  H   UNL     1     -48.160  27.261  23.356  1.00  0.00     0.027 H 
ATOM     57  C   UNL     1     -50.352  27.315  21.722  1.00  0.00    -0.053 C 
ATOM     58  H   UNL     1     -48.426  27.498  20.761  1.00  0.00     0.027 H 
ATOM     59  H   UNL     1     -49.763  28.145  19.817  1.00  0.00     0.027 H 
ATOM     60  H   UNL     1     -50.593  26.876  23.825  1.00  0.00     0.027 H 
ATOM     61  H   UNL     1     -50.927  28.551  23.397  1.00  0.00     0.027 H 
ATOM     62  H   UNL     1     -51.377  27.498  21.379  1.00  0.00     0.027 H 
ATOM     63  H   UNL     1     -50.177  26.238  21.611  1.00  0.00     0.027 H 
ENDBRANCH  38  41
ENDBRANCH   6  38
TORSDOF 5
ENDMDL
MODEL 6
REMARK VINA RESULT:     -10.6      2.964     12.177
REMARK SMILES O=C(NCc1ccc2cc(CN3CC4(CCCCC4)C3)[nH]c2c1)c1cc(=O)n2ccccc2n1
REMARK SMILES IDX 5 1 6 2 7 3 8 4 9 5 10 6 21 7 22 8 23 9 4 15 3 18 1 19 2 20
REMARK SMILES IDX 24 22 25 23 34 24 26 25 33 27 27 28 28 29 32 30 29 31 31 32
REMARK SMILES IDX 30 34 11 38 12 41 13 42 20 43 14 44 15 49 19 50 16 51 18 54
REMARK SMILES IDX 17 57
REMARK H PARENT 6 10 7 11 9 12 21 13 23 14 4 16 4 17 3 21 25 26 32 33 29 35
REMARK H PARENT 31 36 30 37 11 39 11 40 13 45 13 46 20 47 20 48 15 52 15 53
REMARK H PARENT 19 55 19 56 16 58 16 59 18 60 18 61 17 62 17 63
REMARK Flexibility Score: inf
ROOT
ATOM      1  C   UNL     1     -47.970  34.375  26.703  1.00  0.00    -0.027 A 
ATOM      2  C   UNL     1     -46.829  33.803  27.284  1.00  0.00    -0.057 A 
ATOM      3  C   UNL     1     -45.801  34.602  27.801  1.00  0.00    -0.052 A 
ATOM      4  C   UNL     1     -45.911  36.003  27.724  1.00  0.00    -0.000 A 
ATOM      5  C   UNL     1     -45.085  37.084  28.136  1.00  0.00    -0.032 A 
ATOM      6  C   UNL     1     -45.719  38.262  27.793  1.00  0.00     0.030 A 
ATOM      7  N   UNL     1     -46.901  37.920  27.181  1.00  0.00    -0.357 N 
ATOM      8  C   UNL     1     -47.046  36.555  27.131  1.00  0.00     0.046 A 
ATOM      9  C   UNL     1     -48.084  35.773  26.612  1.00  0.00    -0.033 A 
ATOM     10  H   UNL     1     -46.732  32.721  27.340  1.00  0.00     0.063 H 
ATOM     11  H   UNL     1     -44.928  34.142  28.252  1.00  0.00     0.063 H 
ATOM     12  H   UNL     1     -44.126  37.005  28.632  1.00  0.00     0.065 H 
ATOM     13  H   UNL     1     -47.578  38.597  26.852  1.00  0.00     0.166 HD
ATOM     14  H   UNL     1     -48.952  36.233  26.150  1.00  0.00     0.065 H 
ENDROOT
BRANCH   1  15
ATOM     15  C   UNL     1     -49.048  33.495  26.127  1.00  0.00     0.043 C 
ATOM     16  H   UNL     1     -49.907  33.434  26.806  1.00  0.00     0.054 H 
ATOM     17  H   UNL     1     -49.422  33.905  25.182  1.00  0.00     0.054 H 
BRANCH  15  18
ATOM     18  N   UNL     1     -48.552  32.166  25.893  1.00  0.00    -0.347 N 
ATOM     19  O   UNL     1     -50.087  31.619  24.278  1.00  0.00    -0.268 OA
ATOM     20  C   UNL     1     -49.128  31.322  24.979  1.00  0.00     0.270 C 
ATOM     21  H   UNL     1     -47.771  31.806  26.433  1.00  0.00     0.164 HD
BRANCH  20  22
ATOM     22  C   UNL     1     -48.450  29.974  24.931  1.00  0.00     0.136 A 
ATOM     23  C   UNL     1     -47.514  29.813  23.993  1.00  0.00     0.035 A 
ATOM     24  N   UNL     1     -48.828  29.010  25.838  1.00  0.00    -0.225 NA
ATOM     25  C   UNL     1     -46.828  28.517  23.911  1.00  0.00     0.258 A 
ATOM     26  H   UNL     1     -47.224  30.578  23.286  1.00  0.00     0.071 H 
ATOM     27  C   UNL     1     -48.220  27.866  25.762  1.00  0.00     0.140 A 
ATOM     28  O   UNL     1     -45.964  28.358  23.051  1.00  0.00    -0.269 OA
ATOM     29  N   UNL     1     -47.227  27.562  24.837  1.00  0.00    -0.268 N 
ATOM     30  C   UNL     1     -48.596  26.793  26.724  1.00  0.00    -0.019 A 
ATOM     31  C   UNL     1     -46.623  26.309  24.821  1.00  0.00     0.014 A 
ATOM     32  C   UNL     1     -47.987  25.602  26.670  1.00  0.00    -0.057 A 
ATOM     33  H   UNL     1     -49.369  27.020  27.449  1.00  0.00     0.066 H 
ATOM     34  C   UNL     1     -46.967  25.349  25.688  1.00  0.00    -0.045 A 
ATOM     35  H   UNL     1     -45.855  26.142  24.070  1.00  0.00     0.082 H 
ATOM     36  H   UNL     1     -48.248  24.808  27.362  1.00  0.00     0.062 H 
ATOM     37  H   UNL     1     -46.488  24.376  25.667  1.00  0.00     0.064 H 
ENDBRANCH  20  22
ENDBRANCH  15  18
ENDBRANCH   1  15
BRANCH   6  38
ATOM     38  C   UNL     1     -45.313  39.688  27.976  1.00  0.00     0.039 C 
ATOM     39  H   UNL     1     -46.068  40.215  28.575  1.00  0.00     0.050 H 
ATOM     40  H   UNL     1     -44.383  39.697  28.560  1.00  0.00     0.050 H 
BRANCH  38  41
ATOM     41  N   UNL     1     -45.066  40.333  26.682  1.00  0.00    -0.296 NA
ATOM     42  C   UNL     1     -45.229  41.807  26.783  1.00  0.00     0.005 C 
ATOM     43  C   UNL     1     -43.610  40.531  26.476  1.00  0.00     0.005 C 
ATOM     44  C   UNL     1     -43.932  41.959  25.931  1.00  0.00    -0.004 C 
ATOM     45  H   UNL     1     -45.153  42.226  27.796  1.00  0.00     0.044 H 
ATOM     46  H   UNL     1     -46.144  42.194  26.324  1.00  0.00     0.044 H 
ATOM     47  H   UNL     1     -42.998  40.518  27.386  1.00  0.00     0.044 H 
ATOM     48  H   UNL     1     -43.160  39.836  25.760  1.00  0.00     0.044 H 
ATOM     49  C   UNL     1     -43.010  43.077  26.442  1.00  0.00    -0.045 C 
ATOM     50  C   UNL     1     -44.154  41.993  24.405  1.00  0.00    -0.045 C 
ATOM     51  C   UNL     1     -41.979  43.441  25.380  1.00  0.00    -0.053 C 
ATOM     52  H   UNL     1     -43.601  43.970  26.684  1.00  0.00     0.027 H 
ATOM     53  H   UNL     1     -42.504  42.780  27.367  1.00  0.00     0.027 H 
ATOM     54  C   UNL     1     -44.050  43.422  23.885  1.00  0.00    -0.053 C 
ATOM     55  H   UNL     1     -45.130  41.572  24.137  1.00  0.00     0.027 H 
ATOM     56  H   UNL     1     -43.398  41.378  23.900  1.00  0.00     0.027 H 
ATOM     57  C   UNL     1     -42.652  43.999  24.123  1.00  0.00    -0.053 C 
ATOM     58  H   UNL     1     -41.397  42.549  25.117  1.00  0.00     0.027 H 
ATOM     59  H   UNL     1     -41.269  44.177  25.774  1.00  0.00     0.027 H 
ATOM     60  H   UNL     1     -44.284  43.457  22.815  1.00  0.00     0.027 H 
ATOM     61  H   UNL     1     -44.793  44.049  24.392  1.00  0.00     0.027 H 
ATOM     62  H   UNL     1     -42.729  45.090  24.193  1.00  0.00     0.027 H 
ATOM     63  H   UNL     1     -42.010  43.790  23.258  1.00  0.00     0.027 H 
ENDBRANCH  38  41
ENDBRANCH   6  38
TORSDOF 5
ENDMDL
MODEL 7
REMARK VINA RESULT:     -10.4      2.423      3.480
REMARK SMILES O=C(NCc1ccc2cc(CN3CC4(CCCCC4)C3)[nH]c2c1)c1cc(=O)n2ccccc2n1
REMARK SMILES IDX 5 1 6 2 7 3 8 4 9 5 10 6 21 7 22 8 23 9 4 15 3 18 1 19 2 20
REMARK SMILES IDX 24 22 25 23 34 24 26 25 33 27 27 28 28 29 32 30 29 31 31 32
REMARK SMILES IDX 30 34 11 38 12 41 13 42 20 43 14 44 15 49 19 50 16 51 18 54
REMARK SMILES IDX 17 57
REMARK H PARENT 6 10 7 11 9 12 21 13 23 14 4 16 4 17 3 21 25 26 32 33 29 35
REMARK H PARENT 31 36 30 37 11 39 11 40 13 45 13 46 20 47 20 48 15 52 15 53
REMARK H PARENT 19 55 19 56 16 58 16 59 18 60 18 61 17 62 17 63
REMARK Flexibility Score: inf
ROOT
ATOM      1  C   UNL     1     -46.447  36.072  28.146  1.00  0.00    -0.027 A 
ATOM      2  C   UNL     1     -47.825  36.100  27.888  1.00  0.00    -0.057 A 
ATOM      3  C   UNL     1     -48.410  35.210  26.978  1.00  0.00    -0.052 A 
ATOM      4  C   UNL     1     -47.598  34.280  26.303  1.00  0.00    -0.000 A 
ATOM      5  C   UNL     1     -47.849  33.259  25.345  1.00  0.00    -0.032 A 
ATOM      6  C   UNL     1     -46.645  32.656  25.038  1.00  0.00     0.030 A 
ATOM      7  N   UNL     1     -45.676  33.289  25.780  1.00  0.00    -0.357 N 
ATOM      8  C   UNL     1     -46.228  34.275  26.560  1.00  0.00     0.046 A 
ATOM      9  C   UNL     1     -45.625  35.154  27.468  1.00  0.00    -0.033 A 
ATOM     10  H   UNL     1     -48.459  36.821  28.399  1.00  0.00     0.063 H 
ATOM     11  H   UNL     1     -49.480  35.242  26.795  1.00  0.00     0.063 H 
ATOM     12  H   UNL     1     -48.812  32.996  24.926  1.00  0.00     0.065 H 
ATOM     13  H   UNL     1     -44.699  33.025  25.766  1.00  0.00     0.166 HD
ATOM     14  H   UNL     1     -44.554  35.130  27.641  1.00  0.00     0.065 H 
ENDROOT
BRANCH   1  15
ATOM     15  C   UNL     1     -45.836  37.059  29.104  1.00  0.00     0.043 C 
ATOM     16  H   UNL     1     -46.576  37.400  29.839  1.00  0.00     0.054 H 
ATOM     17  H   UNL     1     -45.020  36.597  29.672  1.00  0.00     0.054 H 
BRANCH  15  18
ATOM     18  N   UNL     1     -45.324  38.204  28.403  1.00  0.00    -0.347 N 
ATOM     19  O   UNL     1     -47.259  39.433  28.504  1.00  0.00    -0.268 OA
ATOM     20  C   UNL     1     -46.093  39.311  28.149  1.00  0.00     0.270 C 
ATOM     21  H   UNL     1     -44.374  38.205  28.045  1.00  0.00     0.164 HD
BRANCH  20  22
ATOM     22  C   UNL     1     -45.344  40.370  27.377  1.00  0.00     0.136 A 
ATOM     23  C   UNL     1     -46.079  41.169  26.601  1.00  0.00     0.035 A 
ATOM     24  N   UNL     1     -43.977  40.448  27.515  1.00  0.00    -0.225 NA
ATOM     25  C   UNL     1     -45.391  42.215  25.832  1.00  0.00     0.258 A 
ATOM     26  H   UNL     1     -47.153  41.099  26.500  1.00  0.00     0.071 H 
ATOM     27  C   UNL     1     -43.373  41.372  26.834  1.00  0.00     0.140 A 
ATOM     28  O   UNL     1     -46.058  42.956  25.113  1.00  0.00    -0.269 OA
ATOM     29  N   UNL     1     -44.013  42.272  25.989  1.00  0.00    -0.268 N 
ATOM     30  C   UNL     1     -41.893  41.494  26.953  1.00  0.00    -0.019 A 
ATOM     31  C   UNL     1     -43.291  43.236  25.292  1.00  0.00     0.014 A 
ATOM     32  C   UNL     1     -41.241  42.438  26.262  1.00  0.00    -0.057 A 
ATOM     33  H   UNL     1     -41.385  40.798  27.609  1.00  0.00     0.066 H 
ATOM     34  C   UNL     1     -41.961  43.340  25.404  1.00  0.00    -0.045 A 
ATOM     35  H   UNL     1     -43.857  43.906  24.649  1.00  0.00     0.082 H 
ATOM     36  H   UNL     1     -40.163  42.542  26.336  1.00  0.00     0.062 H 
ATOM     37  H   UNL     1     -41.409  44.096  24.856  1.00  0.00     0.064 H 
ENDBRANCH  20  22
ENDBRANCH  15  18
ENDBRANCH   1  15
BRANCH   6  38
ATOM     38  C   UNL     1     -46.313  31.543  24.098  1.00  0.00     0.039 C 
ATOM     39  H   UNL     1     -45.357  31.752  23.599  1.00  0.00     0.050 H 
ATOM     40  H   UNL     1     -46.165  30.635  24.698  1.00  0.00     0.050 H 
BRANCH  38  41
ATOM     41  N   UNL     1     -47.408  31.312  23.150  1.00  0.00    -0.296 NA
ATOM     42  C   UNL     1     -47.059  30.238  22.185  1.00  0.00     0.005 C 
ATOM     43  C   UNL     1     -48.425  30.411  23.749  1.00  0.00     0.005 C 
ATOM     44  C   UNL     1     -48.494  29.662  22.380  1.00  0.00    -0.004 C 
ATOM     45  H   UNL     1     -46.255  29.558  22.499  1.00  0.00     0.044 H 
ATOM     46  H   UNL     1     -46.825  30.595  21.176  1.00  0.00     0.044 H 
ATOM     47  H   UNL     1     -48.075  29.796  24.587  1.00  0.00     0.044 H 
ATOM     48  H   UNL     1     -49.343  30.917  24.064  1.00  0.00     0.044 H 
ATOM     49  C   UNL     1     -48.514  28.129  22.473  1.00  0.00    -0.045 C 
ATOM     50  C   UNL     1     -49.562  30.235  21.425  1.00  0.00    -0.045 C 
ATOM     51  C   UNL     1     -49.931  27.605  22.273  1.00  0.00    -0.053 C 
ATOM     52  H   UNL     1     -47.863  27.696  21.702  1.00  0.00     0.027 H 
ATOM     53  H   UNL     1     -48.123  27.787  23.438  1.00  0.00     0.027 H 
ATOM     54  C   UNL     1     -49.868  29.241  20.312  1.00  0.00    -0.053 C 
ATOM     55  H   UNL     1     -49.236  31.188  20.991  1.00  0.00     0.027 H 
ATOM     56  H   UNL     1     -50.488  30.444  21.977  1.00  0.00     0.027 H 
ATOM     57  C   UNL     1     -50.455  27.942  20.874  1.00  0.00    -0.053 C 
ATOM     58  H   UNL     1     -50.594  28.047  23.027  1.00  0.00     0.027 H 
ATOM     59  H   UNL     1     -49.961  26.519  22.424  1.00  0.00     0.027 H 
ATOM     60  H   UNL     1     -50.568  29.677  19.591  1.00  0.00     0.027 H 
ATOM     61  H   UNL     1     -48.946  29.015  19.762  1.00  0.00     0.027 H 
ATOM     62  H   UNL     1     -50.225  27.124  20.181  1.00  0.00     0.027 H 
ATOM     63  H   UNL     1     -51.548  28.014  20.915  1.00  0.00     0.027 H 
ENDBRANCH  38  41
ENDBRANCH   6  38
TORSDOF 5
ENDMDL
