MODEL 1
REMARK VINA RESULT:     -10.5      0.000      0.000
REMARK SMILES CCc1cc(N2CCOCC2)c2ccc(OCc3cncc(-n4cc([C@@H]5CCCO5)c5c(N)ncnc54)c3)cc2n1
REMARK SMILES IDX 17 1 16 4 15 5 3 6 4 7 41 8 5 9 40 11 12 12 39 13 13 14
REMARK SMILES IDX 14 16 2 19 1 22 6 26 7 27 11 28 8 29 10 32 9 35 18 40 19 41
REMARK SMILES IDX 38 42 20 43 22 45 21 47 23 49 24 50 37 51 25 52 31 54 36 55
REMARK SMILES IDX 32 56 35 57 34 58 26 60 27 61 30 62 28 64 29 67 33 72
REMARK H PARENT 17 2 17 3 4 10 39 15 13 17 14 18 2 20 2 21 1 23 1 24 1 25 7 30
REMARK H PARENT 7 31 11 33 11 34 8 36 8 37 10 38 10 39 19 44 38 46 21 48 24 53
REMARK H PARENT 35 59 26 63 27 65 27 66 28 68 28 69 29 70 29 71 33 73 33 74
REMARK Flexibility Score: inf
ROOT
ATOM      1  C   UNL     1     -46.226  35.230  26.985  1.00  0.00     0.115 C 
ATOM      2  H   UNL     1     -45.548  34.529  27.487  1.00  0.00     0.076 H 
ATOM      3  H   UNL     1     -45.712  35.556  26.073  1.00  0.00     0.076 H 
ENDROOT
BRANCH   1   4
ATOM      4  O   UNL     1     -46.402  36.329  27.885  1.00  0.00    -0.489 OA
BRANCH   4   5
ATOM      5  C   UNL     1     -46.091  37.590  27.459  1.00  0.00     0.122 A 
ATOM      6  C   UNL     1     -43.104  41.187  28.331  1.00  0.00     0.043 A 
ATOM      7  C   UNL     1     -43.660  41.997  27.355  1.00  0.00    -0.016 A 
ATOM      8  N   UNL     1     -43.557  39.940  28.575  1.00  0.00    -0.253 NA
ATOM      9  C   UNL     1     -44.736  41.531  26.590  1.00  0.00     0.048 A 
ATOM     10  H   UNL     1     -43.265  42.993  27.178  1.00  0.00     0.066 H 
ATOM     11  C   UNL     1     -44.586  39.473  27.852  1.00  0.00     0.076 A 
ATOM     12  C   UNL     1     -45.228  40.219  26.839  1.00  0.00     0.024 A 
ATOM     13  C   UNL     1     -45.026  38.188  28.136  1.00  0.00     0.007 A 
ATOM     14  C   UNL     1     -46.307  39.603  26.157  1.00  0.00    -0.047 A 
ATOM     15  H   UNL     1     -44.519  37.629  28.921  1.00  0.00     0.069 H 
ATOM     16  C   UNL     1     -46.735  38.306  26.463  1.00  0.00    -0.019 A 
ATOM     17  H   UNL     1     -46.840  40.129  25.373  1.00  0.00     0.063 H 
ATOM     18  H   UNL     1     -47.577  37.906  25.908  1.00  0.00     0.066 H 
BRANCH   6  19
ATOM     19  C   UNL     1     -41.933  41.662  29.148  1.00  0.00    -0.013 C 
ATOM     20  H   UNL     1     -42.163  42.649  29.569  1.00  0.00     0.033 H 
ATOM     21  H   UNL     1     -41.057  41.796  28.502  1.00  0.00     0.033 H 
BRANCH  19  22
ATOM     22  C   UNL     1     -41.608  40.695  30.275  1.00  0.00    -0.060 C 
ATOM     23  H   UNL     1     -41.005  41.194  31.041  1.00  0.00     0.023 H 
ATOM     24  H   UNL     1     -42.520  40.321  30.751  1.00  0.00     0.023 H 
ATOM     25  H   UNL     1     -41.042  39.832  29.909  1.00  0.00     0.023 H 
ENDBRANCH  19  22
ENDBRANCH   6  19
BRANCH   9  26
ATOM     26  N   UNL     1     -45.222  42.438  25.633  1.00  0.00    -0.366 N 
ATOM     27  C   UNL     1     -46.177  43.445  26.132  1.00  0.00     0.041 C 
ATOM     28  C   UNL     1     -44.216  42.989  24.705  1.00  0.00     0.041 C 
ATOM     29  C   UNL     1     -46.810  44.177  24.936  1.00  0.00     0.064 C 
ATOM     30  H   UNL     1     -45.672  44.182  26.763  1.00  0.00     0.052 H 
ATOM     31  H   UNL     1     -46.968  42.969  26.723  1.00  0.00     0.052 H 
ATOM     32  C   UNL     1     -44.935  43.741  23.571  1.00  0.00     0.064 C 
ATOM     33  H   UNL     1     -43.607  42.186  24.274  1.00  0.00     0.052 H 
ATOM     34  H   UNL     1     -43.551  43.689  25.219  1.00  0.00     0.052 H 
ATOM     35  O   UNL     1     -45.807  44.763  24.087  1.00  0.00    -0.378 OA
ATOM     36  H   UNL     1     -47.427  43.494  24.338  1.00  0.00     0.059 H 
ATOM     37  H   UNL     1     -47.455  44.985  25.294  1.00  0.00     0.059 H 
ATOM     38  H   UNL     1     -45.522  43.053  22.951  1.00  0.00     0.059 H 
ATOM     39  H   UNL     1     -44.199  44.229  22.923  1.00  0.00     0.059 H 
ENDBRANCH   9  26
ENDBRANCH   4   5
ENDBRANCH   1   4
BRANCH   1  40
ATOM     40  C   UNL     1     -47.502  34.487  26.684  1.00  0.00     0.010 A 
ATOM     41  C   UNL     1     -48.728  35.079  26.947  1.00  0.00     0.034 A 
ATOM     42  C   UNL     1     -47.515  33.215  26.090  1.00  0.00    -0.028 A 
ATOM     43  N   UNL     1     -49.915  34.495  26.694  1.00  0.00    -0.262 NA
ATOM     44  H   UNL     1     -48.798  36.072  27.385  1.00  0.00     0.084 H 
ATOM     45  C   UNL     1     -48.728  32.567  25.816  1.00  0.00     0.066 A 
ATOM     46  H   UNL     1     -46.558  32.766  25.842  1.00  0.00     0.065 H 
ATOM     47  C   UNL     1     -49.892  33.255  26.137  1.00  0.00     0.051 A 
ATOM     48  H   UNL     1     -50.886  32.851  25.987  1.00  0.00     0.086 H 
BRANCH  45  49
ATOM     49  N   UNL     1     -48.752  31.255  25.243  1.00  0.00    -0.299 N 
ATOM     50  C   UNL     1     -48.488  30.082  25.935  1.00  0.00     0.018 A 
ATOM     51  C   UNL     1     -49.047  30.896  23.929  1.00  0.00     0.150 A 
ATOM     52  C   UNL     1     -48.588  28.988  25.094  1.00  0.00     0.012 A 
ATOM     53  H   UNL     1     -48.270  30.097  26.993  1.00  0.00     0.083 H 
ATOM     54  C   UNL     1     -48.952  29.511  23.813  1.00  0.00     0.067 A 
ATOM     55  N   UNL     1     -49.357  31.734  22.919  1.00  0.00    -0.218 NA
ATOM     56  C   UNL     1     -49.220  28.960  22.547  1.00  0.00     0.136 A 
ATOM     57  C   UNL     1     -49.586  31.095  21.764  1.00  0.00     0.120 A 
ATOM     58  N   UNL     1     -49.534  29.776  21.526  1.00  0.00    -0.219 NA
ATOM     59  H   UNL     1     -49.844  31.720  20.915  1.00  0.00     0.106 H 
BRANCH  52  60
ATOM     60  C   UNL     1     -48.407  27.540  25.440  1.00  0.00     0.085 C 
ATOM     61  C   UNL     1     -48.140  27.244  26.912  1.00  0.00    -0.020 C 
ATOM     62  O   UNL     1     -47.297  26.953  24.718  1.00  0.00    -0.373 OA
ATOM     63  H   UNL     1     -49.306  26.994  25.121  1.00  0.00     0.066 H 
ATOM     64  C   UNL     1     -47.418  25.922  26.841  1.00  0.00    -0.027 C 
ATOM     65  H   UNL     1     -47.471  27.991  27.359  1.00  0.00     0.030 H 
ATOM     66  H   UNL     1     -49.055  27.207  27.511  1.00  0.00     0.030 H 
ATOM     67  C   UNL     1     -46.554  26.116  25.616  1.00  0.00     0.048 C 
ATOM     68  H   UNL     1     -46.841  25.686  27.739  1.00  0.00     0.029 H 
ATOM     69  H   UNL     1     -48.139  25.114  26.670  1.00  0.00     0.029 H 
ATOM     70  H   UNL     1     -45.624  26.637  25.865  1.00  0.00     0.057 H 
ATOM     71  H   UNL     1     -46.306  25.173  25.122  1.00  0.00     0.057 H 
ENDBRANCH  52  60
BRANCH  56  72
ATOM     72  N   UNL     1     -49.159  27.599  22.271  1.00  0.00    -0.383 N 
ATOM     73  H   UNL     1     -48.902  27.049  23.093  1.00  0.00     0.158 HD
ATOM     74  H   UNL     1     -48.595  27.436  21.446  1.00  0.00     0.158 HD
ENDBRANCH  56  72
ENDBRANCH  45  49
ENDBRANCH   1  40
TORSDOF 9
ENDMDL
MODEL 2
REMARK VINA RESULT:     -10.4      2.101     12.648
REMARK SMILES CCc1cc(N2CCOCC2)c2ccc(OCc3cncc(-n4cc([C@@H]5CCCO5)c5c(N)ncnc54)c3)cc2n1
REMARK SMILES IDX 17 1 16 4 15 5 3 6 4 7 41 8 5 9 40 11 12 12 39 13 13 14
REMARK SMILES IDX 14 16 2 19 1 22 6 26 7 27 11 28 8 29 10 32 9 35 18 40 19 41
REMARK SMILES IDX 38 42 20 43 22 45 21 47 23 49 24 50 37 51 25 52 31 54 36 55
REMARK SMILES IDX 32 56 35 57 34 58 26 60 27 61 30 62 28 64 29 67 33 72
REMARK H PARENT 17 2 17 3 4 10 39 15 13 17 14 18 2 20 2 21 1 23 1 24 1 25 7 30
REMARK H PARENT 7 31 11 33 11 34 8 36 8 37 10 38 10 39 19 44 38 46 21 48 24 53
REMARK H PARENT 35 59 26 63 27 65 27 66 28 68 28 69 29 70 29 71 33 73 33 74
REMARK Flexibility Score: inf
ROOT
ATOM      1  C   UNL     1     -46.854  35.098  26.154  1.00  0.00     0.115 C 
ATOM      2  H   UNL     1     -47.222  35.165  25.123  1.00  0.00     0.076 H 
ATOM      3  H   UNL     1     -45.789  34.846  26.084  1.00  0.00     0.076 H 
ENDROOT
BRANCH   1   4
ATOM      4  O   UNL     1     -47.584  34.033  26.771  1.00  0.00    -0.489 OA
BRANCH   4   5
ATOM      5  C   UNL     1     -47.774  32.871  26.077  1.00  0.00     0.122 A 
ATOM      6  C   UNL     1     -46.503  30.686  22.048  1.00  0.00     0.043 A 
ATOM      7  C   UNL     1     -47.279  29.570  22.310  1.00  0.00    -0.016 A 
ATOM      8  N   UNL     1     -46.439  31.733  22.898  1.00  0.00    -0.253 NA
ATOM      9  C   UNL     1     -48.040  29.506  23.483  1.00  0.00     0.048 A 
ATOM     10  H   UNL     1     -47.300  28.741  21.609  1.00  0.00     0.066 H 
ATOM     11  C   UNL     1     -47.159  31.692  24.029  1.00  0.00     0.076 A 
ATOM     12  C   UNL     1     -47.987  30.604  24.387  1.00  0.00     0.024 A 
ATOM     13  C   UNL     1     -47.071  32.789  24.874  1.00  0.00     0.007 A 
ATOM     14  C   UNL     1     -48.696  30.697  25.611  1.00  0.00    -0.047 A 
ATOM     15  H   UNL     1     -46.428  33.617  24.581  1.00  0.00     0.069 H 
ATOM     16  C   UNL     1     -48.592  31.815  26.445  1.00  0.00    -0.019 A 
ATOM     17  H   UNL     1     -49.349  29.895  25.934  1.00  0.00     0.063 H 
ATOM     18  H   UNL     1     -49.177  31.821  27.360  1.00  0.00     0.066 H 
BRANCH   6  19
ATOM     19  C   UNL     1     -45.661  30.762  20.804  1.00  0.00    -0.013 C 
ATOM     20  H   UNL     1     -45.731  29.811  20.262  1.00  0.00     0.033 H 
ATOM     21  H   UNL     1     -44.606  30.890  21.074  1.00  0.00     0.033 H 
BRANCH  19  22
ATOM     22  C   UNL     1     -46.108  31.895  19.894  1.00  0.00    -0.060 C 
ATOM     23  H   UNL     1     -45.439  32.755  20.001  1.00  0.00     0.023 H 
ATOM     24  H   UNL     1     -46.098  31.587  18.842  1.00  0.00     0.023 H 
ATOM     25  H   UNL     1     -47.124  32.224  20.137  1.00  0.00     0.023 H 
ENDBRANCH  19  22
ENDBRANCH   6  19
BRANCH   9  26
ATOM     26  N   UNL     1     -48.791  28.330  23.642  1.00  0.00    -0.366 N 
ATOM     27  C   UNL     1     -48.699  27.686  24.967  1.00  0.00     0.041 C 
ATOM     28  C   UNL     1     -50.163  28.367  23.100  1.00  0.00     0.041 C 
ATOM     29  C   UNL     1     -49.349  26.293  24.898  1.00  0.00     0.064 C 
ATOM     30  H   UNL     1     -49.223  28.277  25.725  1.00  0.00     0.052 H 
ATOM     31  H   UNL     1     -47.652  27.581  25.273  1.00  0.00     0.052 H 
ATOM     32  C   UNL     1     -50.749  26.944  23.112  1.00  0.00     0.064 C 
ATOM     33  H   UNL     1     -50.161  28.746  22.071  1.00  0.00     0.052 H 
ATOM     34  H   UNL     1     -50.806  29.012  23.705  1.00  0.00     0.052 H 
ATOM     35  O   UNL     1     -50.708  26.370  24.431  1.00  0.00    -0.378 OA
ATOM     36  H   UNL     1     -48.783  25.627  24.234  1.00  0.00     0.059 H 
ATOM     37  H   UNL     1     -49.364  25.840  25.893  1.00  0.00     0.059 H 
ATOM     38  H   UNL     1     -50.205  26.287  22.422  1.00  0.00     0.059 H 
ATOM     39  H   UNL     1     -51.796  26.971  22.794  1.00  0.00     0.059 H 
ENDBRANCH   9  26
ENDBRANCH   4   5
ENDBRANCH   1   4
BRANCH   1  40
ATOM     40  C   UNL     1     -47.080  36.440  26.801  1.00  0.00     0.010 A 
ATOM     41  C   UNL     1     -48.304  36.731  27.384  1.00  0.00     0.034 A 
ATOM     42  C   UNL     1     -46.075  37.416  26.891  1.00  0.00    -0.028 A 
ATOM     43  N   UNL     1     -48.587  37.896  27.998  1.00  0.00    -0.262 NA
ATOM     44  H   UNL     1     -49.124  36.016  27.374  1.00  0.00     0.084 H 
ATOM     45  C   UNL     1     -46.328  38.647  27.515  1.00  0.00     0.066 A 
ATOM     46  H   UNL     1     -45.102  37.176  26.476  1.00  0.00     0.065 H 
ATOM     47  C   UNL     1     -47.598  38.827  28.050  1.00  0.00     0.051 A 
ATOM     48  H   UNL     1     -47.915  39.740  28.540  1.00  0.00     0.086 H 
BRANCH  45  49
ATOM     49  N   UNL     1     -45.321  39.662  27.581  1.00  0.00    -0.299 N 
ATOM     50  C   UNL     1     -45.221  40.738  26.711  1.00  0.00     0.018 A 
ATOM     51  C   UNL     1     -44.283  39.784  28.503  1.00  0.00     0.150 A 
ATOM     52  C   UNL     1     -44.138  41.532  27.043  1.00  0.00     0.012 A 
ATOM     53  H   UNL     1     -45.946  40.887  25.924  1.00  0.00     0.083 H 
ATOM     54  C   UNL     1     -43.543  40.923  28.193  1.00  0.00     0.067 A 
ATOM     55  N   UNL     1     -44.011  38.944  29.522  1.00  0.00    -0.218 NA
ATOM     56  C   UNL     1     -42.446  41.214  29.023  1.00  0.00     0.136 A 
ATOM     57  C   UNL     1     -42.943  39.321  30.237  1.00  0.00     0.120 A 
ATOM     58  N   UNL     1     -42.157  40.391  30.046  1.00  0.00    -0.219 NA
ATOM     59  H   UNL     1     -42.679  38.682  31.074  1.00  0.00     0.106 H 
BRANCH  52  60
ATOM     60  C   UNL     1     -43.688  42.801  26.379  1.00  0.00     0.085 C 
ATOM     61  C   UNL     1     -44.314  43.090  25.020  1.00  0.00    -0.020 C 
ATOM     62  O   UNL     1     -42.256  42.809  26.158  1.00  0.00    -0.373 OA
ATOM     63  H   UNL     1     -43.900  43.638  27.059  1.00  0.00     0.066 H 
ATOM     64  C   UNL     1     -43.281  43.983  24.381  1.00  0.00    -0.027 C 
ATOM     65  H   UNL     1     -44.416  42.176  24.419  1.00  0.00     0.030 H 
ATOM     66  H   UNL     1     -45.302  43.555  25.097  1.00  0.00     0.030 H 
ATOM     67  C   UNL     1     -41.997  43.340  24.851  1.00  0.00     0.048 C 
ATOM     68  H   UNL     1     -43.359  44.038  23.292  1.00  0.00     0.029 H 
ATOM     69  H   UNL     1     -43.366  44.998  24.786  1.00  0.00     0.029 H 
ATOM     70  H   UNL     1     -41.709  42.506  24.202  1.00  0.00     0.057 H 
ATOM     71  H   UNL     1     -41.165  44.047  24.899  1.00  0.00     0.057 H 
ENDBRANCH  52  60
BRANCH  56  72
ATOM     72  N   UNL     1     -41.608  42.307  28.838  1.00  0.00    -0.383 N 
ATOM     73  H   UNL     1     -40.763  42.248  29.411  1.00  0.00     0.158 HD
ATOM     74  H   UNL     1     -42.132  43.168  28.926  1.00  0.00     0.158 HD
ENDBRANCH  56  72
ENDBRANCH  45  49
ENDBRANCH   1  40
TORSDOF 9
ENDMDL
MODEL 3
REMARK VINA RESULT:     -10.0      2.343     12.499
REMARK SMILES CCc1cc(N2CCOCC2)c2ccc(OCc3cncc(-n4cc([C@@H]5CCCO5)c5c(N)ncnc54)c3)cc2n1
REMARK SMILES IDX 17 1 16 4 15 5 3 6 4 7 41 8 5 9 40 11 12 12 39 13 13 14
REMARK SMILES IDX 14 16 2 19 1 22 6 26 7 27 11 28 8 29 10 32 9 35 18 40 19 41
REMARK SMILES IDX 38 42 20 43 22 45 21 47 23 49 24 50 37 51 25 52 31 54 36 55
REMARK SMILES IDX 32 56 35 57 34 58 26 60 27 61 30 62 28 64 29 67 33 72
REMARK H PARENT 17 2 17 3 4 10 39 15 13 17 14 18 2 20 2 21 1 23 1 24 1 25 7 30
REMARK H PARENT 7 31 11 33 11 34 8 36 8 37 10 38 10 39 19 44 38 46 21 48 24 53
REMARK H PARENT 35 59 26 63 27 65 27 66 28 68 28 69 29 70 29 71 33 73 33 74
REMARK Flexibility Score: inf
ROOT
ATOM      1  C   UNL     1     -47.422  35.432  26.524  1.00  0.00     0.115 C 
ATOM      2  H   UNL     1     -48.444  35.473  26.921  1.00  0.00     0.076 H 
ATOM      3  H   UNL     1     -47.509  35.555  25.438  1.00  0.00     0.076 H 
ENDROOT
BRANCH   1   4
ATOM      4  O   UNL     1     -46.922  34.130  26.845  1.00  0.00    -0.489 OA
BRANCH   4   5
ATOM      5  C   UNL     1     -47.348  33.057  26.112  1.00  0.00     0.122 A 
ATOM      6  C   UNL     1     -46.618  30.851  21.963  1.00  0.00     0.043 A 
ATOM      7  C   UNL     1     -47.587  29.894  22.205  1.00  0.00    -0.016 A 
ATOM      8  N   UNL     1     -46.334  31.828  22.850  1.00  0.00    -0.253 NA
ATOM      9  C   UNL     1     -48.318  29.924  23.399  1.00  0.00     0.048 A 
ATOM     10  H   UNL     1     -47.785  29.115  21.474  1.00  0.00     0.066 H 
ATOM     11  C   UNL     1     -47.020  31.874  24.001  1.00  0.00     0.076 A 
ATOM     12  C   UNL     1     -48.033  30.950  24.343  1.00  0.00     0.024 A 
ATOM     13  C   UNL     1     -46.702  32.896  24.886  1.00  0.00     0.007 A 
ATOM     14  C   UNL     1     -48.681  31.122  25.592  1.00  0.00    -0.047 A 
ATOM     15  H   UNL     1     -45.920  33.598  24.604  1.00  0.00     0.069 H 
ATOM     16  C   UNL     1     -48.345  32.162  26.465  1.00  0.00    -0.019 A 
ATOM     17  H   UNL     1     -49.469  30.447  25.904  1.00  0.00     0.063 H 
ATOM     18  H   UNL     1     -48.895  32.238  27.397  1.00  0.00     0.066 H 
BRANCH   6  19
ATOM     19  C   UNL     1     -45.807  30.820  20.696  1.00  0.00    -0.013 C 
ATOM     20  H   UNL     1     -45.949  29.852  20.200  1.00  0.00     0.033 H 
ATOM     21  H   UNL     1     -44.739  30.894  20.934  1.00  0.00     0.033 H 
BRANCH  19  22
ATOM     22  C   UNL     1     -46.210  31.937  19.746  1.00  0.00    -0.060 C 
ATOM     23  H   UNL     1     -46.270  32.889  20.284  1.00  0.00     0.023 H 
ATOM     24  H   UNL     1     -45.481  32.051  18.936  1.00  0.00     0.023 H 
ATOM     25  H   UNL     1     -47.187  31.742  19.293  1.00  0.00     0.023 H 
ENDBRANCH  19  22
ENDBRANCH   6  19
BRANCH   9  26
ATOM     26  N   UNL     1     -49.277  28.906  23.536  1.00  0.00    -0.366 N 
ATOM     27  C   UNL     1     -50.193  28.732  22.392  1.00  0.00     0.041 C 
ATOM     28  C   UNL     1     -48.785  27.633  24.095  1.00  0.00     0.041 C 
ATOM     29  C   UNL     1     -51.332  27.781  22.799  1.00  0.00     0.064 C 
ATOM     30  H   UNL     1     -49.668  28.300  21.535  1.00  0.00     0.052 H 
ATOM     31  H   UNL     1     -50.619  29.695  22.088  1.00  0.00     0.052 H 
ATOM     32  C   UNL     1     -49.985  26.730  24.427  1.00  0.00     0.064 C 
ATOM     33  H   UNL     1     -48.205  27.811  25.009  1.00  0.00     0.052 H 
ATOM     34  H   UNL     1     -48.146  27.112  23.377  1.00  0.00     0.052 H 
ATOM     35  O   UNL     1     -50.822  26.522  23.275  1.00  0.00    -0.378 OA
ATOM     36  H   UNL     1     -51.959  28.228  23.580  1.00  0.00     0.059 H 
ATOM     37  H   UNL     1     -51.970  27.575  21.935  1.00  0.00     0.059 H 
ATOM     38  H   UNL     1     -50.592  27.160  25.234  1.00  0.00     0.059 H 
ATOM     39  H   UNL     1     -49.631  25.749  24.761  1.00  0.00     0.059 H 
ENDBRANCH   9  26
ENDBRANCH   4   5
ENDBRANCH   1   4
BRANCH   1  40
ATOM     40  C   UNL     1     -46.644  36.552  27.163  1.00  0.00     0.010 A 
ATOM     41  C   UNL     1     -45.868  36.305  28.286  1.00  0.00     0.034 A 
ATOM     42  C   UNL     1     -46.623  37.854  26.640  1.00  0.00    -0.028 A 
ATOM     43  N   UNL     1     -45.129  37.242  28.910  1.00  0.00    -0.262 NA
ATOM     44  H   UNL     1     -45.816  35.316  28.736  1.00  0.00     0.084 H 
ATOM     45  C   UNL     1     -45.873  38.863  27.262  1.00  0.00     0.066 A 
ATOM     46  H   UNL     1     -47.194  38.042  25.736  1.00  0.00     0.065 H 
ATOM     47  C   UNL     1     -45.146  38.498  28.388  1.00  0.00     0.051 A 
ATOM     48  H   UNL     1     -44.544  39.192  28.962  1.00  0.00     0.086 H 
BRANCH  45  49
ATOM     49  N   UNL     1     -45.873  40.203  26.757  1.00  0.00    -0.299 N 
ATOM     50  C   UNL     1     -44.751  40.879  26.300  1.00  0.00     0.018 A 
ATOM     51  C   UNL     1     -46.958  41.066  26.612  1.00  0.00     0.150 A 
ATOM     52  C   UNL     1     -45.088  42.155  25.885  1.00  0.00     0.012 A 
ATOM     53  H   UNL     1     -43.784  40.398  26.274  1.00  0.00     0.083 H 
ATOM     54  C   UNL     1     -46.501  42.270  26.080  1.00  0.00     0.067 A 
ATOM     55  N   UNL     1     -48.239  40.807  26.940  1.00  0.00    -0.218 NA
ATOM     56  C   UNL     1     -47.462  43.273  25.859  1.00  0.00     0.136 A 
ATOM     57  C   UNL     1     -49.059  41.837  26.689  1.00  0.00     0.120 A 
ATOM     58  N   UNL     1     -48.746  43.036  26.177  1.00  0.00    -0.219 NA
ATOM     59  H   UNL     1     -50.107  41.684  26.932  1.00  0.00     0.106 H 
BRANCH  52  60
ATOM     60  C   UNL     1     -44.186  43.202  25.303  1.00  0.00     0.085 C 
ATOM     61  C   UNL     1     -43.789  42.993  23.846  1.00  0.00    -0.020 C 
ATOM     62  O   UNL     1     -42.939  43.301  26.035  1.00  0.00    -0.373 OA
ATOM     63  H   UNL     1     -44.680  44.178  25.404  1.00  0.00     0.066 H 
ATOM     64  C   UNL     1     -42.492  43.757  23.759  1.00  0.00    -0.027 C 
ATOM     65  H   UNL     1     -43.594  41.935  23.628  1.00  0.00     0.030 H 
ATOM     66  H   UNL     1     -44.549  43.347  23.143  1.00  0.00     0.030 H 
ATOM     67  C   UNL     1     -41.863  43.433  25.095  1.00  0.00     0.048 C 
ATOM     68  H   UNL     1     -41.867  43.469  22.910  1.00  0.00     0.029 H 
ATOM     69  H   UNL     1     -42.698  44.831  23.689  1.00  0.00     0.029 H 
ATOM     70  H   UNL     1     -41.329  42.478  25.062  1.00  0.00     0.057 H 
ATOM     71  H   UNL     1     -41.172  44.209  25.434  1.00  0.00     0.057 H 
ENDBRANCH  52  60
BRANCH  56  72
ATOM     72  N   UNL     1     -47.162  44.528  25.343  1.00  0.00    -0.383 N 
ATOM     73  H   UNL     1     -47.933  44.916  24.797  1.00  0.00     0.158 HD
ATOM     74  H   UNL     1     -46.265  44.507  24.874  1.00  0.00     0.158 HD
ENDBRANCH  56  72
ENDBRANCH  45  49
ENDBRANCH   1  40
TORSDOF 9
ENDMDL
MODEL 4
REMARK VINA RESULT:      -9.9      2.087     12.688
REMARK SMILES CCc1cc(N2CCOCC2)c2ccc(OCc3cncc(-n4cc([C@@H]5CCCO5)c5c(N)ncnc54)c3)cc2n1
REMARK SMILES IDX 17 1 16 4 15 5 3 6 4 7 41 8 5 9 40 11 12 12 39 13 13 14
REMARK SMILES IDX 14 16 2 19 1 22 6 26 7 27 11 28 8 29 10 32 9 35 18 40 19 41
REMARK SMILES IDX 38 42 20 43 22 45 21 47 23 49 24 50 37 51 25 52 31 54 36 55
REMARK SMILES IDX 32 56 35 57 34 58 26 60 27 61 30 62 28 64 29 67 33 72
REMARK H PARENT 17 2 17 3 4 10 39 15 13 17 14 18 2 20 2 21 1 23 1 24 1 25 7 30
REMARK H PARENT 7 31 11 33 11 34 8 36 8 37 10 38 10 39 19 44 38 46 21 48 24 53
REMARK H PARENT 35 59 26 63 27 65 27 66 28 68 28 69 29 70 29 71 33 73 33 74
REMARK Flexibility Score: inf
ROOT
ATOM      1  C   UNL     1     -47.320  34.188  26.186  1.00  0.00     0.115 C 
ATOM      2  H   UNL     1     -47.496  34.247  25.105  1.00  0.00     0.076 H 
ATOM      3  H   UNL     1     -46.278  33.871  26.311  1.00  0.00     0.076 H 
ENDROOT
BRANCH   1   4
ATOM      4  O   UNL     1     -48.214  33.187  26.682  1.00  0.00    -0.489 OA
BRANCH   4   5
ATOM      5  C   UNL     1     -48.658  32.214  25.831  1.00  0.00     0.122 A 
ATOM      6  C   UNL     1     -48.799  27.487  25.324  1.00  0.00     0.043 A 
ATOM      7  C   UNL     1     -49.444  27.553  24.101  1.00  0.00    -0.016 A 
ATOM      8  N   UNL     1     -48.468  28.593  26.023  1.00  0.00    -0.253 NA
ATOM      9  C   UNL     1     -49.765  28.798  23.545  1.00  0.00     0.048 A 
ATOM     10  H   UNL     1     -49.704  26.643  23.568  1.00  0.00     0.066 H 
ATOM     11  C   UNL     1     -48.768  29.796  25.510  1.00  0.00     0.076 A 
ATOM     12  C   UNL     1     -49.418  29.973  24.268  1.00  0.00     0.024 A 
ATOM     13  C   UNL     1     -48.407  30.909  26.257  1.00  0.00     0.007 A 
ATOM     14  C   UNL     1     -49.669  31.303  23.846  1.00  0.00    -0.047 A 
ATOM     15  H   UNL     1     -47.907  30.751  27.211  1.00  0.00     0.069 H 
ATOM     16  C   UNL     1     -49.294  32.409  24.615  1.00  0.00    -0.019 A 
ATOM     17  H   UNL     1     -50.161  31.500  22.900  1.00  0.00     0.063 H 
ATOM     18  H   UNL     1     -49.506  33.397  24.219  1.00  0.00     0.066 H 
BRANCH   6  19
ATOM     19  C   UNL     1     -48.467  26.158  25.947  1.00  0.00    -0.013 C 
ATOM     20  H   UNL     1     -49.006  25.365  25.414  1.00  0.00     0.033 H 
ATOM     21  H   UNL     1     -48.821  26.133  26.984  1.00  0.00     0.033 H 
BRANCH  19  22
ATOM     22  C   UNL     1     -46.974  25.874  25.896  1.00  0.00    -0.060 C 
ATOM     23  H   UNL     1     -46.463  26.634  25.296  1.00  0.00     0.023 H 
ATOM     24  H   UNL     1     -46.535  25.883  26.900  1.00  0.00     0.023 H 
ATOM     25  H   UNL     1     -46.769  24.896  25.449  1.00  0.00     0.023 H 
ENDBRANCH  19  22
ENDBRANCH   6  19
BRANCH   9  26
ATOM     26  N   UNL     1     -50.415  28.744  22.300  1.00  0.00    -0.366 N 
ATOM     27  C   UNL     1     -49.904  27.733  21.355  1.00  0.00     0.041 C 
ATOM     28  C   UNL     1     -51.887  28.819  22.343  1.00  0.00     0.041 C 
ATOM     29  C   UNL     1     -50.527  27.978  19.969  1.00  0.00     0.064 C 
ATOM     30  H   UNL     1     -50.169  26.724  21.683  1.00  0.00     0.052 H 
ATOM     31  H   UNL     1     -48.812  27.795  21.276  1.00  0.00     0.052 H 
ATOM     32  C   UNL     1     -52.424  29.016  20.914  1.00  0.00     0.064 C 
ATOM     33  H   UNL     1     -52.214  29.659  22.968  1.00  0.00     0.052 H 
ATOM     34  H   UNL     1     -52.315  27.899  22.751  1.00  0.00     0.052 H 
ATOM     35  O   UNL     1     -51.964  27.976  20.032  1.00  0.00    -0.378 OA
ATOM     36  H   UNL     1     -50.190  28.934  19.549  1.00  0.00     0.059 H 
ATOM     37  H   UNL     1     -50.224  27.184  19.281  1.00  0.00     0.059 H 
ATOM     38  H   UNL     1     -52.118  29.988  20.508  1.00  0.00     0.059 H 
ATOM     39  H   UNL     1     -53.519  28.986  20.921  1.00  0.00     0.059 H 
ENDBRANCH   9  26
ENDBRANCH   4   5
ENDBRANCH   1   4
BRANCH   1  40
ATOM     40  C   UNL     1     -47.571  35.559  26.759  1.00  0.00     0.010 A 
ATOM     41  C   UNL     1     -48.826  35.887  27.251  1.00  0.00     0.034 A 
ATOM     42  C   UNL     1     -46.563  36.529  26.870  1.00  0.00    -0.028 A 
ATOM     43  N   UNL     1     -49.132  37.080  27.795  1.00  0.00    -0.262 NA
ATOM     44  H   UNL     1     -49.651  35.179  27.220  1.00  0.00     0.084 H 
ATOM     45  C   UNL     1     -46.839  37.788  27.422  1.00  0.00     0.066 A 
ATOM     46  H   UNL     1     -45.568  36.262  26.527  1.00  0.00     0.065 H 
ATOM     47  C   UNL     1     -48.137  38.004  27.868  1.00  0.00     0.051 A 
ATOM     48  H   UNL     1     -48.474  38.940  28.297  1.00  0.00     0.086 H 
BRANCH  45  49
ATOM     49  N   UNL     1     -45.827  38.797  27.507  1.00  0.00    -0.299 N 
ATOM     50  C   UNL     1     -45.627  39.802  26.572  1.00  0.00     0.018 A 
ATOM     51  C   UNL     1     -44.879  38.980  28.512  1.00  0.00     0.150 A 
ATOM     52  C   UNL     1     -44.567  40.609  26.945  1.00  0.00     0.012 A 
ATOM     53  H   UNL     1     -46.272  39.896  25.710  1.00  0.00     0.083 H 
ATOM     54  C   UNL     1     -44.094  40.085  28.189  1.00  0.00     0.067 A 
ATOM     55  N   UNL     1     -44.718  38.218  29.613  1.00  0.00    -0.218 NA
ATOM     56  C   UNL     1     -43.076  40.429  29.096  1.00  0.00     0.136 A 
ATOM     57  C   UNL     1     -43.717  38.640  30.397  1.00  0.00     0.120 A 
ATOM     58  N   UNL     1     -42.899  39.684  30.201  1.00  0.00    -0.219 NA
ATOM     59  H   UNL     1     -43.543  38.065  31.301  1.00  0.00     0.106 H 
BRANCH  52  60
ATOM     60  C   UNL     1     -44.036  41.818  26.233  1.00  0.00     0.085 C 
ATOM     61  C   UNL     1     -44.571  43.159  26.724  1.00  0.00    -0.020 C 
ATOM     62  O   UNL     1     -44.332  41.777  24.816  1.00  0.00    -0.373 OA
ATOM     63  H   UNL     1     -42.940  41.815  26.319  1.00  0.00     0.066 H 
ATOM     64  C   UNL     1     -44.386  44.035  25.511  1.00  0.00    -0.027 C 
ATOM     65  H   UNL     1     -45.641  43.104  26.963  1.00  0.00     0.030 H 
ATOM     66  H   UNL     1     -44.046  43.528  27.610  1.00  0.00     0.030 H 
ATOM     67  C   UNL     1     -44.749  43.083  24.395  1.00  0.00     0.048 C 
ATOM     68  H   UNL     1     -45.002  44.938  25.522  1.00  0.00     0.029 H 
ATOM     69  H   UNL     1     -43.334  44.333  25.426  1.00  0.00     0.029 H 
ATOM     70  H   UNL     1     -45.832  43.053  24.235  1.00  0.00     0.057 H 
ATOM     71  H   UNL     1     -44.264  43.339  23.449  1.00  0.00     0.057 H 
ENDBRANCH  52  60
BRANCH  56  72
ATOM     72  N   UNL     1     -42.206  41.497  28.910  1.00  0.00    -0.383 N 
ATOM     73  H   UNL     1     -41.402  41.455  29.539  1.00  0.00     0.158 HD
ATOM     74  H   UNL     1     -42.719  42.370  28.917  1.00  0.00     0.158 HD
ENDBRANCH  56  72
ENDBRANCH  45  49
ENDBRANCH   1  40
TORSDOF 9
ENDMDL
MODEL 5
REMARK VINA RESULT:      -9.8      1.793      2.401
REMARK SMILES CCc1cc(N2CCOCC2)c2ccc(OCc3cncc(-n4cc([C@@H]5CCCO5)c5c(N)ncnc54)c3)cc2n1
REMARK SMILES IDX 17 1 16 4 15 5 3 6 4 7 41 8 5 9 40 11 12 12 39 13 13 14
REMARK SMILES IDX 14 16 2 19 1 22 6 26 7 27 11 28 8 29 10 32 9 35 18 40 19 41
REMARK SMILES IDX 38 42 20 43 22 45 21 47 23 49 24 50 37 51 25 52 31 54 36 55
REMARK SMILES IDX 32 56 35 57 34 58 26 60 27 61 30 62 28 64 29 67 33 72
REMARK H PARENT 17 2 17 3 4 10 39 15 13 17 14 18 2 20 2 21 1 23 1 24 1 25 7 30
REMARK H PARENT 7 31 11 33 11 34 8 36 8 37 10 38 10 39 19 44 38 46 21 48 24 53
REMARK H PARENT 35 59 26 63 27 65 27 66 28 68 28 69 29 70 29 71 33 73 33 74
REMARK Flexibility Score: inf
ROOT
ATOM      1  C   UNL     1     -47.907  36.478  27.107  1.00  0.00     0.115 C 
ATOM      2  H   UNL     1     -47.748  36.903  26.109  1.00  0.00     0.076 H 
ATOM      3  H   UNL     1     -48.985  36.537  27.299  1.00  0.00     0.076 H 
ENDROOT
BRANCH   1   4
ATOM      4  O   UNL     1     -47.187  37.316  28.017  1.00  0.00    -0.489 OA
BRANCH   4   5
ATOM      5  C   UNL     1     -46.607  38.461  27.546  1.00  0.00     0.122 A 
ATOM      6  C   UNL     1     -42.845  41.288  28.235  1.00  0.00     0.043 A 
ATOM      7  C   UNL     1     -43.230  42.181  27.250  1.00  0.00    -0.016 A 
ATOM      8  N   UNL     1     -43.566  40.185  28.528  1.00  0.00    -0.253 NA
ATOM      9  C   UNL     1     -44.407  41.960  26.525  1.00  0.00     0.048 A 
ATOM     10  H   UNL     1     -42.621  43.054  27.033  1.00  0.00     0.066 H 
ATOM     11  C   UNL     1     -44.697  39.953  27.845  1.00  0.00     0.076 A 
ATOM     12  C   UNL     1     -45.181  40.804  26.826  1.00  0.00     0.024 A 
ATOM     13  C   UNL     1     -45.413  38.811  28.178  1.00  0.00     0.007 A 
ATOM     14  C   UNL     1     -46.394  40.437  26.190  1.00  0.00    -0.047 A 
ATOM     15  H   UNL     1     -45.024  38.169  28.966  1.00  0.00     0.069 H 
ATOM     16  C   UNL     1     -47.099  39.283  26.545  1.00  0.00    -0.019 A 
ATOM     17  H   UNL     1     -46.815  41.054  25.404  1.00  0.00     0.063 H 
ATOM     18  H   UNL     1     -48.028  39.076  26.023  1.00  0.00     0.066 H 
BRANCH   6  19
ATOM     19  C   UNL     1     -41.571  41.498  29.008  1.00  0.00    -0.013 C 
ATOM     20  H   UNL     1     -41.451  42.567  29.223  1.00  0.00     0.033 H 
ATOM     21  H   UNL     1     -40.710  41.205  28.395  1.00  0.00     0.033 H 
BRANCH  19  22
ATOM     22  C   UNL     1     -41.573  40.718  30.313  1.00  0.00    -0.060 C 
ATOM     23  H   UNL     1     -40.572  40.326  30.523  1.00  0.00     0.023 H 
ATOM     24  H   UNL     1     -41.872  41.353  31.154  1.00  0.00     0.023 H 
ATOM     25  H   UNL     1     -42.266  39.871  30.270  1.00  0.00     0.023 H 
ENDBRANCH  19  22
ENDBRANCH   6  19
BRANCH   9  26
ATOM     26  N   UNL     1     -44.700  42.931  25.554  1.00  0.00    -0.366 N 
ATOM     27  C   UNL     1     -44.261  42.615  24.181  1.00  0.00     0.041 C 
ATOM     28  C   UNL     1     -46.053  43.515  25.620  1.00  0.00     0.041 C 
ATOM     29  C   UNL     1     -44.410  43.870  23.302  1.00  0.00     0.064 C 
ATOM     30  H   UNL     1     -44.871  41.815  23.751  1.00  0.00     0.052 H 
ATOM     31  H   UNL     1     -43.214  42.293  24.175  1.00  0.00     0.052 H 
ATOM     32  C   UNL     1     -46.125  44.730  24.678  1.00  0.00     0.064 C 
ATOM     33  H   UNL     1     -46.285  43.838  26.641  1.00  0.00     0.052 H 
ATOM     34  H   UNL     1     -46.809  42.789  25.307  1.00  0.00     0.052 H 
ATOM     35  O   UNL     1     -45.757  44.375  23.332  1.00  0.00    -0.378 OA
ATOM     36  H   UNL     1     -43.726  44.663  23.628  1.00  0.00     0.059 H 
ATOM     37  H   UNL     1     -44.170  43.626  22.263  1.00  0.00     0.059 H 
ATOM     38  H   UNL     1     -45.467  45.537  25.025  1.00  0.00     0.059 H 
ATOM     39  H   UNL     1     -47.147  45.120  24.651  1.00  0.00     0.059 H 
ENDBRANCH   9  26
ENDBRANCH   4   5
ENDBRANCH   1   4
BRANCH   1  40
ATOM     40  C   UNL     1     -47.412  35.055  27.077  1.00  0.00     0.010 A 
ATOM     41  C   UNL     1     -46.492  34.621  28.019  1.00  0.00     0.034 A 
ATOM     42  C   UNL     1     -47.881  34.110  26.152  1.00  0.00    -0.028 A 
ATOM     43  N   UNL     1     -46.009  33.364  28.076  1.00  0.00    -0.262 NA
ATOM     44  H   UNL     1     -46.099  35.290  28.782  1.00  0.00     0.084 H 
ATOM     45  C   UNL     1     -47.401  32.793  26.169  1.00  0.00     0.066 A 
ATOM     46  H   UNL     1     -48.634  34.434  25.440  1.00  0.00     0.065 H 
ATOM     47  C   UNL     1     -46.470  32.479  27.153  1.00  0.00     0.051 A 
ATOM     48  H   UNL     1     -46.016  31.501  27.255  1.00  0.00     0.086 H 
BRANCH  45  49
ATOM     49  N   UNL     1     -47.847  31.830  25.208  1.00  0.00    -0.299 N 
ATOM     50  C   UNL     1     -48.952  31.006  25.363  1.00  0.00     0.018 A 
ATOM     51  C   UNL     1     -47.294  31.541  23.961  1.00  0.00     0.150 A 
ATOM     52  C   UNL     1     -49.108  30.188  24.258  1.00  0.00     0.012 A 
ATOM     53  H   UNL     1     -49.576  31.073  26.243  1.00  0.00     0.083 H 
ATOM     54  C   UNL     1     -48.051  30.537  23.361  1.00  0.00     0.067 A 
ATOM     55  N   UNL     1     -46.202  32.112  23.415  1.00  0.00    -0.218 NA
ATOM     56  C   UNL     1     -47.642  30.111  22.084  1.00  0.00     0.136 A 
ATOM     57  C   UNL     1     -45.909  31.623  22.203  1.00  0.00     0.120 A 
ATOM     58  N   UNL     1     -46.557  30.669  21.519  1.00  0.00    -0.219 NA
ATOM     59  H   UNL     1     -45.039  32.050  21.713  1.00  0.00     0.106 H 
BRANCH  52  60
ATOM     60  C   UNL     1     -50.185  29.174  24.009  1.00  0.00     0.085 C 
ATOM     61  C   UNL     1     -49.720  27.723  23.952  1.00  0.00    -0.020 C 
ATOM     62  O   UNL     1     -50.865  29.414  22.753  1.00  0.00    -0.373 OA
ATOM     63  H   UNL     1     -50.945  29.277  24.796  1.00  0.00     0.066 H 
ATOM     64  C   UNL     1     -50.798  27.079  23.116  1.00  0.00    -0.027 C 
ATOM     65  H   UNL     1     -48.760  27.626  23.429  1.00  0.00     0.030 H 
ATOM     66  H   UNL     1     -49.612  27.271  24.943  1.00  0.00     0.030 H 
ATOM     67  C   UNL     1     -51.066  28.157  22.091  1.00  0.00     0.048 C 
ATOM     68  H   UNL     1     -50.500  26.127  22.670  1.00  0.00     0.029 H 
ATOM     69  H   UNL     1     -51.691  26.911  23.729  1.00  0.00     0.029 H 
ATOM     70  H   UNL     1     -50.356  28.100  21.259  1.00  0.00     0.057 H 
ATOM     71  H   UNL     1     -52.081  28.111  21.688  1.00  0.00     0.057 H 
ENDBRANCH  52  60
BRANCH  56  72
ATOM     72  N   UNL     1     -48.287  29.114  21.361  1.00  0.00    -0.383 N 
ATOM     73  H   UNL     1     -48.223  29.266  20.352  1.00  0.00     0.158 HD
ATOM     74  H   UNL     1     -49.222  28.973  21.720  1.00  0.00     0.158 HD
ENDBRANCH  56  72
ENDBRANCH  45  49
ENDBRANCH   1  40
TORSDOF 9
ENDMDL
MODEL 6
REMARK VINA RESULT:      -9.5      1.878     13.023
REMARK SMILES CCc1cc(N2CCOCC2)c2ccc(OCc3cncc(-n4cc([C@@H]5CCCO5)c5c(N)ncnc54)c3)cc2n1
REMARK SMILES IDX 17 1 16 4 15 5 3 6 4 7 41 8 5 9 40 11 12 12 39 13 13 14
REMARK SMILES IDX 14 16 2 19 1 22 6 26 7 27 11 28 8 29 10 32 9 35 18 40 19 41
REMARK SMILES IDX 38 42 20 43 22 45 21 47 23 49 24 50 37 51 25 52 31 54 36 55
REMARK SMILES IDX 32 56 35 57 34 58 26 60 27 61 30 62 28 64 29 67 33 72
REMARK H PARENT 17 2 17 3 4 10 39 15 13 17 14 18 2 20 2 21 1 23 1 24 1 25 7 30
REMARK H PARENT 7 31 11 33 11 34 8 36 8 37 10 38 10 39 19 44 38 46 21 48 24 53
REMARK H PARENT 35 59 26 63 27 65 27 66 28 68 28 69 29 70 29 71 33 73 33 74
REMARK Flexibility Score: inf
ROOT
ATOM      1  C   UNL     1     -47.241  35.165  26.333  1.00  0.00     0.115 C 
ATOM      2  H   UNL     1     -46.837  35.302  25.323  1.00  0.00     0.076 H 
ATOM      3  H   UNL     1     -46.517  34.540  26.871  1.00  0.00     0.076 H 
ENDROOT
BRANCH   1   4
ATOM      4  O   UNL     1     -48.485  34.475  26.177  1.00  0.00    -0.489 OA
BRANCH   4   5
ATOM      5  C   UNL     1     -48.471  33.125  25.958  1.00  0.00     0.122 A 
ATOM      6  C   UNL     1     -50.731  29.721  23.525  1.00  0.00     0.043 A 
ATOM      7  C   UNL     1     -49.940  28.710  24.041  1.00  0.00    -0.016 A 
ATOM      8  N   UNL     1     -50.555  31.016  23.863  1.00  0.00    -0.253 NA
ATOM      9  C   UNL     1     -48.924  29.013  24.955  1.00  0.00     0.048 A 
ATOM     10  H   UNL     1     -50.103  27.679  23.741  1.00  0.00     0.066 H 
ATOM     11  C   UNL     1     -49.585  31.330  24.734  1.00  0.00     0.076 A 
ATOM     12  C   UNL     1     -48.728  30.373  25.324  1.00  0.00     0.024 A 
ATOM     13  C   UNL     1     -49.438  32.671  25.060  1.00  0.00     0.007 A 
ATOM     14  C   UNL     1     -47.749  30.846  26.234  1.00  0.00    -0.047 A 
ATOM     15  H   UNL     1     -50.108  33.392  24.595  1.00  0.00     0.069 H 
ATOM     16  C   UNL     1     -47.622  32.203  26.549  1.00  0.00    -0.019 A 
ATOM     17  H   UNL     1     -47.067  30.158  26.720  1.00  0.00     0.063 H 
ATOM     18  H   UNL     1     -46.858  32.488  27.265  1.00  0.00     0.066 H 
BRANCH   6  19
ATOM     19  C   UNL     1     -51.813  29.416  22.524  1.00  0.00    -0.013 C 
ATOM     20  H   UNL     1     -52.051  30.328  21.961  1.00  0.00     0.033 H 
ATOM     21  H   UNL     1     -52.733  29.125  23.046  1.00  0.00     0.033 H 
BRANCH  19  22
ATOM     22  C   UNL     1     -51.391  28.321  21.559  1.00  0.00    -0.060 C 
ATOM     23  H   UNL     1     -51.968  28.389  20.631  1.00  0.00     0.023 H 
ATOM     24  H   UNL     1     -50.328  28.405  21.305  1.00  0.00     0.023 H 
ATOM     25  H   UNL     1     -51.555  27.327  21.987  1.00  0.00     0.023 H 
ENDBRANCH  19  22
ENDBRANCH   6  19
BRANCH   9  26
ATOM     26  N   UNL     1     -48.188  27.909  25.415  1.00  0.00    -0.366 N 
ATOM     27  C   UNL     1     -48.929  26.954  26.261  1.00  0.00     0.041 C 
ATOM     28  C   UNL     1     -47.317  27.259  24.418  1.00  0.00     0.041 C 
ATOM     29  C   UNL     1     -47.935  25.964  26.894  1.00  0.00     0.064 C 
ATOM     30  H   UNL     1     -49.653  26.388  25.667  1.00  0.00     0.052 H 
ATOM     31  H   UNL     1     -49.469  27.480  27.056  1.00  0.00     0.052 H 
ATOM     32  C   UNL     1     -46.394  26.255  25.131  1.00  0.00     0.064 C 
ATOM     33  H   UNL     1     -46.704  28.003  23.896  1.00  0.00     0.052 H 
ATOM     34  H   UNL     1     -47.909  26.717  23.674  1.00  0.00     0.052 H 
ATOM     35  O   UNL     1     -47.149  25.295  25.892  1.00  0.00    -0.378 OA
ATOM     36  H   UNL     1     -47.261  26.475  27.593  1.00  0.00     0.059 H 
ATOM     37  H   UNL     1     -48.480  25.198  27.455  1.00  0.00     0.059 H 
ATOM     38  H   UNL     1     -45.695  26.770  25.802  1.00  0.00     0.059 H 
ATOM     39  H   UNL     1     -45.803  25.703  24.393  1.00  0.00     0.059 H 
ENDBRANCH   9  26
ENDBRANCH   4   5
ENDBRANCH   1   4
BRANCH   1  40
ATOM     40  C   UNL     1     -47.383  36.532  26.952  1.00  0.00     0.010 A 
ATOM     41  C   UNL     1     -48.580  36.904  27.543  1.00  0.00     0.034 A 
ATOM     42  C   UNL     1     -46.324  37.452  27.005  1.00  0.00    -0.028 A 
ATOM     43  N   UNL     1     -48.789  38.098  28.133  1.00  0.00    -0.262 NA
ATOM     44  H   UNL     1     -49.439  36.236  27.561  1.00  0.00     0.084 H 
ATOM     45  C   UNL     1     -46.499  38.709  27.602  1.00  0.00     0.066 A 
ATOM     46  H   UNL     1     -45.372  37.148  26.582  1.00  0.00     0.065 H 
ATOM     47  C   UNL     1     -47.749  38.973  28.150  1.00  0.00     0.051 A 
ATOM     48  H   UNL     1     -48.008  39.913  28.622  1.00  0.00     0.086 H 
BRANCH  45  49
ATOM     49  N   UNL     1     -45.437  39.668  27.631  1.00  0.00    -0.299 N 
ATOM     50  C   UNL     1     -45.306  40.735  26.753  1.00  0.00     0.018 A 
ATOM     51  C   UNL     1     -44.363  39.736  28.518  1.00  0.00     0.150 A 
ATOM     52  C   UNL     1     -44.170  41.469  27.046  1.00  0.00     0.012 A 
ATOM     53  H   UNL     1     -46.048  40.920  25.989  1.00  0.00     0.083 H 
ATOM     54  C   UNL     1     -43.573  40.831  28.178  1.00  0.00     0.067 A 
ATOM     55  N   UNL     1     -44.105  38.884  29.531  1.00  0.00    -0.218 NA
ATOM     56  C   UNL     1     -42.434  41.063  28.971  1.00  0.00     0.136 A 
ATOM     57  C   UNL     1     -42.995  39.205  30.209  1.00  0.00     0.120 A 
ATOM     58  N   UNL     1     -42.158  40.229  29.988  1.00  0.00    -0.219 NA
ATOM     59  H   UNL     1     -42.738  38.554  31.040  1.00  0.00     0.106 H 
BRANCH  52  60
ATOM     60  C   UNL     1     -43.674  42.708  26.362  1.00  0.00     0.085 C 
ATOM     61  C   UNL     1     -44.314  43.017  25.013  1.00  0.00    -0.020 C 
ATOM     62  O   UNL     1     -42.249  42.646  26.111  1.00  0.00    -0.373 OA
ATOM     63  H   UNL     1     -43.831  43.560  27.038  1.00  0.00     0.066 H 
ATOM     64  C   UNL     1     -43.252  43.854  24.345  1.00  0.00    -0.027 C 
ATOM     65  H   UNL     1     -44.472  42.105  24.422  1.00  0.00     0.030 H 
ATOM     66  H   UNL     1     -45.276  43.530  25.106  1.00  0.00     0.030 H 
ATOM     67  C   UNL     1     -41.991  43.153  24.794  1.00  0.00     0.048 C 
ATOM     68  H   UNL     1     -43.351  43.904  23.257  1.00  0.00     0.029 H 
ATOM     69  H   UNL     1     -43.280  44.875  24.743  1.00  0.00     0.029 H 
ATOM     70  H   UNL     1     -41.758  42.301  24.147  1.00  0.00     0.057 H 
ATOM     71  H   UNL     1     -41.125  43.820  24.819  1.00  0.00     0.057 H 
ENDBRANCH  52  60
BRANCH  56  72
ATOM     72  N   UNL     1     -41.544  42.108  28.753  1.00  0.00    -0.383 N 
ATOM     73  H   UNL     1     -40.850  41.882  28.038  1.00  0.00     0.158 HD
ATOM     74  H   UNL     1     -41.168  42.436  29.634  1.00  0.00     0.158 HD
ENDBRANCH  56  72
ENDBRANCH  45  49
ENDBRANCH   1  40
TORSDOF 9
ENDMDL
MODEL 7
REMARK VINA RESULT:      -9.5      1.942      3.397
REMARK SMILES CCc1cc(N2CCOCC2)c2ccc(OCc3cncc(-n4cc([C@@H]5CCCO5)c5c(N)ncnc54)c3)cc2n1
REMARK SMILES IDX 17 1 16 4 15 5 3 6 4 7 41 8 5 9 40 11 12 12 39 13 13 14
REMARK SMILES IDX 14 16 2 19 1 22 6 26 7 27 11 28 8 29 10 32 9 35 18 40 19 41
REMARK SMILES IDX 38 42 20 43 22 45 21 47 23 49 24 50 37 51 25 52 31 54 36 55
REMARK SMILES IDX 32 56 35 57 34 58 26 60 27 61 30 62 28 64 29 67 33 72
REMARK H PARENT 17 2 17 3 4 10 39 15 13 17 14 18 2 20 2 21 1 23 1 24 1 25 7 30
REMARK H PARENT 7 31 11 33 11 34 8 36 8 37 10 38 10 39 19 44 38 46 21 48 24 53
REMARK H PARENT 35 59 26 63 27 65 27 66 28 68 28 69 29 70 29 71 33 73 33 74
REMARK Flexibility Score: inf
ROOT
ATOM      1  C   UNL     1     -48.644  35.102  27.162  1.00  0.00     0.115 C 
ATOM      2  H   UNL     1     -48.805  36.034  26.606  1.00  0.00     0.076 H 
ATOM      3  H   UNL     1     -49.632  34.775  27.507  1.00  0.00     0.076 H 
ENDROOT
BRANCH   1   4
ATOM      4  O   UNL     1     -47.807  35.440  28.273  1.00  0.00    -0.489 OA
BRANCH   4   5
ATOM      5  C   UNL     1     -46.989  36.531  28.179  1.00  0.00     0.122 A 
ATOM      6  C   UNL     1     -46.970  41.061  26.731  1.00  0.00     0.043 A 
ATOM      7  C   UNL     1     -45.637  41.246  27.055  1.00  0.00    -0.016 A 
ATOM      8  N   UNL     1     -47.602  39.886  26.933  1.00  0.00    -0.253 NA
ATOM      9  C   UNL     1     -44.896  40.192  27.602  1.00  0.00     0.048 A 
ATOM     10  H   UNL     1     -45.161  42.208  26.887  1.00  0.00     0.066 H 
ATOM     11  C   UNL     1     -46.912  38.863  27.459  1.00  0.00     0.076 A 
ATOM     12  C   UNL     1     -45.547  38.945  27.817  1.00  0.00     0.024 A 
ATOM     13  C   UNL     1     -47.596  37.669  27.647  1.00  0.00     0.007 A 
ATOM     14  C   UNL     1     -44.942  37.783  28.358  1.00  0.00    -0.047 A 
ATOM     15  H   UNL     1     -48.646  37.626  27.364  1.00  0.00     0.069 H 
ATOM     16  C   UNL     1     -45.651  36.591  28.536  1.00  0.00    -0.019 A 
ATOM     17  H   UNL     1     -43.897  37.787  28.646  1.00  0.00     0.063 H 
ATOM     18  H   UNL     1     -45.116  35.739  28.942  1.00  0.00     0.066 H 
BRANCH   6  19
ATOM     19  C   UNL     1     -47.787  42.189  26.163  1.00  0.00    -0.013 C 
ATOM     20  H   UNL     1     -48.526  42.510  26.909  1.00  0.00     0.033 H 
ATOM     21  H   UNL     1     -48.356  41.838  25.294  1.00  0.00     0.033 H 
BRANCH  19  22
ATOM     22  C   UNL     1     -46.915  43.372  25.775  1.00  0.00    -0.060 C 
ATOM     23  H   UNL     1     -47.279  44.286  26.256  1.00  0.00     0.023 H 
ATOM     24  H   UNL     1     -45.876  43.217  26.084  1.00  0.00     0.023 H 
ATOM     25  H   UNL     1     -46.922  43.534  24.692  1.00  0.00     0.023 H 
ENDBRANCH  19  22
ENDBRANCH   6  19
BRANCH   9  26
ATOM     26  N   UNL     1     -43.554  40.493  27.888  1.00  0.00    -0.366 N 
ATOM     27  C   UNL     1     -42.965  41.598  27.106  1.00  0.00     0.041 C 
ATOM     28  C   UNL     1     -43.196  40.529  29.319  1.00  0.00     0.041 C 
ATOM     29  C   UNL     1     -41.444  41.626  27.338  1.00  0.00     0.064 C 
ATOM     30  H   UNL     1     -43.382  42.560  27.416  1.00  0.00     0.052 H 
ATOM     31  H   UNL     1     -43.164  41.463  26.037  1.00  0.00     0.052 H 
ATOM     32  C   UNL     1     -41.665  40.604  29.454  1.00  0.00     0.064 C 
ATOM     33  H   UNL     1     -43.559  39.629  29.830  1.00  0.00     0.052 H 
ATOM     34  H   UNL     1     -43.631  41.404  29.809  1.00  0.00     0.052 H 
ATOM     35  O   UNL     1     -41.128  41.731  28.738  1.00  0.00    -0.378 OA
ATOM     36  H   UNL     1     -40.967  40.724  26.933  1.00  0.00     0.059 H 
ATOM     37  H   UNL     1     -41.007  42.492  26.833  1.00  0.00     0.059 H 
ATOM     38  H   UNL     1     -41.191  39.687  29.082  1.00  0.00     0.059 H 
ATOM     39  H   UNL     1     -41.391  40.719  30.508  1.00  0.00     0.059 H 
ENDBRANCH   9  26
ENDBRANCH   4   5
ENDBRANCH   1   4
BRANCH   1  40
ATOM     40  C   UNL     1     -48.017  34.114  26.213  1.00  0.00     0.010 A 
ATOM     41  C   UNL     1     -46.718  34.308  25.767  1.00  0.00     0.034 A 
ATOM     42  C   UNL     1     -48.677  32.952  25.785  1.00  0.00    -0.028 A 
ATOM     43  N   UNL     1     -46.075  33.468  24.933  1.00  0.00    -0.262 NA
ATOM     44  H   UNL     1     -46.134  35.173  26.074  1.00  0.00     0.084 H 
ATOM     45  C   UNL     1     -48.049  32.053  24.911  1.00  0.00     0.066 A 
ATOM     46  H   UNL     1     -49.678  32.772  26.166  1.00  0.00     0.065 H 
ATOM     47  C   UNL     1     -46.751  32.362  24.523  1.00  0.00     0.051 A 
ATOM     48  H   UNL     1     -46.171  31.754  23.839  1.00  0.00     0.086 H 
BRANCH  45  49
ATOM     49  N   UNL     1     -48.727  30.883  24.440  1.00  0.00    -0.299 N 
ATOM     50  C   UNL     1     -48.623  29.622  25.010  1.00  0.00     0.018 A 
ATOM     51  C   UNL     1     -49.606  30.774  23.364  1.00  0.00     0.150 A 
ATOM     52  C   UNL     1     -49.398  28.710  24.316  1.00  0.00     0.012 A 
ATOM     53  H   UNL     1     -48.023  29.459  25.894  1.00  0.00     0.083 H 
ATOM     54  C   UNL     1     -50.031  29.450  23.268  1.00  0.00     0.067 A 
ATOM     55  N   UNL     1     -49.984  31.765  22.533  1.00  0.00    -0.218 NA
ATOM     56  C   UNL     1     -50.932  29.146  22.232  1.00  0.00     0.136 A 
ATOM     57  C   UNL     1     -50.839  31.354  21.587  1.00  0.00     0.120 A 
ATOM     58  N   UNL     1     -51.324  30.119  21.393  1.00  0.00    -0.219 NA
ATOM     59  H   UNL     1     -51.180  32.113  20.889  1.00  0.00     0.106 H 
BRANCH  52  60
ATOM     60  C   UNL     1     -49.590  27.252  24.612  1.00  0.00     0.085 C 
ATOM     61  C   UNL     1     -50.384  26.935  25.874  1.00  0.00    -0.020 C 
ATOM     62  O   UNL     1     -48.323  26.567  24.767  1.00  0.00    -0.373 OA
ATOM     63  H   UNL     1     -50.087  26.788  23.748  1.00  0.00     0.066 H 
ATOM     64  C   UNL     1     -49.888  25.554  26.220  1.00  0.00    -0.027 C 
ATOM     65  H   UNL     1     -50.130  27.620  26.694  1.00  0.00     0.030 H 
ATOM     66  H   UNL     1     -51.466  26.981  25.719  1.00  0.00     0.030 H 
ATOM     67  C   UNL     1     -48.420  25.669  25.882  1.00  0.00     0.048 C 
ATOM     68  H   UNL     1     -50.067  25.269  27.260  1.00  0.00     0.029 H 
ATOM     69  H   UNL     1     -50.369  24.813  25.570  1.00  0.00     0.029 H 
ATOM     70  H   UNL     1     -47.854  26.104  26.712  1.00  0.00     0.057 H 
ATOM     71  H   UNL     1     -47.972  24.707  25.620  1.00  0.00     0.057 H 
ENDBRANCH  52  60
BRANCH  56  72
ATOM     72  N   UNL     1     -51.439  27.872  22.001  1.00  0.00    -0.383 N 
ATOM     73  H   UNL     1     -50.829  27.141  22.373  1.00  0.00     0.158 HD
ATOM     74  H   UNL     1     -51.695  27.770  21.028  1.00  0.00     0.158 HD
ENDBRANCH  56  72
ENDBRANCH  45  49
ENDBRANCH   1  40
TORSDOF 9
ENDMDL
