MODEL 1
REMARK VINA RESULT:     -10.9      0.000      0.000
REMARK SMILES O=C(NCc1ccc2cc(CNC[C@H]3CC34CC4)[nH]c2c1)c1cc(=O)n2ccccc2n1
REMARK SMILES IDX 5 1 6 2 7 3 8 4 9 5 10 6 19 7 20 8 21 9 4 15 3 18 1 19 2 20
REMARK SMILES IDX 22 22 23 23 32 24 24 25 31 27 25 28 26 29 30 30 27 31 29 32
REMARK SMILES IDX 28 34 11 38 12 41 13 43 14 46 15 47 16 48 17 52 18 53
REMARK H PARENT 6 10 7 11 9 12 19 13 21 14 4 16 4 17 3 21 23 26 30 33 27 35
REMARK H PARENT 29 36 28 37 11 39 11 40 12 42 13 44 13 45 14 49 15 50 15 51
REMARK H PARENT 17 54 17 55 18 56 18 57
REMARK Flexibility Score: inf
ROOT
ATOM      1  C   UNL     1     -48.117  34.565  26.496  1.00  0.00    -0.027 A 
ATOM      2  C   UNL     1     -46.830  34.691  25.958  1.00  0.00    -0.057 A 
ATOM      3  C   UNL     1     -46.279  33.686  25.152  1.00  0.00    -0.052 A 
ATOM      4  C   UNL     1     -47.038  32.534  24.873  1.00  0.00    -0.000 A 
ATOM      5  C   UNL     1     -46.803  31.354  24.116  1.00  0.00    -0.032 A 
ATOM      6  C   UNL     1     -47.932  30.563  24.190  1.00  0.00     0.030 A 
ATOM      7  N   UNL     1     -48.837  31.226  24.987  1.00  0.00    -0.357 N 
ATOM      8  C   UNL     1     -48.320  32.429  25.408  1.00  0.00     0.046 A 
ATOM      9  C   UNL     1     -48.886  33.423  26.215  1.00  0.00    -0.033 A 
ATOM     10  H   UNL     1     -46.237  35.581  26.162  1.00  0.00     0.063 H 
ATOM     11  H   UNL     1     -45.278  33.796  24.747  1.00  0.00     0.063 H 
ATOM     12  H   UNL     1     -45.902  31.113  23.567  1.00  0.00     0.065 H 
ATOM     13  H   UNL     1     -49.756  30.882  25.230  1.00  0.00     0.166 HD
ATOM     14  H   UNL     1     -49.892  33.317  26.612  1.00  0.00     0.065 H 
ENDROOT
BRANCH   1  15
ATOM     15  C   UNL     1     -48.701  35.673  27.334  1.00  0.00     0.043 C 
ATOM     16  H   UNL     1     -49.647  36.025  26.907  1.00  0.00     0.054 H 
ATOM     17  H   UNL     1     -48.923  35.323  28.349  1.00  0.00     0.054 H 
BRANCH  15  18
ATOM     18  N   UNL     1     -47.784  36.777  27.428  1.00  0.00    -0.347 N 
ATOM     19  O   UNL     1     -47.042  36.290  29.545  1.00  0.00    -0.268 OA
ATOM     20  C   UNL     1     -46.988  36.970  28.528  1.00  0.00     0.270 C 
ATOM     21  H   UNL     1     -47.593  37.354  26.614  1.00  0.00     0.164 HD
BRANCH  20  22
ATOM     22  C   UNL     1     -46.021  38.116  28.347  1.00  0.00     0.136 A 
ATOM     23  C   UNL     1     -46.239  38.918  27.303  1.00  0.00     0.035 A 
ATOM     24  N   UNL     1     -44.995  38.265  29.252  1.00  0.00    -0.225 NA
ATOM     25  C   UNL     1     -45.324  40.046  27.090  1.00  0.00     0.258 A 
ATOM     26  H   UNL     1     -47.051  38.791  26.599  1.00  0.00     0.071 H 
ATOM     27  C   UNL     1     -44.188  39.263  29.059  1.00  0.00     0.140 A 
ATOM     28  O   UNL     1     -45.516  40.791  26.130  1.00  0.00    -0.269 OA
ATOM     29  N   UNL     1     -44.297  40.173  28.014  1.00  0.00    -0.268 N 
ATOM     30  C   UNL     1     -43.060  39.463  30.014  1.00  0.00    -0.019 A 
ATOM     31  C   UNL     1     -43.388  41.218  27.878  1.00  0.00     0.014 A 
ATOM     32  C   UNL     1     -42.212  40.483  29.841  1.00  0.00    -0.057 A 
ATOM     33  H   UNL     1     -42.967  38.759  30.831  1.00  0.00     0.066 H 
ATOM     34  C   UNL     1     -42.378  41.391  28.739  1.00  0.00    -0.045 A 
ATOM     35  H   UNL     1     -43.534  41.893  27.038  1.00  0.00     0.082 H 
ATOM     36  H   UNL     1     -41.385  40.645  30.526  1.00  0.00     0.062 H 
ATOM     37  H   UNL     1     -41.675  42.211  28.623  1.00  0.00     0.064 H 
ENDBRANCH  20  22
ENDBRANCH  15  18
ENDBRANCH   1  15
BRANCH   6  38
ATOM     38  C   UNL     1     -48.237  29.233  23.595  1.00  0.00     0.036 C 
ATOM     39  H   UNL     1     -48.313  29.301  22.503  1.00  0.00     0.049 H 
ATOM     40  H   UNL     1     -47.398  28.554  23.795  1.00  0.00     0.049 H 
BRANCH  38  41
ATOM     41  N   UNL     1     -49.440  28.647  24.174  1.00  0.00    -0.311 NA
ATOM     42  H   UNL     1     -50.247  28.894  23.606  1.00  0.00     0.123 HD
BRANCH  41  43
ATOM     43  C   UNL     1     -49.360  27.191  24.260  1.00  0.00    -0.001 C 
ATOM     44  H   UNL     1     -48.531  26.813  23.651  1.00  0.00     0.043 H 
ATOM     45  H   UNL     1     -50.285  26.717  23.912  1.00  0.00     0.043 H 
BRANCH  43  46
ATOM     46  C   UNL     1     -49.097  26.848  25.693  1.00  0.00    -0.023 C 
ATOM     47  C   UNL     1     -49.346  25.417  26.210  1.00  0.00    -0.043 C 
ATOM     48  C   UNL     1     -47.998  25.953  26.048  1.00  0.00    -0.025 C 
ATOM     49  H   UNL     1     -49.312  27.673  26.362  1.00  0.00     0.032 H 
ATOM     50  H   UNL     1     -49.744  25.314  27.213  1.00  0.00     0.028 H 
ATOM     51  H   UNL     1     -49.689  24.670  25.506  1.00  0.00     0.028 H 
ATOM     52  C   UNL     1     -46.749  25.501  25.449  1.00  0.00    -0.047 C 
ATOM     53  C   UNL     1     -46.805  26.041  26.883  1.00  0.00    -0.047 C 
ATOM     54  H   UNL     1     -46.597  24.437  25.319  1.00  0.00     0.027 H 
ATOM     55  H   UNL     1     -46.280  26.124  24.698  1.00  0.00     0.027 H 
ATOM     56  H   UNL     1     -46.691  25.331  27.693  1.00  0.00     0.027 H 
ATOM     57  H   UNL     1     -46.379  27.018  27.071  1.00  0.00     0.027 H 
ENDBRANCH  43  46
ENDBRANCH  41  43
ENDBRANCH  38  41
ENDBRANCH   6  38
TORSDOF 7
ENDMDL
MODEL 2
REMARK VINA RESULT:     -10.7      1.465      2.089
REMARK SMILES O=C(NCc1ccc2cc(CNC[C@H]3CC34CC4)[nH]c2c1)c1cc(=O)n2ccccc2n1
REMARK SMILES IDX 5 1 6 2 7 3 8 4 9 5 10 6 19 7 20 8 21 9 4 15 3 18 1 19 2 20
REMARK SMILES IDX 22 22 23 23 32 24 24 25 31 27 25 28 26 29 30 30 27 31 29 32
REMARK SMILES IDX 28 34 11 38 12 41 13 43 14 46 15 47 16 48 17 52 18 53
REMARK H PARENT 6 10 7 11 9 12 19 13 21 14 4 16 4 17 3 21 23 26 30 33 27 35
REMARK H PARENT 29 36 28 37 11 39 11 40 12 42 13 44 13 45 14 49 15 50 15 51
REMARK H PARENT 17 54 17 55 18 56 18 57
REMARK Flexibility Score: inf
ROOT
ATOM      1  C   UNL     1     -47.959  35.829  27.096  1.00  0.00    -0.027 A 
ATOM      2  C   UNL     1     -46.681  35.720  26.532  1.00  0.00    -0.057 A 
ATOM      3  C   UNL     1     -46.307  34.585  25.800  1.00  0.00    -0.052 A 
ATOM      4  C   UNL     1     -47.235  33.542  25.624  1.00  0.00    -0.000 A 
ATOM      5  C   UNL     1     -47.197  32.286  24.959  1.00  0.00    -0.032 A 
ATOM      6  C   UNL     1     -48.429  31.681  25.111  1.00  0.00     0.030 A 
ATOM      7  N   UNL     1     -49.205  32.531  25.866  1.00  0.00    -0.357 N 
ATOM      8  C   UNL     1     -48.504  33.672  26.183  1.00  0.00     0.046 A 
ATOM      9  C   UNL     1     -48.896  34.797  26.917  1.00  0.00    -0.033 A 
ATOM     10  H   UNL     1     -45.958  36.524  26.656  1.00  0.00     0.063 H 
ATOM     11  H   UNL     1     -45.311  34.513  25.374  1.00  0.00     0.063 H 
ATOM     12  H   UNL     1     -46.356  31.872  24.418  1.00  0.00     0.065 H 
ATOM     13  H   UNL     1     -50.158  32.348  26.149  1.00  0.00     0.166 HD
ATOM     14  H   UNL     1     -49.896  34.874  27.335  1.00  0.00     0.065 H 
ENDROOT
BRANCH   1  15
ATOM     15  C   UNL     1     -48.350  37.073  27.852  1.00  0.00     0.043 C 
ATOM     16  H   UNL     1     -49.219  37.552  27.387  1.00  0.00     0.054 H 
ATOM     17  H   UNL     1     -48.635  36.832  28.883  1.00  0.00     0.054 H 
BRANCH  15  18
ATOM     18  N   UNL     1     -47.258  38.009  27.892  1.00  0.00    -0.347 N 
ATOM     19  O   UNL     1     -46.350  37.229  29.851  1.00  0.00    -0.268 OA
ATOM     20  C   UNL     1     -46.311  37.979  28.883  1.00  0.00     0.270 C 
ATOM     21  H   UNL     1     -47.077  38.617  27.099  1.00  0.00     0.164 HD
BRANCH  20  22
ATOM     22  C   UNL     1     -45.198  38.972  28.648  1.00  0.00     0.136 A 
ATOM     23  C   UNL     1     -44.255  39.043  29.589  1.00  0.00     0.035 A 
ATOM     24  N   UNL     1     -45.219  39.729  27.498  1.00  0.00    -0.225 NA
ATOM     25  C   UNL     1     -43.154  39.995  29.400  1.00  0.00     0.258 A 
ATOM     26  H   UNL     1     -44.249  38.441  30.489  1.00  0.00     0.071 H 
ATOM     27  C   UNL     1     -44.244  40.569  27.335  1.00  0.00     0.140 A 
ATOM     28  O   UNL     1     -42.280  40.068  30.263  1.00  0.00    -0.269 OA
ATOM     29  N   UNL     1     -43.199  40.747  28.235  1.00  0.00    -0.268 N 
ATOM     30  C   UNL     1     -44.226  41.411  26.105  1.00  0.00    -0.019 A 
ATOM     31  C   UNL     1     -42.190  41.671  27.985  1.00  0.00     0.014 A 
ATOM     32  C   UNL     1     -43.233  42.287  25.909  1.00  0.00    -0.057 A 
ATOM     33  H   UNL     1     -45.036  41.280  25.398  1.00  0.00     0.066 H 
ATOM     34  C   UNL     1     -42.180  42.424  26.879  1.00  0.00    -0.045 A 
ATOM     35  H   UNL     1     -41.404  41.757  28.732  1.00  0.00     0.082 H 
ATOM     36  H   UNL     1     -43.203  42.909  25.019  1.00  0.00     0.062 H 
ATOM     37  H   UNL     1     -41.387  43.142  26.694  1.00  0.00     0.064 H 
ENDBRANCH  20  22
ENDBRANCH  15  18
ENDBRANCH   1  15
BRANCH   6  38
ATOM     38  C   UNL     1     -48.943  30.370  24.627  1.00  0.00     0.036 C 
ATOM     39  H   UNL     1     -50.027  30.411  24.465  1.00  0.00     0.049 H 
ATOM     40  H   UNL     1     -48.500  30.156  23.647  1.00  0.00     0.049 H 
BRANCH  38  41
ATOM     41  N   UNL     1     -48.584  29.284  25.532  1.00  0.00    -0.311 NA
ATOM     42  H   UNL     1     -48.905  29.504  26.473  1.00  0.00     0.123 HD
BRANCH  41  43
ATOM     43  C   UNL     1     -49.170  28.010  25.127  1.00  0.00    -0.001 C 
ATOM     44  H   UNL     1     -48.661  27.617  24.239  1.00  0.00     0.043 H 
ATOM     45  H   UNL     1     -50.236  28.113  24.895  1.00  0.00     0.043 H 
BRANCH  43  46
ATOM     46  C   UNL     1     -48.966  27.052  26.258  1.00  0.00    -0.023 C 
ATOM     47  C   UNL     1     -49.338  25.564  26.097  1.00  0.00    -0.043 C 
ATOM     48  C   UNL     1     -47.949  26.007  26.167  1.00  0.00    -0.025 C 
ATOM     49  H   UNL     1     -49.129  27.513  27.226  1.00  0.00     0.032 H 
ATOM     50  H   UNL     1     -49.764  25.063  26.959  1.00  0.00     0.028 H 
ATOM     51  H   UNL     1     -49.723  25.234  25.142  1.00  0.00     0.028 H 
ATOM     52  C   UNL     1     -46.727  25.765  25.412  1.00  0.00    -0.047 C 
ATOM     53  C   UNL     1     -46.771  25.622  26.938  1.00  0.00    -0.047 C 
ATOM     54  H   UNL     1     -46.656  24.859  24.824  1.00  0.00     0.027 H 
ATOM     55  H   UNL     1     -46.193  26.615  25.004  1.00  0.00     0.027 H 
ATOM     56  H   UNL     1     -46.731  24.622  27.351  1.00  0.00     0.027 H 
ATOM     57  H   UNL     1     -46.274  26.380  27.530  1.00  0.00     0.027 H 
ENDBRANCH  43  46
ENDBRANCH  41  43
ENDBRANCH  38  41
ENDBRANCH   6  38
TORSDOF 7
ENDMDL
MODEL 3
REMARK VINA RESULT:     -10.2      2.739     11.317
REMARK SMILES O=C(NCc1ccc2cc(CNC[C@H]3CC34CC4)[nH]c2c1)c1cc(=O)n2ccccc2n1
REMARK SMILES IDX 5 1 6 2 7 3 8 4 9 5 10 6 19 7 20 8 21 9 4 15 3 18 1 19 2 20
REMARK SMILES IDX 22 22 23 23 32 24 24 25 31 27 25 28 26 29 30 30 27 31 29 32
REMARK SMILES IDX 28 34 11 38 12 41 13 43 14 46 15 47 16 48 17 52 18 53
REMARK H PARENT 6 10 7 11 9 12 19 13 21 14 4 16 4 17 3 21 23 26 30 33 27 35
REMARK H PARENT 29 36 28 37 11 39 11 40 12 42 13 44 13 45 14 49 15 50 15 51
REMARK H PARENT 17 54 17 55 18 56 18 57
REMARK Flexibility Score: inf
ROOT
ATOM      1  C   UNL     1     -46.856  33.597  25.730  1.00  0.00    -0.027 A 
ATOM      2  C   UNL     1     -48.162  34.025  26.001  1.00  0.00    -0.057 A 
ATOM      3  C   UNL     1     -48.423  34.961  27.010  1.00  0.00    -0.052 A 
ATOM      4  C   UNL     1     -47.352  35.484  27.758  1.00  0.00    -0.000 A 
ATOM      5  C   UNL     1     -47.253  36.423  28.822  1.00  0.00    -0.032 A 
ATOM      6  C   UNL     1     -45.919  36.557  29.154  1.00  0.00     0.030 A 
ATOM      7  N   UNL     1     -45.211  35.712  28.331  1.00  0.00    -0.357 N 
ATOM      8  C   UNL     1     -46.058  35.055  27.469  1.00  0.00     0.046 A 
ATOM      9  C   UNL     1     -45.778  34.121  26.464  1.00  0.00    -0.033 A 
ATOM     10  H   UNL     1     -48.997  33.632  25.424  1.00  0.00     0.063 H 
ATOM     11  H   UNL     1     -49.441  35.279  27.212  1.00  0.00     0.063 H 
ATOM     12  H   UNL     1     -48.073  36.949  29.290  1.00  0.00     0.065 H 
ATOM     13  H   UNL     1     -44.208  35.589  28.351  1.00  0.00     0.166 HD
ATOM     14  H   UNL     1     -44.758  33.811  26.256  1.00  0.00     0.065 H 
ENDROOT
BRANCH   1  15
ATOM     15  C   UNL     1     -46.595  32.613  24.618  1.00  0.00     0.043 C 
ATOM     16  H   UNL     1     -46.963  33.002  23.662  1.00  0.00     0.054 H 
ATOM     17  H   UNL     1     -45.521  32.435  24.495  1.00  0.00     0.054 H 
BRANCH  15  18
ATOM     18  N   UNL     1     -47.233  31.353  24.894  1.00  0.00    -0.347 N 
ATOM     19  O   UNL     1     -48.618  31.385  23.063  1.00  0.00    -0.268 OA
ATOM     20  C   UNL     1     -48.176  30.817  24.054  1.00  0.00     0.270 C 
ATOM     21  H   UNL     1     -46.886  30.757  25.638  1.00  0.00     0.164 HD
BRANCH  20  22
ATOM     22  C   UNL     1     -48.610  29.435  24.482  1.00  0.00     0.136 A 
ATOM     23  C   UNL     1     -49.914  29.167  24.389  1.00  0.00     0.035 A 
ATOM     24  N   UNL     1     -47.655  28.551  24.930  1.00  0.00    -0.225 NA
ATOM     25  C   UNL     1     -50.379  27.834  24.794  1.00  0.00     0.258 A 
ATOM     26  H   UNL     1     -50.655  29.870  24.034  1.00  0.00     0.071 H 
ATOM     27  C   UNL     1     -48.071  27.375  25.287  1.00  0.00     0.140 A 
ATOM     28  O   UNL     1     -51.579  27.577  24.713  1.00  0.00    -0.269 OA
ATOM     29  N   UNL     1     -49.397  26.963  25.244  1.00  0.00    -0.268 N 
ATOM     30  C   UNL     1     -47.071  26.385  25.781  1.00  0.00    -0.019 A 
ATOM     31  C   UNL     1     -49.761  25.682  25.645  1.00  0.00     0.014 A 
ATOM     32  C   UNL     1     -47.471  25.164  26.156  1.00  0.00    -0.057 A 
ATOM     33  H   UNL     1     -46.036  26.697  25.819  1.00  0.00     0.066 H 
ATOM     34  C   UNL     1     -48.859  24.798  26.088  1.00  0.00    -0.045 A 
ATOM     35  H   UNL     1     -50.817  25.426  25.584  1.00  0.00     0.082 H 
ATOM     36  H   UNL     1     -46.757  24.429  26.518  1.00  0.00     0.062 H 
ATOM     37  H   UNL     1     -49.155  23.800  26.398  1.00  0.00     0.064 H 
ENDBRANCH  20  22
ENDBRANCH  15  18
ENDBRANCH   1  15
BRANCH   6  38
ATOM     38  C   UNL     1     -45.247  37.395  30.184  1.00  0.00     0.036 C 
ATOM     39  H   UNL     1     -45.731  37.277  31.162  1.00  0.00     0.049 H 
ATOM     40  H   UNL     1     -44.217  37.040  30.315  1.00  0.00     0.049 H 
BRANCH  38  41
ATOM     41  N   UNL     1     -45.193  38.797  29.787  1.00  0.00    -0.311 NA
ATOM     42  H   UNL     1     -44.972  39.373  30.597  1.00  0.00     0.123 HD
BRANCH  41  43
ATOM     43  C   UNL     1     -44.189  39.042  28.755  1.00  0.00    -0.001 C 
ATOM     44  H   UNL     1     -44.074  38.161  28.112  1.00  0.00     0.043 H 
ATOM     45  H   UNL     1     -43.212  39.278  29.193  1.00  0.00     0.043 H 
BRANCH  43  46
ATOM     46  C   UNL     1     -44.683  40.182  27.921  1.00  0.00    -0.023 C 
ATOM     47  C   UNL     1     -44.255  40.313  26.446  1.00  0.00    -0.043 C 
ATOM     48  C   UNL     1     -45.616  39.945  26.823  1.00  0.00    -0.025 C 
ATOM     49  H   UNL     1     -44.803  41.094  28.496  1.00  0.00     0.032 H 
ATOM     50  H   UNL     1     -44.077  41.312  26.067  1.00  0.00     0.028 H 
ATOM     51  H   UNL     1     -43.613  39.547  26.030  1.00  0.00     0.028 H 
ATOM     52  C   UNL     1     -46.576  38.918  26.436  1.00  0.00    -0.047 C 
ATOM     53  C   UNL     1     -46.955  40.404  26.468  1.00  0.00    -0.047 C 
ATOM     54  H   UNL     1     -46.465  38.449  25.467  1.00  0.00     0.027 H 
ATOM     55  H   UNL     1     -46.989  38.279  27.207  1.00  0.00     0.027 H 
ATOM     56  H   UNL     1     -47.091  40.909  25.520  1.00  0.00     0.027 H 
ATOM     57  H   UNL     1     -47.611  40.739  27.262  1.00  0.00     0.027 H 
ENDBRANCH  43  46
ENDBRANCH  41  43
ENDBRANCH  38  41
ENDBRANCH   6  38
TORSDOF 7
ENDMDL
MODEL 4
REMARK VINA RESULT:     -10.1      2.702     11.467
REMARK SMILES O=C(NCc1ccc2cc(CNC[C@H]3CC34CC4)[nH]c2c1)c1cc(=O)n2ccccc2n1
REMARK SMILES IDX 5 1 6 2 7 3 8 4 9 5 10 6 19 7 20 8 21 9 4 15 3 18 1 19 2 20
REMARK SMILES IDX 22 22 23 23 32 24 24 25 31 27 25 28 26 29 30 30 27 31 29 32
REMARK SMILES IDX 28 34 11 38 12 41 13 43 14 46 15 47 16 48 17 52 18 53
REMARK H PARENT 6 10 7 11 9 12 19 13 21 14 4 16 4 17 3 21 23 26 30 33 27 35
REMARK H PARENT 29 36 28 37 11 39 11 40 12 42 13 44 13 45 14 49 15 50 15 51
REMARK H PARENT 17 54 17 55 18 56 18 57
REMARK Flexibility Score: inf
ROOT
ATOM      1  C   UNL     1     -48.317  33.822  26.038  1.00  0.00    -0.027 A 
ATOM      2  C   UNL     1     -46.979  33.558  25.719  1.00  0.00    -0.057 A 
ATOM      3  C   UNL     1     -45.943  34.352  26.227  1.00  0.00    -0.052 A 
ATOM      4  C   UNL     1     -46.254  35.429  27.078  1.00  0.00    -0.000 A 
ATOM      5  C   UNL     1     -45.479  36.410  27.756  1.00  0.00    -0.032 A 
ATOM      6  C   UNL     1     -46.340  37.218  28.472  1.00  0.00     0.030 A 
ATOM      7  N   UNL     1     -47.616  36.763  28.231  1.00  0.00    -0.357 N 
ATOM      8  C   UNL     1     -47.589  35.671  27.394  1.00  0.00     0.046 A 
ATOM      9  C   UNL     1     -48.638  34.889  26.895  1.00  0.00    -0.033 A 
ATOM     10  H   UNL     1     -46.727  32.724  25.067  1.00  0.00     0.063 H 
ATOM     11  H   UNL     1     -44.911  34.138  25.966  1.00  0.00     0.063 H 
ATOM     12  H   UNL     1     -44.403  36.509  27.728  1.00  0.00     0.065 H 
ATOM     13  H   UNL     1     -48.459  37.168  28.615  1.00  0.00     0.166 HD
ATOM     14  H   UNL     1     -49.669  35.097  27.165  1.00  0.00     0.065 H 
ENDROOT
BRANCH   1  15
ATOM     15  C   UNL     1     -49.413  32.935  25.506  1.00  0.00     0.043 C 
ATOM     16  H   UNL     1     -50.313  33.017  26.125  1.00  0.00     0.054 H 
ATOM     17  H   UNL     1     -49.700  33.232  24.490  1.00  0.00     0.054 H 
BRANCH  15  18
ATOM     18  N   UNL     1     -48.985  31.562  25.471  1.00  0.00    -0.347 N 
ATOM     19  O   UNL     1     -48.800  31.430  23.187  1.00  0.00    -0.268 OA
ATOM     20  C   UNL     1     -48.668  30.929  24.297  1.00  0.00     0.270 C 
ATOM     21  H   UNL     1     -48.758  31.076  26.333  1.00  0.00     0.164 HD
BRANCH  20  22
ATOM     22  C   UNL     1     -48.126  29.537  24.520  1.00  0.00     0.136 A 
ATOM     23  C   UNL     1     -47.061  29.191  23.795  1.00  0.00     0.035 A 
ATOM     24  N   UNL     1     -48.748  28.725  25.441  1.00  0.00    -0.225 NA
ATOM     25  C   UNL     1     -46.502  27.846  23.981  1.00  0.00     0.258 A 
ATOM     26  H   UNL     1     -46.581  29.839  23.074  1.00  0.00     0.071 H 
ATOM     27  C   UNL     1     -48.250  27.537  25.602  1.00  0.00     0.140 A 
ATOM     28  O   UNL     1     -45.520  27.517  23.316  1.00  0.00    -0.269 OA
ATOM     29  N   UNL     1     -47.147  27.047  24.913  1.00  0.00    -0.268 N 
ATOM     30  C   UNL     1     -48.892  26.623  26.589  1.00  0.00    -0.019 A 
ATOM     31  C   UNL     1     -46.675  25.759  25.144  1.00  0.00     0.014 A 
ATOM     32  C   UNL     1     -48.401  25.392  26.776  1.00  0.00    -0.057 A 
ATOM     33  H   UNL     1     -49.752  26.996  27.130  1.00  0.00     0.066 H 
ATOM     34  C   UNL     1     -47.256  24.943  26.031  1.00  0.00    -0.045 A 
ATOM     35  H   UNL     1     -45.807  25.441  24.571  1.00  0.00     0.082 H 
ATOM     36  H   UNL     1     -48.855  24.711  27.491  1.00  0.00     0.062 H 
ATOM     37  H   UNL     1     -46.878  23.939  26.204  1.00  0.00     0.064 H 
ENDBRANCH  20  22
ENDBRANCH  15  18
ENDBRANCH   1  15
BRANCH   6  38
ATOM     38  C   UNL     1     -46.079  38.391  29.350  1.00  0.00     0.036 C 
ATOM     39  H   UNL     1     -46.982  39.003  29.467  1.00  0.00     0.049 H 
ATOM     40  H   UNL     1     -45.828  38.032  30.357  1.00  0.00     0.049 H 
BRANCH  38  41
ATOM     41  N   UNL     1     -44.959  39.189  28.864  1.00  0.00    -0.311 NA
ATOM     42  H   UNL     1     -44.214  38.573  28.546  1.00  0.00     0.123 HD
BRANCH  41  43
ATOM     43  C   UNL     1     -45.341  40.064  27.759  1.00  0.00    -0.001 C 
ATOM     44  H   UNL     1     -45.633  41.052  28.133  1.00  0.00     0.043 H 
ATOM     45  H   UNL     1     -46.182  39.650  27.191  1.00  0.00     0.043 H 
BRANCH  43  46
ATOM     46  C   UNL     1     -44.138  40.219  26.884  1.00  0.00    -0.023 C 
ATOM     47  C   UNL     1     -44.104  41.305  25.789  1.00  0.00    -0.043 C 
ATOM     48  C   UNL     1     -43.290  41.404  26.996  1.00  0.00    -0.025 C 
ATOM     49  H   UNL     1     -43.655  39.272  26.672  1.00  0.00     0.032 H 
ATOM     50  H   UNL     1     -43.615  41.054  24.855  1.00  0.00     0.028 H 
ATOM     51  H   UNL     1     -44.960  41.960  25.692  1.00  0.00     0.028 H 
ATOM     52  C   UNL     1     -43.006  42.426  27.995  1.00  0.00    -0.047 C 
ATOM     53  C   UNL     1     -41.883  41.661  27.285  1.00  0.00    -0.047 C 
ATOM     54  H   UNL     1     -43.155  43.464  27.726  1.00  0.00     0.027 H 
ATOM     55  H   UNL     1     -43.188  42.196  29.038  1.00  0.00     0.027 H 
ATOM     56  H   UNL     1     -41.297  42.197  26.549  1.00  0.00     0.027 H 
ATOM     57  H   UNL     1     -41.333  40.926  27.859  1.00  0.00     0.027 H 
ENDBRANCH  43  46
ENDBRANCH  41  43
ENDBRANCH  38  41
ENDBRANCH   6  38
TORSDOF 7
ENDMDL
MODEL 5
REMARK VINA RESULT:     -10.1      2.533      3.975
REMARK SMILES O=C(NCc1ccc2cc(CNC[C@H]3CC34CC4)[nH]c2c1)c1cc(=O)n2ccccc2n1
REMARK SMILES IDX 5 1 6 2 7 3 8 4 9 5 10 6 19 7 20 8 21 9 4 15 3 18 1 19 2 20
REMARK SMILES IDX 22 22 23 23 32 24 24 25 31 27 25 28 26 29 30 30 27 31 29 32
REMARK SMILES IDX 28 34 11 38 12 41 13 43 14 46 15 47 16 48 17 52 18 53
REMARK H PARENT 6 10 7 11 9 12 19 13 21 14 4 16 4 17 3 21 23 26 30 33 27 35
REMARK H PARENT 29 36 28 37 11 39 11 40 12 42 13 44 13 45 14 49 15 50 15 51
REMARK H PARENT 17 54 17 55 18 56 18 57
REMARK Flexibility Score: inf
ROOT
ATOM      1  C   UNL     1     -46.546  35.411  28.294  1.00  0.00    -0.027 A 
ATOM      2  C   UNL     1     -47.846  35.709  27.867  1.00  0.00    -0.057 A 
ATOM      3  C   UNL     1     -48.452  34.986  26.831  1.00  0.00    -0.052 A 
ATOM      4  C   UNL     1     -47.743  33.937  26.217  1.00  0.00    -0.000 A 
ATOM      5  C   UNL     1     -48.041  33.021  25.171  1.00  0.00    -0.032 A 
ATOM      6  C   UNL     1     -46.949  32.192  25.002  1.00  0.00     0.030 A 
ATOM      7  N   UNL     1     -45.993  32.593  25.906  1.00  0.00    -0.357 N 
ATOM      8  C   UNL     1     -46.455  33.647  26.661  1.00  0.00     0.046 A 
ATOM      9  C   UNL     1     -45.833  34.359  27.694  1.00  0.00    -0.033 A 
ATOM     10  H   UNL     1     -48.406  36.514  28.340  1.00  0.00     0.063 H 
ATOM     11  H   UNL     1     -49.458  35.233  26.508  1.00  0.00     0.063 H 
ATOM     12  H   UNL     1     -48.962  32.970  24.606  1.00  0.00     0.065 H 
ATOM     13  H   UNL     1     -45.079  32.175  26.008  1.00  0.00     0.166 HD
ATOM     14  H   UNL     1     -44.830  34.105  28.025  1.00  0.00     0.065 H 
ENDROOT
BRANCH   1  15
ATOM     15  C   UNL     1     -45.926  36.181  29.431  1.00  0.00     0.043 C 
ATOM     16  H   UNL     1     -46.672  36.404  30.202  1.00  0.00     0.054 H 
ATOM     17  H   UNL     1     -45.135  35.597  29.917  1.00  0.00     0.054 H 
BRANCH  15  18
ATOM     18  N   UNL     1     -45.352  37.413  28.959  1.00  0.00    -0.347 N 
ATOM     19  O   UNL     1     -44.501  38.071  30.987  1.00  0.00    -0.268 OA
ATOM     20  C   UNL     1     -44.639  38.246  29.782  1.00  0.00     0.270 C 
ATOM     21  H   UNL     1     -45.329  37.618  27.964  1.00  0.00     0.164 HD
BRANCH  20  22
ATOM     22  C   UNL     1     -44.029  39.410  29.038  1.00  0.00     0.136 A 
ATOM     23  C   UNL     1     -42.981  40.001  29.615  1.00  0.00     0.035 A 
ATOM     24  N   UNL     1     -44.577  39.783  27.831  1.00  0.00    -0.225 NA
ATOM     25  C   UNL     1     -42.357  41.137  28.925  1.00  0.00     0.258 A 
ATOM     26  H   UNL     1     -42.559  39.697  30.564  1.00  0.00     0.071 H 
ATOM     27  C   UNL     1     -44.022  40.788  27.226  1.00  0.00     0.140 A 
ATOM     28  O   UNL     1     -41.391  41.689  29.449  1.00  0.00    -0.269 OA
ATOM     29  N   UNL     1     -42.929  41.494  27.712  1.00  0.00    -0.268 N 
ATOM     30  C   UNL     1     -44.583  41.228  25.916  1.00  0.00    -0.019 A 
ATOM     31  C   UNL     1     -42.392  42.562  26.999  1.00  0.00     0.014 A 
ATOM     32  C   UNL     1     -44.032  42.261  25.268  1.00  0.00    -0.057 A 
ATOM     33  H   UNL     1     -45.435  40.684  25.529  1.00  0.00     0.066 H 
ATOM     34  C   UNL     1     -42.901  42.953  25.825  1.00  0.00    -0.045 A 
ATOM     35  H   UNL     1     -41.537  43.069  27.439  1.00  0.00     0.082 H 
ATOM     36  H   UNL     1     -44.426  42.597  24.313  1.00  0.00     0.062 H 
ATOM     37  H   UNL     1     -42.474  43.787  25.276  1.00  0.00     0.064 H 
ENDBRANCH  20  22
ENDBRANCH  15  18
ENDBRANCH   1  15
BRANCH   6  38
ATOM     38  C   UNL     1     -46.713  31.065  24.058  1.00  0.00     0.036 C 
ATOM     39  H   UNL     1     -46.945  31.362  23.028  1.00  0.00     0.049 H 
ATOM     40  H   UNL     1     -45.645  30.815  24.064  1.00  0.00     0.049 H 
BRANCH  38  41
ATOM     41  N   UNL     1     -47.458  29.873  24.446  1.00  0.00    -0.311 NA
ATOM     42  H   UNL     1     -47.737  29.948  25.422  1.00  0.00     0.123 HD
BRANCH  41  43
ATOM     43  C   UNL     1     -48.657  29.681  23.634  1.00  0.00    -0.001 C 
ATOM     44  H   UNL     1     -49.303  30.565  23.684  1.00  0.00     0.043 H 
ATOM     45  H   UNL     1     -49.236  28.813  23.971  1.00  0.00     0.043 H 
BRANCH  43  46
ATOM     46  C   UNL     1     -48.206  29.496  22.219  1.00  0.00    -0.023 C 
ATOM     47  C   UNL     1     -49.084  28.724  21.215  1.00  0.00    -0.043 C 
ATOM     48  C   UNL     1     -48.905  30.170  21.127  1.00  0.00    -0.025 C 
ATOM     49  H   UNL     1     -47.130  29.389  22.138  1.00  0.00     0.032 H 
ATOM     50  H   UNL     1     -48.577  28.096  20.492  1.00  0.00     0.028 H 
ATOM     51  H   UNL     1     -50.039  28.346  21.555  1.00  0.00     0.028 H 
ATOM     52  C   UNL     1     -49.770  31.331  20.965  1.00  0.00    -0.047 C 
ATOM     53  C   UNL     1     -48.540  31.112  20.074  1.00  0.00    -0.047 C 
ATOM     54  H   UNL     1     -50.745  31.188  20.518  1.00  0.00     0.027 H 
ATOM     55  H   UNL     1     -49.718  32.123  21.703  1.00  0.00     0.027 H 
ATOM     56  H   UNL     1     -48.711  30.823  19.044  1.00  0.00     0.027 H 
ATOM     57  H   UNL     1     -47.683  31.754  20.232  1.00  0.00     0.027 H 
ENDBRANCH  43  46
ENDBRANCH  41  43
ENDBRANCH  38  41
ENDBRANCH   6  38
TORSDOF 7
ENDMDL
MODEL 6
REMARK VINA RESULT:     -10.0      1.678      2.379
REMARK SMILES O=C(NCc1ccc2cc(CNC[C@H]3CC34CC4)[nH]c2c1)c1cc(=O)n2ccccc2n1
REMARK SMILES IDX 5 1 6 2 7 3 8 4 9 5 10 6 19 7 20 8 21 9 4 15 3 18 1 19 2 20
REMARK SMILES IDX 22 22 23 23 32 24 24 25 31 27 25 28 26 29 30 30 27 31 29 32
REMARK SMILES IDX 28 34 11 38 12 41 13 43 14 46 15 47 16 48 17 52 18 53
REMARK H PARENT 6 10 7 11 9 12 19 13 21 14 4 16 4 17 3 21 23 26 30 33 27 35
REMARK H PARENT 29 36 28 37 11 39 11 40 12 42 13 44 13 45 14 49 15 50 15 51
REMARK H PARENT 17 54 17 55 18 56 18 57
REMARK Flexibility Score: inf
ROOT
ATOM      1  C   UNL     1     -46.383  34.798  27.367  1.00  0.00    -0.027 A 
ATOM      2  C   UNL     1     -47.777  34.827  27.233  1.00  0.00    -0.057 A 
ATOM      3  C   UNL     1     -48.436  33.985  26.327  1.00  0.00    -0.052 A 
ATOM      4  C   UNL     1     -47.682  33.089  25.546  1.00  0.00    -0.000 A 
ATOM      5  C   UNL     1     -48.009  32.119  24.560  1.00  0.00    -0.032 A 
ATOM      6  C   UNL     1     -46.838  31.521  24.139  1.00  0.00     0.030 A 
ATOM      7  N   UNL     1     -45.809  32.116  24.833  1.00  0.00    -0.357 N 
ATOM      8  C   UNL     1     -46.297  33.066  25.700  1.00  0.00     0.046 A 
ATOM      9  C   UNL     1     -45.622  33.901  26.599  1.00  0.00    -0.033 A 
ATOM     10  H   UNL     1     -48.370  35.511  27.837  1.00  0.00     0.063 H 
ATOM     11  H   UNL     1     -49.516  34.023  26.231  1.00  0.00     0.063 H 
ATOM     12  H   UNL     1     -49.001  31.880  24.201  1.00  0.00     0.065 H 
ATOM     13  H   UNL     1     -44.830  31.888  24.727  1.00  0.00     0.166 HD
ATOM     14  H   UNL     1     -44.542  33.855  26.703  1.00  0.00     0.065 H 
ENDROOT
BRANCH   1  15
ATOM     15  C   UNL     1     -45.699  35.691  28.370  1.00  0.00     0.043 C 
ATOM     16  H   UNL     1     -46.297  35.777  29.284  1.00  0.00     0.054 H 
ATOM     17  H   UNL     1     -44.728  35.277  28.666  1.00  0.00     0.054 H 
BRANCH  15  18
ATOM     18  N   UNL     1     -45.483  37.002  27.820  1.00  0.00    -0.347 N 
ATOM     19  O   UNL     1     -47.309  37.978  28.811  1.00  0.00    -0.268 OA
ATOM     20  C   UNL     1     -46.296  38.063  28.127  1.00  0.00     0.270 C 
ATOM     21  H   UNL     1     -44.628  37.209  27.312  1.00  0.00     0.164 HD
BRANCH  20  22
ATOM     22  C   UNL     1     -45.801  39.361  27.534  1.00  0.00     0.136 A 
ATOM     23  C   UNL     1     -46.717  40.132  26.945  1.00  0.00     0.035 A 
ATOM     24  N   UNL     1     -44.463  39.666  27.635  1.00  0.00    -0.225 NA
ATOM     25  C   UNL     1     -46.279  41.404  26.356  1.00  0.00     0.258 A 
ATOM     26  H   UNL     1     -47.767  39.881  26.873  1.00  0.00     0.071 H 
ATOM     27  C   UNL     1     -44.081  40.791  27.112  1.00  0.00     0.140 A 
ATOM     28  O   UNL     1     -47.116  42.122  25.810  1.00  0.00    -0.269 OA
ATOM     29  N   UNL     1     -44.926  41.687  26.470  1.00  0.00    -0.268 N 
ATOM     30  C   UNL     1     -42.639  41.162  27.197  1.00  0.00    -0.019 A 
ATOM     31  C   UNL     1     -44.435  42.874  25.935  1.00  0.00     0.014 A 
ATOM     32  C   UNL     1     -42.215  42.316  26.668  1.00  0.00    -0.057 A 
ATOM     33  H   UNL     1     -41.973  40.470  27.696  1.00  0.00     0.066 H 
ATOM     34  C   UNL     1     -43.140  43.202  26.014  1.00  0.00    -0.045 A 
ATOM     35  H   UNL     1     -45.153  43.530  25.447  1.00  0.00     0.082 H 
ATOM     36  H   UNL     1     -41.169  42.604  26.719  1.00  0.00     0.062 H 
ATOM     37  H   UNL     1     -42.768  44.132  25.594  1.00  0.00     0.064 H 
ENDBRANCH  20  22
ENDBRANCH  15  18
ENDBRANCH   1  15
BRANCH   6  38
ATOM     38  C   UNL     1     -46.591  30.451  23.134  1.00  0.00     0.036 C 
ATOM     39  H   UNL     1     -47.404  30.409  22.399  1.00  0.00     0.049 H 
ATOM     40  H   UNL     1     -45.686  30.700  22.565  1.00  0.00     0.049 H 
BRANCH  38  41
ATOM     41  N   UNL     1     -46.384  29.154  23.767  1.00  0.00    -0.311 NA
ATOM     42  H   UNL     1     -45.725  29.252  24.536  1.00  0.00     0.123 HD
BRANCH  41  43
ATOM     43  C   UNL     1     -47.625  28.588  24.289  1.00  0.00    -0.001 C 
ATOM     44  H   UNL     1     -48.464  28.820  23.623  1.00  0.00     0.043 H 
ATOM     45  H   UNL     1     -47.859  28.981  25.285  1.00  0.00     0.043 H 
BRANCH  43  46
ATOM     46  C   UNL     1     -47.447  27.103  24.335  1.00  0.00    -0.023 C 
ATOM     47  C   UNL     1     -46.163  26.490  24.927  1.00  0.00    -0.043 C 
ATOM     48  C   UNL     1     -47.446  26.399  25.615  1.00  0.00    -0.025 C 
ATOM     49  H   UNL     1     -47.901  26.605  23.486  1.00  0.00     0.032 H 
ATOM     50  H   UNL     1     -45.770  25.601  24.448  1.00  0.00     0.028 H 
ATOM     51  H   UNL     1     -45.412  27.160  25.327  1.00  0.00     0.028 H 
ATOM     52  C   UNL     1     -47.936  26.635  26.967  1.00  0.00    -0.047 C 
ATOM     53  C   UNL     1     -48.229  25.327  26.221  1.00  0.00    -0.047 C 
ATOM     54  H   UNL     1     -47.228  26.598  27.785  1.00  0.00     0.027 H 
ATOM     55  H   UNL     1     -48.759  27.326  27.107  1.00  0.00     0.027 H 
ATOM     56  H   UNL     1     -47.712  24.434  26.549  1.00  0.00     0.027 H 
ATOM     57  H   UNL     1     -49.239  25.165  25.867  1.00  0.00     0.027 H 
ENDBRANCH  43  46
ENDBRANCH  41  43
ENDBRANCH  38  41
ENDBRANCH   6  38
TORSDOF 7
ENDMDL
MODEL 7
REMARK VINA RESULT:      -9.7      2.720      4.974
REMARK SMILES O=C(NCc1ccc2cc(CNC[C@H]3CC34CC4)[nH]c2c1)c1cc(=O)n2ccccc2n1
REMARK SMILES IDX 5 1 6 2 7 3 8 4 9 5 10 6 19 7 20 8 21 9 4 15 3 18 1 19 2 20
REMARK SMILES IDX 22 22 23 23 32 24 24 25 31 27 25 28 26 29 30 30 27 31 29 32
REMARK SMILES IDX 28 34 11 38 12 41 13 43 14 46 15 47 16 48 17 52 18 53
REMARK H PARENT 6 10 7 11 9 12 19 13 21 14 4 16 4 17 3 21 23 26 30 33 27 35
REMARK H PARENT 29 36 28 37 11 39 11 40 12 42 13 44 13 45 14 49 15 50 15 51
REMARK H PARENT 17 54 17 55 18 56 18 57
REMARK Flexibility Score: inf
ROOT
ATOM      1  C   UNL     1     -45.738  37.624  28.354  1.00  0.00    -0.027 A 
ATOM      2  C   UNL     1     -47.062  37.934  28.013  1.00  0.00    -0.057 A 
ATOM      3  C   UNL     1     -47.883  36.996  27.374  1.00  0.00    -0.052 A 
ATOM      4  C   UNL     1     -47.370  35.719  27.078  1.00  0.00    -0.000 A 
ATOM      5  C   UNL     1     -47.907  34.557  26.458  1.00  0.00    -0.032 A 
ATOM      6  C   UNL     1     -46.928  33.583  26.453  1.00  0.00     0.030 A 
ATOM      7  N   UNL     1     -45.810  34.130  27.038  1.00  0.00    -0.357 N 
ATOM      8  C   UNL     1     -46.056  35.425  27.433  1.00  0.00     0.046 A 
ATOM      9  C   UNL     1     -45.220  36.349  28.071  1.00  0.00    -0.033 A 
ATOM     10  H   UNL     1     -47.470  38.916  28.244  1.00  0.00     0.063 H 
ATOM     11  H   UNL     1     -48.905  37.252  27.111  1.00  0.00     0.063 H 
ATOM     12  H   UNL     1     -48.907  34.445  26.063  1.00  0.00     0.065 H 
ATOM     13  H   UNL     1     -44.928  33.652  27.165  1.00  0.00     0.166 HD
ATOM     14  H   UNL     1     -44.201  36.089  28.344  1.00  0.00     0.065 H 
ENDROOT
BRANCH   1  15
ATOM     15  C   UNL     1     -44.883  38.638  29.069  1.00  0.00     0.043 C 
ATOM     16  H   UNL     1     -45.344  38.935  30.018  1.00  0.00     0.054 H 
ATOM     17  H   UNL     1     -43.899  38.220  29.313  1.00  0.00     0.054 H 
BRANCH  15  18
ATOM     18  N   UNL     1     -44.687  39.806  28.252  1.00  0.00    -0.347 N 
ATOM     19  O   UNL     1     -42.712  40.450  29.230  1.00  0.00    -0.268 OA
ATOM     20  C   UNL     1     -43.577  40.602  28.376  1.00  0.00     0.270 C 
ATOM     21  H   UNL     1     -45.294  39.981  27.457  1.00  0.00     0.164 HD
BRANCH  20  22
ATOM     22  C   UNL     1     -43.530  41.693  27.332  1.00  0.00     0.136 A 
ATOM     23  C   UNL     1     -42.328  41.983  26.830  1.00  0.00     0.035 A 
ATOM     24  N   UNL     1     -44.706  42.308  26.964  1.00  0.00    -0.225 NA
ATOM     25  C   UNL     1     -42.237  43.037  25.812  1.00  0.00     0.258 A 
ATOM     26  H   UNL     1     -41.411  41.491  27.127  1.00  0.00     0.071 H 
ATOM     27  C   UNL     1     -44.619  43.239  26.064  1.00  0.00     0.140 A 
ATOM     28  O   UNL     1     -41.133  43.313  25.344  1.00  0.00    -0.269 OA
ATOM     29  N   UNL     1     -43.435  43.642  25.460  1.00  0.00    -0.268 N 
ATOM     30  C   UNL     1     -45.867  43.933  25.636  1.00  0.00    -0.019 A 
ATOM     31  C   UNL     1     -43.428  44.651  24.502  1.00  0.00     0.014 A 
ATOM     32  C   UNL     1     -45.810  44.897  24.709  1.00  0.00    -0.057 A 
ATOM     33  H   UNL     1     -46.795  43.626  26.101  1.00  0.00     0.066 H 
ATOM     34  C   UNL     1     -44.552  45.271  24.122  1.00  0.00    -0.045 A 
ATOM     35  H   UNL     1     -42.466  44.915  24.070  1.00  0.00     0.082 H 
ATOM     36  H   UNL     1     -46.708  45.415  24.385  1.00  0.00     0.062 H 
ATOM     37  H   UNL     1     -44.535  46.056  23.372  1.00  0.00     0.064 H 
ENDBRANCH  20  22
ENDBRANCH  15  18
ENDBRANCH   1  15
BRANCH   6  38
ATOM     38  C   UNL     1     -46.940  32.187  25.936  1.00  0.00     0.036 C 
ATOM     39  H   UNL     1     -46.968  32.176  24.839  1.00  0.00     0.049 H 
ATOM     40  H   UNL     1     -45.999  31.696  26.216  1.00  0.00     0.049 H 
BRANCH  38  41
ATOM     41  N   UNL     1     -48.039  31.412  26.501  1.00  0.00    -0.311 NA
ATOM     42  H   UNL     1     -48.689  32.037  26.973  1.00  0.00     0.123 HD
BRANCH  41  43
ATOM     43  C   UNL     1     -48.771  30.665  25.482  1.00  0.00    -0.001 C 
ATOM     44  H   UNL     1     -49.534  31.297  25.014  1.00  0.00     0.043 H 
ATOM     45  H   UNL     1     -49.267  29.785  25.907  1.00  0.00     0.043 H 
BRANCH  43  46
ATOM     46  C   UNL     1     -47.780  30.258  24.437  1.00  0.00    -0.023 C 
ATOM     47  C   UNL     1     -47.806  28.833  23.850  1.00  0.00    -0.043 C 
ATOM     48  C   UNL     1     -48.216  29.995  23.068  1.00  0.00    -0.025 C 
ATOM     49  H   UNL     1     -46.814  30.731  24.576  1.00  0.00     0.032 H 
ATOM     50  H   UNL     1     -46.851  28.371  23.626  1.00  0.00     0.028 H 
ATOM     51  H   UNL     1     -48.571  28.151  24.196  1.00  0.00     0.028 H 
ATOM     52  C   UNL     1     -49.346  30.347  22.217  1.00  0.00    -0.047 C 
ATOM     53  C   UNL     1     -47.897  30.526  21.747  1.00  0.00    -0.047 C 
ATOM     54  H   UNL     1     -49.924  29.547  21.772  1.00  0.00     0.027 H 
ATOM     55  H   UNL     1     -49.911  31.241  22.451  1.00  0.00     0.027 H 
ATOM     56  H   UNL     1     -47.525  29.842  20.993  1.00  0.00     0.027 H 
ATOM     57  H   UNL     1     -47.511  31.535  21.677  1.00  0.00     0.027 H 
ENDBRANCH  43  46
ENDBRANCH  41  43
ENDBRANCH  38  41
ENDBRANCH   6  38
TORSDOF 7
ENDMDL
