MODEL 1
REMARK VINA RESULT:     -10.8      0.000      0.000
REMARK SMILES Nc1ccc2cc(OC[C@H]3C[C@@H](n4ccc5c(NCCc6ccccc6)ncnc54)[C@H](O)[C@@H]3O)ccc2n1
REMARK SMILES IDX 13 1 14 2 15 3 16 4 17 5 27 6 28 7 29 8 30 9 12 13 10 14
REMARK SMILES IDX 11 15 33 16 31 20 9 24 8 27 7 28 2 29 3 30 38 31 4 32 37 34
REMARK SMILES IDX 5 35 36 37 6 38 35 39 1 43 34 46 32 48 18 50 19 52 20 55
REMARK SMILES IDX 21 58 22 59 26 60 23 61 25 63 24 65
REMARK H PARENT 14 10 15 11 28 12 10 17 11 18 11 19 33 21 12 22 31 23 9 25
REMARK H PARENT 9 26 3 33 4 36 36 40 6 41 35 42 1 44 1 45 34 47 32 49 18 51
REMARK H PARENT 19 53 19 54 20 56 20 57 22 62 26 64 23 66 25 67 24 68
REMARK Flexibility Score: inf
ROOT
ATOM      1  N   UNL     1     -47.241  33.034  25.852  1.00  0.00    -0.327 N 
ATOM      2  C   UNL     1     -46.048  32.595  25.330  1.00  0.00     0.007 A 
ATOM      3  C   UNL     1     -46.331  31.739  24.286  1.00  0.00    -0.031 A 
ATOM      4  C   UNL     1     -47.747  31.648  24.170  1.00  0.00     0.061 A 
ATOM      5  C   UNL     1     -48.655  30.962  23.343  1.00  0.00     0.138 A 
ATOM      6  N   UNL     1     -49.978  31.149  23.565  1.00  0.00    -0.219 NA
ATOM      7  C   UNL     1     -50.361  31.976  24.554  1.00  0.00     0.120 A 
ATOM      8  N   UNL     1     -49.586  32.671  25.404  1.00  0.00    -0.218 NA
ATOM      9  C   UNL     1     -48.281  32.464  25.158  1.00  0.00     0.145 A 
ATOM     10  H   UNL     1     -45.099  32.920  25.737  1.00  0.00     0.082 H 
ATOM     11  H   UNL     1     -45.600  31.231  23.671  1.00  0.00     0.065 H 
ATOM     12  H   UNL     1     -51.433  32.094  24.683  1.00  0.00     0.106 H 
ENDROOT
BRANCH   1  13
ATOM     13  C   UNL     1     -47.363  33.958  26.966  1.00  0.00     0.064 C 
ATOM     14  C   UNL     1     -47.148  36.308  27.508  1.00  0.00     0.024 C 
ATOM     15  C   UNL     1     -47.856  35.354  26.546  1.00  0.00    -0.021 C 
ATOM     16  C   UNL     1     -45.762  35.684  27.635  1.00  0.00     0.088 C 
ATOM     17  H   UNL     1     -47.662  36.277  28.478  1.00  0.00     0.037 H 
ATOM     18  H   UNL     1     -48.946  35.431  26.630  1.00  0.00     0.029 H 
ATOM     19  H   UNL     1     -47.597  35.585  25.506  1.00  0.00     0.029 H 
ATOM     20  C   UNL     1     -46.049  34.178  27.752  1.00  0.00     0.101 C 
ATOM     21  H   UNL     1     -45.157  35.897  26.747  1.00  0.00     0.063 H 
ATOM     22  H   UNL     1     -48.109  33.523  27.646  1.00  0.00     0.056 H 
ATOM     23  H   UNL     1     -45.196  33.583  27.411  1.00  0.00     0.065 H 
BRANCH  14  24
ATOM     24  C   UNL     1     -47.097  37.751  27.012  1.00  0.00     0.094 C 
ATOM     25  H   UNL     1     -46.480  37.870  26.115  1.00  0.00     0.071 H 
ATOM     26  H   UNL     1     -48.105  38.069  26.715  1.00  0.00     0.071 H 
BRANCH  24  27
ATOM     27  O   UNL     1     -46.697  38.637  28.061  1.00  0.00    -0.493 OA
BRANCH  27  28
ATOM     28  C   UNL     1     -45.623  39.454  27.856  1.00  0.00     0.120 A 
ATOM     29  C   UNL     1     -42.630  42.884  25.825  1.00  0.00     0.124 A 
ATOM     30  C   UNL     1     -43.727  42.866  24.982  1.00  0.00    -0.019 A 
ATOM     31  N   UNL     1     -42.531  42.106  26.916  1.00  0.00    -0.231 NA
ATOM     32  C   UNL     1     -44.772  41.995  25.265  1.00  0.00    -0.049 A 
ATOM     33  H   UNL     1     -43.777  43.527  24.124  1.00  0.00     0.066 H 
ATOM     34  C   UNL     1     -43.542  41.262  27.195  1.00  0.00     0.073 A 
ATOM     35  C   UNL     1     -44.694  41.168  26.390  1.00  0.00     0.004 A 
ATOM     36  H   UNL     1     -45.641  41.970  24.613  1.00  0.00     0.063 H 
ATOM     37  C   UNL     1     -43.463  40.444  28.313  1.00  0.00    -0.032 A 
ATOM     38  C   UNL     1     -45.721  40.269  26.726  1.00  0.00    -0.011 A 
ATOM     39  C   UNL     1     -44.486  39.546  28.650  1.00  0.00    -0.018 A 
ATOM     40  H   UNL     1     -42.581  40.507  28.945  1.00  0.00     0.065 H 
ATOM     41  H   UNL     1     -46.612  40.199  26.104  1.00  0.00     0.067 H 
ATOM     42  H   UNL     1     -44.353  38.945  29.545  1.00  0.00     0.066 H 
BRANCH  29  43
ATOM     43  N   UNL     1     -41.570  43.756  25.587  1.00  0.00    -0.384 N 
ATOM     44  H   UNL     1     -41.721  44.567  26.182  1.00  0.00     0.158 HD
ATOM     45  H   UNL     1     -40.678  43.314  25.776  1.00  0.00     0.158 HD
ENDBRANCH  29  43
ENDBRANCH  27  28
ENDBRANCH  24  27
ENDBRANCH  14  24
BRANCH  16  46
ATOM     46  O   UNL     1     -45.087  36.182  28.782  1.00  0.00    -0.390 OA
ATOM     47  H   UNL     1     -44.167  35.852  28.699  1.00  0.00     0.211 HD
ENDBRANCH  16  46
BRANCH  20  48
ATOM     48  O   UNL     1     -46.246  33.865  29.145  1.00  0.00    -0.388 OA
ATOM     49  H   UNL     1     -45.899  34.620  29.655  1.00  0.00     0.211 HD
ENDBRANCH  20  48
ENDBRANCH   1  13
BRANCH   5  50
ATOM     50  N   UNL     1     -48.222  30.115  22.323  1.00  0.00    -0.369 N 
ATOM     51  H   UNL     1     -47.520  30.556  21.737  1.00  0.00     0.162 HD
BRANCH  50  52
ATOM     52  C   UNL     1     -47.890  28.742  22.698  1.00  0.00     0.020 C 
ATOM     53  H   UNL     1     -47.743  28.117  21.809  1.00  0.00     0.049 H 
ATOM     54  H   UNL     1     -46.920  28.767  23.208  1.00  0.00     0.049 H 
BRANCH  52  55
ATOM     55  C   UNL     1     -48.936  28.104  23.625  1.00  0.00    -0.010 C 
ATOM     56  H   UNL     1     -49.681  27.576  23.014  1.00  0.00     0.033 H 
ATOM     57  H   UNL     1     -49.493  28.878  24.166  1.00  0.00     0.033 H 
BRANCH  55  58
ATOM     58  C   UNL     1     -48.343  27.121  24.610  1.00  0.00    -0.046 A 
ATOM     59  C   UNL     1     -46.952  27.015  24.753  1.00  0.00    -0.059 A 
ATOM     60  C   UNL     1     -49.171  26.287  25.373  1.00  0.00    -0.059 A 
ATOM     61  C   UNL     1     -46.400  26.091  25.641  1.00  0.00    -0.062 A 
ATOM     62  H   UNL     1     -46.289  27.651  24.169  1.00  0.00     0.063 H 
ATOM     63  C   UNL     1     -48.617  25.364  26.261  1.00  0.00    -0.062 A 
ATOM     64  H   UNL     1     -50.252  26.351  25.281  1.00  0.00     0.063 H 
ATOM     65  C   UNL     1     -47.233  25.265  26.395  1.00  0.00    -0.062 A 
ATOM     66  H   UNL     1     -45.321  26.017  25.746  1.00  0.00     0.062 H 
ATOM     67  H   UNL     1     -49.266  24.722  26.852  1.00  0.00     0.062 H 
ATOM     68  H   UNL     1     -46.803  24.548  27.089  1.00  0.00     0.062 H 
ENDBRANCH  55  58
ENDBRANCH  52  55
ENDBRANCH  50  52
ENDBRANCH   5  50
TORSDOF 11
ENDMDL
MODEL 2
REMARK VINA RESULT:     -10.6      1.988      3.018
REMARK SMILES Nc1ccc2cc(OC[C@H]3C[C@@H](n4ccc5c(NCCc6ccccc6)ncnc54)[C@H](O)[C@@H]3O)ccc2n1
REMARK SMILES IDX 13 1 14 2 15 3 16 4 17 5 27 6 28 7 29 8 30 9 12 13 10 14
REMARK SMILES IDX 11 15 33 16 31 20 9 24 8 27 7 28 2 29 3 30 38 31 4 32 37 34
REMARK SMILES IDX 5 35 36 37 6 38 35 39 1 43 34 46 32 48 18 50 19 52 20 55
REMARK SMILES IDX 21 58 22 59 26 60 23 61 25 63 24 65
REMARK H PARENT 14 10 15 11 28 12 10 17 11 18 11 19 33 21 12 22 31 23 9 25
REMARK H PARENT 9 26 3 33 4 36 36 40 6 41 35 42 1 44 1 45 34 47 32 49 18 51
REMARK H PARENT 19 53 19 54 20 56 20 57 22 62 26 64 23 66 25 67 24 68
REMARK Flexibility Score: inf
ROOT
ATOM      1  N   UNL     1     -48.594  32.003  24.912  1.00  0.00    -0.327 N 
ATOM      2  C   UNL     1     -49.907  31.915  24.515  1.00  0.00     0.007 A 
ATOM      3  C   UNL     1     -49.940  31.254  23.305  1.00  0.00    -0.031 A 
ATOM      4  C   UNL     1     -48.601  30.932  22.948  1.00  0.00     0.061 A 
ATOM      5  C   UNL     1     -47.965  30.288  21.870  1.00  0.00     0.138 A 
ATOM      6  N   UNL     1     -46.615  30.180  21.907  1.00  0.00    -0.219 NA
ATOM      7  C   UNL     1     -45.950  30.684  22.961  1.00  0.00     0.120 A 
ATOM      8  N   UNL     1     -46.451  31.321  24.033  1.00  0.00    -0.218 NA
ATOM      9  C   UNL     1     -47.790  31.412  23.967  1.00  0.00     0.145 A 
ATOM     10  H   UNL     1     -50.708  32.326  25.116  1.00  0.00     0.082 H 
ATOM     11  H   UNL     1     -50.832  31.026  22.736  1.00  0.00     0.065 H 
ATOM     12  H   UNL     1     -44.871  30.563  22.940  1.00  0.00     0.106 H 
ENDROOT
BRANCH   1  13
ATOM     13  C   UNL     1     -48.145  32.630  26.144  1.00  0.00     0.064 C 
ATOM     14  C   UNL     1     -47.516  34.785  27.050  1.00  0.00     0.024 C 
ATOM     15  C   UNL     1     -48.648  34.075  26.308  1.00  0.00    -0.021 C 
ATOM     16  C   UNL     1     -46.270  34.179  26.414  1.00  0.00     0.088 C 
ATOM     17  H   UNL     1     -47.565  34.511  28.112  1.00  0.00     0.037 H 
ATOM     18  H   UNL     1     -49.586  34.106  26.874  1.00  0.00     0.029 H 
ATOM     19  H   UNL     1     -48.842  34.554  25.341  1.00  0.00     0.029 H 
ATOM     20  C   UNL     1     -46.607  32.683  26.302  1.00  0.00     0.101 C 
ATOM     21  H   UNL     1     -46.088  34.612  25.424  1.00  0.00     0.063 H 
ATOM     22  H   UNL     1     -48.561  32.028  26.963  1.00  0.00     0.056 H 
ATOM     23  H   UNL     1     -46.038  32.206  25.498  1.00  0.00     0.065 H 
BRANCH  14  24
ATOM     24  C   UNL     1     -47.560  36.305  26.921  1.00  0.00     0.094 C 
ATOM     25  H   UNL     1     -46.717  36.707  26.346  1.00  0.00     0.071 H 
ATOM     26  H   UNL     1     -48.458  36.598  26.361  1.00  0.00     0.071 H 
BRANCH  24  27
ATOM     27  O   UNL     1     -47.677  36.923  28.205  1.00  0.00    -0.493 OA
BRANCH  27  28
ATOM     28  C   UNL     1     -46.569  37.494  28.762  1.00  0.00     0.120 A 
ATOM     29  C   UNL     1     -42.656  40.508  29.442  1.00  0.00     0.124 A 
ATOM     30  C   UNL     1     -43.192  40.933  28.239  1.00  0.00    -0.019 A 
ATOM     31  N   UNL     1     -43.181  39.503  30.163  1.00  0.00    -0.231 NA
ATOM     32  C   UNL     1     -44.318  40.286  27.744  1.00  0.00    -0.049 A 
ATOM     33  H   UNL     1     -42.751  41.762  27.697  1.00  0.00     0.066 H 
ATOM     34  C   UNL     1     -44.272  38.875  29.688  1.00  0.00     0.073 A 
ATOM     35  C   UNL     1     -44.882  39.232  28.470  1.00  0.00     0.004 A 
ATOM     36  H   UNL     1     -44.751  40.608  26.801  1.00  0.00     0.063 H 
ATOM     37  C   UNL     1     -44.832  37.832  30.412  1.00  0.00    -0.032 A 
ATOM     38  C   UNL     1     -46.021  38.542  28.019  1.00  0.00    -0.011 A 
ATOM     39  C   UNL     1     -45.967  37.142  29.965  1.00  0.00    -0.018 A 
ATOM     40  H   UNL     1     -44.373  37.546  31.356  1.00  0.00     0.065 H 
ATOM     41  H   UNL     1     -46.493  38.821  27.078  1.00  0.00     0.067 H 
ATOM     42  H   UNL     1     -46.350  36.341  30.591  1.00  0.00     0.066 H 
BRANCH  29  43
ATOM     43  N   UNL     1     -41.540  41.142  29.981  1.00  0.00    -0.384 N 
ATOM     44  H   UNL     1     -40.844  41.186  29.240  1.00  0.00     0.158 HD
ATOM     45  H   UNL     1     -41.771  42.063  30.333  1.00  0.00     0.158 HD
ENDBRANCH  29  43
ENDBRANCH  27  28
ENDBRANCH  24  27
ENDBRANCH  14  24
BRANCH  16  46
ATOM     46  O   UNL     1     -45.128  34.401  27.229  1.00  0.00    -0.390 OA
ATOM     47  H   UNL     1     -44.457  34.789  26.628  1.00  0.00     0.211 HD
ENDBRANCH  16  46
BRANCH  20  48
ATOM     48  O   UNL     1     -46.213  32.041  27.531  1.00  0.00    -0.388 OA
ATOM     49  H   UNL     1     -45.547  31.368  27.296  1.00  0.00     0.211 HD
ENDBRANCH  20  48
ENDBRANCH   1  13
BRANCH   5  50
ATOM     50  N   UNL     1     -48.687  29.773  20.795  1.00  0.00    -0.369 N 
ATOM     51  H   UNL     1     -48.076  29.402  20.072  1.00  0.00     0.162 HD
BRANCH  50  52
ATOM     52  C   UNL     1     -49.814  28.898  21.110  1.00  0.00     0.020 C 
ATOM     53  H   UNL     1     -50.494  29.377  21.826  1.00  0.00     0.049 H 
ATOM     54  H   UNL     1     -50.394  28.766  20.190  1.00  0.00     0.049 H 
BRANCH  52  55
ATOM     55  C   UNL     1     -49.376  27.523  21.638  1.00  0.00    -0.010 C 
ATOM     56  H   UNL     1     -48.309  27.380  21.423  1.00  0.00     0.033 H 
ATOM     57  H   UNL     1     -49.896  26.722  21.099  1.00  0.00     0.033 H 
BRANCH  55  58
ATOM     58  C   UNL     1     -49.591  27.356  23.126  1.00  0.00    -0.046 A 
ATOM     59  C   UNL     1     -50.879  27.131  23.634  1.00  0.00    -0.059 A 
ATOM     60  C   UNL     1     -48.515  27.450  24.018  1.00  0.00    -0.059 A 
ATOM     61  C   UNL     1     -51.085  27.004  25.008  1.00  0.00    -0.062 A 
ATOM     62  H   UNL     1     -51.730  27.057  22.960  1.00  0.00     0.063 H 
ATOM     63  C   UNL     1     -48.724  27.321  25.392  1.00  0.00    -0.062 A 
ATOM     64  H   UNL     1     -47.507  27.623  23.648  1.00  0.00     0.063 H 
ATOM     65  C   UNL     1     -50.007  27.099  25.887  1.00  0.00    -0.062 A 
ATOM     66  H   UNL     1     -52.086  26.827  25.392  1.00  0.00     0.062 H 
ATOM     67  H   UNL     1     -47.883  27.393  26.078  1.00  0.00     0.062 H 
ATOM     68  H   UNL     1     -50.168  26.997  26.957  1.00  0.00     0.062 H 
ENDBRANCH  55  58
ENDBRANCH  52  55
ENDBRANCH  50  52
ENDBRANCH   5  50
TORSDOF 11
ENDMDL
MODEL 3
REMARK VINA RESULT:     -10.0      2.389     12.231
REMARK SMILES Nc1ccc2cc(OC[C@H]3C[C@@H](n4ccc5c(NCCc6ccccc6)ncnc54)[C@H](O)[C@@H]3O)ccc2n1
REMARK SMILES IDX 13 1 14 2 15 3 16 4 17 5 27 6 28 7 29 8 30 9 12 13 10 14
REMARK SMILES IDX 11 15 33 16 31 20 9 24 8 27 7 28 2 29 3 30 38 31 4 32 37 34
REMARK SMILES IDX 5 35 36 37 6 38 35 39 1 43 34 46 32 48 18 50 19 52 20 55
REMARK SMILES IDX 21 58 22 59 26 60 23 61 25 63 24 65
REMARK H PARENT 14 10 15 11 28 12 10 17 11 18 11 19 33 21 12 22 31 23 9 25
REMARK H PARENT 9 26 3 33 4 36 36 40 6 41 35 42 1 44 1 45 34 47 32 49 18 51
REMARK H PARENT 19 53 19 54 20 56 20 57 22 62 26 64 23 66 25 67 24 68
REMARK Flexibility Score: inf
ROOT
ATOM      1  N   UNL     1     -44.777  39.949  27.768  1.00  0.00    -0.327 N 
ATOM      2  C   UNL     1     -45.066  40.265  26.462  1.00  0.00     0.007 A 
ATOM      3  C   UNL     1     -44.030  41.033  25.973  1.00  0.00    -0.031 A 
ATOM      4  C   UNL     1     -43.078  41.195  27.018  1.00  0.00     0.061 A 
ATOM      5  C   UNL     1     -41.843  41.852  27.172  1.00  0.00     0.138 A 
ATOM      6  N   UNL     1     -41.226  41.765  28.376  1.00  0.00    -0.219 NA
ATOM      7  C   UNL     1     -41.815  41.060  29.358  1.00  0.00     0.120 A 
ATOM      8  N   UNL     1     -42.987  40.405  29.324  1.00  0.00    -0.218 NA
ATOM      9  C   UNL     1     -43.573  40.510  28.119  1.00  0.00     0.145 A 
ATOM     10  H   UNL     1     -45.976  39.925  25.986  1.00  0.00     0.082 H 
ATOM     11  H   UNL     1     -43.963  41.436  24.971  1.00  0.00     0.065 H 
ATOM     12  H   UNL     1     -41.273  41.018  30.299  1.00  0.00     0.106 H 
ENDROOT
BRANCH   1  13
ATOM     13  C   UNL     1     -45.627  39.143  28.629  1.00  0.00     0.064 C 
ATOM     14  C   UNL     1     -46.540  36.910  28.832  1.00  0.00     0.024 C 
ATOM     15  C   UNL     1     -45.218  37.661  28.670  1.00  0.00    -0.021 C 
ATOM     16  C   UNL     1     -47.486  37.708  27.942  1.00  0.00     0.088 C 
ATOM     17  H   UNL     1     -46.861  36.984  29.880  1.00  0.00     0.037 H 
ATOM     18  H   UNL     1     -44.534  37.461  29.503  1.00  0.00     0.029 H 
ATOM     19  H   UNL     1     -44.704  37.351  27.752  1.00  0.00     0.029 H 
ATOM     20  C   UNL     1     -47.124  39.172  28.244  1.00  0.00     0.101 C 
ATOM     21  H   UNL     1     -47.316  37.475  26.885  1.00  0.00     0.063 H 
ATOM     22  H   UNL     1     -45.517  39.556  29.642  1.00  0.00     0.056 H 
ATOM     23  H   UNL     1     -47.378  39.826  27.403  1.00  0.00     0.065 H 
BRANCH  14  24
ATOM     24  C   UNL     1     -46.462  35.439  28.434  1.00  0.00     0.094 C 
ATOM     25  H   UNL     1     -45.671  34.897  28.965  1.00  0.00     0.071 H 
ATOM     26  H   UNL     1     -47.396  34.936  28.713  1.00  0.00     0.071 H 
BRANCH  24  27
ATOM     27  O   UNL     1     -46.348  35.301  27.015  1.00  0.00    -0.493 OA
BRANCH  27  28
ATOM     28  C   UNL     1     -47.064  34.319  26.392  1.00  0.00     0.120 A 
ATOM     29  C   UNL     1     -48.191  30.435  23.477  1.00  0.00     0.124 A 
ATOM     30  C   UNL     1     -46.837  30.625  23.261  1.00  0.00    -0.019 A 
ATOM     31  N   UNL     1     -48.912  31.195  24.319  1.00  0.00    -0.231 NA
ATOM     32  C   UNL     1     -46.192  31.656  23.934  1.00  0.00    -0.049 A 
ATOM     33  H   UNL     1     -46.287  29.976  22.589  1.00  0.00     0.066 H 
ATOM     34  C   UNL     1     -48.291  32.193  24.974  1.00  0.00     0.073 A 
ATOM     35  C   UNL     1     -46.919  32.467  24.811  1.00  0.00     0.004 A 
ATOM     36  H   UNL     1     -45.130  31.817  23.776  1.00  0.00     0.063 H 
ATOM     37  C   UNL     1     -49.014  32.994  25.846  1.00  0.00    -0.032 A 
ATOM     38  C   UNL     1     -46.319  33.523  25.520  1.00  0.00    -0.011 A 
ATOM     39  C   UNL     1     -48.418  34.048  26.553  1.00  0.00    -0.018 A 
ATOM     40  H   UNL     1     -50.073  32.794  25.983  1.00  0.00     0.065 H 
ATOM     41  H   UNL     1     -45.258  33.732  25.394  1.00  0.00     0.067 H 
ATOM     42  H   UNL     1     -49.049  34.626  27.222  1.00  0.00     0.066 H 
BRANCH  29  43
ATOM     43  N   UNL     1     -48.871  29.402  22.837  1.00  0.00    -0.384 N 
ATOM     44  H   UNL     1     -49.160  29.762  21.930  1.00  0.00     0.158 HD
ATOM     45  H   UNL     1     -48.289  28.578  22.745  1.00  0.00     0.158 HD
ENDBRANCH  29  43
ENDBRANCH  27  28
ENDBRANCH  24  27
ENDBRANCH  14  24
BRANCH  16  46
ATOM     46  O   UNL     1     -48.841  37.424  28.263  1.00  0.00    -0.390 OA
ATOM     47  H   UNL     1     -49.157  36.842  27.540  1.00  0.00     0.211 HD
ENDBRANCH  16  46
BRANCH  20  48
ATOM     48  O   UNL     1     -47.917  39.609  29.366  1.00  0.00    -0.388 OA
ATOM     49  H   UNL     1     -47.306  40.045  29.988  1.00  0.00     0.211 HD
ENDBRANCH  20  48
ENDBRANCH   1  13
BRANCH   5  50
ATOM     50  N   UNL     1     -41.260  42.571  26.130  1.00  0.00    -0.369 N 
ATOM     51  H   UNL     1     -40.826  41.960  25.444  1.00  0.00     0.162 HD
BRANCH  50  52
ATOM     52  C   UNL     1     -42.057  43.641  25.535  1.00  0.00     0.020 C 
ATOM     53  H   UNL     1     -43.098  43.592  25.877  1.00  0.00     0.049 H 
ATOM     54  H   UNL     1     -41.663  44.592  25.912  1.00  0.00     0.049 H 
BRANCH  52  55
ATOM     55  C   UNL     1     -42.006  43.643  23.999  1.00  0.00    -0.010 C 
ATOM     56  H   UNL     1     -42.072  42.609  23.638  1.00  0.00     0.033 H 
ATOM     57  H   UNL     1     -41.038  44.018  23.647  1.00  0.00     0.033 H 
BRANCH  55  58
ATOM     58  C   UNL     1     -43.122  44.444  23.365  1.00  0.00    -0.046 A 
ATOM     59  C   UNL     1     -44.249  44.807  24.116  1.00  0.00    -0.059 A 
ATOM     60  C   UNL     1     -43.059  44.811  22.014  1.00  0.00    -0.059 A 
ATOM     61  C   UNL     1     -45.292  45.521  23.528  1.00  0.00    -0.062 A 
ATOM     62  H   UNL     1     -44.321  44.530  25.167  1.00  0.00     0.063 H 
ATOM     63  C   UNL     1     -44.103  45.528  21.428  1.00  0.00    -0.062 A 
ATOM     64  H   UNL     1     -42.195  44.543  21.411  1.00  0.00     0.063 H 
ATOM     65  C   UNL     1     -45.219  45.882  22.183  1.00  0.00    -0.062 A 
ATOM     66  H   UNL     1     -46.161  45.800  24.119  1.00  0.00     0.062 H 
ATOM     67  H   UNL     1     -44.045  45.812  20.379  1.00  0.00     0.062 H 
ATOM     68  H   UNL     1     -46.031  46.441  21.726  1.00  0.00     0.062 H 
ENDBRANCH  55  58
ENDBRANCH  52  55
ENDBRANCH  50  52
ENDBRANCH   5  50
TORSDOF 11
ENDMDL
MODEL 4
REMARK VINA RESULT:      -9.9      2.724     11.560
REMARK SMILES Nc1ccc2cc(OC[C@H]3C[C@@H](n4ccc5c(NCCc6ccccc6)ncnc54)[C@H](O)[C@@H]3O)ccc2n1
REMARK SMILES IDX 13 1 14 2 15 3 16 4 17 5 27 6 28 7 29 8 30 9 12 13 10 14
REMARK SMILES IDX 11 15 33 16 31 20 9 24 8 27 7 28 2 29 3 30 38 31 4 32 37 34
REMARK SMILES IDX 5 35 36 37 6 38 35 39 1 43 34 46 32 48 18 50 19 52 20 55
REMARK SMILES IDX 21 58 22 59 26 60 23 61 25 63 24 65
REMARK H PARENT 14 10 15 11 28 12 10 17 11 18 11 19 33 21 12 22 31 23 9 25
REMARK H PARENT 9 26 3 33 4 36 36 40 6 41 35 42 1 44 1 45 34 47 32 49 18 51
REMARK H PARENT 19 53 19 54 20 56 20 57 22 62 26 64 23 66 25 67 24 68
REMARK Flexibility Score: inf
ROOT
ATOM      1  N   UNL     1     -46.245  38.917  27.555  1.00  0.00    -0.327 N 
ATOM      2  C   UNL     1     -44.920  39.039  27.209  1.00  0.00     0.007 A 
ATOM      3  C   UNL     1     -44.749  40.273  26.616  1.00  0.00    -0.031 A 
ATOM      4  C   UNL     1     -46.015  40.924  26.595  1.00  0.00     0.061 A 
ATOM      5  C   UNL     1     -46.512  42.159  26.138  1.00  0.00     0.138 A 
ATOM      6  N   UNL     1     -47.833  42.410  26.309  1.00  0.00    -0.219 NA
ATOM      7  C   UNL     1     -48.600  41.479  26.905  1.00  0.00     0.120 A 
ATOM      8  N   UNL     1     -48.234  40.273  27.369  1.00  0.00    -0.218 NA
ATOM      9  C   UNL     1     -46.921  40.054  27.185  1.00  0.00     0.145 A 
ATOM     10  H   UNL     1     -44.209  38.248  27.407  1.00  0.00     0.082 H 
ATOM     11  H   UNL     1     -43.815  40.666  26.238  1.00  0.00     0.065 H 
ATOM     12  H   UNL     1     -49.649  41.737  27.022  1.00  0.00     0.106 H 
ENDROOT
BRANCH   1  13
ATOM     13  C   UNL     1     -46.822  37.755  28.209  1.00  0.00     0.064 C 
ATOM     14  C   UNL     1     -46.866  35.338  28.080  1.00  0.00     0.024 C 
ATOM     15  C   UNL     1     -45.903  36.521  28.177  1.00  0.00    -0.021 C 
ATOM     16  C   UNL     1     -47.944  35.862  27.138  1.00  0.00     0.088 C 
ATOM     17  H   UNL     1     -47.296  35.151  29.073  1.00  0.00     0.037 H 
ATOM     18  H   UNL     1     -45.282  36.465  29.078  1.00  0.00     0.029 H 
ATOM     19  H   UNL     1     -45.221  36.540  27.318  1.00  0.00     0.029 H 
ATOM     20  C   UNL     1     -48.178  37.305  27.617  1.00  0.00     0.101 C 
ATOM     21  H   UNL     1     -47.594  35.849  26.100  1.00  0.00     0.063 H 
ATOM     22  H   UNL     1     -46.975  38.039  29.260  1.00  0.00     0.056 H 
ATOM     23  H   UNL     1     -48.568  37.934  26.810  1.00  0.00     0.065 H 
BRANCH  14  24
ATOM     24  C   UNL     1     -46.213  34.057  27.567  1.00  0.00     0.094 C 
ATOM     25  H   UNL     1     -45.551  34.232  26.711  1.00  0.00     0.071 H 
ATOM     26  H   UNL     1     -45.568  33.639  28.351  1.00  0.00     0.071 H 
BRANCH  24  27
ATOM     27  O   UNL     1     -47.197  33.058  27.291  1.00  0.00    -0.493 OA
BRANCH  27  28
ATOM     28  C   UNL     1     -47.193  32.453  26.066  1.00  0.00     0.120 A 
ATOM     29  C   UNL     1     -48.648  29.743  22.144  1.00  0.00     0.124 A 
ATOM     30  C   UNL     1     -49.697  29.616  23.037  1.00  0.00    -0.019 A 
ATOM     31  N   UNL     1     -47.549  30.473  22.402  1.00  0.00    -0.231 NA
ATOM     32  C   UNL     1     -49.610  30.262  24.265  1.00  0.00    -0.049 A 
ATOM     33  H   UNL     1     -50.576  29.035  22.780  1.00  0.00     0.066 H 
ATOM     34  C   UNL     1     -47.462  31.100  23.590  1.00  0.00     0.073 A 
ATOM     35  C   UNL     1     -48.476  31.022  24.564  1.00  0.00     0.004 A 
ATOM     36  H   UNL     1     -50.426  30.172  24.976  1.00  0.00     0.063 H 
ATOM     37  C   UNL     1     -46.337  31.857  23.884  1.00  0.00    -0.032 A 
ATOM     38  C   UNL     1     -48.334  31.698  25.789  1.00  0.00    -0.011 A 
ATOM     39  C   UNL     1     -46.192  32.531  25.105  1.00  0.00    -0.018 A 
ATOM     40  H   UNL     1     -45.546  31.928  23.140  1.00  0.00     0.065 H 
ATOM     41  H   UNL     1     -49.119  31.638  26.541  1.00  0.00     0.067 H 
ATOM     42  H   UNL     1     -45.285  33.108  25.257  1.00  0.00     0.066 H 
BRANCH  29  43
ATOM     43  N   UNL     1     -48.704  29.128  20.895  1.00  0.00    -0.384 N 
ATOM     44  H   UNL     1     -47.997  29.578  20.318  1.00  0.00     0.158 HD
ATOM     45  H   UNL     1     -48.549  28.130  20.968  1.00  0.00     0.158 HD
ENDBRANCH  29  43
ENDBRANCH  27  28
ENDBRANCH  24  27
ENDBRANCH  14  24
BRANCH  16  46
ATOM     46  O   UNL     1     -49.125  35.077  27.235  1.00  0.00    -0.390 OA
ATOM     47  H   UNL     1     -48.958  34.296  26.666  1.00  0.00     0.211 HD
ENDBRANCH  16  46
BRANCH  20  48
ATOM     48  O   UNL     1     -49.185  37.277  28.649  1.00  0.00    -0.388 OA
ATOM     49  H   UNL     1     -48.773  36.868  29.432  1.00  0.00     0.211 HD
ENDBRANCH  20  48
ENDBRANCH   1  13
BRANCH   5  50
ATOM     50  N   UNL     1     -45.687  43.102  25.528  1.00  0.00    -0.369 N 
ATOM     51  H   UNL     1     -46.076  43.434  24.650  1.00  0.00     0.162 HD
BRANCH  50  52
ATOM     52  C   UNL     1     -45.164  44.171  26.375  1.00  0.00     0.020 C 
ATOM     53  H   UNL     1     -45.695  45.113  26.192  1.00  0.00     0.049 H 
ATOM     54  H   UNL     1     -45.382  43.902  27.415  1.00  0.00     0.049 H 
BRANCH  52  55
ATOM     55  C   UNL     1     -43.650  44.379  26.210  1.00  0.00    -0.010 C 
ATOM     56  H   UNL     1     -43.379  45.367  26.605  1.00  0.00     0.033 H 
ATOM     57  H   UNL     1     -43.379  44.402  25.148  1.00  0.00     0.033 H 
BRANCH  55  58
ATOM     58  C   UNL     1     -42.820  43.336  26.924  1.00  0.00    -0.046 A 
ATOM     59  C   UNL     1     -42.978  43.128  28.302  1.00  0.00    -0.059 A 
ATOM     60  C   UNL     1     -41.867  42.581  26.227  1.00  0.00    -0.059 A 
ATOM     61  C   UNL     1     -42.195  42.185  28.970  1.00  0.00    -0.062 A 
ATOM     62  H   UNL     1     -43.710  43.704  28.865  1.00  0.00     0.063 H 
ATOM     63  C   UNL     1     -41.087  41.638  26.897  1.00  0.00    -0.062 A 
ATOM     64  H   UNL     1     -41.727  42.723  25.159  1.00  0.00     0.063 H 
ATOM     65  C   UNL     1     -41.250  41.440  28.267  1.00  0.00    -0.062 A 
ATOM     66  H   UNL     1     -42.325  42.030  30.037  1.00  0.00     0.062 H 
ATOM     67  H   UNL     1     -40.350  41.054  26.348  1.00  0.00     0.062 H 
ATOM     68  H   UNL     1     -40.642  40.704  28.787  1.00  0.00     0.062 H 
ENDBRANCH  55  58
ENDBRANCH  52  55
ENDBRANCH  50  52
ENDBRANCH   5  50
TORSDOF 11
ENDMDL
MODEL 5
REMARK VINA RESULT:      -9.8      1.764      2.614
REMARK SMILES Nc1ccc2cc(OC[C@H]3C[C@@H](n4ccc5c(NCCc6ccccc6)ncnc54)[C@H](O)[C@@H]3O)ccc2n1
REMARK SMILES IDX 13 1 14 2 15 3 16 4 17 5 27 6 28 7 29 8 30 9 12 13 10 14
REMARK SMILES IDX 11 15 33 16 31 20 9 24 8 27 7 28 2 29 3 30 38 31 4 32 37 34
REMARK SMILES IDX 5 35 36 37 6 38 35 39 1 43 34 46 32 48 18 50 19 52 20 55
REMARK SMILES IDX 21 58 22 59 26 60 23 61 25 63 24 65
REMARK H PARENT 14 10 15 11 28 12 10 17 11 18 11 19 33 21 12 22 31 23 9 25
REMARK H PARENT 9 26 3 33 4 36 36 40 6 41 35 42 1 44 1 45 34 47 32 49 18 51
REMARK H PARENT 19 53 19 54 20 56 20 57 22 62 26 64 23 66 25 67 24 68
REMARK Flexibility Score: inf
ROOT
ATOM      1  N   UNL     1     -48.032  31.874  24.921  1.00  0.00    -0.327 N 
ATOM      2  C   UNL     1     -47.017  31.278  24.212  1.00  0.00     0.007 A 
ATOM      3  C   UNL     1     -47.554  30.775  23.046  1.00  0.00    -0.031 A 
ATOM      4  C   UNL     1     -48.946  31.069  23.045  1.00  0.00     0.061 A 
ATOM      5  C   UNL     1     -50.032  30.834  22.182  1.00  0.00     0.138 A 
ATOM      6  N   UNL     1     -51.250  31.292  22.560  1.00  0.00    -0.219 NA
ATOM      7  C   UNL     1     -51.365  31.947  23.729  1.00  0.00     0.120 A 
ATOM      8  N   UNL     1     -50.404  32.218  24.628  1.00  0.00    -0.218 NA
ATOM      9  C   UNL     1     -49.210  31.752  24.225  1.00  0.00     0.145 A 
ATOM     10  H   UNL     1     -46.002  31.257  24.587  1.00  0.00     0.082 H 
ATOM     11  H   UNL     1     -47.005  30.250  22.274  1.00  0.00     0.065 H 
ATOM     12  H   UNL     1     -52.363  32.298  23.978  1.00  0.00     0.106 H 
ENDROOT
BRANCH   1  13
ATOM     13  C   UNL     1     -47.866  32.528  26.209  1.00  0.00     0.064 C 
ATOM     14  C   UNL     1     -47.636  34.725  27.200  1.00  0.00     0.024 C 
ATOM     15  C   UNL     1     -48.544  33.906  26.282  1.00  0.00    -0.021 C 
ATOM     16  C   UNL     1     -46.243  34.268  26.782  1.00  0.00     0.088 C 
ATOM     17  H   UNL     1     -47.829  34.431  28.240  1.00  0.00     0.037 H 
ATOM     18  H   UNL     1     -49.561  33.827  26.685  1.00  0.00     0.029 H 
ATOM     19  H   UNL     1     -48.627  34.376  25.295  1.00  0.00     0.029 H 
ATOM     20  C   UNL     1     -46.390  32.745  26.620  1.00  0.00     0.101 C 
ATOM     21  H   UNL     1     -45.948  34.733  25.835  1.00  0.00     0.063 H 
ATOM     22  H   UNL     1     -48.343  31.872  26.950  1.00  0.00     0.056 H 
ATOM     23  H   UNL     1     -45.647  32.345  25.924  1.00  0.00     0.065 H 
BRANCH  14  24
ATOM     24  C   UNL     1     -47.824  36.233  27.061  1.00  0.00     0.094 C 
ATOM     25  H   UNL     1     -47.401  36.629  26.130  1.00  0.00     0.071 H 
ATOM     26  H   UNL     1     -48.896  36.463  27.013  1.00  0.00     0.071 H 
BRANCH  24  27
ATOM     27  O   UNL     1     -47.324  36.918  28.212  1.00  0.00    -0.493 OA
BRANCH  27  28
ATOM     28  C   UNL     1     -46.490  37.984  28.031  1.00  0.00     0.120 A 
ATOM     29  C   UNL     1     -42.727  41.187  28.684  1.00  0.00     0.124 A 
ATOM     30  C   UNL     1     -42.557  40.269  29.706  1.00  0.00    -0.019 A 
ATOM     31  N   UNL     1     -43.720  41.105  27.783  1.00  0.00    -0.231 NA
ATOM     32  C   UNL     1     -43.461  39.220  29.817  1.00  0.00    -0.049 A 
ATOM     33  H   UNL     1     -41.728  40.360  30.399  1.00  0.00     0.066 H 
ATOM     34  C   UNL     1     -44.597  40.089  27.887  1.00  0.00     0.073 A 
ATOM     35  C   UNL     1     -44.509  39.113  28.898  1.00  0.00     0.004 A 
ATOM     36  H   UNL     1     -43.340  38.491  30.613  1.00  0.00     0.063 H 
ATOM     37  C   UNL     1     -45.635  39.983  26.971  1.00  0.00    -0.032 A 
ATOM     38  C   UNL     1     -45.452  38.072  28.961  1.00  0.00    -0.011 A 
ATOM     39  C   UNL     1     -46.577  38.947  27.032  1.00  0.00    -0.018 A 
ATOM     40  H   UNL     1     -45.715  40.729  26.184  1.00  0.00     0.065 H 
ATOM     41  H   UNL     1     -45.381  37.317  29.742  1.00  0.00     0.067 H 
ATOM     42  H   UNL     1     -47.356  38.929  26.276  1.00  0.00     0.066 H 
BRANCH  29  43
ATOM     43  N   UNL     1     -41.832  42.243  28.526  1.00  0.00    -0.384 N 
ATOM     44  H   UNL     1     -40.935  41.830  28.283  1.00  0.00     0.158 HD
ATOM     45  H   UNL     1     -42.149  42.893  27.818  1.00  0.00     0.158 HD
ENDBRANCH  29  43
ENDBRANCH  27  28
ENDBRANCH  24  27
ENDBRANCH  14  24
BRANCH  16  46
ATOM     46  O   UNL     1     -45.282  34.601  27.775  1.00  0.00    -0.390 OA
ATOM     47  H   UNL     1     -44.486  34.076  27.546  1.00  0.00     0.211 HD
ENDBRANCH  16  46
BRANCH  20  48
ATOM     48  O   UNL     1     -46.137  32.131  27.900  1.00  0.00    -0.388 OA
ATOM     49  H   UNL     1     -46.553  31.250  27.876  1.00  0.00     0.211 HD
ENDBRANCH  20  48
ENDBRANCH   1  13
BRANCH   5  50
ATOM     50  N   UNL     1     -49.876  30.155  20.975  1.00  0.00    -0.369 N 
ATOM     51  H   UNL     1     -49.699  30.791  20.203  1.00  0.00     0.162 HD
BRANCH  50  52
ATOM     52  C   UNL     1     -48.999  28.987  20.980  1.00  0.00     0.020 C 
ATOM     53  H   UNL     1     -48.514  28.855  20.005  1.00  0.00     0.049 H 
ATOM     54  H   UNL     1     -48.189  29.188  21.691  1.00  0.00     0.049 H 
BRANCH  52  55
ATOM     55  C   UNL     1     -49.723  27.694  21.387  1.00  0.00    -0.010 C 
ATOM     56  H   UNL     1     -49.233  26.840  20.901  1.00  0.00     0.033 H 
ATOM     57  H   UNL     1     -50.753  27.697  21.010  1.00  0.00     0.033 H 
BRANCH  55  58
ATOM     58  C   UNL     1     -49.730  27.456  22.880  1.00  0.00    -0.046 A 
ATOM     59  C   UNL     1     -50.942  27.296  23.566  1.00  0.00    -0.059 A 
ATOM     60  C   UNL     1     -48.530  27.417  23.603  1.00  0.00    -0.059 A 
ATOM     61  C   UNL     1     -50.954  27.103  24.948  1.00  0.00    -0.062 A 
ATOM     62  H   UNL     1     -51.887  27.324  23.027  1.00  0.00     0.063 H 
ATOM     63  C   UNL     1     -48.544  27.222  24.984  1.00  0.00    -0.062 A 
ATOM     64  H   UNL     1     -47.577  27.537  23.094  1.00  0.00     0.063 H 
ATOM     65  C   UNL     1     -49.754  27.066  25.657  1.00  0.00    -0.062 A 
ATOM     66  H   UNL     1     -51.899  26.978  25.471  1.00  0.00     0.062 H 
ATOM     67  H   UNL     1     -47.608  27.191  25.538  1.00  0.00     0.062 H 
ATOM     68  H   UNL     1     -49.764  26.913  26.733  1.00  0.00     0.062 H 
ENDBRANCH  55  58
ENDBRANCH  52  55
ENDBRANCH  50  52
ENDBRANCH   5  50
TORSDOF 11
ENDMDL
MODEL 6
REMARK VINA RESULT:      -9.6      2.763     11.843
REMARK SMILES Nc1ccc2cc(OC[C@H]3C[C@@H](n4ccc5c(NCCc6ccccc6)ncnc54)[C@H](O)[C@@H]3O)ccc2n1
REMARK SMILES IDX 13 1 14 2 15 3 16 4 17 5 27 6 28 7 29 8 30 9 12 13 10 14
REMARK SMILES IDX 11 15 33 16 31 20 9 24 8 27 7 28 2 29 3 30 38 31 4 32 37 34
REMARK SMILES IDX 5 35 36 37 6 38 35 39 1 43 34 46 32 48 18 50 19 52 20 55
REMARK SMILES IDX 21 58 22 59 26 60 23 61 25 63 24 65
REMARK H PARENT 14 10 15 11 28 12 10 17 11 18 11 19 33 21 12 22 31 23 9 25
REMARK H PARENT 9 26 3 33 4 36 36 40 6 41 35 42 1 44 1 45 34 47 32 49 18 51
REMARK H PARENT 19 53 19 54 20 56 20 57 22 62 26 64 23 66 25 67 24 68
REMARK Flexibility Score: inf
ROOT
ATOM      1  N   UNL     1     -45.871  38.290  27.974  1.00  0.00    -0.327 N 
ATOM      2  C   UNL     1     -46.224  39.014  26.860  1.00  0.00     0.007 A 
ATOM      3  C   UNL     1     -45.392  40.112  26.787  1.00  0.00    -0.031 A 
ATOM      4  C   UNL     1     -44.505  40.060  27.898  1.00  0.00     0.061 A 
ATOM      5  C   UNL     1     -43.455  40.854  28.396  1.00  0.00     0.138 A 
ATOM      6  N   UNL     1     -42.837  40.445  29.530  1.00  0.00    -0.219 NA
ATOM      7  C   UNL     1     -43.248  39.309  30.122  1.00  0.00     0.120 A 
ATOM      8  N   UNL     1     -44.237  38.484  29.741  1.00  0.00    -0.218 NA
ATOM      9  C   UNL     1     -44.830  38.916  28.615  1.00  0.00     0.145 A 
ATOM     10  H   UNL     1     -47.030  38.697  26.211  1.00  0.00     0.082 H 
ATOM     11  H   UNL     1     -45.419  40.873  26.018  1.00  0.00     0.065 H 
ATOM     12  H   UNL     1     -42.712  39.026  31.024  1.00  0.00     0.106 H 
ENDROOT
BRANCH   1  13
ATOM     13  C   UNL     1     -46.513  37.056  28.392  1.00  0.00     0.064 C 
ATOM     14  C   UNL     1     -46.744  34.732  27.752  1.00  0.00     0.024 C 
ATOM     15  C   UNL     1     -45.691  35.799  28.054  1.00  0.00    -0.021 C 
ATOM     16  C   UNL     1     -47.808  35.518  26.996  1.00  0.00     0.088 C 
ATOM     17  H   UNL     1     -47.155  34.364  28.702  1.00  0.00     0.037 H 
ATOM     18  H   UNL     1     -45.048  35.508  28.892  1.00  0.00     0.029 H 
ATOM     19  H   UNL     1     -45.037  35.958  27.188  1.00  0.00     0.029 H 
ATOM     20  C   UNL     1     -47.917  36.836  27.782  1.00  0.00     0.101 C 
ATOM     21  H   UNL     1     -47.493  35.706  25.963  1.00  0.00     0.063 H 
ATOM     22  H   UNL     1     -46.611  37.116  29.485  1.00  0.00     0.056 H 
ATOM     23  H   UNL     1     -48.284  37.649  27.147  1.00  0.00     0.065 H 
BRANCH  14  24
ATOM     24  C   UNL     1     -46.205  33.552  26.948  1.00  0.00     0.094 C 
ATOM     25  H   UNL     1     -45.957  33.820  25.915  1.00  0.00     0.071 H 
ATOM     26  H   UNL     1     -45.262  33.208  27.393  1.00  0.00     0.071 H 
BRANCH  24  27
ATOM     27  O   UNL     1     -47.100  32.439  27.014  1.00  0.00    -0.493 OA
BRANCH  27  28
ATOM     28  C   UNL     1     -47.629  31.952  25.853  1.00  0.00     0.120 A 
ATOM     29  C   UNL     1     -48.003  30.402  21.130  1.00  0.00     0.124 A 
ATOM     30  C   UNL     1     -46.675  30.773  21.249  1.00  0.00    -0.019 A 
ATOM     31  N   UNL     1     -48.880  30.484  22.145  1.00  0.00    -0.231 NA
ATOM     32  C   UNL     1     -46.226  31.266  22.468  1.00  0.00    -0.049 A 
ATOM     33  H   UNL     1     -45.994  30.671  20.411  1.00  0.00     0.066 H 
ATOM     34  C   UNL     1     -48.449  30.960  23.327  1.00  0.00     0.073 A 
ATOM     35  C   UNL     1     -47.119  31.369  23.540  1.00  0.00     0.004 A 
ATOM     36  H   UNL     1     -45.186  31.561  22.578  1.00  0.00     0.063 H 
ATOM     37  C   UNL     1     -49.336  31.058  24.390  1.00  0.00    -0.032 A 
ATOM     38  C   UNL     1     -46.721  31.860  24.796  1.00  0.00    -0.011 A 
ATOM     39  C   UNL     1     -48.942  31.547  25.644  1.00  0.00    -0.018 A 
ATOM     40  H   UNL     1     -50.366  30.744  24.242  1.00  0.00     0.065 H 
ATOM     41  H   UNL     1     -45.691  32.174  24.959  1.00  0.00     0.067 H 
ATOM     42  H   UNL     1     -49.693  31.588  26.427  1.00  0.00     0.066 H 
BRANCH  29  43
ATOM     43  N   UNL     1     -48.487  29.886  19.931  1.00  0.00    -0.384 N 
ATOM     44  H   UNL     1     -48.265  28.893  19.930  1.00  0.00     0.158 HD
ATOM     45  H   UNL     1     -49.482  30.047  19.835  1.00  0.00     0.158 HD
ENDBRANCH  29  43
ENDBRANCH  27  28
ENDBRANCH  24  27
ENDBRANCH  14  24
BRANCH  16  46
ATOM     46  O   UNL     1     -49.041  34.812  26.978  1.00  0.00    -0.390 OA
ATOM     47  H   UNL     1     -49.038  34.315  26.133  1.00  0.00     0.211 HD
ENDBRANCH  16  46
BRANCH  20  48
ATOM     48  O   UNL     1     -48.890  36.653  28.830  1.00  0.00    -0.388 OA
ATOM     49  H   UNL     1     -48.989  35.692  28.958  1.00  0.00     0.211 HD
ENDBRANCH  20  48
ENDBRANCH   1  13
BRANCH   5  50
ATOM     50  N   UNL     1     -43.052  42.024  27.754  1.00  0.00    -0.369 N 
ATOM     51  H   UNL     1     -43.271  42.851  28.302  1.00  0.00     0.162 HD
BRANCH  50  52
ATOM     52  C   UNL     1     -41.705  42.040  27.189  1.00  0.00     0.020 C 
ATOM     53  H   UNL     1     -41.019  42.612  27.825  1.00  0.00     0.049 H 
ATOM     54  H   UNL     1     -41.333  41.009  27.199  1.00  0.00     0.049 H 
BRANCH  52  55
ATOM     55  C   UNL     1     -41.666  42.580  25.751  1.00  0.00    -0.010 C 
ATOM     56  H   UNL     1     -41.557  41.738  25.054  1.00  0.00     0.033 H 
ATOM     57  H   UNL     1     -40.777  43.205  25.600  1.00  0.00     0.033 H 
BRANCH  55  58
ATOM     58  C   UNL     1     -42.905  43.360  25.369  1.00  0.00    -0.046 A 
ATOM     59  C   UNL     1     -43.882  42.778  24.549  1.00  0.00    -0.059 A 
ATOM     60  C   UNL     1     -43.081  44.679  25.806  1.00  0.00    -0.059 A 
ATOM     61  C   UNL     1     -45.013  43.503  24.173  1.00  0.00    -0.062 A 
ATOM     62  H   UNL     1     -43.765  41.755  24.196  1.00  0.00     0.063 H 
ATOM     63  C   UNL     1     -44.214  45.402  25.430  1.00  0.00    -0.062 A 
ATOM     64  H   UNL     1     -42.338  45.152  26.443  1.00  0.00     0.063 H 
ATOM     65  C   UNL     1     -45.179  44.815  24.613  1.00  0.00    -0.062 A 
ATOM     66  H   UNL     1     -45.766  43.042  23.538  1.00  0.00     0.062 H 
ATOM     67  H   UNL     1     -44.346  46.425  25.775  1.00  0.00     0.062 H 
ATOM     68  H   UNL     1     -46.062  45.378  24.322  1.00  0.00     0.062 H 
ENDBRANCH  55  58
ENDBRANCH  52  55
ENDBRANCH  50  52
ENDBRANCH   5  50
TORSDOF 11
ENDMDL
MODEL 7
REMARK VINA RESULT:      -9.2      2.512     12.326
REMARK SMILES Nc1ccc2cc(OC[C@H]3C[C@@H](n4ccc5c(NCCc6ccccc6)ncnc54)[C@H](O)[C@@H]3O)ccc2n1
REMARK SMILES IDX 13 1 14 2 15 3 16 4 17 5 27 6 28 7 29 8 30 9 12 13 10 14
REMARK SMILES IDX 11 15 33 16 31 20 9 24 8 27 7 28 2 29 3 30 38 31 4 32 37 34
REMARK SMILES IDX 5 35 36 37 6 38 35 39 1 43 34 46 32 48 18 50 19 52 20 55
REMARK SMILES IDX 21 58 22 59 26 60 23 61 25 63 24 65
REMARK H PARENT 14 10 15 11 28 12 10 17 11 18 11 19 33 21 12 22 31 23 9 25
REMARK H PARENT 9 26 3 33 4 36 36 40 6 41 35 42 1 44 1 45 34 47 32 49 18 51
REMARK H PARENT 19 53 19 54 20 56 20 57 22 62 26 64 23 66 25 67 24 68
REMARK Flexibility Score: inf
ROOT
ATOM      1  N   UNL     1     -45.674  38.288  28.020  1.00  0.00    -0.327 N 
ATOM      2  C   UNL     1     -45.954  39.046  26.909  1.00  0.00     0.007 A 
ATOM      3  C   UNL     1     -45.098  40.129  26.909  1.00  0.00    -0.031 A 
ATOM      4  C   UNL     1     -44.272  40.030  28.064  1.00  0.00     0.061 A 
ATOM      5  C   UNL     1     -43.235  40.790  28.636  1.00  0.00     0.138 A 
ATOM      6  N   UNL     1     -42.686  40.339  29.790  1.00  0.00    -0.219 NA
ATOM      7  C   UNL     1     -43.150  39.198  30.330  1.00  0.00     0.120 A 
ATOM      8  N   UNL     1     -44.134  38.403  29.876  1.00  0.00    -0.218 NA
ATOM      9  C   UNL     1     -44.657  38.876  28.732  1.00  0.00     0.145 A 
ATOM     10  H   UNL     1     -46.731  38.763  26.211  1.00  0.00     0.082 H 
ATOM     11  H   UNL     1     -45.069  40.909  26.159  1.00  0.00     0.065 H 
ATOM     12  H   UNL     1     -42.669  38.881  31.251  1.00  0.00     0.106 H 
ENDROOT
BRANCH   1  13
ATOM     13  C   UNL     1     -46.362  37.057  28.372  1.00  0.00     0.064 C 
ATOM     14  C   UNL     1     -46.818  34.836  27.523  1.00  0.00     0.024 C 
ATOM     15  C   UNL     1     -45.668  35.797  27.825  1.00  0.00    -0.021 C 
ATOM     16  C   UNL     1     -47.889  35.765  26.963  1.00  0.00     0.088 C 
ATOM     17  H   UNL     1     -47.164  34.392  28.466  1.00  0.00     0.037 H 
ATOM     18  H   UNL     1     -44.972  35.376  28.559  1.00  0.00     0.029 H 
ATOM     19  H   UNL     1     -45.089  36.009  26.918  1.00  0.00     0.029 H 
ATOM     20  C   UNL     1     -47.829  36.992  27.888  1.00  0.00     0.101 C 
ATOM     21  H   UNL     1     -47.660  36.045  25.929  1.00  0.00     0.063 H 
ATOM     22  H   UNL     1     -46.352  37.002  29.470  1.00  0.00     0.056 H 
ATOM     23  H   UNL     1     -48.194  37.891  27.380  1.00  0.00     0.065 H 
BRANCH  14  24
ATOM     24  C   UNL     1     -46.444  33.720  26.551  1.00  0.00     0.094 C 
ATOM     25  H   UNL     1     -45.436  33.838  26.137  1.00  0.00     0.071 H 
ATOM     26  H   UNL     1     -46.427  32.761  27.086  1.00  0.00     0.071 H 
BRANCH  24  27
ATOM     27  O   UNL     1     -47.432  33.583  25.527  1.00  0.00    -0.493 OA
BRANCH  27  28
ATOM     28  C   UNL     1     -47.515  32.401  24.848  1.00  0.00     0.120 A 
ATOM     29  C   UNL     1     -49.407  28.301  22.737  1.00  0.00     0.124 A 
ATOM     30  C   UNL     1     -50.513  28.927  23.285  1.00  0.00    -0.019 A 
ATOM     31  N   UNL     1     -48.164  28.803  22.821  1.00  0.00    -0.231 NA
ATOM     32  C   UNL     1     -50.332  30.125  23.966  1.00  0.00    -0.049 A 
ATOM     33  H   UNL     1     -51.503  28.499  23.176  1.00  0.00     0.066 H 
ATOM     34  C   UNL     1     -47.984  29.963  23.479  1.00  0.00     0.073 A 
ATOM     35  C   UNL     1     -49.048  30.668  24.076  1.00  0.00     0.004 A 
ATOM     36  H   UNL     1     -51.190  30.629  24.402  1.00  0.00     0.063 H 
ATOM     37  C   UNL     1     -46.710  30.502  23.584  1.00  0.00    -0.032 A 
ATOM     38  C   UNL     1     -48.805  31.877  24.753  1.00  0.00    -0.011 A 
ATOM     39  C   UNL     1     -46.465  31.706  24.258  1.00  0.00    -0.018 A 
ATOM     40  H   UNL     1     -45.879  29.970  23.127  1.00  0.00     0.065 H 
ATOM     41  H   UNL     1     -49.629  32.421  25.212  1.00  0.00     0.067 H 
ATOM     42  H   UNL     1     -45.441  32.066  24.292  1.00  0.00     0.066 H 
BRANCH  29  43
ATOM     43  N   UNL     1     -49.548  27.109  22.031  1.00  0.00    -0.384 N 
ATOM     44  H   UNL     1     -50.057  26.470  22.637  1.00  0.00     0.158 HD
ATOM     45  H   UNL     1     -50.030  27.255  21.152  1.00  0.00     0.158 HD
ENDBRANCH  29  43
ENDBRANCH  27  28
ENDBRANCH  24  27
ENDBRANCH  14  24
BRANCH  16  46
ATOM     46  O   UNL     1     -49.167  35.142  26.997  1.00  0.00    -0.390 OA
ATOM     47  H   UNL     1     -49.077  34.414  27.649  1.00  0.00     0.211 HD
ENDBRANCH  16  46
BRANCH  20  48
ATOM     48  O   UNL     1     -48.710  36.756  29.005  1.00  0.00    -0.388 OA
ATOM     49  H   UNL     1     -49.392  36.131  28.698  1.00  0.00     0.211 HD
ENDBRANCH  20  48
ENDBRANCH   1  13
BRANCH   5  50
ATOM     50  N   UNL     1     -42.776  41.966  28.048  1.00  0.00    -0.369 N 
ATOM     51  H   UNL     1     -41.809  42.159  28.291  1.00  0.00     0.162 HD
BRANCH  50  52
ATOM     52  C   UNL     1     -43.069  42.156  26.629  1.00  0.00     0.020 C 
ATOM     53  H   UNL     1     -42.224  41.836  26.007  1.00  0.00     0.049 H 
ATOM     54  H   UNL     1     -43.899  41.487  26.372  1.00  0.00     0.049 H 
BRANCH  52  55
ATOM     55  C   UNL     1     -43.457  43.603  26.285  1.00  0.00    -0.010 C 
ATOM     56  H   UNL     1     -42.874  44.289  26.913  1.00  0.00     0.033 H 
ATOM     57  H   UNL     1     -44.507  43.789  26.540  1.00  0.00     0.033 H 
BRANCH  55  58
ATOM     58  C   UNL     1     -43.216  43.959  24.835  1.00  0.00    -0.046 A 
ATOM     59  C   UNL     1     -42.133  43.400  24.140  1.00  0.00    -0.059 A 
ATOM     60  C   UNL     1     -44.051  44.869  24.174  1.00  0.00    -0.059 A 
ATOM     61  C   UNL     1     -41.891  43.748  22.810  1.00  0.00    -0.062 A 
ATOM     62  H   UNL     1     -41.469  42.693  24.633  1.00  0.00     0.063 H 
ATOM     63  C   UNL     1     -43.808  45.213  22.844  1.00  0.00    -0.062 A 
ATOM     64  H   UNL     1     -44.898  45.314  24.691  1.00  0.00     0.063 H 
ATOM     65  C   UNL     1     -42.729  44.654  22.162  1.00  0.00    -0.062 A 
ATOM     66  H   UNL     1     -41.051  43.308  22.279  1.00  0.00     0.062 H 
ATOM     67  H   UNL     1     -44.463  45.919  22.337  1.00  0.00     0.062 H 
ATOM     68  H   UNL     1     -42.541  44.922  21.126  1.00  0.00     0.062 H 
ENDBRANCH  55  58
ENDBRANCH  52  55
ENDBRANCH  50  52
ENDBRANCH   5  50
TORSDOF 11
ENDMDL
