MODEL 1
REMARK VINA RESULT:     -10.5      0.000      0.000
REMARK SMILES CNc1ccc2ccc(OC[C@H]3O[C@@H](n4cc(Br)c5c(N)nccc54)[C@@H](F)[C@@H]3O)cc2n1
REMARK SMILES IDX 11 1 10 4 9 5 3 6 4 7 32 8 5 9 31 11 6 12 30 14 7 15 8 17
REMARK SMILES IDX 2 20 1 22 12 26 13 27 28 28 14 30 26 31 27 34 29 36 15 38
REMARK SMILES IDX 16 39 25 40 17 41 19 43 24 44 18 45 20 46 23 47 22 49 21 51
REMARK H PARENT 11 2 11 3 4 10 5 13 30 16 7 18 8 19 2 21 1 23 1 24 1 25 12 29
REMARK H PARENT 28 32 14 33 26 35 29 37 16 42 24 48 23 50 21 52 21 53
REMARK Flexibility Score: inf
ROOT
ATOM      1  C   UNL     1     -47.141  36.254  27.304  1.00  0.00     0.117 C 
ATOM      2  H   UNL     1     -48.023  35.657  27.562  1.00  0.00     0.073 H 
ATOM      3  H   UNL     1     -47.471  37.287  27.135  1.00  0.00     0.073 H 
ENDROOT
BRANCH   1   4
ATOM      4  O   UNL     1     -46.599  35.647  26.118  1.00  0.00    -0.491 OA
BRANCH   4   5
ATOM      5  C   UNL     1     -47.161  34.437  25.821  1.00  0.00     0.121 A 
ATOM      6  C   UNL     1     -46.927  30.133  23.827  1.00  0.00     0.126 A 
ATOM      7  C   UNL     1     -48.172  29.780  24.336  1.00  0.00    -0.019 A 
ATOM      8  N   UNL     1     -46.382  31.340  24.075  1.00  0.00    -0.231 NA
ATOM      9  C   UNL     1     -48.880  30.697  25.108  1.00  0.00    -0.049 A 
ATOM     10  H   UNL     1     -48.582  28.794  24.148  1.00  0.00     0.066 H 
ATOM     11  C   UNL     1     -47.058  32.233  24.816  1.00  0.00     0.076 A 
ATOM     12  C   UNL     1     -48.327  31.954  25.363  1.00  0.00     0.001 A 
ATOM     13  H   UNL     1     -49.850  30.419  25.510  1.00  0.00     0.063 H 
ATOM     14  C   UNL     1     -46.494  33.476  25.060  1.00  0.00     0.007 A 
ATOM     15  C   UNL     1     -48.990  32.913  26.148  1.00  0.00    -0.049 A 
ATOM     16  H   UNL     1     -45.506  33.682  24.658  1.00  0.00     0.069 H 
ATOM     17  C   UNL     1     -48.398  34.151  26.385  1.00  0.00    -0.019 A 
ATOM     18  H   UNL     1     -49.962  32.695  26.583  1.00  0.00     0.063 H 
ATOM     19  H   UNL     1     -48.900  34.888  27.005  1.00  0.00     0.066 H 
BRANCH   6  20
ATOM     20  N   UNL     1     -46.225  29.171  23.078  1.00  0.00    -0.373 N 
ATOM     21  H   UNL     1     -45.258  29.468  22.987  1.00  0.00     0.161 HD
BRANCH  20  22
ATOM     22  C   UNL     1     -46.323  27.821  23.616  1.00  0.00     0.005 C 
ATOM     23  H   UNL     1     -47.172  27.280  23.185  1.00  0.00     0.045 H 
ATOM     24  H   UNL     1     -45.398  27.258  23.456  1.00  0.00     0.045 H 
ATOM     25  H   UNL     1     -46.484  27.882  24.698  1.00  0.00     0.045 H 
ENDBRANCH  20  22
ENDBRANCH   6  20
ENDBRANCH   4   5
ENDBRANCH   1   4
BRANCH   1  26
ATOM     26  C   UNL     1     -46.097  36.166  28.429  1.00  0.00     0.123 C 
ATOM     27  O   UNL     1     -44.968  37.003  28.079  1.00  0.00    -0.345 OA
ATOM     28  C   UNL     1     -46.621  36.693  29.768  1.00  0.00     0.119 C 
ATOM     29  H   UNL     1     -45.721  35.141  28.522  1.00  0.00     0.067 H 
ATOM     30  C   UNL     1     -44.948  38.138  28.977  1.00  0.00     0.168 C 
ATOM     31  C   UNL     1     -46.309  38.165  29.672  1.00  0.00     0.173 C 
ATOM     32  H   UNL     1     -47.684  36.488  29.925  1.00  0.00     0.066 H 
ATOM     33  H   UNL     1     -44.160  37.941  29.716  1.00  0.00     0.088 H 
ATOM     34  F   UNL     1     -47.268  38.736  28.891  1.00  0.00    -0.239 F 
ATOM     35  H   UNL     1     -46.279  38.690  30.631  1.00  0.00     0.074 H 
BRANCH  28  36
ATOM     36  O   UNL     1     -45.894  36.132  30.867  1.00  0.00    -0.387 OA
ATOM     37  H   UNL     1     -45.220  35.527  30.505  1.00  0.00     0.211 HD
ENDBRANCH  28  36
BRANCH  30  38
ATOM     38  N   UNL     1     -44.527  39.336  28.256  1.00  0.00    -0.317 N 
ATOM     39  C   UNL     1     -45.143  39.866  27.150  1.00  0.00     0.022 A 
ATOM     40  C   UNL     1     -43.520  40.198  28.676  1.00  0.00     0.057 A 
ATOM     41  C   UNL     1     -44.520  41.051  26.851  1.00  0.00     0.047 A 
ATOM     42  H   UNL     1     -45.968  39.373  26.656  1.00  0.00     0.083 H 
ATOM     43  C   UNL     1     -43.499  41.298  27.804  1.00  0.00     0.056 A 
ATOM     44  C   UNL     1     -42.626  40.111  29.746  1.00  0.00    -0.019 A 
ATOM     45  Br  UNL     1     -44.977  42.167  25.410  1.00  0.00    -0.048 Br
ATOM     46  C   UNL     1     -42.564  42.335  28.030  1.00  0.00     0.133 A 
ATOM     47  C   UNL     1     -41.738  41.164  29.870  1.00  0.00     0.031 A 
ATOM     48  H   UNL     1     -42.604  39.272  30.429  1.00  0.00     0.066 H 
ATOM     49  N   UNL     1     -41.694  42.241  29.058  1.00  0.00    -0.239 NA
ATOM     50  H   UNL     1     -40.999  41.165  30.668  1.00  0.00     0.084 H 
BRANCH  46  51
ATOM     51  N   UNL     1     -42.454  43.471  27.242  1.00  0.00    -0.383 N 
ATOM     52  H   UNL     1     -43.314  43.636  26.736  1.00  0.00     0.158 HD
ATOM     53  H   UNL     1     -42.024  44.262  27.701  1.00  0.00     0.158 HD
ENDBRANCH  46  51
ENDBRANCH  30  38
ENDBRANCH   1  26
TORSDOF 8
ENDMDL
MODEL 2
REMARK VINA RESULT:      -9.6      1.811      2.132
REMARK SMILES CNc1ccc2ccc(OC[C@H]3O[C@@H](n4cc(Br)c5c(N)nccc54)[C@@H](F)[C@@H]3O)cc2n1
REMARK SMILES IDX 11 1 10 4 9 5 3 6 4 7 32 8 5 9 31 11 6 12 30 14 7 15 8 17
REMARK SMILES IDX 2 20 1 22 12 26 13 27 28 28 14 30 26 31 27 34 29 36 15 38
REMARK SMILES IDX 16 39 25 40 17 41 19 43 24 44 18 45 20 46 23 47 22 49 21 51
REMARK H PARENT 11 2 11 3 4 10 5 13 30 16 7 18 8 19 2 21 1 23 1 24 1 25 12 29
REMARK H PARENT 28 32 14 33 26 35 29 37 16 42 24 48 23 50 21 52 21 53
REMARK Flexibility Score: inf
ROOT
ATOM      1  C   UNL     1     -46.041  34.742  27.331  1.00  0.00     0.117 C 
ATOM      2  H   UNL     1     -46.416  35.015  26.338  1.00  0.00     0.073 H 
ATOM      3  H   UNL     1     -44.968  34.971  27.360  1.00  0.00     0.073 H 
ENDROOT
BRANCH   1   4
ATOM      4  O   UNL     1     -46.310  33.336  27.471  1.00  0.00    -0.491 OA
BRANCH   4   5
ATOM      5  C   UNL     1     -46.921  32.787  26.378  1.00  0.00     0.121 A 
ATOM      6  C   UNL     1     -46.741  31.055  21.960  1.00  0.00     0.126 A 
ATOM      7  C   UNL     1     -48.082  30.691  22.001  1.00  0.00    -0.019 A 
ATOM      8  N   UNL     1     -46.138  31.640  23.015  1.00  0.00    -0.231 NA
ATOM      9  C   UNL     1     -48.825  30.946  23.149  1.00  0.00    -0.049 A 
ATOM     10  H   UNL     1     -48.542  30.196  21.152  1.00  0.00     0.066 H 
ATOM     11  C   UNL     1     -46.848  31.893  24.127  1.00  0.00     0.076 A 
ATOM     12  C   UNL     1     -48.212  31.558  24.244  1.00  0.00     0.001 A 
ATOM     13  H   UNL     1     -49.872  30.655  23.183  1.00  0.00     0.063 H 
ATOM     14  C   UNL     1     -46.223  32.502  25.205  1.00  0.00     0.007 A 
ATOM     15  C   UNL     1     -48.910  31.826  25.434  1.00  0.00    -0.049 A 
ATOM     16  H   UNL     1     -45.166  32.737  25.122  1.00  0.00     0.069 H 
ATOM     17  C   UNL     1     -48.257  32.431  26.506  1.00  0.00    -0.019 A 
ATOM     18  H   UNL     1     -49.959  31.555  25.533  1.00  0.00     0.063 H 
ATOM     19  H   UNL     1     -48.790  32.623  27.433  1.00  0.00     0.066 H 
BRANCH   6  20
ATOM     20  N   UNL     1     -46.010  30.755  20.796  1.00  0.00    -0.373 N 
ATOM     21  H   UNL     1     -46.351  29.879  20.412  1.00  0.00     0.161 HD
BRANCH  20  22
ATOM     22  C   UNL     1     -46.028  31.819  19.802  1.00  0.00     0.005 C 
ATOM     23  H   UNL     1     -46.989  31.861  19.278  1.00  0.00     0.045 H 
ATOM     24  H   UNL     1     -45.803  32.792  20.253  1.00  0.00     0.045 H 
ATOM     25  H   UNL     1     -45.253  31.620  19.054  1.00  0.00     0.045 H 
ENDBRANCH  20  22
ENDBRANCH   6  20
ENDBRANCH   4   5
ENDBRANCH   1   4
BRANCH   1  26
ATOM     26  C   UNL     1     -46.815  35.508  28.416  1.00  0.00     0.123 C 
ATOM     27  O   UNL     1     -46.030  36.655  28.822  1.00  0.00    -0.345 OA
ATOM     28  C   UNL     1     -48.152  36.060  27.915  1.00  0.00     0.119 C 
ATOM     29  H   UNL     1     -46.950  34.880  29.305  1.00  0.00     0.067 H 
ATOM     30  C   UNL     1     -46.701  37.852  28.358  1.00  0.00     0.168 C 
ATOM     31  C   UNL     1     -47.748  37.395  27.343  1.00  0.00     0.173 C 
ATOM     32  H   UNL     1     -48.639  35.408  27.183  1.00  0.00     0.066 H 
ATOM     33  H   UNL     1     -47.201  38.291  29.232  1.00  0.00     0.088 H 
ATOM     34  F   UNL     1     -47.201  37.166  26.116  1.00  0.00    -0.239 F 
ATOM     35  H   UNL     1     -48.565  38.113  27.233  1.00  0.00     0.074 H 
BRANCH  28  36
ATOM     36  O   UNL     1     -49.065  36.272  28.997  1.00  0.00    -0.387 OA
ATOM     37  H   UNL     1     -49.863  36.704  28.638  1.00  0.00     0.211 HD
ENDBRANCH  28  36
BRANCH  30  38
ATOM     38  N   UNL     1     -45.716  38.839  27.926  1.00  0.00    -0.317 N 
ATOM     39  C   UNL     1     -45.801  39.620  26.800  1.00  0.00     0.022 A 
ATOM     40  C   UNL     1     -44.613  39.235  28.674  1.00  0.00     0.057 A 
ATOM     41  C   UNL     1     -44.747  40.497  26.817  1.00  0.00     0.047 A 
ATOM     42  H   UNL     1     -46.592  39.500  26.073  1.00  0.00     0.083 H 
ATOM     43  C   UNL     1     -43.984  40.290  27.995  1.00  0.00     0.056 A 
ATOM     44  C   UNL     1     -44.112  38.761  29.889  1.00  0.00    -0.019 A 
ATOM     45  Br  UNL     1     -44.398  41.778  25.487  1.00  0.00    -0.048 Br
ATOM     46  C   UNL     1     -42.835  40.885  28.565  1.00  0.00     0.133 A 
ATOM     47  C   UNL     1     -42.973  39.394  30.354  1.00  0.00     0.031 A 
ATOM     48  H   UNL     1     -44.562  37.941  30.433  1.00  0.00     0.066 H 
ATOM     49  N   UNL     1     -42.347  40.416  29.734  1.00  0.00    -0.239 NA
ATOM     50  H   UNL     1     -42.511  39.075  31.285  1.00  0.00     0.084 H 
BRANCH  46  51
ATOM     51  N   UNL     1     -42.134  41.936  27.992  1.00  0.00    -0.383 N 
ATOM     52  H   UNL     1     -41.381  41.587  27.414  1.00  0.00     0.158 HD
ATOM     53  H   UNL     1     -42.714  42.670  27.609  1.00  0.00     0.158 HD
ENDBRANCH  46  51
ENDBRANCH  30  38
ENDBRANCH   1  26
TORSDOF 8
ENDMDL
MODEL 3
REMARK VINA RESULT:      -9.4      3.086      9.830
REMARK SMILES CNc1ccc2ccc(OC[C@H]3O[C@@H](n4cc(Br)c5c(N)nccc54)[C@@H](F)[C@@H]3O)cc2n1
REMARK SMILES IDX 11 1 10 4 9 5 3 6 4 7 32 8 5 9 31 11 6 12 30 14 7 15 8 17
REMARK SMILES IDX 2 20 1 22 12 26 13 27 28 28 14 30 26 31 27 34 29 36 15 38
REMARK SMILES IDX 16 39 25 40 17 41 19 43 24 44 18 45 20 46 23 47 22 49 21 51
REMARK H PARENT 11 2 11 3 4 10 5 13 30 16 7 18 8 19 2 21 1 23 1 24 1 25 12 29
REMARK H PARENT 28 32 14 33 26 35 29 37 16 42 24 48 23 50 21 52 21 53
REMARK Flexibility Score: inf
ROOT
ATOM      1  C   UNL     1     -48.144  35.860  26.910  1.00  0.00     0.117 C 
ATOM      2  H   UNL     1     -47.518  36.259  26.105  1.00  0.00     0.073 H 
ATOM      3  H   UNL     1     -49.115  35.588  26.478  1.00  0.00     0.073 H 
ENDROOT
BRANCH   1   4
ATOM      4  O   UNL     1     -48.247  36.919  27.879  1.00  0.00    -0.491 OA
BRANCH   4   5
ATOM      5  C   UNL     1     -47.296  37.890  27.727  1.00  0.00     0.121 A 
ATOM      6  C   UNL     1     -43.322  40.062  29.155  1.00  0.00     0.126 A 
ATOM      7  C   UNL     1     -43.319  40.889  28.037  1.00  0.00    -0.019 A 
ATOM      8  N   UNL     1     -44.280  39.132  29.340  1.00  0.00    -0.231 NA
ATOM      9  C   UNL     1     -44.334  40.765  27.094  1.00  0.00    -0.049 A 
ATOM     10  H   UNL     1     -42.524  41.613  27.893  1.00  0.00     0.066 H 
ATOM     11  C   UNL     1     -45.265  39.007  28.436  1.00  0.00     0.076 A 
ATOM     12  C   UNL     1     -45.335  39.811  27.280  1.00  0.00     0.001 A 
ATOM     13  H   UNL     1     -44.328  41.408  26.217  1.00  0.00     0.063 H 
ATOM     14  C   UNL     1     -46.252  38.053  28.637  1.00  0.00     0.007 A 
ATOM     15  C   UNL     1     -46.376  39.632  26.352  1.00  0.00    -0.049 A 
ATOM     16  H   UNL     1     -46.183  37.418  29.515  1.00  0.00     0.069 H 
ATOM     17  C   UNL     1     -47.350  38.661  26.573  1.00  0.00    -0.019 A 
ATOM     18  H   UNL     1     -46.424  40.240  25.452  1.00  0.00     0.063 H 
ATOM     19  H   UNL     1     -48.145  38.509  25.849  1.00  0.00     0.066 H 
BRANCH   6  20
ATOM     20  N   UNL     1     -42.264  40.191  30.074  1.00  0.00    -0.373 N 
ATOM     21  H   UNL     1     -41.746  39.319  30.104  1.00  0.00     0.161 HD
BRANCH  20  22
ATOM     22  C   UNL     1     -41.390  41.325  29.806  1.00  0.00     0.005 C 
ATOM     23  H   UNL     1     -41.491  42.098  30.575  1.00  0.00     0.045 H 
ATOM     24  H   UNL     1     -40.344  41.013  29.722  1.00  0.00     0.045 H 
ATOM     25  H   UNL     1     -41.674  41.773  28.848  1.00  0.00     0.045 H 
ENDBRANCH  20  22
ENDBRANCH   6  20
ENDBRANCH   4   5
ENDBRANCH   1   4
BRANCH   1  26
ATOM     26  C   UNL     1     -47.453  34.653  27.566  1.00  0.00     0.123 C 
ATOM     27  O   UNL     1     -48.123  33.445  27.130  1.00  0.00    -0.345 OA
ATOM     28  C   UNL     1     -45.989  34.506  27.146  1.00  0.00     0.119 C 
ATOM     29  H   UNL     1     -47.554  34.700  28.656  1.00  0.00     0.067 H 
ATOM     30  C   UNL     1     -47.224  32.715  26.261  1.00  0.00     0.168 C 
ATOM     31  C   UNL     1     -46.103  33.684  25.886  1.00  0.00     0.173 C 
ATOM     32  H   UNL     1     -45.488  35.465  26.989  1.00  0.00     0.066 H 
ATOM     33  H   UNL     1     -46.814  31.888  26.856  1.00  0.00     0.088 H 
ATOM     34  F   UNL     1     -46.472  34.525  24.881  1.00  0.00    -0.239 F 
ATOM     35  H   UNL     1     -45.185  33.167  25.592  1.00  0.00     0.074 H 
BRANCH  28  36
ATOM     36  O   UNL     1     -45.241  33.768  28.119  1.00  0.00    -0.387 OA
ATOM     37  H   UNL     1     -45.413  34.162  28.994  1.00  0.00     0.211 HD
ENDBRANCH  28  36
BRANCH  30  38
ATOM     38  N   UNL     1     -47.977  32.091  25.177  1.00  0.00    -0.317 N 
ATOM     39  C   UNL     1     -49.340  32.122  25.024  1.00  0.00     0.022 A 
ATOM     40  C   UNL     1     -47.405  31.495  24.058  1.00  0.00     0.057 A 
ATOM     41  C   UNL     1     -49.641  31.531  23.824  1.00  0.00     0.047 A 
ATOM     42  H   UNL     1     -49.996  32.554  25.768  1.00  0.00     0.083 H 
ATOM     43  C   UNL     1     -48.441  31.135  23.181  1.00  0.00     0.056 A 
ATOM     44  C   UNL     1     -46.070  31.241  23.738  1.00  0.00    -0.019 A 
ATOM     45  Br  UNL     1     -51.380  31.307  23.146  1.00  0.00    -0.048 Br
ATOM     46  C   UNL     1     -48.114  30.520  21.951  1.00  0.00     0.133 A 
ATOM     47  C   UNL     1     -45.855  30.617  22.522  1.00  0.00     0.031 A 
ATOM     48  H   UNL     1     -45.247  31.491  24.396  1.00  0.00     0.066 H 
ATOM     49  N   UNL     1     -46.822  30.265  21.650  1.00  0.00    -0.239 NA
ATOM     50  H   UNL     1     -44.844  30.370  22.205  1.00  0.00     0.084 H 
BRANCH  46  51
ATOM     51  N   UNL     1     -49.048  30.128  21.003  1.00  0.00    -0.383 N 
ATOM     52  H   UNL     1     -49.974  30.433  21.271  1.00  0.00     0.158 HD
ATOM     53  H   UNL     1     -48.765  30.281  20.044  1.00  0.00     0.158 HD
ENDBRANCH  46  51
ENDBRANCH  30  38
ENDBRANCH   1  26
TORSDOF 8
ENDMDL
MODEL 4
REMARK VINA RESULT:      -9.4      3.144      9.963
REMARK SMILES CNc1ccc2ccc(OC[C@H]3O[C@@H](n4cc(Br)c5c(N)nccc54)[C@@H](F)[C@@H]3O)cc2n1
REMARK SMILES IDX 11 1 10 4 9 5 3 6 4 7 32 8 5 9 31 11 6 12 30 14 7 15 8 17
REMARK SMILES IDX 2 20 1 22 12 26 13 27 28 28 14 30 26 31 27 34 29 36 15 38
REMARK SMILES IDX 16 39 25 40 17 41 19 43 24 44 18 45 20 46 23 47 22 49 21 51
REMARK H PARENT 11 2 11 3 4 10 5 13 30 16 7 18 8 19 2 21 1 23 1 24 1 25 12 29
REMARK H PARENT 28 32 14 33 26 35 29 37 16 42 24 48 23 50 21 52 21 53
REMARK Flexibility Score: inf
ROOT
ATOM      1  C   UNL     1     -47.809  35.684  26.508  1.00  0.00     0.117 C 
ATOM      2  H   UNL     1     -46.909  35.987  25.962  1.00  0.00     0.073 H 
ATOM      3  H   UNL     1     -48.614  35.542  25.776  1.00  0.00     0.073 H 
ENDROOT
BRANCH   1   4
ATOM      4  O   UNL     1     -48.081  36.756  27.427  1.00  0.00    -0.491 OA
BRANCH   4   5
ATOM      5  C   UNL     1     -46.997  37.553  27.671  1.00  0.00     0.121 A 
ATOM      6  C   UNL     1     -44.181  41.195  26.505  1.00  0.00     0.126 A 
ATOM      7  C   UNL     1     -43.444  41.057  27.676  1.00  0.00    -0.019 A 
ATOM      8  N   UNL     1     -45.223  40.385  26.230  1.00  0.00    -0.231 NA
ATOM      9  C   UNL     1     -43.778  40.055  28.580  1.00  0.00    -0.049 A 
ATOM     10  H   UNL     1     -42.625  41.736  27.891  1.00  0.00     0.066 H 
ATOM     11  C   UNL     1     -45.552  39.412  27.096  1.00  0.00     0.076 A 
ATOM     12  C   UNL     1     -44.851  39.206  28.301  1.00  0.00     0.001 A 
ATOM     13  H   UNL     1     -43.206  39.952  29.498  1.00  0.00     0.063 H 
ATOM     14  C   UNL     1     -46.622  38.579  26.804  1.00  0.00     0.007 A 
ATOM     15  C   UNL     1     -45.243  38.186  29.186  1.00  0.00    -0.049 A 
ATOM     16  H   UNL     1     -47.176  38.755  25.886  1.00  0.00     0.069 H 
ATOM     17  C   UNL     1     -46.326  37.368  28.873  1.00  0.00    -0.019 A 
ATOM     18  H   UNL     1     -44.714  38.034  30.124  1.00  0.00     0.063 H 
ATOM     19  H   UNL     1     -46.641  36.590  29.563  1.00  0.00     0.066 H 
BRANCH   6  20
ATOM     20  N   UNL     1     -43.836  42.238  25.626  1.00  0.00    -0.373 N 
ATOM     21  H   UNL     1     -43.187  41.881  24.932  1.00  0.00     0.161 HD
BRANCH  20  22
ATOM     22  C   UNL     1     -44.983  42.886  25.006  1.00  0.00     0.005 C 
ATOM     23  H   UNL     1     -45.765  42.161  24.756  1.00  0.00     0.045 H 
ATOM     24  H   UNL     1     -45.393  43.674  25.646  1.00  0.00     0.045 H 
ATOM     25  H   UNL     1     -44.661  43.359  24.072  1.00  0.00     0.045 H 
ENDBRANCH  20  22
ENDBRANCH   6  20
ENDBRANCH   4   5
ENDBRANCH   1   4
BRANCH   1  26
ATOM     26  C   UNL     1     -47.534  34.401  27.309  1.00  0.00     0.123 C 
ATOM     27  O   UNL     1     -48.416  33.358  26.827  1.00  0.00    -0.345 OA
ATOM     28  C   UNL     1     -46.109  33.876  27.119  1.00  0.00     0.119 C 
ATOM     29  H   UNL     1     -47.766  34.554  28.369  1.00  0.00     0.067 H 
ATOM     30  C   UNL     1     -47.617  32.370  26.134  1.00  0.00     0.168 C 
ATOM     31  C   UNL     1     -46.251  33.011  25.892  1.00  0.00     0.173 C 
ATOM     32  H   UNL     1     -45.369  34.673  27.000  1.00  0.00     0.066 H 
ATOM     33  H   UNL     1     -47.508  31.517  26.816  1.00  0.00     0.088 H 
ATOM     34  F   UNL     1     -46.261  33.837  24.809  1.00  0.00    -0.239 F 
ATOM     35  H   UNL     1     -45.458  32.270  25.760  1.00  0.00     0.074 H 
BRANCH  28  36
ATOM     36  O   UNL     1     -45.705  33.058  28.223  1.00  0.00    -0.387 OA
ATOM     37  H   UNL     1     -44.897  32.578  27.963  1.00  0.00     0.211 HD
ENDBRANCH  28  36
BRANCH  30  38
ATOM     38  N   UNL     1     -48.346  31.863  24.976  1.00  0.00    -0.317 N 
ATOM     39  C   UNL     1     -49.673  32.084  24.701  1.00  0.00     0.022 A 
ATOM     40  C   UNL     1     -47.763  31.199  23.902  1.00  0.00     0.057 A 
ATOM     41  C   UNL     1     -49.942  31.547  23.469  1.00  0.00     0.047 A 
ATOM     42  H   UNL     1     -50.328  32.599  25.391  1.00  0.00     0.083 H 
ATOM     43  C   UNL     1     -48.754  30.992  22.929  1.00  0.00     0.056 A 
ATOM     44  C   UNL     1     -46.452  30.764  23.697  1.00  0.00    -0.019 A 
ATOM     45  Br  UNL     1     -51.626  31.571  22.635  1.00  0.00    -0.048 Br
ATOM     46  C   UNL     1     -48.404  30.345  21.722  1.00  0.00     0.133 A 
ATOM     47  C   UNL     1     -46.215  30.124  22.494  1.00  0.00     0.031 A 
ATOM     48  H   UNL     1     -45.666  30.894  24.430  1.00  0.00     0.066 H 
ATOM     49  N   UNL     1     -47.138  29.915  21.533  1.00  0.00    -0.239 NA
ATOM     50  H   UNL     1     -45.224  29.740  22.264  1.00  0.00     0.084 H 
BRANCH  46  51
ATOM     51  N   UNL     1     -49.293  30.091  20.687  1.00  0.00    -0.383 N 
ATOM     52  H   UNL     1     -48.910  29.403  20.052  1.00  0.00     0.158 HD
ATOM     53  H   UNL     1     -50.255  29.976  20.976  1.00  0.00     0.158 HD
ENDBRANCH  46  51
ENDBRANCH  30  38
ENDBRANCH   1  26
TORSDOF 8
ENDMDL
MODEL 5
REMARK VINA RESULT:      -9.4      1.323      2.049
REMARK SMILES CNc1ccc2ccc(OC[C@H]3O[C@@H](n4cc(Br)c5c(N)nccc54)[C@@H](F)[C@@H]3O)cc2n1
REMARK SMILES IDX 11 1 10 4 9 5 3 6 4 7 32 8 5 9 31 11 6 12 30 14 7 15 8 17
REMARK SMILES IDX 2 20 1 22 12 26 13 27 28 28 14 30 26 31 27 34 29 36 15 38
REMARK SMILES IDX 16 39 25 40 17 41 19 43 24 44 18 45 20 46 23 47 22 49 21 51
REMARK H PARENT 11 2 11 3 4 10 5 13 30 16 7 18 8 19 2 21 1 23 1 24 1 25 12 29
REMARK H PARENT 28 32 14 33 26 35 29 37 16 42 24 48 23 50 21 52 21 53
REMARK Flexibility Score: inf
ROOT
ATOM      1  C   UNL     1     -47.015  36.362  27.246  1.00  0.00     0.117 C 
ATOM      2  H   UNL     1     -48.023  35.962  27.404  1.00  0.00     0.073 H 
ATOM      3  H   UNL     1     -47.097  37.452  27.148  1.00  0.00     0.073 H 
ENDROOT
BRANCH   1   4
ATOM      4  O   UNL     1     -46.536  35.734  26.043  1.00  0.00    -0.491 OA
BRANCH   4   5
ATOM      5  C   UNL     1     -47.118  34.523  25.793  1.00  0.00     0.121 A 
ATOM      6  C   UNL     1     -46.996  30.181  23.872  1.00  0.00     0.126 A 
ATOM      7  C   UNL     1     -48.219  29.846  24.442  1.00  0.00    -0.019 A 
ATOM      8  N   UNL     1     -46.433  31.390  24.073  1.00  0.00    -0.231 NA
ATOM      9  C   UNL     1     -48.886  30.781  25.226  1.00  0.00    -0.049 A 
ATOM     10  H   UNL     1     -48.642  28.859  24.290  1.00  0.00     0.066 H 
ATOM     11  C   UNL     1     -47.071  32.300  24.826  1.00  0.00     0.076 A 
ATOM     12  C   UNL     1     -48.316  32.039  25.433  1.00  0.00     0.001 A 
ATOM     13  H   UNL     1     -49.840  30.517  25.677  1.00  0.00     0.063 H 
ATOM     14  C   UNL     1     -46.490  33.544  25.022  1.00  0.00     0.007 A 
ATOM     15  C   UNL     1     -48.939  33.016  26.229  1.00  0.00    -0.049 A 
ATOM     16  H   UNL     1     -45.520  33.736  24.573  1.00  0.00     0.069 H 
ATOM     17  C   UNL     1     -48.330  34.255  26.417  1.00  0.00    -0.019 A 
ATOM     18  H   UNL     1     -49.892  32.812  26.711  1.00  0.00     0.063 H 
ATOM     19  H   UNL     1     -48.801  35.006  27.044  1.00  0.00     0.066 H 
BRANCH   6  20
ATOM     20  N   UNL     1     -46.332  29.202  23.110  1.00  0.00    -0.373 N 
ATOM     21  H   UNL     1     -47.021  28.672  22.585  1.00  0.00     0.161 HD
BRANCH  20  22
ATOM     22  C   UNL     1     -45.293  29.738  22.242  1.00  0.00     0.005 C 
ATOM     23  H   UNL     1     -45.709  30.430  21.502  1.00  0.00     0.045 H 
ATOM     24  H   UNL     1     -44.506  30.235  22.819  1.00  0.00     0.045 H 
ATOM     25  H   UNL     1     -44.825  28.912  21.696  1.00  0.00     0.045 H 
ENDBRANCH  20  22
ENDBRANCH   6  20
ENDBRANCH   4   5
ENDBRANCH   1   4
BRANCH   1  26
ATOM     26  C   UNL     1     -46.099  35.961  28.414  1.00  0.00     0.123 C 
ATOM     27  O   UNL     1     -44.896  36.765  28.355  1.00  0.00    -0.345 OA
ATOM     28  C   UNL     1     -46.729  36.233  29.783  1.00  0.00     0.119 C 
ATOM     29  H   UNL     1     -45.791  34.914  28.316  1.00  0.00     0.067 H 
ATOM     30  C   UNL     1     -44.906  37.682  29.475  1.00  0.00     0.168 C 
ATOM     31  C   UNL     1     -46.328  37.665  30.035  1.00  0.00     0.173 C 
ATOM     32  H   UNL     1     -47.812  36.081  29.796  1.00  0.00     0.066 H 
ATOM     33  H   UNL     1     -44.211  37.275  30.221  1.00  0.00     0.088 H 
ATOM     34  F   UNL     1     -47.169  38.458  29.314  1.00  0.00    -0.239 F 
ATOM     35  H   UNL     1     -46.368  37.974  31.084  1.00  0.00     0.074 H 
BRANCH  28  36
ATOM     36  O   UNL     1     -46.151  35.401  30.795  1.00  0.00    -0.387 OA
ATOM     37  H   UNL     1     -46.055  34.503  30.428  1.00  0.00     0.211 HD
ENDBRANCH  28  36
BRANCH  30  38
ATOM     38  N   UNL     1     -44.348  38.968  29.071  1.00  0.00    -0.317 N 
ATOM     39  C   UNL     1     -43.281  39.602  29.658  1.00  0.00     0.022 A 
ATOM     40  C   UNL     1     -44.728  39.673  27.933  1.00  0.00     0.057 A 
ATOM     41  C   UNL     1     -42.994  40.717  28.912  1.00  0.00     0.047 A 
ATOM     42  H   UNL     1     -42.807  39.226  30.554  1.00  0.00     0.083 H 
ATOM     43  C   UNL     1     -43.879  40.784  27.807  1.00  0.00     0.056 A 
ATOM     44  C   UNL     1     -45.740  39.431  27.002  1.00  0.00    -0.019 A 
ATOM     45  Br  UNL     1     -41.622  41.941  29.302  1.00  0.00    -0.048 Br
ATOM     46  C   UNL     1     -44.052  41.657  26.709  1.00  0.00     0.133 A 
ATOM     47  C   UNL     1     -45.842  40.354  25.976  1.00  0.00     0.031 A 
ATOM     48  H   UNL     1     -46.421  38.593  27.075  1.00  0.00     0.066 H 
ATOM     49  N   UNL     1     -45.040  41.427  25.817  1.00  0.00    -0.239 NA
ATOM     50  H   UNL     1     -46.615  40.246  25.219  1.00  0.00     0.084 H 
BRANCH  46  51
ATOM     51  N   UNL     1     -43.273  42.781  26.475  1.00  0.00    -0.383 N 
ATOM     52  H   UNL     1     -43.589  43.556  27.044  1.00  0.00     0.158 HD
ATOM     53  H   UNL     1     -42.278  42.604  26.439  1.00  0.00     0.158 HD
ENDBRANCH  46  51
ENDBRANCH  30  38
ENDBRANCH   1  26
TORSDOF 8
ENDMDL
MODEL 6
REMARK VINA RESULT:      -9.0      4.636     11.318
REMARK SMILES CNc1ccc2ccc(OC[C@H]3O[C@@H](n4cc(Br)c5c(N)nccc54)[C@@H](F)[C@@H]3O)cc2n1
REMARK SMILES IDX 11 1 10 4 9 5 3 6 4 7 32 8 5 9 31 11 6 12 30 14 7 15 8 17
REMARK SMILES IDX 2 20 1 22 12 26 13 27 28 28 14 30 26 31 27 34 29 36 15 38
REMARK SMILES IDX 16 39 25 40 17 41 19 43 24 44 18 45 20 46 23 47 22 49 21 51
REMARK H PARENT 11 2 11 3 4 10 5 13 30 16 7 18 8 19 2 21 1 23 1 24 1 25 12 29
REMARK H PARENT 28 32 14 33 26 35 29 37 16 42 24 48 23 50 21 52 21 53
REMARK Flexibility Score: inf
ROOT
ATOM      1  C   UNL     1     -46.741  32.184  23.814  1.00  0.00     0.117 C 
ATOM      2  H   UNL     1     -46.499  33.063  23.207  1.00  0.00     0.073 H 
ATOM      3  H   UNL     1     -47.832  32.071  23.822  1.00  0.00     0.073 H 
ENDROOT
BRANCH   1   4
ATOM      4  O   UNL     1     -46.204  32.457  25.120  1.00  0.00    -0.491 OA
BRANCH   4   5
ATOM      5  C   UNL     1     -46.863  33.455  25.782  1.00  0.00     0.121 A 
ATOM      6  C   UNL     1     -46.986  37.824  27.639  1.00  0.00     0.126 A 
ATOM      7  C   UNL     1     -48.335  37.700  27.954  1.00  0.00    -0.019 A 
ATOM      8  N   UNL     1     -46.312  36.829  27.029  1.00  0.00    -0.231 NA
ATOM      9  C   UNL     1     -49.003  36.520  27.646  1.00  0.00    -0.049 A 
ATOM     10  H   UNL     1     -48.866  38.523  28.421  1.00  0.00     0.066 H 
ATOM     11  C   UNL     1     -46.948  35.684  26.730  1.00  0.00     0.076 A 
ATOM     12  C   UNL     1     -48.312  35.480  27.021  1.00  0.00     0.001 A 
ATOM     13  H   UNL     1     -50.059  36.426  27.886  1.00  0.00     0.063 H 
ATOM     14  C   UNL     1     -46.246  34.662  26.108  1.00  0.00     0.007 A 
ATOM     15  C   UNL     1     -48.940  34.272  26.672  1.00  0.00    -0.049 A 
ATOM     16  H   UNL     1     -45.201  34.830  25.863  1.00  0.00     0.069 H 
ATOM     17  C   UNL     1     -48.215  33.264  26.041  1.00  0.00    -0.019 A 
ATOM     18  H   UNL     1     -49.996  34.118  26.882  1.00  0.00     0.063 H 
ATOM     19  H   UNL     1     -48.702  32.337  25.756  1.00  0.00     0.066 H 
BRANCH   6  20
ATOM     20  N   UNL     1     -46.348  39.042  27.937  1.00  0.00    -0.373 N 
ATOM     21  H   UNL     1     -46.935  39.574  28.571  1.00  0.00     0.161 HD
BRANCH  20  22
ATOM     22  C   UNL     1     -44.998  38.884  28.462  1.00  0.00     0.005 C 
ATOM     23  H   UNL     1     -44.816  37.856  28.794  1.00  0.00     0.045 H 
ATOM     24  H   UNL     1     -44.244  39.180  27.724  1.00  0.00     0.045 H 
ATOM     25  H   UNL     1     -44.877  39.539  29.332  1.00  0.00     0.045 H 
ENDBRANCH  20  22
ENDBRANCH   6  20
ENDBRANCH   4   5
ENDBRANCH   1   4
BRANCH   1  26
ATOM     26  C   UNL     1     -46.043  30.940  23.240  1.00  0.00     0.123 C 
ATOM     27  O   UNL     1     -46.534  29.771  23.940  1.00  0.00    -0.345 OA
ATOM     28  C   UNL     1     -46.355  30.713  21.759  1.00  0.00     0.119 C 
ATOM     29  H   UNL     1     -44.963  30.990  23.419  1.00  0.00     0.067 H 
ATOM     30  C   UNL     1     -47.338  28.994  23.020  1.00  0.00     0.168 C 
ATOM     31  C   UNL     1     -47.624  29.901  21.824  1.00  0.00     0.173 C 
ATOM     32  H   UNL     1     -46.468  31.644  21.196  1.00  0.00     0.066 H 
ATOM     33  H   UNL     1     -46.720  28.145  22.701  1.00  0.00     0.088 H 
ATOM     34  F   UNL     1     -48.649  30.763  22.071  1.00  0.00    -0.239 F 
ATOM     35  H   UNL     1     -47.853  29.336  20.916  1.00  0.00     0.074 H 
BRANCH  28  36
ATOM     36  O   UNL     1     -45.333  29.934  21.126  1.00  0.00    -0.387 OA
ATOM     37  H   UNL     1     -44.789  30.534  20.585  1.00  0.00     0.211 HD
ENDBRANCH  28  36
BRANCH  30  38
ATOM     38  N   UNL     1     -48.478  28.414  23.724  1.00  0.00    -0.317 N 
ATOM     39  C   UNL     1     -49.801  28.605  23.407  1.00  0.00     0.022 A 
ATOM     40  C   UNL     1     -48.384  27.462  24.733  1.00  0.00     0.057 A 
ATOM     41  C   UNL     1     -50.549  27.796  24.223  1.00  0.00     0.047 A 
ATOM     42  H   UNL     1     -50.116  29.295  22.636  1.00  0.00     0.083 H 
ATOM     43  C   UNL     1     -49.684  27.049  25.063  1.00  0.00     0.056 A 
ATOM     44  C   UNL     1     -47.271  26.925  25.384  1.00  0.00    -0.019 A 
ATOM     45  Br  UNL     1     -52.425  27.693  24.201  1.00  0.00    -0.048 Br
ATOM     46  C   UNL     1     -49.858  26.064  26.062  1.00  0.00     0.133 A 
ATOM     47  C   UNL     1     -47.546  25.983  26.360  1.00  0.00     0.031 A 
ATOM     48  H   UNL     1     -46.256  27.230  25.165  1.00  0.00     0.066 H 
ATOM     49  N   UNL     1     -48.780  25.556  26.698  1.00  0.00    -0.239 NA
ATOM     50  H   UNL     1     -46.735  25.529  26.924  1.00  0.00     0.084 H 
BRANCH  46  51
ATOM     51  N   UNL     1     -51.090  25.572  26.469  1.00  0.00    -0.383 N 
ATOM     52  H   UNL     1     -51.250  24.653  26.079  1.00  0.00     0.158 HD
ATOM     53  H   UNL     1     -51.294  25.706  27.449  1.00  0.00     0.158 HD
ENDBRANCH  46  51
ENDBRANCH  30  38
ENDBRANCH   1  26
TORSDOF 8
ENDMDL
MODEL 7
REMARK VINA RESULT:      -9.0      1.829      2.343
REMARK SMILES CNc1ccc2ccc(OC[C@H]3O[C@@H](n4cc(Br)c5c(N)nccc54)[C@@H](F)[C@@H]3O)cc2n1
REMARK SMILES IDX 11 1 10 4 9 5 3 6 4 7 32 8 5 9 31 11 6 12 30 14 7 15 8 17
REMARK SMILES IDX 2 20 1 22 12 26 13 27 28 28 14 30 26 31 27 34 29 36 15 38
REMARK SMILES IDX 16 39 25 40 17 41 19 43 24 44 18 45 20 46 23 47 22 49 21 51
REMARK H PARENT 11 2 11 3 4 10 5 13 30 16 7 18 8 19 2 21 1 23 1 24 1 25 12 29
REMARK H PARENT 28 32 14 33 26 35 29 37 16 42 24 48 23 50 21 52 21 53
REMARK Flexibility Score: inf
ROOT
ATOM      1  C   UNL     1     -45.942  34.911  27.913  1.00  0.00     0.117 C 
ATOM      2  H   UNL     1     -46.032  35.150  26.848  1.00  0.00     0.073 H 
ATOM      3  H   UNL     1     -44.891  35.044  28.201  1.00  0.00     0.073 H 
ENDROOT
BRANCH   1   4
ATOM      4  O   UNL     1     -46.382  33.547  28.041  1.00  0.00    -0.491 OA
BRANCH   4   5
ATOM      5  C   UNL     1     -46.660  32.951  26.842  1.00  0.00     0.121 A 
ATOM      6  C   UNL     1     -49.081  29.802  24.240  1.00  0.00     0.126 A 
ATOM      7  C   UNL     1     -48.502  30.263  23.062  1.00  0.00    -0.019 A 
ATOM      8  N   UNL     1     -48.780  30.350  25.434  1.00  0.00    -0.231 NA
ATOM      9  C   UNL     1     -47.582  31.305  23.116  1.00  0.00    -0.049 A 
ATOM     10  H   UNL     1     -48.778  29.826  22.108  1.00  0.00     0.066 H 
ATOM     11  C   UNL     1     -47.890  31.355  25.496  1.00  0.00     0.076 A 
ATOM     12  C   UNL     1     -47.258  31.875  24.349  1.00  0.00     0.001 A 
ATOM     13  H   UNL     1     -47.135  31.670  22.195  1.00  0.00     0.063 H 
ATOM     14  C   UNL     1     -47.580  31.909  26.729  1.00  0.00     0.007 A 
ATOM     15  C   UNL     1     -46.347  32.939  24.460  1.00  0.00    -0.049 A 
ATOM     16  H   UNL     1     -48.086  31.523  27.609  1.00  0.00     0.069 H 
ATOM     17  C   UNL     1     -46.058  33.484  25.709  1.00  0.00    -0.019 A 
ATOM     18  H   UNL     1     -45.868  33.352  23.575  1.00  0.00     0.063 H 
ATOM     19  H   UNL     1     -45.368  34.318  25.796  1.00  0.00     0.066 H 
BRANCH   6  20
ATOM     20  N   UNL     1     -50.030  28.767  24.147  1.00  0.00    -0.373 N 
ATOM     21  H   UNL     1     -50.071  28.279  25.036  1.00  0.00     0.161 HD
BRANCH  20  22
ATOM     22  C   UNL     1     -51.348  29.218  23.722  1.00  0.00     0.005 C 
ATOM     23  H   UNL     1     -51.694  30.066  24.324  1.00  0.00     0.045 H 
ATOM     24  H   UNL     1     -51.358  29.483  22.660  1.00  0.00     0.045 H 
ATOM     25  H   UNL     1     -52.065  28.402  23.861  1.00  0.00     0.045 H 
ENDBRANCH  20  22
ENDBRANCH   6  20
ENDBRANCH   4   5
ENDBRANCH   1   4
BRANCH   1  26
ATOM     26  C   UNL     1     -46.876  35.813  28.737  1.00  0.00     0.123 C 
ATOM     27  O   UNL     1     -46.181  37.048  29.035  1.00  0.00    -0.345 OA
ATOM     28  C   UNL     1     -48.143  36.209  27.975  1.00  0.00     0.119 C 
ATOM     29  H   UNL     1     -47.117  35.340  29.695  1.00  0.00     0.067 H 
ATOM     30  C   UNL     1     -46.809  38.116  28.285  1.00  0.00     0.168 C 
ATOM     31  C   UNL     1     -47.695  37.445  27.236  1.00  0.00     0.173 C 
ATOM     32  H   UNL     1     -48.510  35.421  27.311  1.00  0.00     0.066 H 
ATOM     33  H   UNL     1     -47.434  38.673  28.995  1.00  0.00     0.088 H 
ATOM     34  F   UNL     1     -46.979  37.037  26.152  1.00  0.00    -0.239 F 
ATOM     35  H   UNL     1     -48.506  38.095  26.896  1.00  0.00     0.074 H 
BRANCH  28  36
ATOM     36  O   UNL     1     -49.201  36.560  28.873  1.00  0.00    -0.387 OA
ATOM     37  H   UNL     1     -48.802  36.808  29.727  1.00  0.00     0.211 HD
ENDBRANCH  28  36
BRANCH  30  38
ATOM     38  N   UNL     1     -45.796  39.059  27.821  1.00  0.00    -0.317 N 
ATOM     39  C   UNL     1     -45.877  39.833  26.690  1.00  0.00     0.022 A 
ATOM     40  C   UNL     1     -44.661  39.419  28.539  1.00  0.00     0.057 A 
ATOM     41  C   UNL     1     -44.789  40.668  26.674  1.00  0.00     0.047 A 
ATOM     42  H   UNL     1     -46.689  39.739  25.982  1.00  0.00     0.083 H 
ATOM     43  C   UNL     1     -44.008  40.442  27.835  1.00  0.00     0.056 A 
ATOM     44  C   UNL     1     -44.151  38.936  29.746  1.00  0.00    -0.019 A 
ATOM     45  Br  UNL     1     -44.422  41.922  25.323  1.00  0.00    -0.048 Br
ATOM     46  C   UNL     1     -42.823  40.996  28.373  1.00  0.00     0.133 A 
ATOM     47  C   UNL     1     -42.977  39.528  30.179  1.00  0.00     0.031 A 
ATOM     48  H   UNL     1     -44.620  38.139  30.309  1.00  0.00     0.066 H 
ATOM     49  N   UNL     1     -42.326  40.519  29.535  1.00  0.00    -0.239 NA
ATOM     50  H   UNL     1     -42.506  39.198  31.101  1.00  0.00     0.084 H 
BRANCH  46  51
ATOM     51  N   UNL     1     -42.095  42.014  27.774  1.00  0.00    -0.383 N 
ATOM     52  H   UNL     1     -41.249  42.200  28.296  1.00  0.00     0.158 HD
ATOM     53  H   UNL     1     -42.016  41.940  26.769  1.00  0.00     0.158 HD
ENDBRANCH  46  51
ENDBRANCH  30  38
ENDBRANCH   1  26
TORSDOF 8
ENDMDL
