MODEL 1
REMARK VINA RESULT:     -10.9      0.000      0.000
REMARK SMILES Cn1ccc(-c2cn(-c3cncc(COc4cc(F)c5ccc(N6CCC6)nc5c4)c3)c3ncnc(N)c23)n1
REMARK SMILES IDX 9 1 10 2 11 3 12 4 13 5 31 6 8 10 6 11 7 12 38 13 32 15
REMARK SMILES IDX 36 16 33 17 35 18 34 19 5 21 2 22 3 23 39 24 4 25 1 28 37 32
REMARK SMILES IDX 14 35 15 38 16 39 17 40 30 41 18 42 29 44 19 46 20 47 28 48
REMARK SMILES IDX 21 49 23 50 22 51 24 54 25 55 27 56 26 57
REMARK H PARENT 10 7 12 8 31 9 7 14 34 20 3 26 4 27 1 29 1 30 1 31 37 33 37 34
REMARK H PARENT 14 36 14 37 17 43 30 45 21 52 22 53 25 58 25 59 27 60 27 61
REMARK H PARENT 26 62 26 63
REMARK Flexibility Score: inf
ROOT
ATOM      1  C   UNL     1     -47.052  37.907  27.445  1.00  0.00     0.066 A 
ATOM      2  C   UNL     1     -48.312  38.058  28.010  1.00  0.00     0.051 A 
ATOM      3  N   UNL     1     -49.281  37.106  27.985  1.00  0.00    -0.262 NA
ATOM      4  C   UNL     1     -48.985  35.942  27.374  1.00  0.00     0.034 A 
ATOM      5  C   UNL     1     -47.757  35.667  26.789  1.00  0.00     0.010 A 
ATOM      6  C   UNL     1     -46.787  36.680  26.815  1.00  0.00    -0.028 A 
ATOM      7  H   UNL     1     -48.629  38.951  28.538  1.00  0.00     0.086 H 
ATOM      8  H   UNL     1     -49.793  35.216  27.371  1.00  0.00     0.084 H 
ATOM      9  H   UNL     1     -45.839  36.483  26.326  1.00  0.00     0.065 H 
ENDROOT
BRANCH   1  10
ATOM     10  N   UNL     1     -46.061  38.940  27.499  1.00  0.00    -0.299 N 
ATOM     11  C   UNL     1     -44.898  40.792  26.946  1.00  0.00     0.033 A 
ATOM     12  C   UNL     1     -45.988  40.012  26.628  1.00  0.00     0.021 A 
ATOM     13  C   UNL     1     -44.289  40.237  28.098  1.00  0.00     0.071 A 
ATOM     14  H   UNL     1     -46.684  40.143  25.811  1.00  0.00     0.083 H 
ATOM     15  C   UNL     1     -45.005  39.077  28.404  1.00  0.00     0.150 A 
ATOM     16  C   UNL     1     -43.222  40.563  28.954  1.00  0.00     0.137 A 
ATOM     17  N   UNL     1     -44.724  38.248  29.430  1.00  0.00    -0.218 NA
ATOM     18  N   UNL     1     -42.921  39.743  29.976  1.00  0.00    -0.219 NA
ATOM     19  C   UNL     1     -43.670  38.646  30.152  1.00  0.00     0.120 A 
ATOM     20  H   UNL     1     -43.392  38.007  30.984  1.00  0.00     0.106 H 
BRANCH  11  21
ATOM     21  C   UNL     1     -44.481  41.980  26.207  1.00  0.00     0.095 A 
ATOM     22  N   UNL     1     -44.058  43.998  25.756  1.00  0.00    -0.275 N 
ATOM     23  C   UNL     1     -43.870  43.338  24.576  1.00  0.00     0.025 A 
ATOM     24  N   UNL     1     -44.432  43.193  26.766  1.00  0.00    -0.173 NA
ATOM     25  C   UNL     1     -44.154  42.017  24.835  1.00  0.00    -0.016 A 
ATOM     26  H   UNL     1     -43.576  43.849  23.670  1.00  0.00     0.084 H 
ATOM     27  H   UNL     1     -44.134  41.198  24.129  1.00  0.00     0.066 H 
BRANCH  22  28
ATOM     28  C   UNL     1     -43.907  45.413  25.993  1.00  0.00     0.030 C 
ATOM     29  H   UNL     1     -44.443  45.952  25.207  1.00  0.00     0.048 H 
ATOM     30  H   UNL     1     -44.327  45.644  26.975  1.00  0.00     0.048 H 
ATOM     31  H   UNL     1     -42.847  45.675  25.969  1.00  0.00     0.048 H 
ENDBRANCH  22  28
ENDBRANCH  11  21
BRANCH  16  32
ATOM     32  N   UNL     1     -42.454  41.718  28.857  1.00  0.00    -0.383 N 
ATOM     33  H   UNL     1     -42.985  42.542  28.603  1.00  0.00     0.158 HD
ATOM     34  H   UNL     1     -41.881  41.814  29.687  1.00  0.00     0.158 HD
ENDBRANCH  16  32
ENDBRANCH   1  10
BRANCH   5  35
ATOM     35  C   UNL     1     -47.528  34.345  26.103  1.00  0.00     0.115 C 
ATOM     36  H   UNL     1     -46.475  34.076  26.250  1.00  0.00     0.076 H 
ATOM     37  H   UNL     1     -47.678  34.409  25.018  1.00  0.00     0.076 H 
BRANCH  35  38
ATOM     38  O   UNL     1     -48.299  33.277  26.660  1.00  0.00    -0.489 OA
BRANCH  38  39
ATOM     39  C   UNL     1     -48.778  32.304  25.828  1.00  0.00     0.124 A 
ATOM     40  C   UNL     1     -49.647  32.487  24.761  1.00  0.00     0.017 A 
ATOM     41  C   UNL     1     -48.335  31.010  26.131  1.00  0.00     0.007 A 
ATOM     42  C   UNL     1     -50.049  31.383  24.017  1.00  0.00     0.136 A 
ATOM     43  H   UNL     1     -50.045  33.454  24.480  1.00  0.00     0.069 H 
ATOM     44  C   UNL     1     -48.726  29.896  25.396  1.00  0.00     0.079 A 
ATOM     45  H   UNL     1     -47.658  30.862  26.971  1.00  0.00     0.069 H 
ATOM     46  F   UNL     1     -50.889  31.578  22.987  1.00  0.00    -0.206 F 
ATOM     47  C   UNL     1     -49.601  30.088  24.317  1.00  0.00     0.036 A 
ATOM     48  N   UNL     1     -48.260  28.681  25.736  1.00  0.00    -0.231 NA
ATOM     49  C   UNL     1     -49.994  28.964  23.585  1.00  0.00    -0.046 A 
ATOM     50  C   UNL     1     -48.637  27.597  25.019  1.00  0.00     0.129 A 
ATOM     51  C   UNL     1     -49.510  27.709  23.942  1.00  0.00    -0.019 A 
ATOM     52  H   UNL     1     -50.678  29.060  22.745  1.00  0.00     0.063 H 
ATOM     53  H   UNL     1     -49.823  26.831  23.388  1.00  0.00     0.066 H 
BRANCH  50  54
ATOM     54  N   UNL     1     -48.150  26.334  25.400  1.00  0.00    -0.356 N 
ATOM     55  C   UNL     1     -48.758  25.501  26.399  1.00  0.00     0.021 C 
ATOM     56  C   UNL     1     -46.825  26.034  25.861  1.00  0.00     0.021 C 
ATOM     57  C   UNL     1     -47.419  24.756  26.465  1.00  0.00    -0.018 C 
ATOM     58  H   UNL     1     -49.607  24.923  26.027  1.00  0.00     0.049 H 
ATOM     59  H   UNL     1     -49.027  26.047  27.309  1.00  0.00     0.049 H 
ATOM     60  H   UNL     1     -46.451  26.760  26.591  1.00  0.00     0.049 H 
ATOM     61  H   UNL     1     -46.104  25.885  25.055  1.00  0.00     0.049 H 
ATOM     62  H   UNL     1     -47.069  24.494  27.466  1.00  0.00     0.030 H 
ATOM     63  H   UNL     1     -47.359  23.878  25.812  1.00  0.00     0.030 H 
ENDBRANCH  50  54
ENDBRANCH  38  39
ENDBRANCH  35  38
ENDBRANCH   5  35
TORSDOF 8
ENDMDL
MODEL 2
REMARK VINA RESULT:     -10.8      2.835     12.647
REMARK SMILES Cn1ccc(-c2cn(-c3cncc(COc4cc(F)c5ccc(N6CCC6)nc5c4)c3)c3ncnc(N)c23)n1
REMARK SMILES IDX 9 1 10 2 11 3 12 4 13 5 31 6 8 10 6 11 7 12 38 13 32 15
REMARK SMILES IDX 36 16 33 17 35 18 34 19 5 21 2 22 3 23 39 24 4 25 1 28 37 32
REMARK SMILES IDX 14 35 15 38 16 39 17 40 30 41 18 42 29 44 19 46 20 47 28 48
REMARK SMILES IDX 21 49 23 50 22 51 24 54 25 55 27 56 26 57
REMARK H PARENT 10 7 12 8 31 9 7 14 34 20 3 26 4 27 1 29 1 30 1 31 37 33 37 34
REMARK H PARENT 14 36 14 37 17 43 30 45 21 52 22 53 25 58 25 59 27 60 27 61
REMARK H PARENT 26 62 26 63
REMARK Flexibility Score: inf
ROOT
ATOM      1  C   UNL     1     -47.677  32.049  25.130  1.00  0.00     0.066 A 
ATOM      2  C   UNL     1     -46.364  32.434  24.885  1.00  0.00     0.051 A 
ATOM      3  N   UNL     1     -45.825  33.614  25.289  1.00  0.00    -0.262 NA
ATOM      4  C   UNL     1     -46.625  34.454  25.975  1.00  0.00     0.034 A 
ATOM      5  C   UNL     1     -47.946  34.174  26.295  1.00  0.00     0.010 A 
ATOM      6  C   UNL     1     -48.476  32.956  25.846  1.00  0.00    -0.028 A 
ATOM      7  H   UNL     1     -45.647  31.814  24.359  1.00  0.00     0.086 H 
ATOM      8  H   UNL     1     -46.153  35.387  26.268  1.00  0.00     0.084 H 
ATOM      9  H   UNL     1     -49.519  32.750  26.062  1.00  0.00     0.065 H 
ENDROOT
BRANCH   1  10
ATOM     10  N   UNL     1     -48.200  30.792  24.686  1.00  0.00    -0.299 N 
ATOM     11  C   UNL     1     -49.114  28.731  24.761  1.00  0.00     0.033 A 
ATOM     12  C   UNL     1     -48.740  29.824  25.512  1.00  0.00     0.021 A 
ATOM     13  C   UNL     1     -48.864  29.035  23.399  1.00  0.00     0.071 A 
ATOM     14  H   UNL     1     -48.795  29.942  26.585  1.00  0.00     0.083 H 
ATOM     15  C   UNL     1     -48.272  30.300  23.380  1.00  0.00     0.150 A 
ATOM     16  C   UNL     1     -49.072  28.416  22.154  1.00  0.00     0.137 A 
ATOM     17  N   UNL     1     -47.864  30.940  22.265  1.00  0.00    -0.218 NA
ATOM     18  N   UNL     1     -48.664  29.036  21.033  1.00  0.00    -0.219 NA
ATOM     19  C   UNL     1     -48.086  30.240  21.147  1.00  0.00     0.120 A 
ATOM     20  H   UNL     1     -47.765  30.704  20.219  1.00  0.00     0.106 H 
BRANCH  11  21
ATOM     21  C   UNL     1     -49.674  27.498  25.306  1.00  0.00     0.095 A 
ATOM     22  N   UNL     1     -51.044  26.146  26.174  1.00  0.00    -0.275 N 
ATOM     23  C   UNL     1     -49.874  25.448  26.101  1.00  0.00     0.025 A 
ATOM     24  N   UNL     1     -50.949  27.400  25.696  1.00  0.00    -0.173 NA
ATOM     25  C   UNL     1     -48.954  26.310  25.551  1.00  0.00    -0.016 A 
ATOM     26  H   UNL     1     -49.788  24.429  26.452  1.00  0.00     0.084 H 
ATOM     27  H   UNL     1     -47.909  26.111  25.362  1.00  0.00     0.066 H 
BRANCH  22  28
ATOM     28  C   UNL     1     -52.303  25.680  26.701  1.00  0.00     0.030 C 
ATOM     29  H   UNL     1     -52.099  25.049  27.570  1.00  0.00     0.048 H 
ATOM     30  H   UNL     1     -52.900  26.549  26.987  1.00  0.00     0.048 H 
ATOM     31  H   UNL     1     -52.827  25.103  25.936  1.00  0.00     0.048 H 
ENDBRANCH  22  28
ENDBRANCH  11  21
BRANCH  16  32
ATOM     32  N   UNL     1     -49.722  27.201  21.973  1.00  0.00    -0.383 N 
ATOM     33  H   UNL     1     -50.142  27.095  21.057  1.00  0.00     0.158 HD
ATOM     34  H   UNL     1     -49.110  26.444  22.255  1.00  0.00     0.158 HD
ENDBRANCH  16  32
ENDBRANCH   1  10
BRANCH   5  35
ATOM     35  C   UNL     1     -48.771  35.189  27.043  1.00  0.00     0.115 C 
ATOM     36  H   UNL     1     -48.715  34.937  28.110  1.00  0.00     0.076 H 
ATOM     37  H   UNL     1     -49.833  35.141  26.773  1.00  0.00     0.076 H 
BRANCH  35  38
ATOM     38  O   UNL     1     -48.275  36.525  26.919  1.00  0.00    -0.489 OA
BRANCH  38  39
ATOM     39  C   UNL     1     -47.291  36.946  27.769  1.00  0.00     0.124 A 
ATOM     40  C   UNL     1     -46.979  36.395  29.004  1.00  0.00     0.017 A 
ATOM     41  C   UNL     1     -46.566  38.056  27.316  1.00  0.00     0.007 A 
ATOM     42  C   UNL     1     -45.950  36.954  29.755  1.00  0.00     0.136 A 
ATOM     43  H   UNL     1     -47.508  35.549  29.427  1.00  0.00     0.069 H 
ATOM     44  C   UNL     1     -45.534  38.625  28.053  1.00  0.00     0.079 A 
ATOM     45  H   UNL     1     -46.814  38.495  26.351  1.00  0.00     0.069 H 
ATOM     46  F   UNL     1     -45.659  36.406  30.947  1.00  0.00    -0.206 F 
ATOM     47  C   UNL     1     -45.220  38.061  29.298  1.00  0.00     0.036 A 
ATOM     48  N   UNL     1     -44.874  39.687  27.558  1.00  0.00    -0.231 NA
ATOM     49  C   UNL     1     -44.185  38.641  30.037  1.00  0.00    -0.046 A 
ATOM     50  C   UNL     1     -43.866  40.239  28.275  1.00  0.00     0.129 A 
ATOM     51  C   UNL     1     -43.506  39.740  29.521  1.00  0.00    -0.019 A 
ATOM     52  H   UNL     1     -43.910  38.245  31.012  1.00  0.00     0.063 H 
ATOM     53  H   UNL     1     -42.712  40.203  30.095  1.00  0.00     0.066 H 
BRANCH  50  54
ATOM     54  N   UNL     1     -43.198  41.358  27.745  1.00  0.00    -0.356 N 
ATOM     55  C   UNL     1     -43.691  42.153  26.656  1.00  0.00     0.021 C 
ATOM     56  C   UNL     1     -41.853  41.392  27.249  1.00  0.00     0.021 C 
ATOM     57  C   UNL     1     -42.255  42.668  26.499  1.00  0.00    -0.018 C 
ATOM     58  H   UNL     1     -44.433  42.895  26.958  1.00  0.00     0.049 H 
ATOM     59  H   UNL     1     -44.060  41.552  25.817  1.00  0.00     0.049 H 
ATOM     60  H   UNL     1     -41.610  40.537  26.610  1.00  0.00     0.049 H 
ATOM     61  H   UNL     1     -41.101  41.521  28.030  1.00  0.00     0.049 H 
ATOM     62  H   UNL     1     -41.890  42.753  25.473  1.00  0.00     0.030 H 
ATOM     63  H   UNL     1     -42.047  43.596  27.042  1.00  0.00     0.030 H 
ENDBRANCH  50  54
ENDBRANCH  38  39
ENDBRANCH  35  38
ENDBRANCH   5  35
TORSDOF 8
ENDMDL
MODEL 3
REMARK VINA RESULT:     -10.5      3.235     12.599
REMARK SMILES Cn1ccc(-c2cn(-c3cncc(COc4cc(F)c5ccc(N6CCC6)nc5c4)c3)c3ncnc(N)c23)n1
REMARK SMILES IDX 9 1 10 2 11 3 12 4 13 5 31 6 8 10 6 11 7 12 38 13 32 15
REMARK SMILES IDX 36 16 33 17 35 18 34 19 5 21 2 22 3 23 39 24 4 25 1 28 37 32
REMARK SMILES IDX 14 35 15 38 16 39 17 40 30 41 18 42 29 44 19 46 20 47 28 48
REMARK SMILES IDX 21 49 23 50 22 51 24 54 25 55 27 56 26 57
REMARK H PARENT 10 7 12 8 31 9 7 14 34 20 3 26 4 27 1 29 1 30 1 31 37 33 37 34
REMARK H PARENT 14 36 14 37 17 43 30 45 21 52 22 53 25 58 25 59 27 60 27 61
REMARK H PARENT 26 62 26 63
REMARK Flexibility Score: inf
ROOT
ATOM      1  C   UNL     1     -47.033  32.899  26.327  1.00  0.00     0.066 A 
ATOM      2  C   UNL     1     -46.415  32.626  27.542  1.00  0.00     0.051 A 
ATOM      3  N   UNL     1     -45.979  33.577  28.409  1.00  0.00    -0.262 NA
ATOM      4  C   UNL     1     -46.170  34.864  28.059  1.00  0.00     0.034 A 
ATOM      5  C   UNL     1     -46.790  35.261  26.882  1.00  0.00     0.010 A 
ATOM      6  C   UNL     1     -47.209  34.253  26.001  1.00  0.00    -0.028 A 
ATOM      7  H   UNL     1     -46.239  31.622  27.912  1.00  0.00     0.086 H 
ATOM      8  H   UNL     1     -45.798  35.587  28.778  1.00  0.00     0.084 H 
ATOM      9  H   UNL     1     -47.659  34.560  25.062  1.00  0.00     0.065 H 
ENDROOT
BRANCH   1  10
ATOM     10  N   UNL     1     -47.478  31.861  25.446  1.00  0.00    -0.299 N 
ATOM     11  C   UNL     1     -48.614  30.064  24.691  1.00  0.00     0.033 A 
ATOM     12  C   UNL     1     -48.460  30.936  25.747  1.00  0.00     0.021 A 
ATOM     13  C   UNL     1     -47.745  30.485  23.653  1.00  0.00     0.071 A 
ATOM     14  H   UNL     1     -48.968  30.919  26.701  1.00  0.00     0.083 H 
ATOM     15  C   UNL     1     -47.031  31.576  24.153  1.00  0.00     0.150 A 
ATOM     16  C   UNL     1     -47.464  30.100  22.330  1.00  0.00     0.137 A 
ATOM     17  N   UNL     1     -46.085  32.253  23.471  1.00  0.00    -0.218 NA
ATOM     18  N   UNL     1     -46.517  30.757  21.638  1.00  0.00    -0.219 NA
ATOM     19  C   UNL     1     -45.884  31.775  22.238  1.00  0.00     0.120 A 
ATOM     20  H   UNL     1     -45.123  32.276  21.648  1.00  0.00     0.106 H 
BRANCH  11  21
ATOM     21  C   UNL     1     -49.527  28.926  24.677  1.00  0.00     0.095 A 
ATOM     22  N   UNL     1     -51.196  27.718  24.218  1.00  0.00    -0.275 N 
ATOM     23  C   UNL     1     -50.518  27.016  25.172  1.00  0.00     0.025 A 
ATOM     24  N   UNL     1     -50.614  28.888  23.899  1.00  0.00    -0.173 NA
ATOM     25  C   UNL     1     -49.429  27.787  25.504  1.00  0.00    -0.016 A 
ATOM     26  H   UNL     1     -50.865  26.060  25.540  1.00  0.00     0.084 H 
ATOM     27  H   UNL     1     -48.674  27.562  26.244  1.00  0.00     0.066 H 
BRANCH  22  28
ATOM     28  C   UNL     1     -52.425  27.335  23.567  1.00  0.00     0.030 C 
ATOM     29  H   UNL     1     -52.534  26.250  23.650  1.00  0.00     0.048 H 
ATOM     30  H   UNL     1     -53.253  27.845  24.066  1.00  0.00     0.048 H 
ATOM     31  H   UNL     1     -52.386  27.626  22.515  1.00  0.00     0.048 H 
ENDBRANCH  22  28
ENDBRANCH  11  21
BRANCH  16  32
ATOM     32  N   UNL     1     -48.132  29.095  21.639  1.00  0.00    -0.383 N 
ATOM     33  H   UNL     1     -48.737  29.438  20.902  1.00  0.00     0.158 HD
ATOM     34  H   UNL     1     -47.470  28.381  21.356  1.00  0.00     0.158 HD
ENDBRANCH  16  32
ENDBRANCH   1  10
BRANCH   5  35
ATOM     35  C   UNL     1     -46.933  36.726  26.563  1.00  0.00     0.115 C 
ATOM     36  H   UNL     1     -47.928  36.871  26.123  1.00  0.00     0.076 H 
ATOM     37  H   UNL     1     -46.213  37.059  25.806  1.00  0.00     0.076 H 
BRANCH  35  38
ATOM     38  O   UNL     1     -46.878  37.566  27.721  1.00  0.00    -0.489 OA
BRANCH  38  39
ATOM     39  C   UNL     1     -45.874  38.489  27.820  1.00  0.00     0.124 A 
ATOM     40  C   UNL     1     -44.994  38.636  28.882  1.00  0.00     0.017 A 
ATOM     41  C   UNL     1     -45.776  39.360  26.727  1.00  0.00     0.007 A 
ATOM     42  C   UNL     1     -44.032  39.640  28.831  1.00  0.00     0.136 A 
ATOM     43  H   UNL     1     -45.022  38.013  29.767  1.00  0.00     0.069 H 
ATOM     44  C   UNL     1     -44.819  40.366  26.659  1.00  0.00     0.079 A 
ATOM     45  H   UNL     1     -46.469  39.251  25.895  1.00  0.00     0.069 H 
ATOM     46  F   UNL     1     -43.186  39.767  29.866  1.00  0.00    -0.206 F 
ATOM     47  C   UNL     1     -43.929  40.508  27.734  1.00  0.00     0.036 A 
ATOM     48  N   UNL     1     -44.774  41.166  25.579  1.00  0.00    -0.231 NA
ATOM     49  C   UNL     1     -42.973  41.525  27.662  1.00  0.00    -0.046 A 
ATOM     50  C   UNL     1     -43.840  42.144  25.511  1.00  0.00     0.129 A 
ATOM     51  C   UNL     1     -42.931  42.350  26.542  1.00  0.00    -0.019 A 
ATOM     52  H   UNL     1     -42.266  41.681  28.474  1.00  0.00     0.063 H 
ATOM     53  H   UNL     1     -42.202  43.150  26.487  1.00  0.00     0.066 H 
BRANCH  50  54
ATOM     54  N   UNL     1     -43.820  42.978  24.378  1.00  0.00    -0.356 N 
ATOM     55  C   UNL     1     -42.748  43.879  24.058  1.00  0.00     0.021 C 
ATOM     56  C   UNL     1     -44.823  43.932  24.003  1.00  0.00     0.021 C 
ATOM     57  C   UNL     1     -43.744  44.594  23.137  1.00  0.00    -0.018 C 
ATOM     58  H   UNL     1     -41.904  43.394  23.562  1.00  0.00     0.049 H 
ATOM     59  H   UNL     1     -42.410  44.468  24.917  1.00  0.00     0.049 H 
ATOM     60  H   UNL     1     -45.175  44.537  24.845  1.00  0.00     0.049 H 
ATOM     61  H   UNL     1     -45.662  43.494  23.459  1.00  0.00     0.049 H 
ATOM     62  H   UNL     1     -43.716  45.686  23.163  1.00  0.00     0.030 H 
ATOM     63  H   UNL     1     -43.724  44.249  22.097  1.00  0.00     0.030 H 
ENDBRANCH  50  54
ENDBRANCH  38  39
ENDBRANCH  35  38
ENDBRANCH   5  35
TORSDOF 8
ENDMDL
MODEL 4
REMARK VINA RESULT:     -10.3      2.101      3.114
REMARK SMILES Cn1ccc(-c2cn(-c3cncc(COc4cc(F)c5ccc(N6CCC6)nc5c4)c3)c3ncnc(N)c23)n1
REMARK SMILES IDX 9 1 10 2 11 3 12 4 13 5 31 6 8 10 6 11 7 12 38 13 32 15
REMARK SMILES IDX 36 16 33 17 35 18 34 19 5 21 2 22 3 23 39 24 4 25 1 28 37 32
REMARK SMILES IDX 14 35 15 38 16 39 17 40 30 41 18 42 29 44 19 46 20 47 28 48
REMARK SMILES IDX 21 49 23 50 22 51 24 54 25 55 27 56 26 57
REMARK H PARENT 10 7 12 8 31 9 7 14 34 20 3 26 4 27 1 29 1 30 1 31 37 33 37 34
REMARK H PARENT 14 36 14 37 17 43 30 45 21 52 22 53 25 58 25 59 27 60 27 61
REMARK H PARENT 26 62 26 63
REMARK Flexibility Score: inf
ROOT
ATOM      1  C   UNL     1     -46.237  38.395  27.462  1.00  0.00     0.066 A 
ATOM      2  C   UNL     1     -45.595  37.967  28.618  1.00  0.00     0.051 A 
ATOM      3  N   UNL     1     -45.753  36.734  29.168  1.00  0.00    -0.262 NA
ATOM      4  C   UNL     1     -46.585  35.881  28.540  1.00  0.00     0.034 A 
ATOM      5  C   UNL     1     -47.268  36.188  27.371  1.00  0.00     0.010 A 
ATOM      6  C   UNL     1     -47.097  37.475  26.842  1.00  0.00    -0.028 A 
ATOM      7  H   UNL     1     -44.896  38.578  29.176  1.00  0.00     0.086 H 
ATOM      8  H   UNL     1     -46.685  34.913  29.021  1.00  0.00     0.084 H 
ATOM      9  H   UNL     1     -47.659  37.731  25.949  1.00  0.00     0.065 H 
ENDROOT
BRANCH   1  10
ATOM     10  N   UNL     1     -46.037  39.705  26.918  1.00  0.00    -0.299 N 
ATOM     11  C   UNL     1     -44.993  41.484  26.005  1.00  0.00     0.033 A 
ATOM     12  C   UNL     1     -44.839  40.177  26.413  1.00  0.00     0.021 A 
ATOM     13  C   UNL     1     -46.351  41.841  26.196  1.00  0.00     0.071 A 
ATOM     14  H   UNL     1     -43.938  39.580  26.405  1.00  0.00     0.083 H 
ATOM     15  C   UNL     1     -46.969  40.738  26.789  1.00  0.00     0.150 A 
ATOM     16  C   UNL     1     -47.166  42.956  25.933  1.00  0.00     0.137 A 
ATOM     17  N   UNL     1     -48.268  40.687  27.149  1.00  0.00    -0.218 NA
ATOM     18  N   UNL     1     -48.461  42.926  26.293  1.00  0.00    -0.219 NA
ATOM     19  C   UNL     1     -48.932  41.816  26.878  1.00  0.00     0.120 A 
ATOM     20  H   UNL     1     -49.981  41.834  27.158  1.00  0.00     0.106 H 
BRANCH  11  21
ATOM     21  C   UNL     1     -43.923  42.319  25.467  1.00  0.00     0.095 A 
ATOM     22  N   UNL     1     -42.774  43.451  24.105  1.00  0.00    -0.275 N 
ATOM     23  C   UNL     1     -42.021  43.417  25.242  1.00  0.00     0.025 A 
ATOM     24  N   UNL     1     -43.939  42.787  24.215  1.00  0.00    -0.173 NA
ATOM     25  C   UNL     1     -42.739  42.671  26.148  1.00  0.00    -0.016 A 
ATOM     26  H   UNL     1     -41.055  43.899  25.309  1.00  0.00     0.084 H 
ATOM     27  H   UNL     1     -42.444  42.412  27.155  1.00  0.00     0.066 H 
BRANCH  22  28
ATOM     28  C   UNL     1     -42.438  44.095  22.859  1.00  0.00     0.030 C 
ATOM     29  H   UNL     1     -42.411  45.175  23.027  1.00  0.00     0.048 H 
ATOM     30  H   UNL     1     -41.460  43.731  22.536  1.00  0.00     0.048 H 
ATOM     31  H   UNL     1     -43.193  43.853  22.109  1.00  0.00     0.048 H 
ENDBRANCH  22  28
ENDBRANCH  11  21
BRANCH  16  32
ATOM     32  N   UNL     1     -46.746  44.106  25.274  1.00  0.00    -0.383 N 
ATOM     33  H   UNL     1     -46.680  44.920  25.874  1.00  0.00     0.158 HD
ATOM     34  H   UNL     1     -45.914  43.901  24.732  1.00  0.00     0.158 HD
ENDBRANCH  16  32
ENDBRANCH   1  10
BRANCH   5  35
ATOM     35  C   UNL     1     -48.199  35.176  26.755  1.00  0.00     0.115 C 
ATOM     36  H   UNL     1     -48.073  35.233  25.667  1.00  0.00     0.076 H 
ATOM     37  H   UNL     1     -49.252  35.406  26.954  1.00  0.00     0.076 H 
BRANCH  35  38
ATOM     38  O   UNL     1     -47.896  33.827  27.125  1.00  0.00    -0.489 OA
BRANCH  38  39
ATOM     39  C   UNL     1     -47.614  32.920  26.142  1.00  0.00     0.124 A 
ATOM     40  C   UNL     1     -46.818  33.137  25.026  1.00  0.00     0.017 A 
ATOM     41  C   UNL     1     -48.225  31.671  26.312  1.00  0.00     0.007 A 
ATOM     42  C   UNL     1     -46.642  32.106  24.109  1.00  0.00     0.136 A 
ATOM     43  H   UNL     1     -46.330  34.082  24.820  1.00  0.00     0.069 H 
ATOM     44  C   UNL     1     -48.057  30.630  25.406  1.00  0.00     0.079 A 
ATOM     45  H   UNL     1     -48.855  31.500  27.183  1.00  0.00     0.069 H 
ATOM     46  F   UNL     1     -45.867  32.332  23.035  1.00  0.00    -0.206 F 
ATOM     47  C   UNL     1     -47.248  30.853  24.282  1.00  0.00     0.036 A 
ATOM     48  N   UNL     1     -48.667  29.452  25.630  1.00  0.00    -0.231 NA
ATOM     49  C   UNL     1     -47.088  29.803  23.372  1.00  0.00    -0.046 A 
ATOM     50  C   UNL     1     -48.501  28.437  24.750  1.00  0.00     0.129 A 
ATOM     51  C   UNL     1     -47.722  28.588  23.608  1.00  0.00    -0.019 A 
ATOM     52  H   UNL     1     -46.478  29.930  22.481  1.00  0.00     0.063 H 
ATOM     53  H   UNL     1     -47.614  27.775  22.899  1.00  0.00     0.066 H 
BRANCH  50  54
ATOM     54  N   UNL     1     -49.160  27.218  24.995  1.00  0.00    -0.356 N 
ATOM     55  C   UNL     1     -50.563  27.100  25.273  1.00  0.00     0.021 C 
ATOM     56  C   UNL     1     -48.813  26.247  25.992  1.00  0.00     0.021 C 
ATOM     57  C   UNL     1     -50.243  25.714  25.844  1.00  0.00    -0.018 C 
ATOM     58  H   UNL     1     -51.188  27.113  24.376  1.00  0.00     0.049 H 
ATOM     59  H   UNL     1     -50.920  27.830  26.007  1.00  0.00     0.049 H 
ATOM     60  H   UNL     1     -48.585  26.695  26.965  1.00  0.00     0.049 H 
ATOM     61  H   UNL     1     -48.019  25.565  25.682  1.00  0.00     0.049 H 
ATOM     62  H   UNL     1     -50.753  25.452  26.773  1.00  0.00     0.030 H 
ATOM     63  H   UNL     1     -50.347  24.894  25.124  1.00  0.00     0.030 H 
ENDBRANCH  50  54
ENDBRANCH  38  39
ENDBRANCH  35  38
ENDBRANCH   5  35
TORSDOF 8
ENDMDL
MODEL 5
REMARK VINA RESULT:     -10.0      1.946      2.233
REMARK SMILES Cn1ccc(-c2cn(-c3cncc(COc4cc(F)c5ccc(N6CCC6)nc5c4)c3)c3ncnc(N)c23)n1
REMARK SMILES IDX 9 1 10 2 11 3 12 4 13 5 31 6 8 10 6 11 7 12 38 13 32 15
REMARK SMILES IDX 36 16 33 17 35 18 34 19 5 21 2 22 3 23 39 24 4 25 1 28 37 32
REMARK SMILES IDX 14 35 15 38 16 39 17 40 30 41 18 42 29 44 19 46 20 47 28 48
REMARK SMILES IDX 21 49 23 50 22 51 24 54 25 55 27 56 26 57
REMARK H PARENT 10 7 12 8 31 9 7 14 34 20 3 26 4 27 1 29 1 30 1 31 37 33 37 34
REMARK H PARENT 14 36 14 37 17 43 30 45 21 52 22 53 25 58 25 59 27 60 27 61
REMARK H PARENT 26 62 26 63
REMARK Flexibility Score: inf
ROOT
ATOM      1  C   UNL     1     -46.013  37.590  27.905  1.00  0.00     0.066 A 
ATOM      2  C   UNL     1     -46.363  37.132  29.169  1.00  0.00     0.051 A 
ATOM      3  N   UNL     1     -46.985  35.948  29.408  1.00  0.00    -0.262 NA
ATOM      4  C   UNL     1     -47.271  35.176  28.342  1.00  0.00     0.034 A 
ATOM      5  C   UNL     1     -46.956  35.517  27.034  1.00  0.00     0.010 A 
ATOM      6  C   UNL     1     -46.332  36.755  26.822  1.00  0.00    -0.028 A 
ATOM      7  H   UNL     1     -46.154  37.678  30.082  1.00  0.00     0.086 H 
ATOM      8  H   UNL     1     -47.776  34.245  28.582  1.00  0.00     0.084 H 
ATOM      9  H   UNL     1     -46.119  37.043  25.797  1.00  0.00     0.065 H 
ENDROOT
BRANCH   1  10
ATOM     10  N   UNL     1     -45.355  38.847  27.702  1.00  0.00    -0.299 N 
ATOM     11  C   UNL     1     -44.808  40.827  26.771  1.00  0.00     0.033 A 
ATOM     12  C   UNL     1     -45.653  39.741  26.691  1.00  0.00     0.021 A 
ATOM     13  C   UNL     1     -43.984  40.651  27.911  1.00  0.00     0.071 A 
ATOM     14  H   UNL     1     -46.415  39.546  25.951  1.00  0.00     0.083 H 
ATOM     15  C   UNL     1     -44.317  39.408  28.452  1.00  0.00     0.150 A 
ATOM     16  C   UNL     1     -42.993  41.388  28.585  1.00  0.00     0.137 A 
ATOM     17  N   UNL     1     -43.738  38.864  29.542  1.00  0.00    -0.218 NA
ATOM     18  N   UNL     1     -42.399  40.857  29.667  1.00  0.00    -0.219 NA
ATOM     19  C   UNL     1     -42.791  39.642  30.076  1.00  0.00     0.120 A 
ATOM     20  H   UNL     1     -42.282  39.246  30.950  1.00  0.00     0.106 H 
BRANCH  11  21
ATOM     21  C   UNL     1     -44.800  41.946  25.834  1.00  0.00     0.095 A 
ATOM     22  N   UNL     1     -44.104  43.376  24.447  1.00  0.00    -0.275 N 
ATOM     23  C   UNL     1     -45.398  43.736  24.687  1.00  0.00     0.025 A 
ATOM     24  N   UNL     1     -43.713  42.289  25.135  1.00  0.00    -0.173 NA
ATOM     25  C   UNL     1     -45.877  42.828  25.603  1.00  0.00    -0.016 A 
ATOM     26  H   UNL     1     -45.856  44.593  24.214  1.00  0.00     0.084 H 
ATOM     27  H   UNL     1     -46.863  42.810  26.046  1.00  0.00     0.066 H 
BRANCH  22  28
ATOM     28  C   UNL     1     -43.167  44.037  23.571  1.00  0.00     0.030 C 
ATOM     29  H   UNL     1     -43.666  44.230  22.617  1.00  0.00     0.048 H 
ATOM     30  H   UNL     1     -42.858  44.974  24.040  1.00  0.00     0.048 H 
ATOM     31  H   UNL     1     -42.299  43.394  23.414  1.00  0.00     0.048 H 
ENDBRANCH  22  28
ENDBRANCH  11  21
BRANCH  16  32
ATOM     32  N   UNL     1     -42.593  42.674  28.243  1.00  0.00    -0.383 N 
ATOM     33  H   UNL     1     -43.338  43.247  27.863  1.00  0.00     0.158 HD
ATOM     34  H   UNL     1     -42.085  43.088  29.016  1.00  0.00     0.158 HD
ENDBRANCH  16  32
ENDBRANCH   1  10
BRANCH   5  35
ATOM     35  C   UNL     1     -47.341  34.600  25.903  1.00  0.00     0.115 C 
ATOM     36  H   UNL     1     -47.759  35.223  25.102  1.00  0.00     0.076 H 
ATOM     37  H   UNL     1     -48.133  33.898  26.189  1.00  0.00     0.076 H 
BRANCH  35  38
ATOM     38  O   UNL     1     -46.228  33.905  25.332  1.00  0.00    -0.489 OA
BRANCH  38  39
ATOM     39  C   UNL     1     -46.455  32.743  24.650  1.00  0.00     0.124 A 
ATOM     40  C   UNL     1     -45.867  32.364  23.450  1.00  0.00     0.017 A 
ATOM     41  C   UNL     1     -47.394  31.892  25.247  1.00  0.00     0.007 A 
ATOM     42  C   UNL     1     -46.219  31.146  22.879  1.00  0.00     0.136 A 
ATOM     43  H   UNL     1     -45.148  32.978  22.922  1.00  0.00     0.069 H 
ATOM     44  C   UNL     1     -47.755  30.671  24.689  1.00  0.00     0.079 A 
ATOM     45  H   UNL     1     -47.862  32.190  26.184  1.00  0.00     0.069 H 
ATOM     46  F   UNL     1     -45.639  30.794  21.720  1.00  0.00    -0.206 F 
ATOM     47  C   UNL     1     -47.154  30.291  23.480  1.00  0.00     0.036 A 
ATOM     48  N   UNL     1     -48.659  29.898  25.316  1.00  0.00    -0.231 NA
ATOM     49  C   UNL     1     -47.526  29.064  22.922  1.00  0.00    -0.046 A 
ATOM     50  C   UNL     1     -49.009  28.707  24.775  1.00  0.00     0.129 A 
ATOM     51  C   UNL     1     -48.462  28.269  23.575  1.00  0.00    -0.019 A 
ATOM     52  H   UNL     1     -47.094  28.730  21.981  1.00  0.00     0.063 H 
ATOM     53  H   UNL     1     -48.765  27.324  23.139  1.00  0.00     0.066 H 
BRANCH  50  54
ATOM     54  N   UNL     1     -49.966  27.920  25.440  1.00  0.00    -0.356 N 
ATOM     55  C   UNL     1     -49.648  26.806  26.288  1.00  0.00     0.021 C 
ATOM     56  C   UNL     1     -51.071  27.232  24.839  1.00  0.00     0.021 C 
ATOM     57  C   UNL     1     -51.104  26.362  26.101  1.00  0.00    -0.018 C 
ATOM     58  H   UNL     1     -49.365  27.096  27.303  1.00  0.00     0.049 H 
ATOM     59  H   UNL     1     -48.902  26.133  25.853  1.00  0.00     0.049 H 
ATOM     60  H   UNL     1     -50.797  26.702  23.920  1.00  0.00     0.049 H 
ATOM     61  H   UNL     1     -51.947  27.864  24.678  1.00  0.00     0.049 H 
ATOM     62  H   UNL     1     -51.258  25.293  25.940  1.00  0.00     0.030 H 
ATOM     63  H   UNL     1     -51.788  26.720  26.879  1.00  0.00     0.030 H 
ENDBRANCH  50  54
ENDBRANCH  38  39
ENDBRANCH  35  38
ENDBRANCH   5  35
TORSDOF 8
ENDMDL
MODEL 6
REMARK VINA RESULT:      -9.7      1.698      3.028
REMARK SMILES Cn1ccc(-c2cn(-c3cncc(COc4cc(F)c5ccc(N6CCC6)nc5c4)c3)c3ncnc(N)c23)n1
REMARK SMILES IDX 9 1 10 2 11 3 12 4 13 5 31 6 8 10 6 11 7 12 38 13 32 15
REMARK SMILES IDX 36 16 33 17 35 18 34 19 5 21 2 22 3 23 39 24 4 25 1 28 37 32
REMARK SMILES IDX 14 35 15 38 16 39 17 40 30 41 18 42 29 44 19 46 20 47 28 48
REMARK SMILES IDX 21 49 23 50 22 51 24 54 25 55 27 56 26 57
REMARK H PARENT 10 7 12 8 31 9 7 14 34 20 3 26 4 27 1 29 1 30 1 31 37 33 37 34
REMARK H PARENT 14 36 14 37 17 43 30 45 21 52 22 53 25 58 25 59 27 60 27 61
REMARK H PARENT 26 62 26 63
REMARK Flexibility Score: inf
ROOT
ATOM      1  C   UNL     1     -46.537  35.593  27.329  1.00  0.00     0.066 A 
ATOM      2  C   UNL     1     -46.204  34.864  28.464  1.00  0.00     0.051 A 
ATOM      3  N   UNL     1     -46.071  33.512  28.492  1.00  0.00    -0.262 NA
ATOM      4  C   UNL     1     -46.273  32.849  27.337  1.00  0.00     0.034 A 
ATOM      5  C   UNL     1     -46.592  33.467  26.137  1.00  0.00     0.010 A 
ATOM      6  C   UNL     1     -46.741  34.862  26.148  1.00  0.00    -0.028 A 
ATOM      7  H   UNL     1     -46.004  35.315  29.429  1.00  0.00     0.086 H 
ATOM      8  H   UNL     1     -46.164  31.770  27.411  1.00  0.00     0.084 H 
ATOM      9  H   UNL     1     -47.029  35.346  25.220  1.00  0.00     0.065 H 
ENDROOT
BRANCH   1  10
ATOM     10  N   UNL     1     -46.663  37.020  27.348  1.00  0.00    -0.299 N 
ATOM     11  C   UNL     1     -46.101  39.200  27.202  1.00  0.00     0.033 A 
ATOM     12  C   UNL     1     -45.645  37.908  27.054  1.00  0.00     0.021 A 
ATOM     13  C   UNL     1     -47.476  39.137  27.541  1.00  0.00     0.071 A 
ATOM     14  H   UNL     1     -44.648  37.581  26.795  1.00  0.00     0.083 H 
ATOM     15  C   UNL     1     -47.793  37.782  27.656  1.00  0.00     0.150 A 
ATOM     16  C   UNL     1     -48.522  40.052  27.756  1.00  0.00     0.137 A 
ATOM     17  N   UNL     1     -49.010  37.304  27.986  1.00  0.00    -0.218 NA
ATOM     18  N   UNL     1     -49.740  39.592  28.095  1.00  0.00    -0.219 NA
ATOM     19  C   UNL     1     -49.914  38.268  28.197  1.00  0.00     0.120 A 
ATOM     20  H   UNL     1     -50.909  37.938  28.478  1.00  0.00     0.106 H 
BRANCH  11  21
ATOM     21  C   UNL     1     -45.284  40.396  27.024  1.00  0.00     0.095 A 
ATOM     22  N   UNL     1     -43.866  41.913  27.402  1.00  0.00    -0.275 N 
ATOM     23  C   UNL     1     -44.485  42.304  26.250  1.00  0.00     0.025 A 
ATOM     24  N   UNL     1     -44.335  40.753  27.895  1.00  0.00    -0.173 NA
ATOM     25  C   UNL     1     -45.429  41.339  25.985  1.00  0.00    -0.016 A 
ATOM     26  H   UNL     1     -44.224  43.219  25.737  1.00  0.00     0.084 H 
ATOM     27  H   UNL     1     -46.129  41.324  25.160  1.00  0.00     0.066 H 
BRANCH  22  28
ATOM     28  C   UNL     1     -42.814  42.609  28.101  1.00  0.00     0.030 C 
ATOM     29  H   UNL     1     -42.394  41.933  28.851  1.00  0.00     0.048 H 
ATOM     30  H   UNL     1     -42.051  42.900  27.375  1.00  0.00     0.048 H 
ATOM     31  H   UNL     1     -43.224  43.496  28.587  1.00  0.00     0.048 H 
ENDBRANCH  22  28
ENDBRANCH  11  21
BRANCH  16  32
ATOM     32  N   UNL     1     -48.415  41.429  27.603  1.00  0.00    -0.383 N 
ATOM     33  H   UNL     1     -47.954  41.710  26.745  1.00  0.00     0.158 HD
ATOM     34  H   UNL     1     -49.318  41.860  27.766  1.00  0.00     0.158 HD
ENDBRANCH  16  32
ENDBRANCH   1  10
BRANCH   5  35
ATOM     35  C   UNL     1     -46.827  32.638  24.901  1.00  0.00     0.115 C 
ATOM     36  H   UNL     1     -46.700  31.586  25.182  1.00  0.00     0.076 H 
ATOM     37  H   UNL     1     -46.084  32.838  24.119  1.00  0.00     0.076 H 
BRANCH  35  38
ATOM     38  O   UNL     1     -48.155  32.759  24.381  1.00  0.00    -0.489 OA
BRANCH  38  39
ATOM     39  C   UNL     1     -48.908  31.628  24.227  1.00  0.00     0.124 A 
ATOM     40  C   UNL     1     -50.176  31.554  23.665  1.00  0.00     0.017 A 
ATOM     41  C   UNL     1     -48.309  30.460  24.715  1.00  0.00     0.007 A 
ATOM     42  C   UNL     1     -50.814  30.320  23.595  1.00  0.00     0.136 A 
ATOM     43  H   UNL     1     -50.707  32.417  23.285  1.00  0.00     0.069 H 
ATOM     44  C   UNL     1     -48.933  29.219  24.650  1.00  0.00     0.079 A 
ATOM     45  H   UNL     1     -47.319  30.516  25.163  1.00  0.00     0.069 H 
ATOM     46  F   UNL     1     -52.038  30.266  23.046  1.00  0.00    -0.206 F 
ATOM     47  C   UNL     1     -50.212  29.149  24.077  1.00  0.00     0.036 A 
ATOM     48  N   UNL     1     -48.301  28.134  25.132  1.00  0.00    -0.231 NA
ATOM     49  C   UNL     1     -50.835  27.899  24.020  1.00  0.00    -0.046 A 
ATOM     50  C   UNL     1     -48.907  26.925  25.066  1.00  0.00     0.129 A 
ATOM     51  C   UNL     1     -50.177  26.780  24.521  1.00  0.00    -0.019 A 
ATOM     52  H   UNL     1     -51.830  27.795  23.593  1.00  0.00     0.063 H 
ATOM     53  H   UNL     1     -50.662  25.811  24.493  1.00  0.00     0.066 H 
BRANCH  50  54
ATOM     54  N   UNL     1     -48.235  25.805  25.589  1.00  0.00    -0.356 N 
ATOM     55  C   UNL     1     -48.594  25.146  26.813  1.00  0.00     0.021 C 
ATOM     56  C   UNL     1     -46.832  25.707  25.869  1.00  0.00     0.021 C 
ATOM     57  C   UNL     1     -47.188  24.534  26.792  1.00  0.00    -0.018 C 
ATOM     58  H   UNL     1     -49.422  24.442  26.702  1.00  0.00     0.049 H 
ATOM     59  H   UNL     1     -48.782  25.842  27.637  1.00  0.00     0.049 H 
ATOM     60  H   UNL     1     -46.434  26.591  26.379  1.00  0.00     0.049 H 
ATOM     61  H   UNL     1     -46.227  25.454  24.997  1.00  0.00     0.049 H 
ATOM     62  H   UNL     1     -46.667  24.507  27.751  1.00  0.00     0.030 H 
ATOM     63  H   UNL     1     -47.132  23.550  26.313  1.00  0.00     0.030 H 
ENDBRANCH  50  54
ENDBRANCH  38  39
ENDBRANCH  35  38
ENDBRANCH   5  35
TORSDOF 8
ENDMDL
MODEL 7
REMARK VINA RESULT:      -9.4      2.866     12.565
REMARK SMILES Cn1ccc(-c2cn(-c3cncc(COc4cc(F)c5ccc(N6CCC6)nc5c4)c3)c3ncnc(N)c23)n1
REMARK SMILES IDX 9 1 10 2 11 3 12 4 13 5 31 6 8 10 6 11 7 12 38 13 32 15
REMARK SMILES IDX 36 16 33 17 35 18 34 19 5 21 2 22 3 23 39 24 4 25 1 28 37 32
REMARK SMILES IDX 14 35 15 38 16 39 17 40 30 41 18 42 29 44 19 46 20 47 28 48
REMARK SMILES IDX 21 49 23 50 22 51 24 54 25 55 27 56 26 57
REMARK H PARENT 10 7 12 8 31 9 7 14 34 20 3 26 4 27 1 29 1 30 1 31 37 33 37 34
REMARK H PARENT 14 36 14 37 17 43 30 45 21 52 22 53 25 58 25 59 27 60 27 61
REMARK H PARENT 26 62 26 63
REMARK Flexibility Score: inf
ROOT
ATOM      1  C   UNL     1     -49.176  33.176  25.906  1.00  0.00     0.066 A 
ATOM      2  C   UNL     1     -50.345  33.800  26.325  1.00  0.00     0.051 A 
ATOM      3  N   UNL     1     -50.384  35.001  26.960  1.00  0.00    -0.262 NA
ATOM      4  C   UNL     1     -49.207  35.617  27.187  1.00  0.00     0.034 A 
ATOM      5  C   UNL     1     -47.978  35.101  26.801  1.00  0.00     0.010 A 
ATOM      6  C   UNL     1     -47.973  33.851  26.166  1.00  0.00    -0.028 A 
ATOM      7  H   UNL     1     -51.334  33.388  26.166  1.00  0.00     0.086 H 
ATOM      8  H   UNL     1     -49.289  36.569  27.705  1.00  0.00     0.084 H 
ATOM      9  H   UNL     1     -47.011  33.427  25.896  1.00  0.00     0.065 H 
ENDROOT
BRANCH   1  10
ATOM     10  N   UNL     1     -49.185  31.909  25.238  1.00  0.00    -0.299 N 
ATOM     11  C   UNL     1     -48.602  29.802  24.681  1.00  0.00     0.033 A 
ATOM     12  C   UNL     1     -48.347  30.850  25.538  1.00  0.00     0.021 A 
ATOM     13  C   UNL     1     -49.683  30.179  23.845  1.00  0.00     0.071 A 
ATOM     14  H   UNL     1     -47.595  30.908  26.311  1.00  0.00     0.083 H 
ATOM     15  C   UNL     1     -50.005  31.494  24.185  1.00  0.00     0.150 A 
ATOM     16  C   UNL     1     -50.460  29.578  22.839  1.00  0.00     0.137 A 
ATOM     17  N   UNL     1     -50.977  32.223  23.599  1.00  0.00    -0.218 NA
ATOM     18  N   UNL     1     -51.427  30.293  22.237  1.00  0.00    -0.219 NA
ATOM     19  C   UNL     1     -51.625  31.557  22.637  1.00  0.00     0.120 A 
ATOM     20  H   UNL     1     -52.410  32.102  22.122  1.00  0.00     0.106 H 
BRANCH  11  21
ATOM     21  C   UNL     1     -47.873  28.538  24.672  1.00  0.00     0.095 A 
ATOM     22  N   UNL     1     -47.223  26.610  25.235  1.00  0.00    -0.275 N 
ATOM     23  C   UNL     1     -46.401  26.960  24.203  1.00  0.00     0.025 A 
ATOM     24  N   UNL     1     -48.129  27.555  25.542  1.00  0.00    -0.173 NA
ATOM     25  C   UNL     1     -46.791  28.223  23.823  1.00  0.00    -0.016 A 
ATOM     26  H   UNL     1     -45.616  26.308  23.844  1.00  0.00     0.084 H 
ATOM     27  H   UNL     1     -46.351  28.832  23.046  1.00  0.00     0.066 H 
BRANCH  22  28
ATOM     28  C   UNL     1     -47.195  25.381  25.989  1.00  0.00     0.030 C 
ATOM     29  H   UNL     1     -46.150  25.105  26.158  1.00  0.00     0.048 H 
ATOM     30  H   UNL     1     -47.707  25.548  26.940  1.00  0.00     0.048 H 
ATOM     31  H   UNL     1     -47.702  24.595  25.425  1.00  0.00     0.048 H 
ENDBRANCH  22  28
ENDBRANCH  11  21
BRANCH  16  32
ATOM     32  N   UNL     1     -50.340  28.255  22.429  1.00  0.00    -0.383 N 
ATOM     33  H   UNL     1     -50.624  28.097  21.470  1.00  0.00     0.158 HD
ATOM     34  H   UNL     1     -49.418  27.909  22.668  1.00  0.00     0.158 HD
ENDBRANCH  16  32
ENDBRANCH   1  10
BRANCH   5  35
ATOM     35  C   UNL     1     -46.712  35.851  27.124  1.00  0.00     0.115 C 
ATOM     36  H   UNL     1     -46.402  36.380  26.214  1.00  0.00     0.076 H 
ATOM     37  H   UNL     1     -45.885  35.178  27.383  1.00  0.00     0.076 H 
BRANCH  35  38
ATOM     38  O   UNL     1     -46.887  36.851  28.132  1.00  0.00    -0.489 OA
BRANCH  38  39
ATOM     39  C   UNL     1     -45.918  37.802  28.294  1.00  0.00     0.124 A 
ATOM     40  C   UNL     1     -44.976  37.854  29.312  1.00  0.00     0.017 A 
ATOM     41  C   UNL     1     -45.928  38.813  27.323  1.00  0.00     0.007 A 
ATOM     42  C   UNL     1     -44.063  38.902  29.338  1.00  0.00     0.136 A 
ATOM     43  H   UNL     1     -44.921  37.119  30.106  1.00  0.00     0.069 H 
ATOM     44  C   UNL     1     -45.021  39.866  27.334  1.00  0.00     0.079 A 
ATOM     45  H   UNL     1     -46.670  38.778  26.528  1.00  0.00     0.069 H 
ATOM     46  F   UNL     1     -43.157  38.935  30.329  1.00  0.00    -0.206 F 
ATOM     47  C   UNL     1     -44.069  39.910  28.363  1.00  0.00     0.036 A 
ATOM     48  N   UNL     1     -45.081  40.801  26.370  1.00  0.00    -0.231 NA
ATOM     49  C   UNL     1     -43.163  40.975  28.371  1.00  0.00    -0.046 A 
ATOM     50  C   UNL     1     -44.196  41.826  26.378  1.00  0.00     0.129 A 
ATOM     51  C   UNL     1     -43.230  41.941  27.371  1.00  0.00    -0.019 A 
ATOM     52  H   UNL     1     -42.411  41.058  29.153  1.00  0.00     0.063 H 
ATOM     53  H   UNL     1     -42.540  42.776  27.380  1.00  0.00     0.066 H 
BRANCH  50  54
ATOM     54  N   UNL     1     -44.285  42.801  25.368  1.00  0.00    -0.356 N 
ATOM     55  C   UNL     1     -45.459  43.583  25.102  1.00  0.00     0.021 C 
ATOM     56  C   UNL     1     -44.013  42.611  23.972  1.00  0.00     0.021 C 
ATOM     57  C   UNL     1     -44.842  43.878  23.729  1.00  0.00    -0.018 C 
ATOM     58  H   UNL     1     -45.571  44.442  25.768  1.00  0.00     0.049 H 
ATOM     59  H   UNL     1     -46.377  42.987  25.076  1.00  0.00     0.049 H 
ATOM     60  H   UNL     1     -44.450  41.690  23.573  1.00  0.00     0.049 H 
ATOM     61  H   UNL     1     -42.954  42.683  23.718  1.00  0.00     0.049 H 
ATOM     62  H   UNL     1     -45.530  43.843  22.881  1.00  0.00     0.030 H 
ATOM     63  H   UNL     1     -44.254  44.802  23.688  1.00  0.00     0.030 H 
ENDBRANCH  50  54
ENDBRANCH  38  39
ENDBRANCH  35  38
ENDBRANCH   5  35
TORSDOF 8
ENDMDL
