MODEL 1
REMARK VINA RESULT:     -10.8      0.000      0.000
REMARK SMILES Nc1ncnc2c1c(Cl)cn2-c1cncc(COc2ccc3ccc(N4CCCC4)nc3c2)c1
REMARK SMILES IDX 17 1 16 4 12 5 13 6 34 7 14 8 15 11 11 13 2 14 3 15 7 16
REMARK SMILES IDX 4 17 6 18 8 19 5 20 9 22 10 23 1 25 18 28 19 29 20 30 33 31
REMARK SMILES IDX 21 32 32 34 22 36 31 38 23 39 25 40 24 41 26 44 27 45 30 46
REMARK SMILES IDX 28 47 29 50
REMARK H PARENT 17 2 17 3 13 9 34 10 15 12 4 21 10 24 1 26 1 27 20 33 33 35
REMARK H PARENT 21 37 23 42 24 43 27 48 27 49 30 51 30 52 28 53 28 54 29 55
REMARK H PARENT 29 56
REMARK Flexibility Score: inf
ROOT
ATOM      1  C   UNL     1     -46.992  36.546  26.910  1.00  0.00     0.115 C 
ATOM      2  H   UNL     1     -47.935  36.885  26.466  1.00  0.00     0.076 H 
ATOM      3  H   UNL     1     -46.148  36.919  26.317  1.00  0.00     0.076 H 
ENDROOT
BRANCH   1   4
ATOM      4  C   UNL     1     -46.941  35.041  26.905  1.00  0.00     0.010 A 
ATOM      5  C   UNL     1     -47.439  32.895  25.871  1.00  0.00     0.066 A 
ATOM      6  C   UNL     1     -46.746  32.311  26.930  1.00  0.00     0.051 A 
ATOM      7  C   UNL     1     -47.525  34.292  25.873  1.00  0.00    -0.028 A 
ATOM      8  N   UNL     1     -46.161  33.002  27.938  1.00  0.00    -0.262 NA
ATOM      9  H   UNL     1     -46.601  31.241  27.028  1.00  0.00     0.086 H 
ATOM     10  H   UNL     1     -48.056  34.833  25.098  1.00  0.00     0.065 H 
ATOM     11  C   UNL     1     -46.270  34.346  27.903  1.00  0.00     0.034 A 
ATOM     12  H   UNL     1     -45.789  34.866  28.728  1.00  0.00     0.084 H 
BRANCH   5  13
ATOM     13  N   UNL     1     -48.027  32.089  24.843  1.00  0.00    -0.298 N 
ATOM     14  C   UNL     1     -47.928  30.247  21.777  1.00  0.00     0.137 A 
ATOM     15  N   UNL     1     -46.638  30.362  21.415  1.00  0.00    -0.219 NA
ATOM     16  C   UNL     1     -48.360  30.849  22.969  1.00  0.00     0.080 A 
ATOM     17  C   UNL     1     -45.816  31.065  22.208  1.00  0.00     0.120 A 
ATOM     18  C   UNL     1     -47.412  31.561  23.702  1.00  0.00     0.151 A 
ATOM     19  C   UNL     1     -49.574  30.936  23.682  1.00  0.00     0.072 A 
ATOM     20  N   UNL     1     -46.114  31.687  23.356  1.00  0.00    -0.218 NA
ATOM     21  H   UNL     1     -44.784  31.137  21.878  1.00  0.00     0.106 H 
ATOM     22  Cl  UNL     1     -51.058  30.235  23.235  1.00  0.00    -0.082 Cl
ATOM     23  C   UNL     1     -49.352  31.683  24.814  1.00  0.00     0.031 A 
ATOM     24  H   UNL     1     -50.059  31.966  25.580  1.00  0.00     0.084 H 
BRANCH  14  25
ATOM     25  N   UNL     1     -48.749  29.518  20.933  1.00  0.00    -0.383 N 
ATOM     26  H   UNL     1     -49.735  29.521  21.155  1.00  0.00     0.158 HD
ATOM     27  H   UNL     1     -48.334  28.633  20.670  1.00  0.00     0.158 HD
ENDBRANCH  14  25
ENDBRANCH   5  13
ENDBRANCH   1   4
BRANCH   1  28
ATOM     28  O   UNL     1     -46.907  37.008  28.257  1.00  0.00    -0.489 OA
BRANCH  28  29
ATOM     29  C   UNL     1     -45.888  37.868  28.559  1.00  0.00     0.122 A 
ATOM     30  C   UNL     1     -45.140  37.510  29.680  1.00  0.00    -0.019 A 
ATOM     31  C   UNL     1     -45.553  39.028  27.857  1.00  0.00     0.007 A 
ATOM     32  C   UNL     1     -44.071  38.303  30.091  1.00  0.00    -0.049 A 
ATOM     33  H   UNL     1     -45.390  36.609  30.235  1.00  0.00     0.066 H 
ATOM     34  C   UNL     1     -44.493  39.838  28.246  1.00  0.00     0.076 A 
ATOM     35  H   UNL     1     -46.109  39.343  26.980  1.00  0.00     0.069 H 
ATOM     36  C   UNL     1     -43.746  39.466  29.377  1.00  0.00     0.001 A 
ATOM     37  H   UNL     1     -43.496  38.008  30.966  1.00  0.00     0.063 H 
ATOM     38  N   UNL     1     -44.217  40.945  27.533  1.00  0.00    -0.231 NA
ATOM     39  C   UNL     1     -42.683  40.289  29.747  1.00  0.00    -0.049 A 
ATOM     40  C   UNL     1     -43.194  41.751  27.899  1.00  0.00     0.129 A 
ATOM     41  C   UNL     1     -42.407  41.432  29.001  1.00  0.00    -0.019 A 
ATOM     42  H   UNL     1     -42.061  40.049  30.605  1.00  0.00     0.063 H 
ATOM     43  H   UNL     1     -41.564  42.053  29.281  1.00  0.00     0.066 H 
BRANCH  40  44
ATOM     44  N   UNL     1     -42.938  42.865  27.130  1.00  0.00    -0.357 N 
ATOM     45  C   UNL     1     -43.713  44.096  27.226  1.00  0.00     0.019 C 
ATOM     46  C   UNL     1     -42.368  42.692  25.799  1.00  0.00     0.019 C 
ATOM     47  C   UNL     1     -43.640  44.700  25.822  1.00  0.00    -0.034 C 
ATOM     48  H   UNL     1     -44.760  43.928  27.503  1.00  0.00     0.049 H 
ATOM     49  H   UNL     1     -43.252  44.767  27.959  1.00  0.00     0.049 H 
ATOM     50  C   UNL     1     -42.360  44.114  25.246  1.00  0.00    -0.034 C 
ATOM     51  H   UNL     1     -43.008  42.053  25.178  1.00  0.00     0.049 H 
ATOM     52  H   UNL     1     -41.357  42.276  25.829  1.00  0.00     0.049 H 
ATOM     53  H   UNL     1     -44.501  44.368  25.229  1.00  0.00     0.029 H 
ATOM     54  H   UNL     1     -43.639  45.793  25.837  1.00  0.00     0.029 H 
ATOM     55  H   UNL     1     -41.492  44.665  25.626  1.00  0.00     0.029 H 
ATOM     56  H   UNL     1     -42.335  44.139  24.152  1.00  0.00     0.029 H 
ENDBRANCH  40  44
ENDBRANCH  28  29
ENDBRANCH   1  28
TORSDOF 6
ENDMDL
MODEL 2
REMARK VINA RESULT:     -10.5      3.112     11.467
REMARK SMILES Nc1ncnc2c1c(Cl)cn2-c1cncc(COc2ccc3ccc(N4CCCC4)nc3c2)c1
REMARK SMILES IDX 17 1 16 4 12 5 13 6 34 7 14 8 15 11 11 13 2 14 3 15 7 16
REMARK SMILES IDX 4 17 6 18 8 19 5 20 9 22 10 23 1 25 18 28 19 29 20 30 33 31
REMARK SMILES IDX 21 32 32 34 22 36 31 38 23 39 25 40 24 41 26 44 27 45 30 46
REMARK SMILES IDX 28 47 29 50
REMARK H PARENT 17 2 17 3 13 9 34 10 15 12 4 21 10 24 1 26 1 27 20 33 33 35
REMARK H PARENT 21 37 23 42 24 43 27 48 27 49 30 51 30 52 28 53 28 54 29 55
REMARK H PARENT 29 56
REMARK Flexibility Score: inf
ROOT
ATOM      1  C   UNL     1     -48.304  35.762  27.021  1.00  0.00     0.115 C 
ATOM      2  H   UNL     1     -48.092  35.865  25.951  1.00  0.00     0.076 H 
ATOM      3  H   UNL     1     -49.303  36.157  27.242  1.00  0.00     0.076 H 
ENDROOT
BRANCH   1   4
ATOM      4  C   UNL     1     -47.299  36.552  27.817  1.00  0.00     0.010 A 
ATOM      5  C   UNL     1     -45.738  38.405  28.037  1.00  0.00     0.066 A 
ATOM      6  C   UNL     1     -45.537  37.980  29.348  1.00  0.00     0.051 A 
ATOM      7  C   UNL     1     -46.645  37.666  27.270  1.00  0.00    -0.028 A 
ATOM      8  N   UNL     1     -46.158  36.916  29.914  1.00  0.00    -0.262 NA
ATOM      9  H   UNL     1     -44.870  38.481  30.041  1.00  0.00     0.086 H 
ATOM     10  H   UNL     1     -46.855  37.913  26.235  1.00  0.00     0.065 H 
ATOM     11  C   UNL     1     -47.022  36.229  29.139  1.00  0.00     0.034 A 
ATOM     12  H   UNL     1     -47.501  35.383  29.626  1.00  0.00     0.084 H 
BRANCH   5  13
ATOM     13  N   UNL     1     -45.040  39.544  27.518  1.00  0.00    -0.298 N 
ATOM     14  C   UNL     1     -42.546  42.105  27.671  1.00  0.00     0.137 A 
ATOM     15  N   UNL     1     -41.923  41.830  28.829  1.00  0.00    -0.219 NA
ATOM     16  C   UNL     1     -43.607  41.287  27.254  1.00  0.00     0.080 A 
ATOM     17  C   UNL     1     -42.354  40.785  29.551  1.00  0.00     0.120 A 
ATOM     18  C   UNL     1     -43.969  40.236  28.095  1.00  0.00     0.151 A 
ATOM     19  C   UNL     1     -44.468  41.228  26.137  1.00  0.00     0.072 A 
ATOM     20  N   UNL     1     -43.355  39.943  29.261  1.00  0.00    -0.218 NA
ATOM     21  H   UNL     1     -41.827  40.599  30.482  1.00  0.00     0.106 H 
ATOM     22  Cl  UNL     1     -44.454  42.276  24.798  1.00  0.00    -0.082 Cl
ATOM     23  C   UNL     1     -45.321  40.165  26.311  1.00  0.00     0.031 A 
ATOM     24  H   UNL     1     -46.120  39.834  25.665  1.00  0.00     0.084 H 
BRANCH  14  25
ATOM     25  N   UNL     1     -42.077  43.194  26.955  1.00  0.00    -0.383 N 
ATOM     26  H   UNL     1     -41.546  42.985  26.120  1.00  0.00     0.158 HD
ATOM     27  H   UNL     1     -41.723  43.923  27.561  1.00  0.00     0.158 HD
ENDBRANCH  14  25
ENDBRANCH   5  13
ENDBRANCH   1   4
BRANCH   1  28
ATOM     28  O   UNL     1     -48.212  34.387  27.393  1.00  0.00    -0.489 OA
BRANCH  28  29
ATOM     29  C   UNL     1     -47.887  33.495  26.409  1.00  0.00     0.122 A 
ATOM     30  C   UNL     1     -46.707  33.788  25.727  1.00  0.00    -0.019 A 
ATOM     31  C   UNL     1     -48.618  32.359  26.052  1.00  0.00     0.007 A 
ATOM     32  C   UNL     1     -46.265  32.955  24.701  1.00  0.00    -0.049 A 
ATOM     33  H   UNL     1     -46.130  34.670  25.995  1.00  0.00     0.066 H 
ATOM     34  C   UNL     1     -48.200  31.512  25.032  1.00  0.00     0.076 A 
ATOM     35  H   UNL     1     -49.541  32.095  26.557  1.00  0.00     0.069 H 
ATOM     36  C   UNL     1     -47.009  31.817  24.353  1.00  0.00     0.001 A 
ATOM     37  H   UNL     1     -45.341  33.197  24.181  1.00  0.00     0.063 H 
ATOM     38  N   UNL     1     -48.945  30.432  24.731  1.00  0.00    -0.231 NA
ATOM     39  C   UNL     1     -46.604  30.951  23.338  1.00  0.00    -0.049 A 
ATOM     40  C   UNL     1     -48.560  29.598  23.737  1.00  0.00     0.129 A 
ATOM     41  C   UNL     1     -47.383  29.837  23.035  1.00  0.00    -0.019 A 
ATOM     42  H   UNL     1     -45.686  31.128  22.784  1.00  0.00     0.063 H 
ATOM     43  H   UNL     1     -47.049  29.156  22.261  1.00  0.00     0.066 H 
BRANCH  40  44
ATOM     44  N   UNL     1     -49.344  28.497  23.474  1.00  0.00    -0.357 N 
ATOM     45  C   UNL     1     -49.301  27.772  22.210  1.00  0.00     0.019 C 
ATOM     46  C   UNL     1     -50.652  28.388  24.110  1.00  0.00     0.019 C 
ATOM     47  C   UNL     1     -50.715  27.209  22.048  1.00  0.00    -0.034 C 
ATOM     48  H   UNL     1     -49.055  28.409  21.353  1.00  0.00     0.049 H 
ATOM     49  H   UNL     1     -48.568  26.960  22.274  1.00  0.00     0.049 H 
ATOM     50  C   UNL     1     -51.235  27.130  23.475  1.00  0.00    -0.034 C 
ATOM     51  H   UNL     1     -51.279  29.255  23.869  1.00  0.00     0.049 H 
ATOM     52  H   UNL     1     -50.579  28.283  25.197  1.00  0.00     0.049 H 
ATOM     53  H   UNL     1     -51.329  27.908  21.466  1.00  0.00     0.029 H 
ATOM     54  H   UNL     1     -50.724  26.243  21.537  1.00  0.00     0.029 H 
ATOM     55  H   UNL     1     -50.838  26.236  23.969  1.00  0.00     0.029 H 
ATOM     56  H   UNL     1     -52.327  27.100  23.528  1.00  0.00     0.029 H 
ENDBRANCH  40  44
ENDBRANCH  28  29
ENDBRANCH   1  28
TORSDOF 6
ENDMDL
MODEL 3
REMARK VINA RESULT:     -10.4      3.566     11.634
REMARK SMILES Nc1ncnc2c1c(Cl)cn2-c1cncc(COc2ccc3ccc(N4CCCC4)nc3c2)c1
REMARK SMILES IDX 17 1 16 4 12 5 13 6 34 7 14 8 15 11 11 13 2 14 3 15 7 16
REMARK SMILES IDX 4 17 6 18 8 19 5 20 9 22 10 23 1 25 18 28 19 29 20 30 33 31
REMARK SMILES IDX 21 32 32 34 22 36 31 38 23 39 25 40 24 41 26 44 27 45 30 46
REMARK SMILES IDX 28 47 29 50
REMARK H PARENT 17 2 17 3 13 9 34 10 15 12 4 21 10 24 1 26 1 27 20 33 33 35
REMARK H PARENT 21 37 23 42 24 43 27 48 27 49 30 51 30 52 28 53 28 54 29 55
REMARK H PARENT 29 56
REMARK Flexibility Score: inf
ROOT
ATOM      1  C   UNL     1     -46.560  35.140  27.861  1.00  0.00     0.115 C 
ATOM      2  H   UNL     1     -46.387  34.737  28.866  1.00  0.00     0.076 H 
ATOM      3  H   UNL     1     -45.688  34.942  27.226  1.00  0.00     0.076 H 
ENDROOT
BRANCH   1   4
ATOM      4  C   UNL     1     -46.756  36.631  27.938  1.00  0.00     0.010 A 
ATOM      5  C   UNL     1     -45.875  38.900  27.926  1.00  0.00     0.066 A 
ATOM      6  C   UNL     1     -47.197  39.331  28.016  1.00  0.00     0.051 A 
ATOM      7  C   UNL     1     -45.669  37.516  27.883  1.00  0.00    -0.028 A 
ATOM      8  N   UNL     1     -48.272  38.507  28.060  1.00  0.00    -0.262 NA
ATOM      9  H   UNL     1     -47.481  40.377  28.040  1.00  0.00     0.086 H 
ATOM     10  H   UNL     1     -44.674  37.087  27.828  1.00  0.00     0.065 H 
ATOM     11  C   UNL     1     -48.029  37.181  28.020  1.00  0.00     0.034 A 
ATOM     12  H   UNL     1     -48.915  36.551  28.059  1.00  0.00     0.084 H 
BRANCH   5  13
ATOM     13  N   UNL     1     -44.796  39.840  27.882  1.00  0.00    -0.298 N 
ATOM     14  C   UNL     1     -42.973  42.545  26.410  1.00  0.00     0.137 A 
ATOM     15  N   UNL     1     -43.723  42.845  25.336  1.00  0.00    -0.219 NA
ATOM     16  C   UNL     1     -43.385  41.510  27.264  1.00  0.00     0.080 A 
ATOM     17  C   UNL     1     -44.834  42.128  25.115  1.00  0.00     0.120 A 
ATOM     18  C   UNL     1     -44.554  40.832  26.924  1.00  0.00     0.151 A 
ATOM     19  C   UNL     1     -42.910  40.928  28.458  1.00  0.00     0.072 A 
ATOM     20  N   UNL     1     -45.320  41.119  25.850  1.00  0.00    -0.218 NA
ATOM     21  H   UNL     1     -45.409  42.399  24.235  1.00  0.00     0.106 H 
ATOM     22  Cl  UNL     1     -41.515  41.384  29.317  1.00  0.00    -0.082 Cl
ATOM     23  C   UNL     1     -43.779  39.926  28.819  1.00  0.00     0.031 A 
ATOM     24  H   UNL     1     -43.719  39.260  29.667  1.00  0.00     0.084 H 
BRANCH  14  25
ATOM     25  N   UNL     1     -41.831  43.304  26.603  1.00  0.00    -0.383 N 
ATOM     26  H   UNL     1     -41.972  44.291  26.767  1.00  0.00     0.158 HD
ATOM     27  H   UNL     1     -41.087  43.040  25.970  1.00  0.00     0.158 HD
ENDBRANCH  14  25
ENDBRANCH   5  13
ENDBRANCH   1   4
BRANCH   1  28
ATOM     28  O   UNL     1     -47.734  34.546  27.308  1.00  0.00    -0.489 OA
BRANCH  28  29
ATOM     29  C   UNL     1     -47.556  33.530  26.411  1.00  0.00     0.122 A 
ATOM     30  C   UNL     1     -46.586  33.777  25.440  1.00  0.00    -0.019 A 
ATOM     31  C   UNL     1     -48.243  32.313  26.396  1.00  0.00     0.007 A 
ATOM     32  C   UNL     1     -46.308  32.818  24.468  1.00  0.00    -0.049 A 
ATOM     33  H   UNL     1     -46.045  34.719  25.440  1.00  0.00     0.066 H 
ATOM     34  C   UNL     1     -47.986  31.340  25.437  1.00  0.00     0.076 A 
ATOM     35  H   UNL     1     -49.005  32.081  27.133  1.00  0.00     0.069 H 
ATOM     36  C   UNL     1     -47.006  31.600  24.465  1.00  0.00     0.001 A 
ATOM     37  H   UNL     1     -45.547  33.025  23.719  1.00  0.00     0.063 H 
ATOM     38  N   UNL     1     -48.679  30.188  25.471  1.00  0.00    -0.231 NA
ATOM     39  C   UNL     1     -46.759  30.609  23.516  1.00  0.00    -0.049 A 
ATOM     40  C   UNL     1     -48.450  29.230  24.543  1.00  0.00     0.129 A 
ATOM     41  C   UNL     1     -47.483  29.420  23.561  1.00  0.00    -0.019 A 
ATOM     42  H   UNL     1     -46.006  30.747  22.745  1.00  0.00     0.063 H 
ATOM     43  H   UNL     1     -47.268  28.645  22.835  1.00  0.00     0.066 H 
BRANCH  40  44
ATOM     44  N   UNL     1     -49.171  28.060  24.626  1.00  0.00    -0.357 N 
ATOM     45  C   UNL     1     -50.589  27.972  24.297  1.00  0.00     0.019 C 
ATOM     46  C   UNL     1     -48.787  27.058  25.613  1.00  0.00     0.019 C 
ATOM     47  C   UNL     1     -51.116  26.847  25.190  1.00  0.00    -0.034 C 
ATOM     48  H   UNL     1     -51.140  28.897  24.501  1.00  0.00     0.049 H 
ATOM     49  H   UNL     1     -50.707  27.712  23.239  1.00  0.00     0.049 H 
ATOM     50  C   UNL     1     -49.881  26.005  25.472  1.00  0.00    -0.034 C 
ATOM     51  H   UNL     1     -48.801  27.479  26.626  1.00  0.00     0.049 H 
ATOM     52  H   UNL     1     -47.801  26.630  25.410  1.00  0.00     0.049 H 
ATOM     53  H   UNL     1     -51.502  27.265  26.127  1.00  0.00     0.029 H 
ATOM     54  H   UNL     1     -51.920  26.278  24.715  1.00  0.00     0.029 H 
ATOM     55  H   UNL     1     -49.671  25.350  24.618  1.00  0.00     0.029 H 
ATOM     56  H   UNL     1     -49.985  25.384  26.367  1.00  0.00     0.029 H 
ENDBRANCH  40  44
ENDBRANCH  28  29
ENDBRANCH   1  28
TORSDOF 6
ENDMDL
MODEL 4
REMARK VINA RESULT:     -10.1      3.702     11.562
REMARK SMILES Nc1ncnc2c1c(Cl)cn2-c1cncc(COc2ccc3ccc(N4CCCC4)nc3c2)c1
REMARK SMILES IDX 17 1 16 4 12 5 13 6 34 7 14 8 15 11 11 13 2 14 3 15 7 16
REMARK SMILES IDX 4 17 6 18 8 19 5 20 9 22 10 23 1 25 18 28 19 29 20 30 33 31
REMARK SMILES IDX 21 32 32 34 22 36 31 38 23 39 25 40 24 41 26 44 27 45 30 46
REMARK SMILES IDX 28 47 29 50
REMARK H PARENT 17 2 17 3 13 9 34 10 15 12 4 21 10 24 1 26 1 27 20 33 33 35
REMARK H PARENT 21 37 23 42 24 43 27 48 27 49 30 51 30 52 28 53 28 54 29 55
REMARK H PARENT 29 56
REMARK Flexibility Score: inf
ROOT
ATOM      1  C   UNL     1     -48.643  34.407  26.715  1.00  0.00     0.115 C 
ATOM      2  H   UNL     1     -49.536  34.212  26.109  1.00  0.00     0.076 H 
ATOM      3  H   UNL     1     -48.638  33.749  27.592  1.00  0.00     0.076 H 
ENDROOT
BRANCH   1   4
ATOM      4  C   UNL     1     -48.659  35.834  27.197  1.00  0.00     0.010 A 
ATOM      5  C   UNL     1     -47.549  37.964  27.588  1.00  0.00     0.066 A 
ATOM      6  C   UNL     1     -48.783  38.439  28.028  1.00  0.00     0.051 A 
ATOM      7  C   UNL     1     -47.505  36.631  27.163  1.00  0.00    -0.028 A 
ATOM      8  N   UNL     1     -49.920  37.702  28.065  1.00  0.00    -0.262 NA
ATOM      9  H   UNL     1     -48.943  39.457  28.366  1.00  0.00     0.086 H 
ATOM     10  H   UNL     1     -46.586  36.170  26.818  1.00  0.00     0.065 H 
ATOM     11  C   UNL     1     -49.833  36.421  27.650  1.00  0.00     0.034 A 
ATOM     12  H   UNL     1     -50.764  35.861  27.695  1.00  0.00     0.084 H 
BRANCH   5  13
ATOM     13  N   UNL     1     -46.395  38.813  27.579  1.00  0.00    -0.298 N 
ATOM     14  C   UNL     1     -43.367  40.102  28.984  1.00  0.00     0.137 A 
ATOM     15  N   UNL     1     -43.247  39.384  30.114  1.00  0.00    -0.219 NA
ATOM     16  C   UNL     1     -44.461  39.865  28.138  1.00  0.00     0.080 A 
ATOM     17  C   UNL     1     -44.192  38.474  30.394  1.00  0.00     0.120 A 
ATOM     18  C   UNL     1     -45.382  38.901  28.541  1.00  0.00     0.151 A 
ATOM     19  C   UNL     1     -44.916  40.369  26.900  1.00  0.00     0.072 A 
ATOM     20  N   UNL     1     -45.278  38.169  29.671  1.00  0.00    -0.218 NA
ATOM     21  H   UNL     1     -44.061  37.919  31.317  1.00  0.00     0.106 H 
ATOM     22  Cl  UNL     1     -44.158  41.566  25.959  1.00  0.00    -0.082 Cl
ATOM     23  C   UNL     1     -46.081  39.717  26.577  1.00  0.00     0.031 A 
ATOM     24  H   UNL     1     -46.711  39.859  25.712  1.00  0.00     0.084 H 
BRANCH  14  25
ATOM     25  N   UNL     1     -42.375  41.034  28.731  1.00  0.00    -0.383 N 
ATOM     26  H   UNL     1     -42.258  41.313  27.766  1.00  0.00     0.158 HD
ATOM     27  H   UNL     1     -41.536  40.852  29.267  1.00  0.00     0.158 HD
ENDBRANCH  14  25
ENDBRANCH   5  13
ENDBRANCH   1   4
BRANCH   1  28
ATOM     28  O   UNL     1     -47.476  34.200  25.920  1.00  0.00    -0.489 OA
BRANCH  28  29
ATOM     29  C   UNL     1     -47.347  32.985  25.306  1.00  0.00     0.122 A 
ATOM     30  C   UNL     1     -46.357  32.933  24.326  1.00  0.00    -0.019 A 
ATOM     31  C   UNL     1     -48.101  31.841  25.577  1.00  0.00     0.007 A 
ATOM     32  C   UNL     1     -46.125  31.751  23.627  1.00  0.00    -0.049 A 
ATOM     33  H   UNL     1     -45.764  33.818  24.106  1.00  0.00     0.066 H 
ATOM     34  C   UNL     1     -47.890  30.649  24.894  1.00  0.00     0.076 A 
ATOM     35  H   UNL     1     -48.880  31.838  26.331  1.00  0.00     0.069 H 
ATOM     36  C   UNL     1     -46.889  30.608  23.909  1.00  0.00     0.001 A 
ATOM     37  H   UNL     1     -45.347  31.727  22.867  1.00  0.00     0.063 H 
ATOM     38  N   UNL     1     -48.647  29.578  25.196  1.00  0.00    -0.231 NA
ATOM     39  C   UNL     1     -46.690  29.402  23.239  1.00  0.00    -0.049 A 
ATOM     40  C   UNL     1     -48.464  28.410  24.538  1.00  0.00     0.129 A 
ATOM     41  C   UNL     1     -47.479  28.300  23.561  1.00  0.00    -0.019 A 
ATOM     42  H   UNL     1     -45.924  29.305  22.475  1.00  0.00     0.063 H 
ATOM     43  H   UNL     1     -47.302  27.359  23.053  1.00  0.00     0.066 H 
BRANCH  40  44
ATOM     44  N   UNL     1     -49.250  27.335  24.891  1.00  0.00    -0.357 N 
ATOM     45  C   UNL     1     -50.707  27.366  24.850  1.00  0.00     0.019 C 
ATOM     46  C   UNL     1     -48.761  26.398  25.895  1.00  0.00     0.019 C 
ATOM     47  C   UNL     1     -51.137  26.394  25.951  1.00  0.00    -0.034 C 
ATOM     48  H   UNL     1     -51.125  28.359  25.048  1.00  0.00     0.049 H 
ATOM     49  H   UNL     1     -51.056  27.019  23.871  1.00  0.00     0.049 H 
ATOM     50  C   UNL     1     -49.946  25.458  26.088  1.00  0.00    -0.034 C 
ATOM     51  H   UNL     1     -48.536  26.914  26.837  1.00  0.00     0.049 H 
ATOM     52  H   UNL     1     -47.875  25.851  25.559  1.00  0.00     0.049 H 
ATOM     53  H   UNL     1     -51.290  26.940  26.890  1.00  0.00     0.029 H 
ATOM     54  H   UNL     1     -52.065  25.870  25.707  1.00  0.00     0.029 H 
ATOM     55  H   UNL     1     -49.968  24.705  25.290  1.00  0.00     0.029 H 
ATOM     56  H   UNL     1     -49.920  24.940  27.051  1.00  0.00     0.029 H 
ENDBRANCH  40  44
ENDBRANCH  28  29
ENDBRANCH   1  28
TORSDOF 6
ENDMDL
MODEL 5
REMARK VINA RESULT:     -10.0      3.519      6.316
REMARK SMILES Nc1ncnc2c1c(Cl)cn2-c1cncc(COc2ccc3ccc(N4CCCC4)nc3c2)c1
REMARK SMILES IDX 17 1 16 4 12 5 13 6 34 7 14 8 15 11 11 13 2 14 3 15 7 16
REMARK SMILES IDX 4 17 6 18 8 19 5 20 9 22 10 23 1 25 18 28 19 29 20 30 33 31
REMARK SMILES IDX 21 32 32 34 22 36 31 38 23 39 25 40 24 41 26 44 27 45 30 46
REMARK SMILES IDX 28 47 29 50
REMARK H PARENT 17 2 17 3 13 9 34 10 15 12 4 21 10 24 1 26 1 27 20 33 33 35
REMARK H PARENT 21 37 23 42 24 43 27 48 27 49 30 51 30 52 28 53 28 54 29 55
REMARK H PARENT 29 56
REMARK Flexibility Score: inf
ROOT
ATOM      1  C   UNL     1     -45.914  31.871  23.231  1.00  0.00     0.115 C 
ATOM      2  H   UNL     1     -46.355  32.806  22.864  1.00  0.00     0.076 H 
ATOM      3  H   UNL     1     -44.921  31.730  22.787  1.00  0.00     0.076 H 
ENDROOT
BRANCH   1   4
ATOM      4  C   UNL     1     -46.779  30.707  22.826  1.00  0.00     0.010 A 
ATOM      5  C   UNL     1     -48.118  28.752  23.382  1.00  0.00     0.066 A 
ATOM      6  C   UNL     1     -48.401  28.655  22.022  1.00  0.00     0.051 A 
ATOM      7  C   UNL     1     -47.290  29.810  23.776  1.00  0.00    -0.028 A 
ATOM      8  N   UNL     1     -47.936  29.509  21.078  1.00  0.00    -0.262 NA
ATOM      9  H   UNL     1     -49.042  27.888  21.601  1.00  0.00     0.086 H 
ATOM     10  H   UNL     1     -47.002  29.957  24.812  1.00  0.00     0.065 H 
ATOM     11  C   UNL     1     -47.139  30.512  21.499  1.00  0.00     0.034 A 
ATOM     12  H   UNL     1     -46.783  31.175  20.714  1.00  0.00     0.084 H 
BRANCH   5  13
ATOM     13  N   UNL     1     -48.654  27.807  24.315  1.00  0.00    -0.298 N 
ATOM     14  C   UNL     1     -51.343  26.177  26.024  1.00  0.00     0.137 A 
ATOM     15  N   UNL     1     -52.425  26.754  25.472  1.00  0.00    -0.219 NA
ATOM     16  C   UNL     1     -50.066  26.564  25.589  1.00  0.00     0.080 A 
ATOM     17  C   UNL     1     -52.235  27.692  24.531  1.00  0.00     0.120 A 
ATOM     18  C   UNL     1     -49.999  27.555  24.612  1.00  0.00     0.151 A 
ATOM     19  C   UNL     1     -48.736  26.196  25.886  1.00  0.00     0.072 A 
ATOM     20  N   UNL     1     -51.073  28.145  24.046  1.00  0.00    -0.218 NA
ATOM     21  H   UNL     1     -53.134  28.136  24.114  1.00  0.00     0.106 H 
ATOM     22  Cl  UNL     1     -48.244  25.016  27.009  1.00  0.00    -0.082 Cl
ATOM     23  C   UNL     1     -47.899  26.952  25.103  1.00  0.00     0.031 A 
ATOM     24  H   UNL     1     -46.819  26.950  25.079  1.00  0.00     0.084 H 
BRANCH  14  25
ATOM     25  N   UNL     1     -51.577  25.217  26.994  1.00  0.00    -0.383 N 
ATOM     26  H   UNL     1     -51.443  25.508  27.953  1.00  0.00     0.158 HD
ATOM     27  H   UNL     1     -51.212  24.312  26.728  1.00  0.00     0.158 HD
ENDBRANCH  14  25
ENDBRANCH   5  13
ENDBRANCH   1   4
BRANCH   1  28
ATOM     28  O   UNL     1     -45.829  31.913  24.655  1.00  0.00    -0.489 OA
BRANCH  28  29
ATOM     29  C   UNL     1     -46.546  32.887  25.294  1.00  0.00     0.122 A 
ATOM     30  C   UNL     1     -47.862  32.538  25.591  1.00  0.00    -0.019 A 
ATOM     31  C   UNL     1     -46.075  34.152  25.657  1.00  0.00     0.007 A 
ATOM     32  C   UNL     1     -48.696  33.443  26.244  1.00  0.00    -0.049 A 
ATOM     33  H   UNL     1     -48.239  31.557  25.314  1.00  0.00     0.066 H 
ATOM     34  C   UNL     1     -46.887  35.074  26.307  1.00  0.00     0.076 A 
ATOM     35  H   UNL     1     -45.059  34.463  25.444  1.00  0.00     0.069 H 
ATOM     36  C   UNL     1     -48.212  34.710  26.603  1.00  0.00     0.001 A 
ATOM     37  H   UNL     1     -49.720  33.154  26.471  1.00  0.00     0.063 H 
ATOM     38  N   UNL     1     -46.381  36.277  26.632  1.00  0.00    -0.231 NA
ATOM     39  C   UNL     1     -49.007  35.647  27.261  1.00  0.00    -0.049 A 
ATOM     40  C   UNL     1     -47.156  37.193  27.259  1.00  0.00     0.129 A 
ATOM     41  C   UNL     1     -48.472  36.889  27.592  1.00  0.00    -0.019 A 
ATOM     42  H   UNL     1     -50.036  35.420  27.526  1.00  0.00     0.063 H 
ATOM     43  H   UNL     1     -49.090  37.603  28.125  1.00  0.00     0.066 H 
BRANCH  40  44
ATOM     44  N   UNL     1     -46.592  38.406  27.587  1.00  0.00    -0.357 N 
ATOM     45  C   UNL     1     -47.135  39.683  27.142  1.00  0.00     0.019 C 
ATOM     46  C   UNL     1     -45.153  38.483  27.807  1.00  0.00     0.019 C 
ATOM     47  C   UNL     1     -45.915  40.601  27.047  1.00  0.00    -0.034 C 
ATOM     48  H   UNL     1     -47.634  39.627  26.168  1.00  0.00     0.049 H 
ATOM     49  H   UNL     1     -47.846  40.061  27.886  1.00  0.00     0.049 H 
ATOM     50  C   UNL     1     -44.920  39.976  28.013  1.00  0.00    -0.034 C 
ATOM     51  H   UNL     1     -44.601  38.136  26.925  1.00  0.00     0.049 H 
ATOM     52  H   UNL     1     -44.834  37.911  28.684  1.00  0.00     0.049 H 
ATOM     53  H   UNL     1     -45.510  40.578  26.029  1.00  0.00     0.029 H 
ATOM     54  H   UNL     1     -46.153  41.640  27.294  1.00  0.00     0.029 H 
ATOM     55  H   UNL     1     -45.167  40.261  29.042  1.00  0.00     0.029 H 
ATOM     56  H   UNL     1     -43.887  40.272  27.810  1.00  0.00     0.029 H 
ENDBRANCH  40  44
ENDBRANCH  28  29
ENDBRANCH   1  28
TORSDOF 6
ENDMDL
MODEL 6
REMARK VINA RESULT:      -9.9      3.354     10.952
REMARK SMILES Nc1ncnc2c1c(Cl)cn2-c1cncc(COc2ccc3ccc(N4CCCC4)nc3c2)c1
REMARK SMILES IDX 17 1 16 4 12 5 13 6 34 7 14 8 15 11 11 13 2 14 3 15 7 16
REMARK SMILES IDX 4 17 6 18 8 19 5 20 9 22 10 23 1 25 18 28 19 29 20 30 33 31
REMARK SMILES IDX 21 32 32 34 22 36 31 38 23 39 25 40 24 41 26 44 27 45 30 46
REMARK SMILES IDX 28 47 29 50
REMARK H PARENT 17 2 17 3 13 9 34 10 15 12 4 21 10 24 1 26 1 27 20 33 33 35
REMARK H PARENT 21 37 23 42 24 43 27 48 27 49 30 51 30 52 28 53 28 54 29 55
REMARK H PARENT 29 56
REMARK Flexibility Score: inf
ROOT
ATOM      1  C   UNL     1     -45.570  37.449  28.591  1.00  0.00     0.115 C 
ATOM      2  H   UNL     1     -46.391  37.546  29.310  1.00  0.00     0.076 H 
ATOM      3  H   UNL     1     -44.984  36.549  28.816  1.00  0.00     0.076 H 
ENDROOT
BRANCH   1   4
ATOM      4  C   UNL     1     -44.658  38.642  28.696  1.00  0.00     0.010 A 
ATOM      5  C   UNL     1     -43.769  40.729  27.814  1.00  0.00     0.066 A 
ATOM      6  C   UNL     1     -43.026  40.820  28.990  1.00  0.00     0.051 A 
ATOM      7  C   UNL     1     -44.601  39.611  27.683  1.00  0.00    -0.028 A 
ATOM      8  N   UNL     1     -43.063  39.910  29.993  1.00  0.00    -0.262 NA
ATOM      9  H   UNL     1     -42.359  41.646  29.210  1.00  0.00     0.086 H 
ATOM     10  H   UNL     1     -45.205  39.448  26.797  1.00  0.00     0.065 H 
ATOM     11  C   UNL     1     -43.875  38.846  29.825  1.00  0.00     0.034 A 
ATOM     12  H   UNL     1     -43.878  38.137  30.650  1.00  0.00     0.084 H 
BRANCH   5  13
ATOM     13  N   UNL     1     -43.672  41.739  26.803  1.00  0.00    -0.298 N 
ATOM     14  C   UNL     1     -45.017  44.331  24.735  1.00  0.00     0.137 A 
ATOM     15  N   UNL     1     -46.292  44.401  25.157  1.00  0.00    -0.219 NA
ATOM     16  C   UNL     1     -44.149  43.407  25.337  1.00  0.00     0.080 A 
ATOM     17  C   UNL     1     -46.686  43.568  26.132  1.00  0.00     0.120 A 
ATOM     18  C   UNL     1     -44.679  42.590  26.333  1.00  0.00     0.151 A 
ATOM     19  C   UNL     1     -42.789  43.054  25.203  1.00  0.00     0.072 A 
ATOM     20  N   UNL     1     -45.955  42.646  26.770  1.00  0.00    -0.218 NA
ATOM     21  H   UNL     1     -47.724  43.653  26.440  1.00  0.00     0.106 H 
ATOM     22  Cl  UNL     1     -41.668  43.751  24.129  1.00  0.00    -0.082 Cl
ATOM     23  C   UNL     1     -42.518  42.051  26.100  1.00  0.00     0.031 A 
ATOM     24  H   UNL     1     -41.587  41.528  26.262  1.00  0.00     0.084 H 
BRANCH  14  25
ATOM     25  N   UNL     1     -44.648  45.202  23.725  1.00  0.00    -0.383 N 
ATOM     26  H   UNL     1     -44.789  44.876  22.778  1.00  0.00     0.158 HD
ATOM     27  H   UNL     1     -43.775  45.673  23.929  1.00  0.00     0.158 HD
ENDBRANCH  14  25
ENDBRANCH   5  13
ENDBRANCH   1   4
BRANCH   1  28
ATOM     28  O   UNL     1     -46.102  37.387  27.268  1.00  0.00    -0.489 OA
BRANCH  28  29
ATOM     29  C   UNL     1     -46.840  36.283  26.944  1.00  0.00     0.122 A 
ATOM     30  C   UNL     1     -48.160  36.316  27.392  1.00  0.00    -0.019 A 
ATOM     31  C   UNL     1     -46.390  35.172  26.225  1.00  0.00     0.007 A 
ATOM     32  C   UNL     1     -49.018  35.251  27.124  1.00  0.00    -0.049 A 
ATOM     33  H   UNL     1     -48.522  37.174  27.952  1.00  0.00     0.066 H 
ATOM     34  C   UNL     1     -47.224  34.096  25.946  1.00  0.00     0.076 A 
ATOM     35  H   UNL     1     -45.371  35.106  25.859  1.00  0.00     0.069 H 
ATOM     36  C   UNL     1     -48.553  34.141  26.401  1.00  0.00     0.001 A 
ATOM     37  H   UNL     1     -50.045  35.293  27.479  1.00  0.00     0.063 H 
ATOM     38  N   UNL     1     -46.737  33.053  25.251  1.00  0.00    -0.231 NA
ATOM     39  C   UNL     1     -49.375  33.055  26.105  1.00  0.00    -0.049 A 
ATOM     40  C   UNL     1     -47.529  31.991  24.974  1.00  0.00     0.129 A 
ATOM     41  C   UNL     1     -48.858  31.980  25.385  1.00  0.00    -0.019 A 
ATOM     42  H   UNL     1     -50.414  33.036  26.421  1.00  0.00     0.063 H 
ATOM     43  H   UNL     1     -49.510  31.150  25.138  1.00  0.00     0.066 H 
BRANCH  40  44
ATOM     44  N   UNL     1     -46.993  30.952  24.246  1.00  0.00    -0.357 N 
ATOM     45  C   UNL     1     -46.095  31.151  23.115  1.00  0.00     0.019 C 
ATOM     46  C   UNL     1     -47.747  29.711  24.121  1.00  0.00     0.019 C 
ATOM     47  C   UNL     1     -46.357  29.947  22.208  1.00  0.00    -0.034 C 
ATOM     48  H   UNL     1     -46.289  32.079  22.565  1.00  0.00     0.049 H 
ATOM     49  H   UNL     1     -45.056  31.153  23.464  1.00  0.00     0.049 H 
ATOM     50  C   UNL     1     -46.892  28.889  23.161  1.00  0.00    -0.034 C 
ATOM     51  H   UNL     1     -48.734  29.894  23.679  1.00  0.00     0.049 H 
ATOM     52  H   UNL     1     -47.866  29.196  25.079  1.00  0.00     0.049 H 
ATOM     53  H   UNL     1     -47.123  30.200  21.465  1.00  0.00     0.029 H 
ATOM     54  H   UNL     1     -45.460  29.624  21.673  1.00  0.00     0.029 H 
ATOM     55  H   UNL     1     -46.062  28.417  23.700  1.00  0.00     0.029 H 
ATOM     56  H   UNL     1     -47.464  28.108  22.652  1.00  0.00     0.029 H 
ENDBRANCH  40  44
ENDBRANCH  28  29
ENDBRANCH   1  28
TORSDOF 6
ENDMDL
MODEL 7
REMARK VINA RESULT:      -9.8      1.714      2.503
REMARK SMILES Nc1ncnc2c1c(Cl)cn2-c1cncc(COc2ccc3ccc(N4CCCC4)nc3c2)c1
REMARK SMILES IDX 17 1 16 4 12 5 13 6 34 7 14 8 15 11 11 13 2 14 3 15 7 16
REMARK SMILES IDX 4 17 6 18 8 19 5 20 9 22 10 23 1 25 18 28 19 29 20 30 33 31
REMARK SMILES IDX 21 32 32 34 22 36 31 38 23 39 25 40 24 41 26 44 27 45 30 46
REMARK SMILES IDX 28 47 29 50
REMARK H PARENT 17 2 17 3 13 9 34 10 15 12 4 21 10 24 1 26 1 27 20 33 33 35
REMARK H PARENT 21 37 23 42 24 43 27 48 27 49 30 51 30 52 28 53 28 54 29 55
REMARK H PARENT 29 56
REMARK Flexibility Score: inf
ROOT
ATOM      1  C   UNL     1     -47.006  36.982  26.731  1.00  0.00     0.115 C 
ATOM      2  H   UNL     1     -48.067  37.209  26.573  1.00  0.00     0.076 H 
ATOM      3  H   UNL     1     -46.422  37.318  25.865  1.00  0.00     0.076 H 
ENDROOT
BRANCH   1   4
ATOM      4  C   UNL     1     -46.820  35.495  26.875  1.00  0.00     0.010 A 
ATOM      5  C   UNL     1     -46.798  33.249  25.938  1.00  0.00     0.066 A 
ATOM      6  C   UNL     1     -46.397  32.810  27.198  1.00  0.00     0.051 A 
ATOM      7  C   UNL     1     -47.006  34.625  25.790  1.00  0.00    -0.028 A 
ATOM      8  N   UNL     1     -46.198  33.621  28.266  1.00  0.00    -0.262 NA
ATOM      9  H   UNL     1     -46.192  31.771  27.429  1.00  0.00     0.086 H 
ATOM     10  H   UNL     1     -47.333  35.057  24.851  1.00  0.00     0.065 H 
ATOM     11  C   UNL     1     -46.413  34.940  28.081  1.00  0.00     0.034 A 
ATOM     12  H   UNL     1     -46.244  35.559  28.959  1.00  0.00     0.084 H 
BRANCH   5  13
ATOM     13  N   UNL     1     -46.984  32.322  24.861  1.00  0.00    -0.298 N 
ATOM     14  C   UNL     1     -48.990  30.280  22.715  1.00  0.00     0.137 A 
ATOM     15  N   UNL     1     -50.236  30.551  23.143  1.00  0.00    -0.219 NA
ATOM     16  C   UNL     1     -47.903  30.919  23.329  1.00  0.00     0.080 A 
ATOM     17  C   UNL     1     -50.386  31.416  24.157  1.00  0.00     0.120 A 
ATOM     18  C   UNL     1     -48.186  31.792  24.378  1.00  0.00     0.151 A 
ATOM     19  C   UNL     1     -46.501  30.926  23.163  1.00  0.00     0.072 A 
ATOM     20  N   UNL     1     -49.429  32.077  24.821  1.00  0.00    -0.218 NA
ATOM     21  H   UNL     1     -51.407  31.605  24.475  1.00  0.00     0.106 H 
ATOM     22  Cl  UNL     1     -45.619  30.039  22.010  1.00  0.00    -0.082 Cl
ATOM     23  C   UNL     1     -45.965  31.783  24.092  1.00  0.00     0.031 A 
ATOM     24  H   UNL     1     -44.926  32.020  24.265  1.00  0.00     0.084 H 
BRANCH  14  25
ATOM     25  N   UNL     1     -48.874  29.378  21.671  1.00  0.00    -0.383 N 
ATOM     26  H   UNL     1     -48.063  28.774  21.689  1.00  0.00     0.158 HD
ATOM     27  H   UNL     1     -49.125  29.791  20.782  1.00  0.00     0.158 HD
ENDBRANCH  14  25
ENDBRANCH   5  13
ENDBRANCH   1   4
BRANCH   1  28
ATOM     28  O   UNL     1     -46.556  37.623  27.923  1.00  0.00    -0.489 OA
BRANCH  28  29
ATOM     29  C   UNL     1     -45.710  38.688  27.778  1.00  0.00     0.122 A 
ATOM     30  C   UNL     1     -44.758  38.815  28.788  1.00  0.00    -0.019 A 
ATOM     31  C   UNL     1     -45.729  39.619  26.736  1.00  0.00     0.007 A 
ATOM     32  C   UNL     1     -43.835  39.859  28.754  1.00  0.00    -0.049 A 
ATOM     33  H   UNL     1     -44.733  38.097  29.604  1.00  0.00     0.066 H 
ATOM     34  C   UNL     1     -44.822  40.671  26.680  1.00  0.00     0.076 A 
ATOM     35  H   UNL     1     -46.454  39.558  25.932  1.00  0.00     0.069 H 
ATOM     36  C   UNL     1     -43.865  40.787  27.702  1.00  0.00     0.001 A 
ATOM     37  H   UNL     1     -43.097  39.941  29.549  1.00  0.00     0.063 H 
ATOM     38  N   UNL     1     -44.888  41.538  25.653  1.00  0.00    -0.231 NA
ATOM     39  C   UNL     1     -42.961  41.845  27.623  1.00  0.00    -0.049 A 
ATOM     40  C   UNL     1     -44.019  42.573  25.582  1.00  0.00     0.129 A 
ATOM     41  C   UNL     1     -43.039  42.736  26.556  1.00  0.00    -0.019 A 
ATOM     42  H   UNL     1     -42.191  41.981  28.378  1.00  0.00     0.063 H 
ATOM     43  H   UNL     1     -42.317  43.541  26.489  1.00  0.00     0.066 H 
BRANCH  40  44
ATOM     44  N   UNL     1     -44.112  43.427  24.506  1.00  0.00    -0.357 N 
ATOM     45  C   UNL     1     -43.234  43.346  23.345  1.00  0.00     0.019 C 
ATOM     46  C   UNL     1     -44.596  44.786  24.719  1.00  0.00     0.019 C 
ATOM     47  C   UNL     1     -43.146  44.786  22.835  1.00  0.00    -0.034 C 
ATOM     48  H   UNL     1     -42.231  42.976  23.586  1.00  0.00     0.049 H 
ATOM     49  H   UNL     1     -43.683  42.694  22.587  1.00  0.00     0.049 H 
ATOM     50  C   UNL     1     -44.430  45.425  23.343  1.00  0.00    -0.034 C 
ATOM     51  H   UNL     1     -43.975  45.313  25.454  1.00  0.00     0.049 H 
ATOM     52  H   UNL     1     -45.641  44.811  25.040  1.00  0.00     0.049 H 
ATOM     53  H   UNL     1     -42.279  45.287  23.282  1.00  0.00     0.029 H 
ATOM     54  H   UNL     1     -43.046  44.839  21.748  1.00  0.00     0.029 H 
ATOM     55  H   UNL     1     -45.268  45.150  22.692  1.00  0.00     0.029 H 
ATOM     56  H   UNL     1     -44.372  46.516  23.391  1.00  0.00     0.029 H 
ENDBRANCH  40  44
ENDBRANCH  28  29
ENDBRANCH   1  28
TORSDOF 6
ENDMDL
