MODEL 1
REMARK VINA RESULT:     -10.2      0.000      0.000
REMARK SMILES CNc1ccc2ccc(OCc3ccnc(-n4cc(Cl)c5c(N)ncnc54)c3)cc2n1
REMARK SMILES IDX 11 1 10 4 9 5 3 6 4 7 31 8 5 9 30 11 6 12 29 14 7 15 8 17
REMARK SMILES IDX 2 20 1 22 12 26 13 27 28 28 14 29 16 31 15 33 17 35 18 36
REMARK SMILES IDX 27 37 19 38 21 40 26 41 20 42 22 43 25 44 24 45 23 47
REMARK H PARENT 11 2 11 3 4 10 5 13 29 16 7 18 8 19 2 21 1 23 1 24 1 25 13 30
REMARK H PARENT 28 32 14 34 18 39 25 46 23 48 23 49
REMARK Flexibility Score: inf
ROOT
ATOM      1  C   UNL     1     -47.318  34.886  26.545  1.00  0.00     0.113 C 
ATOM      2  H   UNL     1     -46.683  34.909  25.649  1.00  0.00     0.076 H 
ATOM      3  H   UNL     1     -48.324  35.167  26.212  1.00  0.00     0.076 H 
ENDROOT
BRANCH   1   4
ATOM      4  O   UNL     1     -47.296  33.530  26.999  1.00  0.00    -0.489 OA
BRANCH   4   5
ATOM      5  C   UNL     1     -47.609  32.535  26.112  1.00  0.00     0.122 A 
ATOM      6  C   UNL     1     -46.475  30.803  21.822  1.00  0.00     0.126 A 
ATOM      7  C   UNL     1     -47.334  29.722  21.984  1.00  0.00    -0.019 A 
ATOM      8  N   UNL     1     -46.357  31.758  22.767  1.00  0.00    -0.231 NA
ATOM      9  C   UNL     1     -48.072  29.604  23.157  1.00  0.00    -0.049 A 
ATOM     10  H   UNL     1     -47.436  28.978  21.201  1.00  0.00     0.066 H 
ATOM     11  C   UNL     1     -47.072  31.652  23.904  1.00  0.00     0.076 A 
ATOM     12  C   UNL     1     -47.945  30.578  24.150  1.00  0.00     0.001 A 
ATOM     13  H   UNL     1     -48.739  28.756  23.286  1.00  0.00     0.063 H 
ATOM     14  C   UNL     1     -46.938  32.621  24.887  1.00  0.00     0.007 A 
ATOM     15  C   UNL     1     -48.652  30.501  25.362  1.00  0.00    -0.049 A 
ATOM     16  H   UNL     1     -46.259  33.451  24.709  1.00  0.00     0.069 H 
ATOM     17  C   UNL     1     -48.480  31.477  26.344  1.00  0.00    -0.019 A 
ATOM     18  H   UNL     1     -49.330  29.672  25.553  1.00  0.00     0.063 H 
ATOM     19  H   UNL     1     -49.032  31.377  27.272  1.00  0.00     0.066 H 
BRANCH   6  20
ATOM     20  N   UNL     1     -45.756  30.897  20.617  1.00  0.00    -0.373 N 
ATOM     21  H   UNL     1     -44.763  30.941  20.829  1.00  0.00     0.161 HD
BRANCH  20  22
ATOM     22  C   UNL     1     -46.173  31.986  19.751  1.00  0.00     0.005 C 
ATOM     23  H   UNL     1     -47.247  32.183  19.839  1.00  0.00     0.045 H 
ATOM     24  H   UNL     1     -45.645  32.898  20.048  1.00  0.00     0.045 H 
ATOM     25  H   UNL     1     -45.918  31.788  18.704  1.00  0.00     0.045 H 
ENDBRANCH  20  22
ENDBRANCH   6  20
ENDBRANCH   4   5
ENDBRANCH   1   4
BRANCH   1  26
ATOM     26  C   UNL     1     -46.751  35.906  27.514  1.00  0.00    -0.006 A 
ATOM     27  C   UNL     1     -46.759  35.631  28.884  1.00  0.00    -0.037 A 
ATOM     28  C   UNL     1     -46.239  37.142  27.093  1.00  0.00    -0.012 A 
ATOM     29  C   UNL     1     -46.252  36.580  29.754  1.00  0.00     0.030 A 
ATOM     30  H   UNL     1     -47.158  34.699  29.272  1.00  0.00     0.064 H 
ATOM     31  C   UNL     1     -45.707  38.027  28.026  1.00  0.00     0.138 A 
ATOM     32  H   UNL     1     -46.275  37.389  26.041  1.00  0.00     0.067 H 
ATOM     33  N   UNL     1     -45.731  37.761  29.359  1.00  0.00    -0.239 NA
ATOM     34  H   UNL     1     -46.248  36.408  30.827  1.00  0.00     0.084 H 
BRANCH  31  35
ATOM     35  N   UNL     1     -45.090  39.256  27.621  1.00  0.00    -0.284 N 
ATOM     36  C   UNL     1     -45.485  39.970  26.501  1.00  0.00     0.032 A 
ATOM     37  C   UNL     1     -44.063  39.970  28.234  1.00  0.00     0.152 A 
ATOM     38  C   UNL     1     -44.709  41.096  26.390  1.00  0.00     0.072 A 
ATOM     39  H   UNL     1     -46.284  39.600  25.872  1.00  0.00     0.084 H 
ATOM     40  C   UNL     1     -43.813  41.119  27.486  1.00  0.00     0.080 A 
ATOM     41  N   UNL     1     -43.424  39.644  29.375  1.00  0.00    -0.218 NA
ATOM     42  Cl  UNL     1     -44.817  42.261  25.156  1.00  0.00    -0.082 Cl
ATOM     43  C   UNL     1     -42.809  41.980  27.959  1.00  0.00     0.137 A 
ATOM     44  C   UNL     1     -42.498  40.539  29.736  1.00  0.00     0.120 A 
ATOM     45  N   UNL     1     -42.153  41.666  29.090  1.00  0.00    -0.219 NA
ATOM     46  H   UNL     1     -41.961  40.331  30.657  1.00  0.00     0.106 H 
BRANCH  43  47
ATOM     47  N   UNL     1     -42.438  43.158  27.330  1.00  0.00    -0.383 N 
ATOM     48  H   UNL     1     -41.916  43.055  26.470  1.00  0.00     0.158 HD
ATOM     49  H   UNL     1     -42.112  43.851  27.992  1.00  0.00     0.158 HD
ENDBRANCH  43  47
ENDBRANCH  31  35
ENDBRANCH   1  26
TORSDOF 7
ENDMDL
MODEL 2
REMARK VINA RESULT:     -10.1      1.579      2.105
REMARK SMILES CNc1ccc2ccc(OCc3ccnc(-n4cc(Cl)c5c(N)ncnc54)c3)cc2n1
REMARK SMILES IDX 11 1 10 4 9 5 3 6 4 7 31 8 5 9 30 11 6 12 29 14 7 15 8 17
REMARK SMILES IDX 2 20 1 22 12 26 13 27 28 28 14 29 16 31 15 33 17 35 18 36
REMARK SMILES IDX 27 37 19 38 21 40 26 41 20 42 22 43 25 44 24 45 23 47
REMARK H PARENT 11 2 11 3 4 10 5 13 29 16 7 18 8 19 2 21 1 23 1 24 1 25 13 30
REMARK H PARENT 28 32 14 34 18 39 25 46 23 48 23 49
REMARK Flexibility Score: inf
ROOT
ATOM      1  C   UNL     1     -48.159  35.784  27.030  1.00  0.00     0.113 C 
ATOM      2  H   UNL     1     -47.881  35.875  25.972  1.00  0.00     0.076 H 
ATOM      3  H   UNL     1     -49.166  36.208  27.118  1.00  0.00     0.076 H 
ENDROOT
BRANCH   1   4
ATOM      4  O   UNL     1     -48.175  34.380  27.307  1.00  0.00    -0.489 OA
BRANCH   4   5
ATOM      5  C   UNL     1     -47.715  33.517  26.350  1.00  0.00     0.122 A 
ATOM      6  C   UNL     1     -48.869  29.566  23.953  1.00  0.00     0.126 A 
ATOM      7  C   UNL     1     -47.727  29.658  23.165  1.00  0.00    -0.019 A 
ATOM      8  N   UNL     1     -49.126  30.458  24.930  1.00  0.00    -0.231 NA
ATOM      9  C   UNL     1     -46.838  30.708  23.370  1.00  0.00    -0.049 A 
ATOM     10  H   UNL     1     -47.524  28.915  22.402  1.00  0.00     0.066 H 
ATOM     11  C   UNL     1     -48.267  31.475  25.136  1.00  0.00     0.076 A 
ATOM     12  C   UNL     1     -47.102  31.648  24.368  1.00  0.00     0.001 A 
ATOM     13  H   UNL     1     -45.949  30.783  22.751  1.00  0.00     0.063 H 
ATOM     14  C   UNL     1     -48.538  32.407  26.127  1.00  0.00     0.007 A 
ATOM     15  C   UNL     1     -46.249  32.739  24.608  1.00  0.00    -0.049 A 
ATOM     16  H   UNL     1     -49.441  32.287  26.721  1.00  0.00     0.069 H 
ATOM     17  C   UNL     1     -46.558  33.675  25.595  1.00  0.00    -0.019 A 
ATOM     18  H   UNL     1     -45.346  32.872  24.016  1.00  0.00     0.063 H 
ATOM     19  H   UNL     1     -45.883  34.511  25.742  1.00  0.00     0.066 H 
BRANCH   6  20
ATOM     20  N   UNL     1     -49.738  28.483  23.727  1.00  0.00    -0.373 N 
ATOM     21  H   UNL     1     -49.837  27.955  24.589  1.00  0.00     0.161 HD
BRANCH  20  22
ATOM     22  C   UNL     1     -49.360  27.632  22.612  1.00  0.00     0.005 C 
ATOM     23  H   UNL     1     -49.891  27.909  21.695  1.00  0.00     0.045 H 
ATOM     24  H   UNL     1     -48.288  27.750  22.421  1.00  0.00     0.045 H 
ATOM     25  H   UNL     1     -49.537  26.574  22.836  1.00  0.00     0.045 H 
ENDBRANCH  20  22
ENDBRANCH   6  20
ENDBRANCH   4   5
ENDBRANCH   1   4
BRANCH   1  26
ATOM     26  C   UNL     1     -47.149  36.591  27.823  1.00  0.00    -0.006 A 
ATOM     27  C   UNL     1     -46.812  36.190  29.118  1.00  0.00    -0.037 A 
ATOM     28  C   UNL     1     -46.551  37.755  27.317  1.00  0.00    -0.012 A 
ATOM     29  C   UNL     1     -45.899  36.947  29.832  1.00  0.00     0.030 A 
ATOM     30  H   UNL     1     -47.254  35.308  29.570  1.00  0.00     0.064 H 
ATOM     31  C   UNL     1     -45.609  38.439  28.079  1.00  0.00     0.138 A 
ATOM     32  H   UNL     1     -46.842  38.105  26.336  1.00  0.00     0.067 H 
ATOM     33  N   UNL     1     -45.296  38.053  29.345  1.00  0.00    -0.239 NA
ATOM     34  H   UNL     1     -45.618  36.674  30.844  1.00  0.00     0.084 H 
BRANCH  31  35
ATOM     35  N   UNL     1     -44.910  39.576  27.557  1.00  0.00    -0.284 N 
ATOM     36  C   UNL     1     -45.239  40.183  26.355  1.00  0.00     0.032 A 
ATOM     37  C   UNL     1     -43.851  40.292  28.112  1.00  0.00     0.152 A 
ATOM     38  C   UNL     1     -44.392  41.241  26.140  1.00  0.00     0.072 A 
ATOM     39  H   UNL     1     -46.048  39.794  25.751  1.00  0.00     0.084 H 
ATOM     40  C   UNL     1     -43.516  41.333  27.249  1.00  0.00     0.080 A 
ATOM     41  N   UNL     1     -43.254  40.057  29.298  1.00  0.00    -0.218 NA
ATOM     42  Cl  UNL     1     -44.405  42.265  24.783  1.00  0.00    -0.082 Cl
ATOM     43  C   UNL     1     -42.470  42.179  27.649  1.00  0.00     0.137 A 
ATOM     44  C   UNL     1     -42.281  40.930  29.581  1.00  0.00     0.120 A 
ATOM     45  N   UNL     1     -41.855  41.955  28.824  1.00  0.00    -0.219 NA
ATOM     46  H   UNL     1     -41.775  40.794  30.533  1.00  0.00     0.106 H 
BRANCH  43  47
ATOM     47  N   UNL     1     -42.015  43.255  26.903  1.00  0.00    -0.383 N 
ATOM     48  H   UNL     1     -41.960  44.140  27.390  1.00  0.00     0.158 HD
ATOM     49  H   UNL     1     -42.412  43.261  25.971  1.00  0.00     0.158 HD
ENDBRANCH  43  47
ENDBRANCH  31  35
ENDBRANCH   1  26
TORSDOF 7
ENDMDL
MODEL 3
REMARK VINA RESULT:     -10.0      3.042     10.303
REMARK SMILES CNc1ccc2ccc(OCc3ccnc(-n4cc(Cl)c5c(N)ncnc54)c3)cc2n1
REMARK SMILES IDX 11 1 10 4 9 5 3 6 4 7 31 8 5 9 30 11 6 12 29 14 7 15 8 17
REMARK SMILES IDX 2 20 1 22 12 26 13 27 28 28 14 29 16 31 15 33 17 35 18 36
REMARK SMILES IDX 27 37 19 38 21 40 26 41 20 42 22 43 25 44 24 45 23 47
REMARK H PARENT 11 2 11 3 4 10 5 13 29 16 7 18 8 19 2 21 1 23 1 24 1 25 13 30
REMARK H PARENT 28 32 14 34 18 39 25 46 23 48 23 49
REMARK Flexibility Score: inf
ROOT
ATOM      1  C   UNL     1     -47.160  36.483  26.811  1.00  0.00     0.113 C 
ATOM      2  H   UNL     1     -48.119  36.684  26.314  1.00  0.00     0.076 H 
ATOM      3  H   UNL     1     -46.391  36.955  26.189  1.00  0.00     0.076 H 
ENDROOT
BRANCH   1   4
ATOM      4  O   UNL     1     -47.243  37.125  28.087  1.00  0.00    -0.489 OA
BRANCH   4   5
ATOM      5  C   UNL     1     -46.126  37.736  28.588  1.00  0.00     0.122 A 
ATOM      6  C   UNL     1     -43.091  41.318  27.779  1.00  0.00     0.126 A 
ATOM      7  C   UNL     1     -42.424  41.079  28.975  1.00  0.00    -0.019 A 
ATOM      8  N   UNL     1     -44.127  40.550  27.383  1.00  0.00    -0.231 NA
ATOM      9  C   UNL     1     -42.845  40.041  29.798  1.00  0.00    -0.049 A 
ATOM     10  H   UNL     1     -41.575  41.691  29.262  1.00  0.00     0.066 H 
ATOM     11  C   UNL     1     -44.538  39.540  28.175  1.00  0.00     0.076 A 
ATOM     12  C   UNL     1     -43.928  39.250  29.408  1.00  0.00     0.001 A 
ATOM     13  H   UNL     1     -42.327  39.859  30.736  1.00  0.00     0.063 H 
ATOM     14  C   UNL     1     -45.616  38.760  27.782  1.00  0.00     0.007 A 
ATOM     15  C   UNL     1     -44.408  38.199  30.209  1.00  0.00    -0.049 A 
ATOM     16  H   UNL     1     -46.100  38.983  26.834  1.00  0.00     0.069 H 
ATOM     17  C   UNL     1     -45.510  37.446  29.800  1.00  0.00    -0.019 A 
ATOM     18  H   UNL     1     -43.935  37.972  31.161  1.00  0.00     0.063 H 
ATOM     19  H   UNL     1     -45.860  36.653  30.450  1.00  0.00     0.066 H 
BRANCH   6  20
ATOM     20  N   UNL     1     -42.628  42.366  26.965  1.00  0.00    -0.373 N 
ATOM     21  H   UNL     1     -41.623  42.458  27.085  1.00  0.00     0.161 HD
BRANCH  20  22
ATOM     22  C   UNL     1     -43.313  43.632  27.166  1.00  0.00     0.005 C 
ATOM     23  H   UNL     1     -42.857  44.435  26.577  1.00  0.00     0.045 H 
ATOM     24  H   UNL     1     -44.352  43.529  26.834  1.00  0.00     0.045 H 
ATOM     25  H   UNL     1     -43.334  43.914  28.224  1.00  0.00     0.045 H 
ENDBRANCH  20  22
ENDBRANCH   6  20
ENDBRANCH   4   5
ENDBRANCH   1   4
BRANCH   1  26
ATOM     26  C   UNL     1     -46.991  34.976  26.851  1.00  0.00    -0.006 A 
ATOM     27  C   UNL     1     -46.309  34.390  27.919  1.00  0.00    -0.037 A 
ATOM     28  C   UNL     1     -47.470  34.137  25.834  1.00  0.00    -0.012 A 
ATOM     29  C   UNL     1     -46.150  33.015  27.931  1.00  0.00     0.030 A 
ATOM     30  H   UNL     1     -45.900  34.988  28.727  1.00  0.00     0.064 H 
ATOM     31  C   UNL     1     -47.310  32.759  25.939  1.00  0.00     0.138 A 
ATOM     32  H   UNL     1     -47.954  34.584  24.976  1.00  0.00     0.067 H 
ATOM     33  N   UNL     1     -46.631  32.194  26.973  1.00  0.00    -0.239 NA
ATOM     34  H   UNL     1     -45.619  32.521  28.739  1.00  0.00     0.084 H 
BRANCH  31  35
ATOM     35  N   UNL     1     -47.870  31.867  24.967  1.00  0.00    -0.284 N 
ATOM     36  C   UNL     1     -49.128  31.300  25.092  1.00  0.00     0.032 A 
ATOM     37  C   UNL     1     -47.333  31.433  23.756  1.00  0.00     0.152 A 
ATOM     38  C   UNL     1     -49.373  30.504  24.001  1.00  0.00     0.072 A 
ATOM     39  H   UNL     1     -49.736  31.508  25.963  1.00  0.00     0.084 H 
ATOM     40  C   UNL     1     -48.253  30.589  23.139  1.00  0.00     0.080 A 
ATOM     41  N   UNL     1     -46.142  31.784  23.232  1.00  0.00    -0.218 NA
ATOM     42  Cl  UNL     1     -50.781  29.590  23.734  1.00  0.00    -0.082 Cl
ATOM     43  C   UNL     1     -47.892  30.058  21.890  1.00  0.00     0.137 A 
ATOM     44  C   UNL     1     -45.908  31.229  22.037  1.00  0.00     0.120 A 
ATOM     45  N   UNL     1     -46.702  30.387  21.355  1.00  0.00    -0.219 NA
ATOM     46  H   UNL     1     -44.965  31.489  21.563  1.00  0.00     0.106 H 
BRANCH  43  47
ATOM     47  N   UNL     1     -48.691  29.201  21.151  1.00  0.00    -0.383 N 
ATOM     48  H   UNL     1     -48.347  28.256  21.045  1.00  0.00     0.158 HD
ATOM     49  H   UNL     1     -49.067  29.654  20.327  1.00  0.00     0.158 HD
ENDBRANCH  43  47
ENDBRANCH  31  35
ENDBRANCH   1  26
TORSDOF 7
ENDMDL
MODEL 4
REMARK VINA RESULT:      -9.9      1.796      2.541
REMARK SMILES CNc1ccc2ccc(OCc3ccnc(-n4cc(Cl)c5c(N)ncnc54)c3)cc2n1
REMARK SMILES IDX 11 1 10 4 9 5 3 6 4 7 31 8 5 9 30 11 6 12 29 14 7 15 8 17
REMARK SMILES IDX 2 20 1 22 12 26 13 27 28 28 14 29 16 31 15 33 17 35 18 36
REMARK SMILES IDX 27 37 19 38 21 40 26 41 20 42 22 43 25 44 24 45 23 47
REMARK H PARENT 11 2 11 3 4 10 5 13 29 16 7 18 8 19 2 21 1 23 1 24 1 25 13 30
REMARK H PARENT 28 32 14 34 18 39 25 46 23 48 23 49
REMARK Flexibility Score: inf
ROOT
ATOM      1  C   UNL     1     -46.236  35.208  28.282  1.00  0.00     0.113 C 
ATOM      2  H   UNL     1     -47.189  34.736  28.552  1.00  0.00     0.076 H 
ATOM      3  H   UNL     1     -45.544  34.990  29.104  1.00  0.00     0.076 H 
ENDROOT
BRANCH   1   4
ATOM      4  O   UNL     1     -45.811  34.560  27.079  1.00  0.00    -0.489 OA
BRANCH   4   5
ATOM      5  C   UNL     1     -46.725  33.829  26.369  1.00  0.00     0.122 A 
ATOM      6  C   UNL     1     -47.095  30.531  22.951  1.00  0.00     0.126 A 
ATOM      7  C   UNL     1     -48.473  30.453  23.116  1.00  0.00    -0.019 A 
ATOM      8  N   UNL     1     -46.345  31.386  23.676  1.00  0.00    -0.231 NA
ATOM      9  C   UNL     1     -49.095  31.255  24.067  1.00  0.00    -0.049 A 
ATOM     10  H   UNL     1     -49.063  29.778  22.505  1.00  0.00     0.066 H 
ATOM     11  C   UNL     1     -46.941  32.168  24.596  1.00  0.00     0.076 A 
ATOM     12  C   UNL     1     -48.326  32.131  24.836  1.00  0.00     0.001 A 
ATOM     13  H   UNL     1     -50.171  31.189  24.200  1.00  0.00     0.063 H 
ATOM     14  C   UNL     1     -46.172  33.035  25.358  1.00  0.00     0.007 A 
ATOM     15  C   UNL     1     -48.898  32.952  25.823  1.00  0.00    -0.049 A 
ATOM     16  H   UNL     1     -45.098  33.064  25.186  1.00  0.00     0.069 H 
ATOM     17  C   UNL     1     -48.096  33.797  26.592  1.00  0.00    -0.019 A 
ATOM     18  H   UNL     1     -49.970  32.927  26.007  1.00  0.00     0.063 H 
ATOM     19  H   UNL     1     -48.572  34.405  27.353  1.00  0.00     0.066 H 
BRANCH   6  20
ATOM     20  N   UNL     1     -46.503  29.716  21.970  1.00  0.00    -0.373 N 
ATOM     21  H   UNL     1     -47.093  28.903  21.817  1.00  0.00     0.161 HD
BRANCH  20  22
ATOM     22  C   UNL     1     -45.128  29.340  22.251  1.00  0.00     0.005 C 
ATOM     23  H   UNL     1     -44.540  29.246  21.332  1.00  0.00     0.045 H 
ATOM     24  H   UNL     1     -44.663  30.121  22.862  1.00  0.00     0.045 H 
ATOM     25  H   UNL     1     -45.075  28.405  22.821  1.00  0.00     0.045 H 
ENDBRANCH  20  22
ENDBRANCH   6  20
ENDBRANCH   4   5
ENDBRANCH   1   4
BRANCH   1  26
ATOM     26  C   UNL     1     -46.498  36.697  28.160  1.00  0.00    -0.006 A 
ATOM     27  C   UNL     1     -47.812  37.168  28.192  1.00  0.00    -0.037 A 
ATOM     28  C   UNL     1     -45.467  37.631  27.986  1.00  0.00    -0.012 A 
ATOM     29  C   UNL     1     -48.033  38.528  28.064  1.00  0.00     0.030 A 
ATOM     30  H   UNL     1     -48.654  36.492  28.307  1.00  0.00     0.064 H 
ATOM     31  C   UNL     1     -45.765  38.988  27.909  1.00  0.00     0.138 A 
ATOM     32  H   UNL     1     -44.448  37.274  27.908  1.00  0.00     0.067 H 
ATOM     33  N   UNL     1     -47.047  39.440  27.925  1.00  0.00    -0.239 NA
ATOM     34  H   UNL     1     -49.040  38.934  28.075  1.00  0.00     0.084 H 
BRANCH  31  35
ATOM     35  N   UNL     1     -44.730  39.976  27.827  1.00  0.00    -0.284 N 
ATOM     36  C   UNL     1     -43.681  40.054  28.730  1.00  0.00     0.032 A 
ATOM     37  C   UNL     1     -44.540  40.977  26.876  1.00  0.00     0.152 A 
ATOM     38  C   UNL     1     -42.861  41.096  28.376  1.00  0.00     0.072 A 
ATOM     39  H   UNL     1     -43.621  39.359  29.557  1.00  0.00     0.084 H 
ATOM     40  C   UNL     1     -43.382  41.682  27.197  1.00  0.00     0.080 A 
ATOM     41  N   UNL     1     -45.314  41.222  25.800  1.00  0.00    -0.218 NA
ATOM     42  Cl  UNL     1     -41.460  41.584  29.207  1.00  0.00    -0.082 Cl
ATOM     43  C   UNL     1     -43.017  42.731  26.339  1.00  0.00     0.137 A 
ATOM     44  C   UNL     1     -44.865  42.234  25.047  1.00  0.00     0.120 A 
ATOM     45  N   UNL     1     -43.782  42.998  25.265  1.00  0.00    -0.219 NA
ATOM     46  H   UNL     1     -45.445  42.465  24.159  1.00  0.00     0.106 H 
BRANCH  43  47
ATOM     47  N   UNL     1     -41.898  43.529  26.521  1.00  0.00    -0.383 N 
ATOM     48  H   UNL     1     -41.278  43.609  25.726  1.00  0.00     0.158 HD
ATOM     49  H   UNL     1     -41.475  43.380  27.429  1.00  0.00     0.158 HD
ENDBRANCH  43  47
ENDBRANCH  31  35
ENDBRANCH   1  26
TORSDOF 7
ENDMDL
MODEL 5
REMARK VINA RESULT:      -9.7      1.960      3.146
REMARK SMILES CNc1ccc2ccc(OCc3ccnc(-n4cc(Cl)c5c(N)ncnc54)c3)cc2n1
REMARK SMILES IDX 11 1 10 4 9 5 3 6 4 7 31 8 5 9 30 11 6 12 29 14 7 15 8 17
REMARK SMILES IDX 2 20 1 22 12 26 13 27 28 28 14 29 16 31 15 33 17 35 18 36
REMARK SMILES IDX 27 37 19 38 21 40 26 41 20 42 22 43 25 44 24 45 23 47
REMARK H PARENT 11 2 11 3 4 10 5 13 29 16 7 18 8 19 2 21 1 23 1 24 1 25 13 30
REMARK H PARENT 28 32 14 34 18 39 25 46 23 48 23 49
REMARK Flexibility Score: inf
ROOT
ATOM      1  C   UNL     1     -46.514  36.521  28.342  1.00  0.00     0.113 C 
ATOM      2  H   UNL     1     -47.436  36.715  28.906  1.00  0.00     0.076 H 
ATOM      3  H   UNL     1     -46.146  35.547  28.686  1.00  0.00     0.076 H 
ENDROOT
BRANCH   1   4
ATOM      4  O   UNL     1     -46.908  36.456  26.968  1.00  0.00    -0.489 OA
BRANCH   4   5
ATOM      5  C   UNL     1     -47.450  35.291  26.495  1.00  0.00     0.122 A 
ATOM      6  C   UNL     1     -46.409  31.391  23.965  1.00  0.00     0.126 A 
ATOM      7  C   UNL     1     -47.663  30.843  24.214  1.00  0.00    -0.019 A 
ATOM      8  N   UNL     1     -46.067  32.610  24.431  1.00  0.00    -0.231 NA
ATOM      9  C   UNL     1     -48.579  31.553  24.982  1.00  0.00    -0.049 A 
ATOM     10  H   UNL     1     -47.929  29.874  23.807  1.00  0.00     0.066 H 
ATOM     11  C   UNL     1     -46.951  33.304  25.173  1.00  0.00     0.076 A 
ATOM     12  C   UNL     1     -48.230  32.808  25.485  1.00  0.00     0.001 A 
ATOM     13  H   UNL     1     -49.557  31.122  25.181  1.00  0.00     0.063 H 
ATOM     14  C   UNL     1     -46.597  34.549  25.671  1.00  0.00     0.007 A 
ATOM     15  C   UNL     1     -49.109  33.562  26.281  1.00  0.00    -0.049 A 
ATOM     16  H   UNL     1     -45.607  34.937  25.443  1.00  0.00     0.069 H 
ATOM     17  C   UNL     1     -48.717  34.801  26.789  1.00  0.00    -0.019 A 
ATOM     18  H   UNL     1     -50.099  33.181  26.520  1.00  0.00     0.063 H 
ATOM     19  H   UNL     1     -49.418  35.347  27.411  1.00  0.00     0.066 H 
BRANCH   6  20
ATOM     20  N   UNL     1     -45.513  30.652  23.173  1.00  0.00    -0.373 N 
ATOM     21  H   UNL     1     -45.234  31.217  22.376  1.00  0.00     0.161 HD
BRANCH  20  22
ATOM     22  C   UNL     1     -46.007  29.347  22.765  1.00  0.00     0.005 C 
ATOM     23  H   UNL     1     -46.529  29.397  21.804  1.00  0.00     0.045 H 
ATOM     24  H   UNL     1     -45.156  28.668  22.645  1.00  0.00     0.045 H 
ATOM     25  H   UNL     1     -46.667  28.912  23.523  1.00  0.00     0.045 H 
ENDBRANCH  20  22
ENDBRANCH   6  20
ENDBRANCH   4   5
ENDBRANCH   1   4
BRANCH   1  26
ATOM     26  C   UNL     1     -45.542  37.633  28.688  1.00  0.00    -0.006 A 
ATOM     27  C   UNL     1     -44.796  37.552  29.866  1.00  0.00    -0.037 A 
ATOM     28  C   UNL     1     -45.377  38.767  27.879  1.00  0.00    -0.012 A 
ATOM     29  C   UNL     1     -43.925  38.583  30.172  1.00  0.00     0.030 A 
ATOM     30  H   UNL     1     -44.892  36.707  30.540  1.00  0.00     0.064 H 
ATOM     31  C   UNL     1     -44.449  39.742  28.232  1.00  0.00     0.138 A 
ATOM     32  H   UNL     1     -45.987  38.866  26.991  1.00  0.00     0.067 H 
ATOM     33  N   UNL     1     -43.737  39.666  29.388  1.00  0.00    -0.239 NA
ATOM     34  H   UNL     1     -43.334  38.563  31.083  1.00  0.00     0.084 H 
BRANCH  31  35
ATOM     35  N   UNL     1     -44.187  40.866  27.382  1.00  0.00    -0.284 N 
ATOM     36  C   UNL     1     -42.912  41.243  26.993  1.00  0.00     0.032 A 
ATOM     37  C   UNL     1     -45.087  41.740  26.774  1.00  0.00     0.152 A 
ATOM     38  C   UNL     1     -42.998  42.345  26.180  1.00  0.00     0.072 A 
ATOM     39  H   UNL     1     -42.049  40.692  27.343  1.00  0.00     0.084 H 
ATOM     40  C   UNL     1     -44.368  42.665  26.020  1.00  0.00     0.080 A 
ATOM     41  N   UNL     1     -46.432  41.698  26.860  1.00  0.00    -0.218 NA
ATOM     42  Cl  UNL     1     -41.686  43.171  25.482  1.00  0.00    -0.082 Cl
ATOM     43  C   UNL     1     -45.111  43.627  25.318  1.00  0.00     0.137 A 
ATOM     44  C   UNL     1     -47.035  42.654  26.143  1.00  0.00     0.120 A 
ATOM     45  N   UNL     1     -46.453  43.609  25.399  1.00  0.00    -0.219 NA
ATOM     46  H   UNL     1     -48.121  42.658  26.166  1.00  0.00     0.106 H 
BRANCH  43  47
ATOM     47  N   UNL     1     -44.547  44.617  24.528  1.00  0.00    -0.383 N 
ATOM     48  H   UNL     1     -45.033  45.503  24.516  1.00  0.00     0.158 HD
ATOM     49  H   UNL     1     -44.225  44.251  23.640  1.00  0.00     0.158 HD
ENDBRANCH  43  47
ENDBRANCH  31  35
ENDBRANCH   1  26
TORSDOF 7
ENDMDL
MODEL 6
REMARK VINA RESULT:      -9.7      3.086     10.172
REMARK SMILES CNc1ccc2ccc(OCc3ccnc(-n4cc(Cl)c5c(N)ncnc54)c3)cc2n1
REMARK SMILES IDX 11 1 10 4 9 5 3 6 4 7 31 8 5 9 30 11 6 12 29 14 7 15 8 17
REMARK SMILES IDX 2 20 1 22 12 26 13 27 28 28 14 29 16 31 15 33 17 35 18 36
REMARK SMILES IDX 27 37 19 38 21 40 26 41 20 42 22 43 25 44 24 45 23 47
REMARK H PARENT 11 2 11 3 4 10 5 13 29 16 7 18 8 19 2 21 1 23 1 24 1 25 13 30
REMARK H PARENT 28 32 14 34 18 39 25 46 23 48 23 49
REMARK Flexibility Score: inf
ROOT
ATOM      1  C   UNL     1     -47.547  37.208  27.259  1.00  0.00     0.113 C 
ATOM      2  H   UNL     1     -47.547  37.567  28.296  1.00  0.00     0.076 H 
ATOM      3  H   UNL     1     -48.579  37.308  26.903  1.00  0.00     0.076 H 
ENDROOT
BRANCH   1   4
ATOM      4  O   UNL     1     -46.678  38.092  26.544  1.00  0.00    -0.489 OA
BRANCH   4   5
ATOM      5  C   UNL     1     -45.671  38.718  27.228  1.00  0.00     0.122 A 
ATOM      6  C   UNL     1     -42.509  42.265  26.892  1.00  0.00     0.126 A 
ATOM      7  C   UNL     1     -42.084  42.067  28.201  1.00  0.00    -0.019 A 
ATOM      8  N   UNL     1     -43.457  41.486  26.333  1.00  0.00    -0.231 NA
ATOM      9  C   UNL     1     -42.663  41.059  28.963  1.00  0.00    -0.049 A 
ATOM     10  H   UNL     1     -41.301  42.687  28.624  1.00  0.00     0.066 H 
ATOM     11  C   UNL     1     -44.020  40.505  27.065  1.00  0.00     0.076 A 
ATOM     12  C   UNL     1     -43.657  40.256  28.401  1.00  0.00     0.001 A 
ATOM     13  H   UNL     1     -42.334  40.908  29.987  1.00  0.00     0.063 H 
ATOM     14  C   UNL     1     -45.009  39.714  26.500  1.00  0.00     0.007 A 
ATOM     15  C   UNL     1     -44.290  39.235  29.130  1.00  0.00    -0.049 A 
ATOM     16  H   UNL     1     -45.302  39.904  25.471  1.00  0.00     0.069 H 
ATOM     17  C   UNL     1     -45.300  38.469  28.544  1.00  0.00    -0.019 A 
ATOM     18  H   UNL     1     -44.009  39.039  30.161  1.00  0.00     0.063 H 
ATOM     19  H   UNL     1     -45.774  37.699  29.142  1.00  0.00     0.066 H 
BRANCH   6  20
ATOM     20  N   UNL     1     -41.891  43.285  26.147  1.00  0.00    -0.373 N 
ATOM     21  H   UNL     1     -41.393  43.902  26.782  1.00  0.00     0.161 HD
BRANCH  20  22
ATOM     22  C   UNL     1     -42.789  44.019  25.272  1.00  0.00     0.005 C 
ATOM     23  H   UNL     1     -43.626  44.456  25.828  1.00  0.00     0.045 H 
ATOM     24  H   UNL     1     -42.236  44.843  24.806  1.00  0.00     0.045 H 
ATOM     25  H   UNL     1     -43.172  43.385  24.464  1.00  0.00     0.045 H 
ENDBRANCH  20  22
ENDBRANCH   6  20
ENDBRANCH   4   5
ENDBRANCH   1   4
BRANCH   1  26
ATOM     26  C   UNL     1     -47.112  35.756  27.293  1.00  0.00    -0.006 A 
ATOM     27  C   UNL     1     -46.549  35.234  28.460  1.00  0.00    -0.037 A 
ATOM     28  C   UNL     1     -47.224  34.909  26.180  1.00  0.00    -0.012 A 
ATOM     29  C   UNL     1     -46.143  33.911  28.468  1.00  0.00     0.030 A 
ATOM     30  H   UNL     1     -46.420  35.844  29.348  1.00  0.00     0.064 H 
ATOM     31  C   UNL     1     -46.834  33.577  26.279  1.00  0.00     0.138 A 
ATOM     32  H   UNL     1     -47.610  35.316  25.254  1.00  0.00     0.067 H 
ATOM     33  N   UNL     1     -46.272  33.079  27.412  1.00  0.00    -0.239 NA
ATOM     34  H   UNL     1     -45.693  33.470  29.352  1.00  0.00     0.084 H 
BRANCH  31  35
ATOM     35  N   UNL     1     -47.023  32.663  25.192  1.00  0.00    -0.284 N 
ATOM     36  C   UNL     1     -45.975  32.104  24.478  1.00  0.00     0.032 A 
ATOM     37  C   UNL     1     -48.208  32.143  24.673  1.00  0.00     0.152 A 
ATOM     38  C   UNL     1     -46.482  31.271  23.513  1.00  0.00     0.072 A 
ATOM     39  H   UNL     1     -44.952  32.363  24.719  1.00  0.00     0.084 H 
ATOM     40  C   UNL     1     -47.893  31.273  23.631  1.00  0.00     0.080 A 
ATOM     41  N   UNL     1     -49.458  32.397  25.109  1.00  0.00    -0.218 NA
ATOM     42  Cl  UNL     1     -45.569  30.387  22.384  1.00  0.00    -0.082 Cl
ATOM     43  C   UNL     1     -48.966  30.636  22.988  1.00  0.00     0.137 A 
ATOM     44  C   UNL     1     -50.398  31.728  24.432  1.00  0.00     0.120 A 
ATOM     45  N   UNL     1     -50.222  30.885  23.401  1.00  0.00    -0.219 NA
ATOM     46  H   UNL     1     -51.424  31.887  24.751  1.00  0.00     0.106 H 
BRANCH  43  47
ATOM     47  N   UNL     1     -48.821  29.748  21.933  1.00  0.00    -0.383 N 
ATOM     48  H   UNL     1     -47.965  29.827  21.402  1.00  0.00     0.158 HD
ATOM     49  H   UNL     1     -49.683  29.640  21.413  1.00  0.00     0.158 HD
ENDBRANCH  43  47
ENDBRANCH  31  35
ENDBRANCH   1  26
TORSDOF 7
ENDMDL
MODEL 7
REMARK VINA RESULT:      -9.5      3.671     10.632
REMARK SMILES CNc1ccc2ccc(OCc3ccnc(-n4cc(Cl)c5c(N)ncnc54)c3)cc2n1
REMARK SMILES IDX 11 1 10 4 9 5 3 6 4 7 31 8 5 9 30 11 6 12 29 14 7 15 8 17
REMARK SMILES IDX 2 20 1 22 12 26 13 27 28 28 14 29 16 31 15 33 17 35 18 36
REMARK SMILES IDX 27 37 19 38 21 40 26 41 20 42 22 43 25 44 24 45 23 47
REMARK H PARENT 11 2 11 3 4 10 5 13 29 16 7 18 8 19 2 21 1 23 1 24 1 25 13 30
REMARK H PARENT 28 32 14 34 18 39 25 46 23 48 23 49
REMARK Flexibility Score: inf
ROOT
ATOM      1  C   UNL     1     -48.378  35.170  27.173  1.00  0.00     0.113 C 
ATOM      2  H   UNL     1     -49.434  35.000  27.422  1.00  0.00     0.076 H 
ATOM      3  H   UNL     1     -48.339  36.136  26.656  1.00  0.00     0.076 H 
ENDROOT
BRANCH   1   4
ATOM      4  O   UNL     1     -47.691  35.239  28.426  1.00  0.00    -0.489 OA
BRANCH   4   5
ATOM      5  C   UNL     1     -46.764  36.228  28.613  1.00  0.00     0.122 A 
ATOM      6  C   UNL     1     -45.028  40.203  26.640  1.00  0.00     0.126 A 
ATOM      7  C   UNL     1     -44.209  40.440  27.738  1.00  0.00    -0.019 A 
ATOM      8  N   UNL     1     -45.821  39.113  26.574  1.00  0.00    -0.231 NA
ATOM      9  C   UNL     1     -44.221  39.550  28.806  1.00  0.00    -0.049 A 
ATOM     10  H   UNL     1     -43.558  41.308  27.760  1.00  0.00     0.066 H 
ATOM     11  C   UNL     1     -45.834  38.245  27.604  1.00  0.00     0.076 A 
ATOM     12  C   UNL     1     -45.050  38.428  28.757  1.00  0.00     0.001 A 
ATOM     13  H   UNL     1     -43.584  39.740  29.666  1.00  0.00     0.063 H 
ATOM     14  C   UNL     1     -46.662  37.134  27.550  1.00  0.00     0.007 A 
ATOM     15  C   UNL     1     -45.116  37.505  29.815  1.00  0.00    -0.049 A 
ATOM     16  H   UNL     1     -47.279  36.989  26.667  1.00  0.00     0.069 H 
ATOM     17  C   UNL     1     -45.976  36.408  29.744  1.00  0.00    -0.019 A 
ATOM     18  H   UNL     1     -44.507  37.644  30.705  1.00  0.00     0.063 H 
ATOM     19  H   UNL     1     -46.010  35.725  30.585  1.00  0.00     0.066 H 
BRANCH   6  20
ATOM     20  N   UNL     1     -44.980  41.116  25.573  1.00  0.00    -0.373 N 
ATOM     21  H   UNL     1     -44.811  40.606  24.710  1.00  0.00     0.161 HD
BRANCH  20  22
ATOM     22  C   UNL     1     -44.031  42.202  25.752  1.00  0.00     0.005 C 
ATOM     23  H   UNL     1     -44.531  43.128  26.057  1.00  0.00     0.045 H 
ATOM     24  H   UNL     1     -43.327  41.930  26.546  1.00  0.00     0.045 H 
ATOM     25  H   UNL     1     -43.446  42.379  24.844  1.00  0.00     0.045 H 
ENDBRANCH  20  22
ENDBRANCH   6  20
ENDBRANCH   4   5
ENDBRANCH   1   4
BRANCH   1  26
ATOM     26  C   UNL     1     -47.952  34.037  26.259  1.00  0.00    -0.006 A 
ATOM     27  C   UNL     1     -46.608  33.913  25.900  1.00  0.00    -0.037 A 
ATOM     28  C   UNL     1     -48.864  33.113  25.729  1.00  0.00    -0.012 A 
ATOM     29  C   UNL     1     -46.240  32.882  25.053  1.00  0.00     0.030 A 
ATOM     30  H   UNL     1     -45.858  34.607  26.264  1.00  0.00     0.064 H 
ATOM     31  C   UNL     1     -48.411  32.077  24.919  1.00  0.00     0.138 A 
ATOM     32  H   UNL     1     -49.915  33.230  25.958  1.00  0.00     0.067 H 
ATOM     33  N   UNL     1     -47.104  31.970  24.559  1.00  0.00    -0.239 NA
ATOM     34  H   UNL     1     -45.207  32.756  24.742  1.00  0.00     0.084 H 
BRANCH  31  35
ATOM     35  N   UNL     1     -49.302  31.062  24.438  1.00  0.00    -0.284 N 
ATOM     36  C   UNL     1     -50.221  31.277  23.423  1.00  0.00     0.032 A 
ATOM     37  C   UNL     1     -49.410  29.728  24.827  1.00  0.00     0.152 A 
ATOM     38  C   UNL     1     -50.914  30.115  23.192  1.00  0.00     0.072 A 
ATOM     39  H   UNL     1     -50.305  32.251  22.961  1.00  0.00     0.084 H 
ATOM     40  C   UNL     1     -50.404  29.121  24.063  1.00  0.00     0.080 A 
ATOM     41  N   UNL     1     -48.668  29.098  25.760  1.00  0.00    -0.218 NA
ATOM     42  Cl  UNL     1     -52.159  29.910  22.052  1.00  0.00    -0.082 Cl
ATOM     43  C   UNL     1     -50.651  27.760  24.304  1.00  0.00     0.137 A 
ATOM     44  C   UNL     1     -48.981  27.805  25.898  1.00  0.00     0.120 A 
ATOM     45  N   UNL     1     -49.928  27.117  25.239  1.00  0.00    -0.219 NA
ATOM     46  H   UNL     1     -48.403  27.246  26.628  1.00  0.00     0.106 H 
BRANCH  43  47
ATOM     47  N   UNL     1     -51.607  27.014  23.633  1.00  0.00    -0.383 N 
ATOM     48  H   UNL     1     -51.275  26.476  22.844  1.00  0.00     0.158 HD
ATOM     49  H   UNL     1     -52.470  27.530  23.513  1.00  0.00     0.158 HD
ENDBRANCH  43  47
ENDBRANCH  31  35
ENDBRANCH   1  26
TORSDOF 7
ENDMDL
