MODEL 1
REMARK VINA RESULT:     -10.3      0.000      0.000
REMARK SMILES CC(C)c1cc(N)c2ccc(OCc3cncc(-c4c[nH]c5c(N)ncnc45)c3)cc2n1
REMARK SMILES IDX 13 1 12 4 11 5 4 6 5 7 32 8 6 9 31 11 8 12 30 13 9 14 10 16
REMARK SMILES IDX 2 19 1 21 3 25 7 29 14 32 15 33 29 34 16 35 18 37 17 39
REMARK SMILES IDX 19 41 20 42 28 43 21 44 22 46 27 47 23 49 26 50 25 51 24 53
REMARK H PARENT 13 2 13 3 5 10 30 15 9 17 10 18 2 20 1 22 1 23 1 24 3 26 3 27
REMARK H PARENT 3 28 7 30 7 31 15 36 29 38 17 40 20 45 21 48 26 52 24 54 24 55
REMARK Flexibility Score: inf
ROOT
ATOM      1  C   UNL     1     -47.901  35.369  26.590  1.00  0.00     0.115 C 
ATOM      2  H   UNL     1     -47.305  35.308  25.671  1.00  0.00     0.076 H 
ATOM      3  H   UNL     1     -48.842  35.854  26.303  1.00  0.00     0.076 H 
ENDROOT
BRANCH   1   4
ATOM      4  O   UNL     1     -48.124  34.024  27.021  1.00  0.00    -0.489 OA
BRANCH   4   5
ATOM      5  C   UNL     1     -47.838  33.002  26.159  1.00  0.00     0.122 A 
ATOM      6  C   UNL     1     -48.534  28.717  24.213  1.00  0.00     0.046 A 
ATOM      7  C   UNL     1     -47.428  28.830  23.385  1.00  0.00    -0.017 A 
ATOM      8  N   UNL     1     -48.903  29.707  25.059  1.00  0.00    -0.252 NA
ATOM      9  C   UNL     1     -46.692  30.014  23.385  1.00  0.00     0.043 A 
ATOM     10  H   UNL     1     -47.146  28.018  22.723  1.00  0.00     0.066 H 
ATOM     11  C   UNL     1     -48.166  30.828  25.112  1.00  0.00     0.076 A 
ATOM     12  C   UNL     1     -47.028  31.036  24.304  1.00  0.00     0.023 A 
ATOM     13  C   UNL     1     -48.549  31.810  26.019  1.00  0.00     0.007 A 
ATOM     14  C   UNL     1     -46.302  32.238  24.459  1.00  0.00    -0.047 A 
ATOM     15  H   UNL     1     -49.424  31.597  26.624  1.00  0.00     0.069 H 
ATOM     16  C   UNL     1     -46.707  33.205  25.378  1.00  0.00    -0.019 A 
ATOM     17  H   UNL     1     -45.413  32.437  23.869  1.00  0.00     0.063 H 
ATOM     18  H   UNL     1     -46.134  34.125  25.482  1.00  0.00     0.066 H 
BRANCH   6  19
ATOM     19  C   UNL     1     -49.372  27.454  24.205  1.00  0.00    -0.004 C 
ATOM     20  H   UNL     1     -49.269  26.961  23.230  1.00  0.00     0.036 H 
BRANCH  19  21
ATOM     21  C   UNL     1     -48.885  26.474  25.275  1.00  0.00    -0.057 C 
ATOM     22  H   UNL     1     -48.604  26.989  26.200  1.00  0.00     0.024 H 
ATOM     23  H   UNL     1     -49.669  25.750  25.520  1.00  0.00     0.024 H 
ATOM     24  H   UNL     1     -48.010  25.916  24.925  1.00  0.00     0.024 H 
ENDBRANCH  19  21
BRANCH  19  25
ATOM     25  C   UNL     1     -50.852  27.783  24.403  1.00  0.00    -0.057 C 
ATOM     26  H   UNL     1     -51.187  28.579  23.728  1.00  0.00     0.024 H 
ATOM     27  H   UNL     1     -51.477  26.902  24.214  1.00  0.00     0.024 H 
ATOM     28  H   UNL     1     -51.041  28.115  25.430  1.00  0.00     0.024 H 
ENDBRANCH  19  25
ENDBRANCH   6  19
BRANCH   9  29
ATOM     29  N   UNL     1     -45.512  30.038  22.606  1.00  0.00    -0.398 N 
ATOM     30  H   UNL     1     -45.579  30.755  21.885  1.00  0.00     0.156 HD
ATOM     31  H   UNL     1     -45.307  29.142  22.174  1.00  0.00     0.156 HD
ENDBRANCH   9  29
ENDBRANCH   4   5
ENDBRANCH   1   4
BRANCH   1  32
ATOM     32  C   UNL     1     -47.112  36.175  27.586  1.00  0.00     0.008 A 
ATOM     33  C   UNL     1     -46.944  35.745  28.898  1.00  0.00     0.033 A 
ATOM     34  C   UNL     1     -46.473  37.363  27.210  1.00  0.00    -0.045 A 
ATOM     35  N   UNL     1     -46.217  36.406  29.825  1.00  0.00    -0.264 NA
ATOM     36  H   UNL     1     -47.404  34.825  29.253  1.00  0.00     0.084 H 
ATOM     37  C   UNL     1     -45.718  38.088  28.137  1.00  0.00     0.004 A 
ATOM     38  H   UNL     1     -46.574  37.727  26.189  1.00  0.00     0.063 H 
ATOM     39  C   UNL     1     -45.626  37.558  29.422  1.00  0.00     0.035 A 
ATOM     40  H   UNL     1     -45.044  38.048  30.197  1.00  0.00     0.085 H 
BRANCH  37  41
ATOM     41  C   UNL     1     -45.059  39.331  27.764  1.00  0.00     0.027 A 
ATOM     42  C   UNL     1     -45.411  40.082  26.654  1.00  0.00     0.011 A 
ATOM     43  C   UNL     1     -43.970  40.016  28.387  1.00  0.00     0.101 A 
ATOM     44  N   UNL     1     -44.589  41.180  26.597  1.00  0.00    -0.356 N 
ATOM     45  H   UNL     1     -46.169  39.934  25.895  1.00  0.00     0.082 H 
ATOM     46  C   UNL     1     -43.693  41.150  27.634  1.00  0.00     0.108 A 
ATOM     47  N   UNL     1     -43.274  39.706  29.505  1.00  0.00    -0.234 NA
ATOM     48  H   UNL     1     -44.639  41.917  25.906  1.00  0.00     0.166 HD
ATOM     49  C   UNL     1     -42.674  42.008  28.010  1.00  0.00     0.151 A 
ATOM     50  C   UNL     1     -42.322  40.601  29.801  1.00  0.00     0.118 A 
ATOM     51  N   UNL     1     -41.987  41.716  29.123  1.00  0.00    -0.218 NA
ATOM     52  H   UNL     1     -41.745  40.403  30.700  1.00  0.00     0.106 H 
BRANCH  49  53
ATOM     53  N   UNL     1     -42.316  43.141  27.295  1.00  0.00    -0.382 N 
ATOM     54  H   UNL     1     -42.385  44.001  27.822  1.00  0.00     0.158 HD
ATOM     55  H   UNL     1     -42.829  43.149  26.418  1.00  0.00     0.158 HD
ENDBRANCH  49  53
ENDBRANCH  37  41
ENDBRANCH   1  32
TORSDOF 9
ENDMDL
MODEL 2
REMARK VINA RESULT:     -10.1      2.029     11.116
REMARK SMILES CC(C)c1cc(N)c2ccc(OCc3cncc(-c4c[nH]c5c(N)ncnc45)c3)cc2n1
REMARK SMILES IDX 13 1 12 4 11 5 4 6 5 7 32 8 6 9 31 11 8 12 30 13 9 14 10 16
REMARK SMILES IDX 2 19 1 21 3 25 7 29 14 32 15 33 29 34 16 35 18 37 17 39
REMARK SMILES IDX 19 41 20 42 28 43 21 44 22 46 27 47 23 49 26 50 25 51 24 53
REMARK H PARENT 13 2 13 3 5 10 30 15 9 17 10 18 2 20 1 22 1 23 1 24 3 26 3 27
REMARK H PARENT 3 28 7 30 7 31 15 36 29 38 17 40 20 45 21 48 26 52 24 54 24 55
REMARK Flexibility Score: inf
ROOT
ATOM      1  C   UNL     1     -46.686  36.739  26.690  1.00  0.00     0.115 C 
ATOM      2  H   UNL     1     -47.642  37.010  26.226  1.00  0.00     0.076 H 
ATOM      3  H   UNL     1     -45.910  37.127  26.020  1.00  0.00     0.076 H 
ENDROOT
BRANCH   1   4
ATOM      4  O   UNL     1     -46.648  37.396  27.960  1.00  0.00    -0.489 OA
BRANCH   4   5
ATOM      5  C   UNL     1     -45.665  38.317  28.194  1.00  0.00     0.122 A 
ATOM      6  C   UNL     1     -43.074  42.171  27.165  1.00  0.00     0.046 A 
ATOM      7  C   UNL     1     -42.272  42.024  28.286  1.00  0.00    -0.017 A 
ATOM      8  N   UNL     1     -44.093  41.324  26.894  1.00  0.00    -0.252 NA
ATOM      9  C   UNL     1     -42.543  41.000  29.191  1.00  0.00     0.043 A 
ATOM     10  H   UNL     1     -41.452  42.710  28.475  1.00  0.00     0.066 H 
ATOM     11  C   UNL     1     -44.326  40.297  27.726  1.00  0.00     0.076 A 
ATOM     12  C   UNL     1     -43.567  40.070  28.895  1.00  0.00     0.023 A 
ATOM     13  C   UNL     1     -45.357  39.422  27.401  1.00  0.00     0.007 A 
ATOM     14  C   UNL     1     -43.873  38.942  29.688  1.00  0.00    -0.047 A 
ATOM     15  H   UNL     1     -45.902  39.635  26.487  1.00  0.00     0.069 H 
ATOM     16  C   UNL     1     -44.910  38.079  29.336  1.00  0.00    -0.019 A 
ATOM     17  H   UNL     1     -43.308  38.719  30.588  1.00  0.00     0.063 H 
ATOM     18  H   UNL     1     -45.130  37.216  29.961  1.00  0.00     0.066 H 
BRANCH   6  19
ATOM     19  C   UNL     1     -42.821  43.299  26.184  1.00  0.00    -0.004 C 
ATOM     20  H   UNL     1     -42.747  44.245  26.736  1.00  0.00     0.036 H 
BRANCH  19  21
ATOM     21  C   UNL     1     -41.499  43.088  25.444  1.00  0.00    -0.057 C 
ATOM     22  H   UNL     1     -40.820  43.938  25.574  1.00  0.00     0.024 H 
ATOM     23  H   UNL     1     -40.989  42.192  25.813  1.00  0.00     0.024 H 
ATOM     24  H   UNL     1     -41.668  42.959  24.369  1.00  0.00     0.024 H 
ENDBRANCH  19  21
BRANCH  19  25
ATOM     25  C   UNL     1     -43.981  43.431  25.197  1.00  0.00    -0.057 C 
ATOM     26  H   UNL     1     -43.633  43.441  24.158  1.00  0.00     0.024 H 
ATOM     27  H   UNL     1     -44.683  42.596  25.304  1.00  0.00     0.024 H 
ATOM     28  H   UNL     1     -44.535  44.360  25.372  1.00  0.00     0.024 H 
ENDBRANCH  19  25
ENDBRANCH   6  19
BRANCH   9  29
ATOM     29  N   UNL     1     -41.630  40.825  30.258  1.00  0.00    -0.398 N 
ATOM     30  H   UNL     1     -40.819  40.294  29.944  1.00  0.00     0.156 HD
ATOM     31  H   UNL     1     -42.047  40.363  31.060  1.00  0.00     0.156 HD
ENDBRANCH   9  29
ENDBRANCH   4   5
ENDBRANCH   1   4
BRANCH   1  32
ATOM     32  C   UNL     1     -46.653  35.240  26.811  1.00  0.00     0.008 A 
ATOM     33  C   UNL     1     -46.064  34.612  27.904  1.00  0.00     0.033 A 
ATOM     34  C   UNL     1     -47.264  34.423  25.851  1.00  0.00    -0.045 A 
ATOM     35  N   UNL     1     -46.037  33.273  28.084  1.00  0.00    -0.264 NA
ATOM     36  H   UNL     1     -45.582  35.187  28.692  1.00  0.00     0.084 H 
ATOM     37  C   UNL     1     -47.253  33.032  25.990  1.00  0.00     0.004 A 
ATOM     38  H   UNL     1     -47.743  34.879  24.987  1.00  0.00     0.063 H 
ATOM     39  C   UNL     1     -46.629  32.521  27.124  1.00  0.00     0.035 A 
ATOM     40  H   UNL     1     -46.592  31.453  27.318  1.00  0.00     0.085 H 
BRANCH  37  41
ATOM     41  C   UNL     1     -47.872  32.171  24.993  1.00  0.00     0.027 A 
ATOM     42  C   UNL     1     -49.189  31.743  25.060  1.00  0.00     0.011 A 
ATOM     43  C   UNL     1     -47.319  31.591  23.810  1.00  0.00     0.101 A 
ATOM     44  N   UNL     1     -49.440  30.947  23.971  1.00  0.00    -0.356 N 
ATOM     45  H   UNL     1     -49.970  31.928  25.787  1.00  0.00     0.082 H 
ATOM     46  C   UNL     1     -48.309  30.828  23.205  1.00  0.00     0.108 A 
ATOM     47  N   UNL     1     -46.078  31.706  23.285  1.00  0.00    -0.234 NA
ATOM     48  H   UNL     1     -50.329  30.520  23.747  1.00  0.00     0.166 HD
ATOM     49  C   UNL     1     -48.048  30.145  22.030  1.00  0.00     0.151 A 
ATOM     50  C   UNL     1     -45.922  31.028  22.139  1.00  0.00     0.118 A 
ATOM     51  N   UNL     1     -46.824  30.263  21.495  1.00  0.00    -0.218 NA
ATOM     52  H   UNL     1     -44.944  31.102  21.671  1.00  0.00     0.106 H 
BRANCH  49  53
ATOM     53  N   UNL     1     -48.972  29.339  21.383  1.00  0.00    -0.382 N 
ATOM     54  H   UNL     1     -48.679  29.026  20.468  1.00  0.00     0.158 HD
ATOM     55  H   UNL     1     -49.876  29.805  21.393  1.00  0.00     0.158 HD
ENDBRANCH  49  53
ENDBRANCH  37  41
ENDBRANCH   1  32
TORSDOF 9
ENDMDL
MODEL 3
REMARK VINA RESULT:     -10.0      2.086     10.847
REMARK SMILES CC(C)c1cc(N)c2ccc(OCc3cncc(-c4c[nH]c5c(N)ncnc45)c3)cc2n1
REMARK SMILES IDX 13 1 12 4 11 5 4 6 5 7 32 8 6 9 31 11 8 12 30 13 9 14 10 16
REMARK SMILES IDX 2 19 1 21 3 25 7 29 14 32 15 33 29 34 16 35 18 37 17 39
REMARK SMILES IDX 19 41 20 42 28 43 21 44 22 46 27 47 23 49 26 50 25 51 24 53
REMARK H PARENT 13 2 13 3 5 10 30 15 9 17 10 18 2 20 1 22 1 23 1 24 3 26 3 27
REMARK H PARENT 3 28 7 30 7 31 15 36 29 38 17 40 20 45 21 48 26 52 24 54 24 55
REMARK Flexibility Score: inf
ROOT
ATOM      1  C   UNL     1     -48.227  36.380  27.410  1.00  0.00     0.115 C 
ATOM      2  H   UNL     1     -49.223  36.241  27.848  1.00  0.00     0.076 H 
ATOM      3  H   UNL     1     -48.385  36.947  26.485  1.00  0.00     0.076 H 
ENDROOT
BRANCH   1   4
ATOM      4  O   UNL     1     -47.468  37.138  28.356  1.00  0.00    -0.489 OA
BRANCH   4   5
ATOM      5  C   UNL     1     -46.782  38.237  27.920  1.00  0.00     0.122 A 
ATOM      6  C   UNL     1     -43.142  41.299  27.932  1.00  0.00     0.046 A 
ATOM      7  C   UNL     1     -43.706  42.090  26.944  1.00  0.00    -0.017 A 
ATOM      8  N   UNL     1     -43.743  40.173  28.381  1.00  0.00    -0.252 NA
ATOM      9  C   UNL     1     -44.909  41.699  26.358  1.00  0.00     0.043 A 
ATOM     10  H   UNL     1     -43.211  42.996  26.608  1.00  0.00     0.066 H 
ATOM     11  C   UNL     1     -44.931  39.818  27.868  1.00  0.00     0.076 A 
ATOM     12  C   UNL     1     -45.579  40.557  26.855  1.00  0.00     0.023 A 
ATOM     13  C   UNL     1     -45.541  38.677  28.377  1.00  0.00     0.007 A 
ATOM     14  C   UNL     1     -46.844  40.117  26.404  1.00  0.00    -0.047 A 
ATOM     15  H   UNL     1     -45.006  38.151  29.162  1.00  0.00     0.069 H 
ATOM     16  C   UNL     1     -47.434  38.970  26.934  1.00  0.00    -0.019 A 
ATOM     17  H   UNL     1     -47.387  40.659  25.637  1.00  0.00     0.063 H 
ATOM     18  H   UNL     1     -48.407  38.646  26.573  1.00  0.00     0.066 H 
BRANCH   6  19
ATOM     19  C   UNL     1     -41.817  41.684  28.559  1.00  0.00    -0.004 C 
ATOM     20  H   UNL     1     -41.815  42.763  28.762  1.00  0.00     0.036 H 
BRANCH  19  21
ATOM     21  C   UNL     1     -41.618  40.961  29.893  1.00  0.00    -0.057 C 
ATOM     22  H   UNL     1     -40.614  40.530  29.976  1.00  0.00     0.024 H 
ATOM     23  H   UNL     1     -41.756  41.652  30.731  1.00  0.00     0.024 H 
ATOM     24  H   UNL     1     -42.341  40.145  30.007  1.00  0.00     0.024 H 
ENDBRANCH  19  21
BRANCH  19  25
ATOM     25  C   UNL     1     -40.659  41.391  27.605  1.00  0.00    -0.057 C 
ATOM     26  H   UNL     1     -40.094  42.298  27.359  1.00  0.00     0.024 H 
ATOM     27  H   UNL     1     -39.959  40.673  28.047  1.00  0.00     0.024 H 
ATOM     28  H   UNL     1     -41.029  40.964  26.666  1.00  0.00     0.024 H 
ENDBRANCH  19  25
ENDBRANCH   6  19
BRANCH   9  29
ATOM     29  N   UNL     1     -45.497  42.596  25.435  1.00  0.00    -0.398 N 
ATOM     30  H   UNL     1     -46.382  42.946  25.799  1.00  0.00     0.156 HD
ATOM     31  H   UNL     1     -45.649  42.178  24.522  1.00  0.00     0.156 HD
ENDBRANCH   9  29
ENDBRANCH   4   5
ENDBRANCH   1   4
BRANCH   1  32
ATOM     32  C   UNL     1     -47.649  35.014  27.162  1.00  0.00     0.008 A 
ATOM     33  C   UNL     1     -46.656  34.486  27.980  1.00  0.00     0.033 A 
ATOM     34  C   UNL     1     -48.132  34.201  26.128  1.00  0.00    -0.045 A 
ATOM     35  N   UNL     1     -46.126  33.252  27.829  1.00  0.00    -0.264 NA
ATOM     36  H   UNL     1     -46.244  35.058  28.808  1.00  0.00     0.084 H 
ATOM     37  C   UNL     1     -47.608  32.921  25.926  1.00  0.00     0.004 A 
ATOM     38  H   UNL     1     -48.916  34.577  25.473  1.00  0.00     0.063 H 
ATOM     39  C   UNL     1     -46.613  32.505  26.808  1.00  0.00     0.035 A 
ATOM     40  H   UNL     1     -46.166  31.518  26.733  1.00  0.00     0.085 H 
BRANCH  37  41
ATOM     41  C   UNL     1     -48.090  32.071  24.847  1.00  0.00     0.027 A 
ATOM     42  C   UNL     1     -49.427  31.756  24.658  1.00  0.00     0.011 A 
ATOM     43  C   UNL     1     -47.367  31.397  23.816  1.00  0.00     0.101 A 
ATOM     44  N   UNL     1     -49.526  30.937  23.561  1.00  0.00    -0.356 N 
ATOM     45  H   UNL     1     -50.317  32.036  25.207  1.00  0.00     0.082 H 
ATOM     46  C   UNL     1     -48.280  30.692  23.044  1.00  0.00     0.108 A 
ATOM     47  N   UNL     1     -46.040  31.387  23.550  1.00  0.00    -0.234 NA
ATOM     48  H   UNL     1     -50.387  30.575  23.174  1.00  0.00     0.166 HD
ATOM     49  C   UNL     1     -47.852  29.941  21.963  1.00  0.00     0.151 A 
ATOM     50  C   UNL     1     -45.721  30.650  22.477  1.00  0.00     0.118 A 
ATOM     51  N   UNL     1     -46.541  29.934  21.684  1.00  0.00    -0.218 NA
ATOM     52  H   UNL     1     -44.667  30.623  22.215  1.00  0.00     0.106 H 
BRANCH  49  53
ATOM     53  N   UNL     1     -48.698  29.185  21.164  1.00  0.00    -0.382 N 
ATOM     54  H   UNL     1     -49.365  28.629  21.679  1.00  0.00     0.158 HD
ATOM     55  H   UNL     1     -48.135  28.655  20.505  1.00  0.00     0.158 HD
ENDBRANCH  49  53
ENDBRANCH  37  41
ENDBRANCH   1  32
TORSDOF 9
ENDMDL
MODEL 4
REMARK VINA RESULT:      -9.6      2.029     10.797
REMARK SMILES CC(C)c1cc(N)c2ccc(OCc3cncc(-c4c[nH]c5c(N)ncnc45)c3)cc2n1
REMARK SMILES IDX 13 1 12 4 11 5 4 6 5 7 32 8 6 9 31 11 8 12 30 13 9 14 10 16
REMARK SMILES IDX 2 19 1 21 3 25 7 29 14 32 15 33 29 34 16 35 18 37 17 39
REMARK SMILES IDX 19 41 20 42 28 43 21 44 22 46 27 47 23 49 26 50 25 51 24 53
REMARK H PARENT 13 2 13 3 5 10 30 15 9 17 10 18 2 20 1 22 1 23 1 24 3 26 3 27
REMARK H PARENT 3 28 7 30 7 31 15 36 29 38 17 40 20 45 21 48 26 52 24 54 24 55
REMARK Flexibility Score: inf
ROOT
ATOM      1  C   UNL     1     -45.763  36.228  29.264  1.00  0.00     0.115 C 
ATOM      2  H   UNL     1     -44.816  36.242  28.710  1.00  0.00     0.076 H 
ATOM      3  H   UNL     1     -45.586  35.592  30.140  1.00  0.00     0.076 H 
ENDROOT
BRANCH   1   4
ATOM      4  O   UNL     1     -46.029  37.579  29.650  1.00  0.00    -0.489 OA
BRANCH   4   5
ATOM      5  C   UNL     1     -45.224  38.572  29.166  1.00  0.00     0.122 A 
ATOM      6  C   UNL     1     -43.956  41.901  26.014  1.00  0.00     0.046 A 
ATOM      7  C   UNL     1     -42.799  42.224  26.707  1.00  0.00    -0.017 A 
ATOM      8  N   UNL     1     -44.821  40.961  26.458  1.00  0.00    -0.252 NA
ATOM      9  C   UNL     1     -42.533  41.596  27.923  1.00  0.00     0.043 A 
ATOM     10  H   UNL     1     -42.115  42.974  26.325  1.00  0.00     0.066 H 
ATOM     11  C   UNL     1     -44.544  40.306  27.596  1.00  0.00     0.076 A 
ATOM     12  C   UNL     1     -43.395  40.569  28.373  1.00  0.00     0.023 A 
ATOM     13  C   UNL     1     -45.433  39.318  28.006  1.00  0.00     0.007 A 
ATOM     14  C   UNL     1     -43.179  39.801  29.539  1.00  0.00    -0.047 A 
ATOM     15  H   UNL     1     -46.294  39.147  27.369  1.00  0.00     0.069 H 
ATOM     16  C   UNL     1     -44.086  38.815  29.925  1.00  0.00    -0.019 A 
ATOM     17  H   UNL     1     -42.303  39.959  30.160  1.00  0.00     0.063 H 
ATOM     18  H   UNL     1     -43.902  38.235  30.827  1.00  0.00     0.066 H 
BRANCH   6  19
ATOM     19  C   UNL     1     -44.286  42.597  24.709  1.00  0.00    -0.004 C 
ATOM     20  H   UNL     1     -44.606  41.848  23.973  1.00  0.00     0.036 H 
BRANCH  19  21
ATOM     21  C   UNL     1     -45.440  43.584  24.897  1.00  0.00    -0.057 C 
ATOM     22  H   UNL     1     -46.342  43.088  25.271  1.00  0.00     0.024 H 
ATOM     23  H   UNL     1     -45.166  44.365  25.614  1.00  0.00     0.024 H 
ATOM     24  H   UNL     1     -45.696  44.072  23.950  1.00  0.00     0.024 H 
ENDBRANCH  19  21
BRANCH  19  25
ATOM     25  C   UNL     1     -43.054  43.303  24.142  1.00  0.00    -0.057 C 
ATOM     26  H   UNL     1     -42.129  42.773  24.393  1.00  0.00     0.024 H 
ATOM     27  H   UNL     1     -43.111  43.375  23.050  1.00  0.00     0.024 H 
ATOM     28  H   UNL     1     -42.974  44.321  24.542  1.00  0.00     0.024 H 
ENDBRANCH  19  25
ENDBRANCH   6  19
BRANCH   9  29
ATOM     29  N   UNL     1     -41.288  41.879  28.534  1.00  0.00    -0.398 N 
ATOM     30  H   UNL     1     -41.387  42.647  29.196  1.00  0.00     0.156 HD
ATOM     31  H   UNL     1     -40.562  42.103  27.862  1.00  0.00     0.156 HD
ENDBRANCH   9  29
ENDBRANCH   4   5
ENDBRANCH   1   4
BRANCH   1  32
ATOM     32  C   UNL     1     -46.814  35.669  28.344  1.00  0.00     0.008 A 
ATOM     33  C   UNL     1     -48.103  36.191  28.312  1.00  0.00     0.033 A 
ATOM     34  C   UNL     1     -46.515  34.635  27.447  1.00  0.00    -0.045 A 
ATOM     35  N   UNL     1     -49.077  35.755  27.483  1.00  0.00    -0.264 NA
ATOM     36  H   UNL     1     -48.399  37.002  28.974  1.00  0.00     0.084 H 
ATOM     37  C   UNL     1     -47.493  34.144  26.576  1.00  0.00     0.004 A 
ATOM     38  H   UNL     1     -45.514  34.208  27.437  1.00  0.00     0.063 H 
ATOM     39  C   UNL     1     -48.747  34.745  26.640  1.00  0.00     0.035 A 
ATOM     40  H   UNL     1     -49.557  34.437  25.986  1.00  0.00     0.085 H 
BRANCH  37  41
ATOM     41  C   UNL     1     -47.199  33.062  25.649  1.00  0.00     0.027 A 
ATOM     42  C   UNL     1     -45.916  32.712  25.259  1.00  0.00     0.011 A 
ATOM     43  C   UNL     1     -48.085  32.180  24.956  1.00  0.00     0.101 A 
ATOM     44  N   UNL     1     -46.002  31.662  24.379  1.00  0.00    -0.356 N 
ATOM     45  H   UNL     1     -44.947  33.117  25.524  1.00  0.00     0.082 H 
ATOM     46  C   UNL     1     -47.317  31.334  24.168  1.00  0.00     0.108 A 
ATOM     47  N   UNL     1     -49.435  32.098  24.996  1.00  0.00    -0.234 NA
ATOM     48  H   UNL     1     -45.219  31.183  23.956  1.00  0.00     0.166 HD
ATOM     49  C   UNL     1     -47.921  30.368  23.382  1.00  0.00     0.151 A 
ATOM     50  C   UNL     1     -49.930  31.124  24.220  1.00  0.00     0.118 A 
ATOM     51  N   UNL     1     -49.257  30.271  23.424  1.00  0.00    -0.218 NA
ATOM     52  H   UNL     1     -51.010  31.010  24.230  1.00  0.00     0.106 H 
BRANCH  49  53
ATOM     53  N   UNL     1     -47.226  29.508  22.546  1.00  0.00    -0.382 N 
ATOM     54  H   UNL     1     -46.399  29.103  22.963  1.00  0.00     0.158 HD
ATOM     55  H   UNL     1     -47.056  29.978  21.661  1.00  0.00     0.158 HD
ENDBRANCH  49  53
ENDBRANCH  37  41
ENDBRANCH   1  32
TORSDOF 9
ENDMDL
MODEL 5
REMARK VINA RESULT:      -9.4      2.435     11.356
REMARK SMILES CC(C)c1cc(N)c2ccc(OCc3cncc(-c4c[nH]c5c(N)ncnc45)c3)cc2n1
REMARK SMILES IDX 13 1 12 4 11 5 4 6 5 7 32 8 6 9 31 11 8 12 30 13 9 14 10 16
REMARK SMILES IDX 2 19 1 21 3 25 7 29 14 32 15 33 29 34 16 35 18 37 17 39
REMARK SMILES IDX 19 41 20 42 28 43 21 44 22 46 27 47 23 49 26 50 25 51 24 53
REMARK H PARENT 13 2 13 3 5 10 30 15 9 17 10 18 2 20 1 22 1 23 1 24 3 26 3 27
REMARK H PARENT 3 28 7 30 7 31 15 36 29 38 17 40 20 45 21 48 26 52 24 54 24 55
REMARK Flexibility Score: inf
ROOT
ATOM      1  C   UNL     1     -46.065  32.712  24.223  1.00  0.00     0.115 C 
ATOM      2  H   UNL     1     -46.555  33.594  23.791  1.00  0.00     0.076 H 
ATOM      3  H   UNL     1     -44.993  32.847  24.038  1.00  0.00     0.076 H 
ENDROOT
BRANCH   1   4
ATOM      4  O   UNL     1     -46.354  32.730  25.624  1.00  0.00    -0.489 OA
BRANCH   4   5
ATOM      5  C   UNL     1     -46.771  33.901  26.193  1.00  0.00     0.122 A 
ATOM      6  C   UNL     1     -46.106  38.157  28.210  1.00  0.00     0.046 A 
ATOM      7  C   UNL     1     -47.464  38.364  28.400  1.00  0.00    -0.017 A 
ATOM      8  N   UNL     1     -45.625  37.043  27.614  1.00  0.00    -0.252 NA
ATOM      9  C   UNL     1     -48.372  37.419  27.926  1.00  0.00     0.043 A 
ATOM     10  H   UNL     1     -47.825  39.261  28.892  1.00  0.00     0.066 H 
ATOM     11  C   UNL     1     -46.486  36.097  27.207  1.00  0.00     0.076 A 
ATOM     12  C   UNL     1     -47.885  36.221  27.352  1.00  0.00     0.023 A 
ATOM     13  C   UNL     1     -45.958  34.946  26.632  1.00  0.00     0.007 A 
ATOM     14  C   UNL     1     -48.704  35.154  26.920  1.00  0.00    -0.047 A 
ATOM     15  H   UNL     1     -44.877  34.896  26.554  1.00  0.00     0.069 H 
ATOM     16  C   UNL     1     -48.148  34.010  26.349  1.00  0.00    -0.019 A 
ATOM     17  H   UNL     1     -49.784  35.198  27.023  1.00  0.00     0.063 H 
ATOM     18  H   UNL     1     -48.796  33.199  26.022  1.00  0.00     0.066 H 
BRANCH   6  19
ATOM     19  C   UNL     1     -45.101  39.188  28.685  1.00  0.00    -0.004 C 
ATOM     20  H   UNL     1     -45.636  40.020  29.160  1.00  0.00     0.036 H 
BRANCH  19  21
ATOM     21  C   UNL     1     -44.158  38.585  29.729  1.00  0.00    -0.057 C 
ATOM     22  H   UNL     1     -43.119  38.889  29.562  1.00  0.00     0.024 H 
ATOM     23  H   UNL     1     -44.443  38.904  30.736  1.00  0.00     0.024 H 
ATOM     24  H   UNL     1     -44.193  37.490  29.701  1.00  0.00     0.024 H 
ENDBRANCH  19  21
BRANCH  19  25
ATOM     25  C   UNL     1     -44.312  39.760  27.507  1.00  0.00    -0.057 C 
ATOM     26  H   UNL     1     -44.006  40.796  27.686  1.00  0.00     0.024 H 
ATOM     27  H   UNL     1     -43.405  39.173  27.321  1.00  0.00     0.024 H 
ATOM     28  H   UNL     1     -44.915  39.743  26.592  1.00  0.00     0.024 H 
ENDBRANCH  19  25
ENDBRANCH   6  19
BRANCH   9  29
ATOM     29  N   UNL     1     -49.736  37.621  28.242  1.00  0.00    -0.398 N 
ATOM     30  H   UNL     1     -50.284  36.804  27.977  1.00  0.00     0.156 HD
ATOM     31  H   UNL     1     -50.124  38.447  27.798  1.00  0.00     0.156 HD
ENDBRANCH   9  29
ENDBRANCH   4   5
ENDBRANCH   1   4
BRANCH   1  32
ATOM     32  C   UNL     1     -46.627  31.501  23.530  1.00  0.00     0.008 A 
ATOM     33  C   UNL     1     -46.192  31.122  22.264  1.00  0.00     0.033 A 
ATOM     34  C   UNL     1     -47.571  30.680  24.160  1.00  0.00    -0.045 A 
ATOM     35  N   UNL     1     -46.632  30.025  21.609  1.00  0.00    -0.264 NA
ATOM     36  H   UNL     1     -45.452  31.708  21.723  1.00  0.00     0.084 H 
ATOM     37  C   UNL     1     -48.064  29.540  23.517  1.00  0.00     0.004 A 
ATOM     38  H   UNL     1     -47.929  30.940  25.154  1.00  0.00     0.063 H 
ATOM     39  C   UNL     1     -47.555  29.267  22.250  1.00  0.00     0.035 A 
ATOM     40  H   UNL     1     -47.870  28.391  21.690  1.00  0.00     0.085 H 
BRANCH  37  41
ATOM     41  C   UNL     1     -49.055  28.686  24.154  1.00  0.00     0.027 A 
ATOM     42  C   UNL     1     -50.423  28.870  24.025  1.00  0.00     0.011 A 
ATOM     43  C   UNL     1     -48.879  27.556  25.010  1.00  0.00     0.101 A 
ATOM     44  N   UNL     1     -51.060  27.899  24.755  1.00  0.00    -0.356 N 
ATOM     45  H   UNL     1     -51.003  29.608  23.484  1.00  0.00     0.082 H 
ATOM     46  C   UNL     1     -50.137  27.097  25.377  1.00  0.00     0.108 A 
ATOM     47  N   UNL     1     -47.743  26.959  25.438  1.00  0.00    -0.234 NA
ATOM     48  H   UNL     1     -52.061  27.773  24.820  1.00  0.00     0.166 HD
ATOM     49  C   UNL     1     -50.268  26.001  26.211  1.00  0.00     0.151 A 
ATOM     50  C   UNL     1     -47.966  25.897  26.224  1.00  0.00     0.118 A 
ATOM     51  N   UNL     1     -49.148  25.396  26.631  1.00  0.00    -0.218 NA
ATOM     52  H   UNL     1     -47.083  25.375  26.582  1.00  0.00     0.106 H 
BRANCH  49  53
ATOM     53  N   UNL     1     -51.486  25.503  26.648  1.00  0.00    -0.382 N 
ATOM     54  H   UNL     1     -52.276  26.094  26.429  1.00  0.00     0.158 HD
ATOM     55  H   UNL     1     -51.407  25.263  27.632  1.00  0.00     0.158 HD
ENDBRANCH  49  53
ENDBRANCH  37  41
ENDBRANCH   1  32
TORSDOF 9
ENDMDL
MODEL 6
REMARK VINA RESULT:      -9.4      1.689      2.405
REMARK SMILES CC(C)c1cc(N)c2ccc(OCc3cncc(-c4c[nH]c5c(N)ncnc45)c3)cc2n1
REMARK SMILES IDX 13 1 12 4 11 5 4 6 5 7 32 8 6 9 31 11 8 12 30 13 9 14 10 16
REMARK SMILES IDX 2 19 1 21 3 25 7 29 14 32 15 33 29 34 16 35 18 37 17 39
REMARK SMILES IDX 19 41 20 42 28 43 21 44 22 46 27 47 23 49 26 50 25 51 24 53
REMARK H PARENT 13 2 13 3 5 10 30 15 9 17 10 18 2 20 1 22 1 23 1 24 3 26 3 27
REMARK H PARENT 3 28 7 30 7 31 15 36 29 38 17 40 20 45 21 48 26 52 24 54 24 55
REMARK Flexibility Score: inf
ROOT
ATOM      1  C   UNL     1     -47.380  35.782  28.007  1.00  0.00     0.115 C 
ATOM      2  H   UNL     1     -47.518  35.532  29.066  1.00  0.00     0.076 H 
ATOM      3  H   UNL     1     -46.395  35.386  27.734  1.00  0.00     0.076 H 
ENDROOT
BRANCH   1   4
ATOM      4  O   UNL     1     -48.423  35.115  27.291  1.00  0.00    -0.489 OA
BRANCH   4   5
ATOM      5  C   UNL     1     -48.088  34.109  26.429  1.00  0.00     0.122 A 
ATOM      6  C   UNL     1     -48.908  30.111  23.985  1.00  0.00     0.046 A 
ATOM      7  C   UNL     1     -47.630  30.086  23.450  1.00  0.00    -0.017 A 
ATOM      8  N   UNL     1     -49.323  31.099  24.810  1.00  0.00    -0.252 NA
ATOM      9  C   UNL     1     -46.750  31.130  23.731  1.00  0.00     0.043 A 
ATOM     10  H   UNL     1     -47.316  29.275  22.800  1.00  0.00     0.066 H 
ATOM     11  C   UNL     1     -48.466  32.079  25.137  1.00  0.00     0.076 A 
ATOM     12  C   UNL     1     -47.147  32.141  24.638  1.00  0.00     0.023 A 
ATOM     13  C   UNL     1     -48.910  33.060  26.017  1.00  0.00     0.007 A 
ATOM     14  C   UNL     1     -46.312  33.197  25.069  1.00  0.00    -0.047 A 
ATOM     15  H   UNL     1     -49.927  32.960  26.380  1.00  0.00     0.069 H 
ATOM     16  C   UNL     1     -46.783  34.166  25.954  1.00  0.00    -0.019 A 
ATOM     17  H   UNL     1     -45.287  33.279  24.722  1.00  0.00     0.063 H 
ATOM     18  H   UNL     1     -46.125  34.971  26.273  1.00  0.00     0.066 H 
BRANCH   6  19
ATOM     19  C   UNL     1     -49.895  29.005  23.665  1.00  0.00    -0.004 C 
ATOM     20  H   UNL     1     -49.744  28.678  22.628  1.00  0.00     0.036 H 
BRANCH  19  21
ATOM     21  C   UNL     1     -49.665  27.795  24.572  1.00  0.00    -0.057 C 
ATOM     22  H   UNL     1     -48.604  27.659  24.808  1.00  0.00     0.024 H 
ATOM     23  H   UNL     1     -50.206  27.913  25.517  1.00  0.00     0.024 H 
ATOM     24  H   UNL     1     -50.021  26.875  24.095  1.00  0.00     0.024 H 
ENDBRANCH  19  21
BRANCH  19  25
ATOM     25  C   UNL     1     -51.333  29.509  23.785  1.00  0.00    -0.057 C 
ATOM     26  H   UNL     1     -51.951  28.838  24.392  1.00  0.00     0.024 H 
ATOM     27  H   UNL     1     -51.363  30.501  24.251  1.00  0.00     0.024 H 
ATOM     28  H   UNL     1     -51.799  29.589  22.796  1.00  0.00     0.024 H 
ENDBRANCH  19  25
ENDBRANCH   6  19
BRANCH   9  29
ATOM     29  N   UNL     1     -45.425  31.002  23.254  1.00  0.00    -0.398 N 
ATOM     30  H   UNL     1     -44.867  31.805  23.541  1.00  0.00     0.156 HD
ATOM     31  H   UNL     1     -45.378  30.901  22.245  1.00  0.00     0.156 HD
ENDBRANCH   9  29
ENDBRANCH   4   5
ENDBRANCH   1   4
BRANCH   1  32
ATOM     32  C   UNL     1     -47.458  37.280  27.884  1.00  0.00     0.008 A 
ATOM     33  C   UNL     1     -48.664  37.958  28.020  1.00  0.00     0.033 A 
ATOM     34  C   UNL     1     -46.304  38.049  27.681  1.00  0.00    -0.045 A 
ATOM     35  N   UNL     1     -48.789  39.302  27.956  1.00  0.00    -0.264 NA
ATOM     36  H   UNL     1     -49.596  37.423  28.191  1.00  0.00     0.084 H 
ATOM     37  C   UNL     1     -46.385  39.443  27.598  1.00  0.00     0.004 A 
ATOM     38  H   UNL     1     -45.341  37.554  27.579  1.00  0.00     0.063 H 
ATOM     39  C   UNL     1     -47.650  40.007  27.746  1.00  0.00     0.035 A 
ATOM     40  H   UNL     1     -47.797  41.082  27.714  1.00  0.00     0.085 H 
BRANCH  37  41
ATOM     41  C   UNL     1     -45.197  40.253  27.374  1.00  0.00     0.027 A 
ATOM     42  C   UNL     1     -43.976  40.009  27.982  1.00  0.00     0.011 A 
ATOM     43  C   UNL     1     -45.017  41.411  26.557  1.00  0.00     0.101 A 
ATOM     44  N   UNL     1     -43.083  40.960  27.556  1.00  0.00    -0.356 N 
ATOM     45  H   UNL     1     -43.660  39.247  28.684  1.00  0.00     0.082 H 
ATOM     46  C   UNL     1     -43.702  41.835  26.700  1.00  0.00     0.108 A 
ATOM     47  N   UNL     1     -45.895  42.052  25.752  1.00  0.00    -0.234 NA
ATOM     48  H   UNL     1     -42.107  41.009  27.815  1.00  0.00     0.166 HD
ATOM     49  C   UNL     1     -43.246  42.947  26.015  1.00  0.00     0.151 A 
ATOM     50  C   UNL     1     -45.362  43.103  25.115  1.00  0.00     0.118 A 
ATOM     51  N   UNL     1     -44.106  43.581  25.205  1.00  0.00    -0.218 NA
ATOM     52  H   UNL     1     -46.026  43.642  24.445  1.00  0.00     0.106 H 
BRANCH  49  53
ATOM     53  N   UNL     1     -41.958  43.450  26.129  1.00  0.00    -0.382 N 
ATOM     54  H   UNL     1     -41.232  42.768  25.963  1.00  0.00     0.158 HD
ATOM     55  H   UNL     1     -41.876  43.938  27.017  1.00  0.00     0.158 HD
ENDBRANCH  49  53
ENDBRANCH  37  41
ENDBRANCH   1  32
TORSDOF 9
ENDMDL
MODEL 7
REMARK VINA RESULT:      -9.4      2.051      3.227
REMARK SMILES CC(C)c1cc(N)c2ccc(OCc3cncc(-c4c[nH]c5c(N)ncnc45)c3)cc2n1
REMARK SMILES IDX 13 1 12 4 11 5 4 6 5 7 32 8 6 9 31 11 8 12 30 13 9 14 10 16
REMARK SMILES IDX 2 19 1 21 3 25 7 29 14 32 15 33 29 34 16 35 18 37 17 39
REMARK SMILES IDX 19 41 20 42 28 43 21 44 22 46 27 47 23 49 26 50 25 51 24 53
REMARK H PARENT 13 2 13 3 5 10 30 15 9 17 10 18 2 20 1 22 1 23 1 24 3 26 3 27
REMARK H PARENT 3 28 7 30 7 31 15 36 29 38 17 40 20 45 21 48 26 52 24 54 24 55
REMARK Flexibility Score: inf
ROOT
ATOM      1  C   UNL     1     -46.791  33.865  26.294  1.00  0.00     0.115 C 
ATOM      2  H   UNL     1     -45.813  33.546  26.675  1.00  0.00     0.076 H 
ATOM      3  H   UNL     1     -46.676  33.940  25.206  1.00  0.00     0.076 H 
ENDROOT
BRANCH   1   4
ATOM      4  O   UNL     1     -47.721  32.836  26.645  1.00  0.00    -0.489 OA
BRANCH   4   5
ATOM      5  C   UNL     1     -47.988  31.853  25.734  1.00  0.00     0.122 A 
ATOM      6  C   UNL     1     -48.691  30.154  21.347  1.00  0.00     0.046 A 
ATOM      7  C   UNL     1     -48.951  28.872  21.803  1.00  0.00    -0.017 A 
ATOM      8  N   UNL     1     -48.377  31.167  22.187  1.00  0.00    -0.252 NA
ATOM      9  C   UNL     1     -48.844  28.596  23.165  1.00  0.00     0.043 A 
ATOM     10  H   UNL     1     -49.213  28.079  21.110  1.00  0.00     0.066 H 
ATOM     11  C   UNL     1     -48.331  30.928  23.507  1.00  0.00     0.076 A 
ATOM     12  C   UNL     1     -48.574  29.654  24.065  1.00  0.00     0.023 A 
ATOM     13  C   UNL     1     -48.042  31.997  24.348  1.00  0.00     0.007 A 
ATOM     14  C   UNL     1     -48.533  29.514  25.470  1.00  0.00    -0.047 A 
ATOM     15  H   UNL     1     -47.874  32.957  23.871  1.00  0.00     0.069 H 
ATOM     16  C   UNL     1     -48.244  30.605  26.290  1.00  0.00    -0.019 A 
ATOM     17  H   UNL     1     -48.726  28.558  25.945  1.00  0.00     0.063 H 
ATOM     18  H   UNL     1     -48.216  30.476  27.370  1.00  0.00     0.066 H 
BRANCH   6  19
ATOM     19  C   UNL     1     -48.764  30.470  19.866  1.00  0.00    -0.004 C 
ATOM     20  H   UNL     1     -48.528  29.565  19.293  1.00  0.00     0.036 H 
BRANCH  19  21
ATOM     21  C   UNL     1     -50.176  30.912  19.476  1.00  0.00    -0.057 C 
ATOM     22  H   UNL     1     -50.917  30.615  20.226  1.00  0.00     0.024 H 
ATOM     23  H   UNL     1     -50.225  32.001  19.370  1.00  0.00     0.024 H 
ATOM     24  H   UNL     1     -50.475  30.468  18.520  1.00  0.00     0.024 H 
ENDBRANCH  19  21
BRANCH  19  25
ATOM     25  C   UNL     1     -47.737  31.538  19.487  1.00  0.00    -0.057 C 
ATOM     26  H   UNL     1     -47.175  31.261  18.588  1.00  0.00     0.024 H 
ATOM     27  H   UNL     1     -48.226  32.499  19.290  1.00  0.00     0.024 H 
ATOM     28  H   UNL     1     -47.017  31.687  20.299  1.00  0.00     0.024 H 
ENDBRANCH  19  25
ENDBRANCH   6  19
BRANCH   9  29
ATOM     29  N   UNL     1     -49.227  27.302  23.592  1.00  0.00    -0.398 N 
ATOM     30  H   UNL     1     -50.190  27.311  23.925  1.00  0.00     0.156 HD
ATOM     31  H   UNL     1     -48.622  26.933  24.318  1.00  0.00     0.156 HD
ENDBRANCH   9  29
ENDBRANCH   4   5
ENDBRANCH   1   4
BRANCH   1  32
ATOM     32  C   UNL     1     -47.116  35.186  26.936  1.00  0.00     0.008 A 
ATOM     33  C   UNL     1     -48.428  35.626  27.068  1.00  0.00     0.033 A 
ATOM     34  C   UNL     1     -46.107  35.996  27.473  1.00  0.00    -0.045 A 
ATOM     35  N   UNL     1     -48.782  36.784  27.667  1.00  0.00    -0.264 NA
ATOM     36  H   UNL     1     -49.261  35.041  26.684  1.00  0.00     0.084 H 
ATOM     37  C   UNL     1     -46.424  37.208  28.094  1.00  0.00     0.004 A 
ATOM     38  H   UNL     1     -45.068  35.680  27.396  1.00  0.00     0.063 H 
ATOM     39  C   UNL     1     -47.773  37.543  28.161  1.00  0.00     0.035 A 
ATOM     40  H   UNL     1     -48.107  38.457  28.644  1.00  0.00     0.085 H 
BRANCH  37  41
ATOM     41  C   UNL     1     -45.385  38.066  28.644  1.00  0.00     0.027 A 
ATOM     42  C   UNL     1     -44.841  37.899  29.908  1.00  0.00     0.011 A 
ATOM     43  C   UNL     1     -44.736  39.204  28.073  1.00  0.00     0.101 A 
ATOM     44  N   UNL     1     -43.899  38.877  30.105  1.00  0.00    -0.356 N 
ATOM     45  H   UNL     1     -45.042  37.176  30.688  1.00  0.00     0.082 H 
ATOM     46  C   UNL     1     -43.831  39.693  29.006  1.00  0.00     0.108 A 
ATOM     47  N   UNL     1     -44.896  39.776  26.857  1.00  0.00    -0.234 NA
ATOM     48  H   UNL     1     -43.322  38.980  30.930  1.00  0.00     0.166 HD
ATOM     49  C   UNL     1     -43.057  40.803  28.716  1.00  0.00     0.151 A 
ATOM     50  C   UNL     1     -44.094  40.831  26.658  1.00  0.00     0.118 A 
ATOM     51  N   UNL     1     -43.200  41.370  27.509  1.00  0.00    -0.218 NA
ATOM     52  H   UNL     1     -44.176  41.315  25.689  1.00  0.00     0.106 H 
BRANCH  49  53
ATOM     53  N   UNL     1     -42.156  41.370  29.605  1.00  0.00    -0.382 N 
ATOM     54  H   UNL     1     -41.769  40.718  30.273  1.00  0.00     0.158 HD
ATOM     55  H   UNL     1     -42.584  42.191  30.025  1.00  0.00     0.158 HD
ENDBRANCH  49  53
ENDBRANCH  37  41
ENDBRANCH   1  32
TORSDOF 9
ENDMDL
