MODEL 1
REMARK VINA RESULT:     -10.9      0.000      0.000
REMARK SMILES O=C(NCc1ccc2cc(CN3CC(C(F)F)C3)[nH]c2c1)c1cc(=O)n2ccccc2n1
REMARK SMILES IDX 5 1 6 2 7 3 8 4 9 5 10 6 19 7 20 8 21 9 4 15 3 18 1 19 2 20
REMARK SMILES IDX 22 22 23 23 32 24 24 25 31 27 25 28 26 29 30 30 27 31 29 32
REMARK SMILES IDX 28 34 11 38 12 41 13 42 18 43 14 44 15 50 16 51 17 52
REMARK H PARENT 6 10 7 11 9 12 19 13 21 14 4 16 4 17 3 21 23 26 30 33 27 35
REMARK H PARENT 29 36 28 37 11 39 11 40 13 45 13 46 18 47 18 48 14 49 15 53
REMARK Flexibility Score: inf
ROOT
ATOM      1  C   UNL     1     -47.994  34.852  26.678  1.00  0.00    -0.027 A 
ATOM      2  C   UNL     1     -46.699  34.808  26.149  1.00  0.00    -0.057 A 
ATOM      3  C   UNL     1     -46.284  33.748  25.331  1.00  0.00    -0.052 A 
ATOM      4  C   UNL     1     -47.186  32.707  25.044  1.00  0.00    -0.000 A 
ATOM      5  C   UNL     1     -47.107  31.514  24.273  1.00  0.00    -0.032 A 
ATOM      6  C   UNL     1     -48.323  30.869  24.358  1.00  0.00     0.030 A 
ATOM      7  N   UNL     1     -49.132  31.636  25.163  1.00  0.00    -0.357 N 
ATOM      8  C   UNL     1     -48.467  32.759  25.590  1.00  0.00     0.046 A 
ATOM      9  C   UNL     1     -48.899  33.810  26.408  1.00  0.00    -0.033 A 
ATOM     10  H   UNL     1     -45.992  35.606  26.373  1.00  0.00     0.063 H 
ATOM     11  H   UNL     1     -45.278  33.734  24.924  1.00  0.00     0.063 H 
ATOM     12  H   UNL     1     -46.246  31.170  23.714  1.00  0.00     0.065 H 
ATOM     13  H   UNL     1     -50.094  31.405  25.375  1.00  0.00     0.166 HD
ATOM     14  H   UNL     1     -49.903  33.819  26.822  1.00  0.00     0.065 H 
ENDROOT
BRANCH   1  15
ATOM     15  C   UNL     1     -48.403  35.987  27.579  1.00  0.00     0.043 C 
ATOM     16  H   UNL     1     -48.525  35.642  28.613  1.00  0.00     0.054 H 
ATOM     17  H   UNL     1     -49.370  36.402  27.271  1.00  0.00     0.054 H 
BRANCH  15  18
ATOM     18  N   UNL     1     -47.419  37.036  27.560  1.00  0.00    -0.347 N 
ATOM     19  O   UNL     1     -46.635  36.668  29.685  1.00  0.00    -0.268 OA
ATOM     20  C   UNL     1     -46.592  37.282  28.626  1.00  0.00     0.270 C 
ATOM     21  H   UNL     1     -47.272  37.587  26.719  1.00  0.00     0.164 HD
BRANCH  20  22
ATOM     22  C   UNL     1     -45.613  38.397  28.351  1.00  0.00     0.136 A 
ATOM     23  C   UNL     1     -45.782  39.069  27.211  1.00  0.00     0.035 A 
ATOM     24  N   UNL     1     -44.624  38.653  29.274  1.00  0.00    -0.225 NA
ATOM     25  C   UNL     1     -44.851  40.162  26.903  1.00  0.00     0.258 A 
ATOM     26  H   UNL     1     -46.564  38.858  26.492  1.00  0.00     0.071 H 
ATOM     27  C   UNL     1     -43.803  39.619  28.997  1.00  0.00     0.140 A 
ATOM     28  O   UNL     1     -45.000  40.787  25.854  1.00  0.00    -0.269 OA
ATOM     29  N   UNL     1     -43.864  40.398  27.847  1.00  0.00    -0.268 N 
ATOM     30  C   UNL     1     -42.715  39.931  29.968  1.00  0.00    -0.019 A 
ATOM     31  C   UNL     1     -42.944  41.418  27.626  1.00  0.00     0.014 A 
ATOM     32  C   UNL     1     -41.853  40.922  29.711  1.00  0.00    -0.057 A 
ATOM     33  H   UNL     1     -42.660  39.328  30.866  1.00  0.00     0.066 H 
ATOM     34  C   UNL     1     -41.969  41.692  28.501  1.00  0.00    -0.045 A 
ATOM     35  H   UNL     1     -43.051  41.987  26.705  1.00  0.00     0.082 H 
ATOM     36  H   UNL     1     -41.055  41.163  30.405  1.00  0.00     0.062 H 
ATOM     37  H   UNL     1     -41.257  42.491  28.317  1.00  0.00     0.064 H 
ENDBRANCH  20  22
ENDBRANCH  15  18
ENDBRANCH   1  15
BRANCH   6  38
ATOM     38  C   UNL     1     -48.798  29.585  23.760  1.00  0.00     0.039 C 
ATOM     39  H   UNL     1     -47.921  29.077  23.337  1.00  0.00     0.050 H 
ATOM     40  H   UNL     1     -49.476  29.795  22.922  1.00  0.00     0.050 H 
BRANCH  38  41
ATOM     41  N   UNL     1     -49.403  28.715  24.781  1.00  0.00    -0.297 NA
ATOM     42  C   UNL     1     -48.486  28.543  25.931  1.00  0.00     0.008 C 
ATOM     43  C   UNL     1     -49.226  27.280  24.438  1.00  0.00     0.008 C 
ATOM     44  C   UNL     1     -47.960  27.238  25.311  1.00  0.00     0.045 C 
ATOM     45  H   UNL     1     -47.735  29.327  26.080  1.00  0.00     0.044 H 
ATOM     46  H   UNL     1     -49.022  28.414  26.879  1.00  0.00     0.044 H 
ATOM     47  H   UNL     1     -50.054  26.659  24.802  1.00  0.00     0.044 H 
ATOM     48  H   UNL     1     -49.073  27.038  23.380  1.00  0.00     0.044 H 
ATOM     49  H   UNL     1     -47.044  27.394  24.725  1.00  0.00     0.039 H 
BRANCH  44  50
ATOM     50  C   UNL     1     -47.809  26.064  26.236  1.00  0.00     0.243 C 
ATOM     51  F   UNL     1     -46.945  26.398  27.228  1.00  0.00    -0.210 F 
ATOM     52  F   UNL     1     -47.266  25.008  25.582  1.00  0.00    -0.210 F 
ATOM     53  H   UNL     1     -48.758  25.755  26.684  1.00  0.00     0.104 H 
ENDBRANCH  44  50
ENDBRANCH  38  41
ENDBRANCH   6  38
TORSDOF 6
ENDMDL
MODEL 2
REMARK VINA RESULT:     -10.1      2.328      3.701
REMARK SMILES O=C(NCc1ccc2cc(CN3CC(C(F)F)C3)[nH]c2c1)c1cc(=O)n2ccccc2n1
REMARK SMILES IDX 5 1 6 2 7 3 8 4 9 5 10 6 19 7 20 8 21 9 4 15 3 18 1 19 2 20
REMARK SMILES IDX 22 22 23 23 32 24 24 25 31 27 25 28 26 29 30 30 27 31 29 32
REMARK SMILES IDX 28 34 11 38 12 41 13 42 18 43 14 44 15 50 16 51 17 52
REMARK H PARENT 6 10 7 11 9 12 19 13 21 14 4 16 4 17 3 21 23 26 30 33 27 35
REMARK H PARENT 29 36 28 37 11 39 11 40 13 45 13 46 18 47 18 48 14 49 15 53
REMARK Flexibility Score: inf
ROOT
ATOM      1  C   UNL     1     -46.443  36.578  28.469  1.00  0.00    -0.027 A 
ATOM      2  C   UNL     1     -47.821  36.597  28.227  1.00  0.00    -0.057 A 
ATOM      3  C   UNL     1     -48.413  35.698  27.329  1.00  0.00    -0.052 A 
ATOM      4  C   UNL     1     -47.603  34.765  26.656  1.00  0.00    -0.000 A 
ATOM      5  C   UNL     1     -47.859  33.735  25.708  1.00  0.00    -0.032 A 
ATOM      6  C   UNL     1     -46.657  33.135  25.393  1.00  0.00     0.030 A 
ATOM      7  N   UNL     1     -45.682  33.778  26.120  1.00  0.00    -0.357 N 
ATOM      8  C   UNL     1     -46.231  34.770  26.897  1.00  0.00     0.046 A 
ATOM      9  C   UNL     1     -45.622  35.660  27.790  1.00  0.00    -0.033 A 
ATOM     10  H   UNL     1     -48.454  37.321  28.738  1.00  0.00     0.063 H 
ATOM     11  H   UNL     1     -49.484  35.722  27.159  1.00  0.00     0.063 H 
ATOM     12  H   UNL     1     -48.826  33.465  25.303  1.00  0.00     0.065 H 
ATOM     13  H   UNL     1     -44.704  33.521  26.097  1.00  0.00     0.166 HD
ATOM     14  H   UNL     1     -44.549  35.641  27.953  1.00  0.00     0.065 H 
ENDROOT
BRANCH   1  15
ATOM     15  C   UNL     1     -45.829  37.577  29.415  1.00  0.00     0.043 C 
ATOM     16  H   UNL     1     -45.175  37.078  30.140  1.00  0.00     0.054 H 
ATOM     17  H   UNL     1     -46.603  38.094  29.993  1.00  0.00     0.054 H 
BRANCH  15  18
ATOM     18  N   UNL     1     -45.055  38.554  28.696  1.00  0.00    -0.347 N 
ATOM     19  O   UNL     1     -46.819  39.931  28.188  1.00  0.00    -0.268 OA
ATOM     20  C   UNL     1     -45.622  39.676  28.148  1.00  0.00     0.270 C 
ATOM     21  H   UNL     1     -44.045  38.462  28.630  1.00  0.00     0.164 HD
BRANCH  20  22
ATOM     22  C   UNL     1     -44.603  40.573  27.488  1.00  0.00     0.136 A 
ATOM     23  C   UNL     1     -43.441  40.724  28.127  1.00  0.00     0.035 A 
ATOM     24  N   UNL     1     -44.923  41.170  26.290  1.00  0.00    -0.225 NA
ATOM     25  C   UNL     1     -42.421  41.588  27.520  1.00  0.00     0.258 A 
ATOM     26  H   UNL     1     -43.201  40.249  29.070  1.00  0.00     0.071 H 
ATOM     27  C   UNL     1     -44.019  41.933  25.757  1.00  0.00     0.140 A 
ATOM     28  O   UNL     1     -41.347  41.733  28.103  1.00  0.00    -0.269 OA
ATOM     29  N   UNL     1     -42.769  42.179  26.315  1.00  0.00    -0.268 N 
ATOM     30  C   UNL     1     -44.323  42.602  24.460  1.00  0.00    -0.019 A 
ATOM     31  C   UNL     1     -41.854  43.012  25.679  1.00  0.00     0.014 A 
ATOM     32  C   UNL     1     -43.411  43.396  23.887  1.00  0.00    -0.057 A 
ATOM     33  H   UNL     1     -45.295  42.418  24.019  1.00  0.00     0.066 H 
ATOM     34  C   UNL     1     -42.134  43.609  24.515  1.00  0.00    -0.045 A 
ATOM     35  H   UNL     1     -40.896  43.159  26.172  1.00  0.00     0.082 H 
ATOM     36  H   UNL     1     -43.614  43.891  22.943  1.00  0.00     0.062 H 
ATOM     37  H   UNL     1     -41.412  44.257  24.028  1.00  0.00     0.064 H 
ENDBRANCH  20  22
ENDBRANCH  15  18
ENDBRANCH   1  15
BRANCH   6  38
ATOM     38  C   UNL     1     -46.332  32.016  24.459  1.00  0.00     0.039 C 
ATOM     39  H   UNL     1     -45.919  31.196  25.062  1.00  0.00     0.050 H 
ATOM     40  H   UNL     1     -45.540  32.330  23.767  1.00  0.00     0.050 H 
BRANCH  38  41
ATOM     41  N   UNL     1     -47.538  31.535  23.767  1.00  0.00    -0.297 NA
ATOM     42  C   UNL     1     -48.159  30.418  24.516  1.00  0.00     0.008 C 
ATOM     43  C   UNL     1     -47.189  30.593  22.672  1.00  0.00     0.008 C 
ATOM     44  C   UNL     1     -47.404  29.411  23.633  1.00  0.00     0.045 C 
ATOM     45  H   UNL     1     -47.936  30.363  25.587  1.00  0.00     0.044 H 
ATOM     46  H   UNL     1     -49.250  30.394  24.403  1.00  0.00     0.044 H 
ATOM     47  H   UNL     1     -47.901  30.641  21.838  1.00  0.00     0.044 H 
ATOM     48  H   UNL     1     -46.181  30.675  22.249  1.00  0.00     0.044 H 
ATOM     49  H   UNL     1     -46.466  29.073  24.095  1.00  0.00     0.039 H 
BRANCH  44  50
ATOM     50  C   UNL     1     -48.194  28.244  23.112  1.00  0.00     0.243 C 
ATOM     51  F   UNL     1     -49.498  28.609  23.013  1.00  0.00    -0.210 F 
ATOM     52  F   UNL     1     -48.142  27.206  23.984  1.00  0.00    -0.210 F 
ATOM     53  H   UNL     1     -47.847  27.903  22.133  1.00  0.00     0.104 H 
ENDBRANCH  44  50
ENDBRANCH  38  41
ENDBRANCH   6  38
TORSDOF 6
ENDMDL
MODEL 3
REMARK VINA RESULT:      -9.8      2.776      3.521
REMARK SMILES O=C(NCc1ccc2cc(CN3CC(C(F)F)C3)[nH]c2c1)c1cc(=O)n2ccccc2n1
REMARK SMILES IDX 5 1 6 2 7 3 8 4 9 5 10 6 19 7 20 8 21 9 4 15 3 18 1 19 2 20
REMARK SMILES IDX 22 22 23 23 32 24 24 25 31 27 25 28 26 29 30 30 27 31 29 32
REMARK SMILES IDX 28 34 11 38 12 41 13 42 18 43 14 44 15 50 16 51 17 52
REMARK H PARENT 6 10 7 11 9 12 19 13 21 14 4 16 4 17 3 21 23 26 30 33 27 35
REMARK H PARENT 29 36 28 37 11 39 11 40 13 45 13 46 18 47 18 48 14 49 15 53
REMARK Flexibility Score: inf
ROOT
ATOM      1  C   UNL     1     -47.887  35.151  26.772  1.00  0.00    -0.027 A 
ATOM      2  C   UNL     1     -46.603  35.094  26.217  1.00  0.00    -0.057 A 
ATOM      3  C   UNL     1     -46.189  33.992  25.457  1.00  0.00    -0.052 A 
ATOM      4  C   UNL     1     -47.079  32.921  25.256  1.00  0.00    -0.000 A 
ATOM      5  C   UNL     1     -46.996  31.684  24.559  1.00  0.00    -0.032 A 
ATOM      6  C   UNL     1     -48.200  31.026  24.712  1.00  0.00     0.030 A 
ATOM      7  N   UNL     1     -49.004  31.829  25.487  1.00  0.00    -0.357 N 
ATOM      8  C   UNL     1     -48.348  32.987  25.827  1.00  0.00     0.046 A 
ATOM      9  C   UNL     1     -48.780  34.080  26.589  1.00  0.00    -0.033 A 
ATOM     10  H   UNL     1     -45.905  35.915  26.375  1.00  0.00     0.063 H 
ATOM     11  H   UNL     1     -45.192  33.968  25.029  1.00  0.00     0.063 H 
ATOM     12  H   UNL     1     -46.142  31.318  24.003  1.00  0.00     0.065 H 
ATOM     13  H   UNL     1     -49.957  31.596  25.734  1.00  0.00     0.166 HD
ATOM     14  H   UNL     1     -49.775  34.098  27.025  1.00  0.00     0.065 H 
ENDROOT
BRANCH   1  15
ATOM     15  C   UNL     1     -48.296  36.333  27.611  1.00  0.00     0.043 C 
ATOM     16  H   UNL     1     -48.864  36.011  28.491  1.00  0.00     0.054 H 
ATOM     17  H   UNL     1     -48.949  37.007  27.045  1.00  0.00     0.054 H 
BRANCH  15  18
ATOM     18  N   UNL     1     -47.141  37.069  28.055  1.00  0.00    -0.347 N 
ATOM     19  O   UNL     1     -47.176  38.614  26.359  1.00  0.00    -0.268 OA
ATOM     20  C   UNL     1     -46.681  38.176  27.389  1.00  0.00     0.270 C 
ATOM     21  H   UNL     1     -46.672  36.815  28.919  1.00  0.00     0.164 HD
BRANCH  20  22
ATOM     22  C   UNL     1     -45.490  38.804  28.071  1.00  0.00     0.136 A 
ATOM     23  C   UNL     1     -45.129  38.276  29.243  1.00  0.00     0.035 A 
ATOM     24  N   UNL     1     -44.857  39.861  27.459  1.00  0.00    -0.225 NA
ATOM     25  C   UNL     1     -43.975  38.857  29.942  1.00  0.00     0.258 A 
ATOM     26  H   UNL     1     -45.636  37.444  29.716  1.00  0.00     0.071 H 
ATOM     27  C   UNL     1     -43.838  40.372  28.080  1.00  0.00     0.140 A 
ATOM     28  O   UNL     1     -43.636  38.378  31.022  1.00  0.00    -0.269 OA
ATOM     29  N   UNL     1     -43.357  39.922  29.304  1.00  0.00    -0.268 N 
ATOM     30  C   UNL     1     -43.123  41.520  27.453  1.00  0.00    -0.019 A 
ATOM     31  C   UNL     1     -42.256  40.525  29.905  1.00  0.00     0.014 A 
ATOM     32  C   UNL     1     -42.069  42.068  28.070  1.00  0.00    -0.057 A 
ATOM     33  H   UNL     1     -43.491  41.878  26.500  1.00  0.00     0.066 H 
ATOM     34  C   UNL     1     -41.619  41.556  29.337  1.00  0.00    -0.045 A 
ATOM     35  H   UNL     1     -41.934  40.121  30.861  1.00  0.00     0.082 H 
ATOM     36  H   UNL     1     -41.535  42.904  27.630  1.00  0.00     0.062 H 
ATOM     37  H   UNL     1     -40.761  42.018  29.815  1.00  0.00     0.064 H 
ENDBRANCH  20  22
ENDBRANCH  15  18
ENDBRANCH   1  15
BRANCH   6  38
ATOM     38  C   UNL     1     -48.666  29.699  24.206  1.00  0.00     0.039 C 
ATOM     39  H   UNL     1     -49.106  29.162  25.056  1.00  0.00     0.050 H 
ATOM     40  H   UNL     1     -47.804  29.109  23.869  1.00  0.00     0.050 H 
BRANCH  38  41
ATOM     41  N   UNL     1     -49.692  29.860  23.163  1.00  0.00    -0.297 NA
ATOM     42  C   UNL     1     -49.335  29.083  21.954  1.00  0.00     0.008 C 
ATOM     43  C   UNL     1     -49.491  31.120  22.402  1.00  0.00     0.008 C 
ATOM     44  C   UNL     1     -48.694  30.339  21.341  1.00  0.00     0.045 C 
ATOM     45  H   UNL     1     -48.657  28.234  22.100  1.00  0.00     0.044 H 
ATOM     46  H   UNL     1     -50.218  28.713  21.419  1.00  0.00     0.044 H 
ATOM     47  H   UNL     1     -50.436  31.546  22.043  1.00  0.00     0.044 H 
ATOM     48  H   UNL     1     -48.939  31.921  22.905  1.00  0.00     0.044 H 
ATOM     49  H   UNL     1     -47.611  30.383  21.517  1.00  0.00     0.039 H 
BRANCH  44  50
ATOM     50  C   UNL     1     -49.015  30.626  19.901  1.00  0.00     0.243 C 
ATOM     51  F   UNL     1     -48.232  31.649  19.475  1.00  0.00    -0.210 F 
ATOM     52  F   UNL     1     -50.301  31.035  19.771  1.00  0.00    -0.210 F 
ATOM     53  H   UNL     1     -48.850  29.761  19.253  1.00  0.00     0.104 H 
ENDBRANCH  44  50
ENDBRANCH  38  41
ENDBRANCH   6  38
TORSDOF 6
ENDMDL
MODEL 4
REMARK VINA RESULT:      -9.6      2.855      4.594
REMARK SMILES O=C(NCc1ccc2cc(CN3CC(C(F)F)C3)[nH]c2c1)c1cc(=O)n2ccccc2n1
REMARK SMILES IDX 5 1 6 2 7 3 8 4 9 5 10 6 19 7 20 8 21 9 4 15 3 18 1 19 2 20
REMARK SMILES IDX 22 22 23 23 32 24 24 25 31 27 25 28 26 29 30 30 27 31 29 32
REMARK SMILES IDX 28 34 11 38 12 41 13 42 18 43 14 44 15 50 16 51 17 52
REMARK H PARENT 6 10 7 11 9 12 19 13 21 14 4 16 4 17 3 21 23 26 30 33 27 35
REMARK H PARENT 29 36 28 37 11 39 11 40 13 45 13 46 18 47 18 48 14 49 15 53
REMARK Flexibility Score: inf
ROOT
ATOM      1  C   UNL     1     -45.380  37.714  28.146  1.00  0.00    -0.027 A 
ATOM      2  C   UNL     1     -46.405  38.163  27.306  1.00  0.00    -0.057 A 
ATOM      3  C   UNL     1     -47.192  37.262  26.576  1.00  0.00    -0.052 A 
ATOM      4  C   UNL     1     -46.940  35.882  26.686  1.00  0.00    -0.000 A 
ATOM      5  C   UNL     1     -47.525  34.720  26.110  1.00  0.00    -0.032 A 
ATOM      6  C   UNL     1     -46.849  33.617  26.592  1.00  0.00     0.030 A 
ATOM      7  N   UNL     1     -45.870  34.082  27.438  1.00  0.00    -0.357 N 
ATOM      8  C   UNL     1     -45.906  35.453  27.515  1.00  0.00     0.046 A 
ATOM      9  C   UNL     1     -45.109  36.338  28.253  1.00  0.00    -0.033 A 
ATOM     10  H   UNL     1     -46.603  39.230  27.209  1.00  0.00     0.063 H 
ATOM     11  H   UNL     1     -47.988  37.627  25.934  1.00  0.00     0.063 H 
ATOM     12  H   UNL     1     -48.355  34.699  25.415  1.00  0.00     0.065 H 
ATOM     13  H   UNL     1     -45.239  33.479  27.950  1.00  0.00     0.166 HD
ATOM     14  H   UNL     1     -44.308  35.972  28.887  1.00  0.00     0.065 H 
ENDROOT
BRANCH   1  15
ATOM     15  C   UNL     1     -44.529  38.707  28.895  1.00  0.00     0.043 C 
ATOM     16  H   UNL     1     -43.541  38.286  29.116  1.00  0.00     0.054 H 
ATOM     17  H   UNL     1     -44.984  38.962  29.859  1.00  0.00     0.054 H 
BRANCH  15  18
ATOM     18  N   UNL     1     -44.354  39.912  28.129  1.00  0.00    -0.347 N 
ATOM     19  O   UNL     1     -42.456  40.611  29.213  1.00  0.00    -0.268 OA
ATOM     20  C   UNL     1     -43.306  40.769  28.345  1.00  0.00     0.270 C 
ATOM     21  H   UNL     1     -44.980  40.125  27.358  1.00  0.00     0.164 HD
BRANCH  20  22
ATOM     22  C   UNL     1     -43.308  41.935  27.387  1.00  0.00     0.136 A 
ATOM     23  C   UNL     1     -42.192  42.125  26.679  1.00  0.00     0.035 A 
ATOM     24  N   UNL     1     -44.436  42.718  27.298  1.00  0.00    -0.225 NA
ATOM     25  C   UNL     1     -42.150  43.249  25.735  1.00  0.00     0.258 A 
ATOM     26  H   UNL     1     -41.310  41.502  26.758  1.00  0.00     0.071 H 
ATOM     27  C   UNL     1     -44.395  43.710  26.463  1.00  0.00     0.140 A 
ATOM     28  O   UNL     1     -41.125  43.432  25.080  1.00  0.00    -0.269 OA
ATOM     29  N   UNL     1     -43.299  44.023  25.667  1.00  0.00    -0.268 N 
ATOM     30  C   UNL     1     -45.594  44.586  26.335  1.00  0.00    -0.019 A 
ATOM     31  C   UNL     1     -43.335  45.106  24.794  1.00  0.00     0.014 A 
ATOM     32  C   UNL     1     -45.582  45.617  25.482  1.00  0.00    -0.057 A 
ATOM     33  H   UNL     1     -46.453  44.351  26.953  1.00  0.00     0.066 H 
ATOM     34  C   UNL     1     -44.415  45.889  24.685  1.00  0.00    -0.045 A 
ATOM     35  H   UNL     1     -42.442  45.292  24.202  1.00  0.00     0.082 H 
ATOM     36  H   UNL     1     -46.445  46.266  25.375  1.00  0.00     0.062 H 
ATOM     37  H   UNL     1     -44.432  46.731  24.001  1.00  0.00     0.064 H 
ENDBRANCH  20  22
ENDBRANCH  15  18
ENDBRANCH   1  15
BRANCH   6  38
ATOM     38  C   UNL     1     -47.030  32.159  26.322  1.00  0.00     0.039 C 
ATOM     39  H   UNL     1     -47.395  31.699  27.250  1.00  0.00     0.050 H 
ATOM     40  H   UNL     1     -46.058  31.701  26.102  1.00  0.00     0.050 H 
BRANCH  38  41
ATOM     41  N   UNL     1     -48.023  31.935  25.259  1.00  0.00    -0.297 NA
ATOM     42  C   UNL     1     -48.609  30.579  25.369  1.00  0.00     0.008 C 
ATOM     43  C   UNL     1     -47.366  31.536  23.987  1.00  0.00     0.008 C 
ATOM     44  C   UNL     1     -47.583  30.057  24.350  1.00  0.00     0.045 C 
ATOM     45  H   UNL     1     -48.570  30.108  26.358  1.00  0.00     0.044 H 
ATOM     46  H   UNL     1     -49.651  30.545  25.027  1.00  0.00     0.044 H 
ATOM     47  H   UNL     1     -47.922  31.878  23.106  1.00  0.00     0.044 H 
ATOM     48  H   UNL     1     -46.320  31.836  23.854  1.00  0.00     0.044 H 
ATOM     49  H   UNL     1     -46.703  29.612  24.834  1.00  0.00     0.039 H 
BRANCH  44  50
ATOM     50  C   UNL     1     -48.108  29.159  23.265  1.00  0.00     0.243 C 
ATOM     51  F   UNL     1     -48.242  27.904  23.763  1.00  0.00    -0.210 F 
ATOM     52  F   UNL     1     -47.222  29.082  22.241  1.00  0.00    -0.210 F 
ATOM     53  H   UNL     1     -49.074  29.490  22.875  1.00  0.00     0.104 H 
ENDBRANCH  44  50
ENDBRANCH  38  41
ENDBRANCH   6  38
TORSDOF 6
ENDMDL
MODEL 5
REMARK VINA RESULT:      -9.6      5.287     11.609
REMARK SMILES O=C(NCc1ccc2cc(CN3CC(C(F)F)C3)[nH]c2c1)c1cc(=O)n2ccccc2n1
REMARK SMILES IDX 5 1 6 2 7 3 8 4 9 5 10 6 19 7 20 8 21 9 4 15 3 18 1 19 2 20
REMARK SMILES IDX 22 22 23 23 32 24 24 25 31 27 25 28 26 29 30 30 27 31 29 32
REMARK SMILES IDX 28 34 11 38 12 41 13 42 18 43 14 44 15 50 16 51 17 52
REMARK H PARENT 6 10 7 11 9 12 19 13 21 14 4 16 4 17 3 21 23 26 30 33 27 35
REMARK H PARENT 29 36 28 37 11 39 11 40 13 45 13 46 18 47 18 48 14 49 15 53
REMARK Flexibility Score: inf
ROOT
ATOM      1  C   UNL     1     -47.991  34.363  26.696  1.00  0.00    -0.027 A 
ATOM      2  C   UNL     1     -46.835  33.770  27.218  1.00  0.00    -0.057 A 
ATOM      3  C   UNL     1     -45.787  34.549  27.729  1.00  0.00    -0.052 A 
ATOM      4  C   UNL     1     -45.899  35.951  27.708  1.00  0.00    -0.000 A 
ATOM      5  C   UNL     1     -45.057  37.017  28.130  1.00  0.00    -0.032 A 
ATOM      6  C   UNL     1     -45.699  38.206  27.851  1.00  0.00     0.030 A 
ATOM      7  N   UNL     1     -46.902  37.888  27.266  1.00  0.00    -0.357 N 
ATOM      8  C   UNL     1     -47.049  36.525  27.171  1.00  0.00     0.046 A 
ATOM      9  C   UNL     1     -48.107  35.763  26.657  1.00  0.00    -0.033 A 
ATOM     10  H   UNL     1     -46.737  32.686  27.231  1.00  0.00     0.063 H 
ATOM     11  H   UNL     1     -44.901  34.073  28.136  1.00  0.00     0.063 H 
ATOM     12  H   UNL     1     -44.082  36.918  28.592  1.00  0.00     0.065 H 
ATOM     13  H   UNL     1     -47.587  38.576  26.982  1.00  0.00     0.166 HD
ATOM     14  H   UNL     1     -48.989  36.241  26.241  1.00  0.00     0.065 H 
ENDROOT
BRANCH   1  15
ATOM     15  C   UNL     1     -49.088  33.502  26.126  1.00  0.00     0.043 C 
ATOM     16  H   UNL     1     -49.434  33.898  25.163  1.00  0.00     0.054 H 
ATOM     17  H   UNL     1     -49.958  33.487  26.791  1.00  0.00     0.054 H 
BRANCH  15  18
ATOM     18  N   UNL     1     -48.630  32.153  25.929  1.00  0.00    -0.347 N 
ATOM     19  O   UNL     1     -50.122  31.634  24.264  1.00  0.00    -0.268 OA
ATOM     20  C   UNL     1     -49.184  31.324  24.987  1.00  0.00     0.270 C 
ATOM     21  H   UNL     1     -47.833  31.800  26.450  1.00  0.00     0.164 HD
BRANCH  20  22
ATOM     22  C   UNL     1     -48.505  29.977  24.934  1.00  0.00     0.136 A 
ATOM     23  C   UNL     1     -47.558  29.824  24.006  1.00  0.00     0.035 A 
ATOM     24  N   UNL     1     -48.891  29.004  25.828  1.00  0.00    -0.225 NA
ATOM     25  C   UNL     1     -46.871  28.530  23.918  1.00  0.00     0.258 A 
ATOM     26  H   UNL     1     -47.263  30.598  23.307  1.00  0.00     0.071 H 
ATOM     27  C   UNL     1     -48.282  27.861  25.747  1.00  0.00     0.140 A 
ATOM     28  O   UNL     1     -45.998  28.380  23.065  1.00  0.00    -0.269 OA
ATOM     29  N   UNL     1     -47.280  27.567  24.829  1.00  0.00    -0.268 N 
ATOM     30  C   UNL     1     -48.669  26.778  26.694  1.00  0.00    -0.019 A 
ATOM     31  C   UNL     1     -46.675  26.314  24.807  1.00  0.00     0.014 A 
ATOM     32  C   UNL     1     -48.059  25.588  26.635  1.00  0.00    -0.057 A 
ATOM     33  H   UNL     1     -49.450  26.997  27.413  1.00  0.00     0.066 H 
ATOM     34  C   UNL     1     -47.028  25.345  25.661  1.00  0.00    -0.045 A 
ATOM     35  H   UNL     1     -45.900  26.154  24.063  1.00  0.00     0.082 H 
ATOM     36  H   UNL     1     -48.327  24.786  27.316  1.00  0.00     0.062 H 
ATOM     37  H   UNL     1     -46.550  24.372  25.635  1.00  0.00     0.064 H 
ENDBRANCH  20  22
ENDBRANCH  15  18
ENDBRANCH   1  15
BRANCH   6  38
ATOM     38  C   UNL     1     -45.282  39.624  28.072  1.00  0.00     0.039 C 
ATOM     39  H   UNL     1     -45.037  39.730  29.137  1.00  0.00     0.050 H 
ATOM     40  H   UNL     1     -46.129  40.293  27.874  1.00  0.00     0.050 H 
BRANCH  38  41
ATOM     41  N   UNL     1     -44.091  39.957  27.275  1.00  0.00    -0.297 NA
ATOM     42  C   UNL     1     -43.496  41.234  27.733  1.00  0.00     0.008 C 
ATOM     43  C   UNL     1     -44.468  40.605  25.992  1.00  0.00     0.008 C 
ATOM     44  C   UNL     1     -44.281  41.985  26.645  1.00  0.00     0.045 C 
ATOM     45  H   UNL     1     -43.717  41.535  28.763  1.00  0.00     0.044 H 
ATOM     46  H   UNL     1     -42.407  41.256  27.608  1.00  0.00     0.044 H 
ATOM     47  H   UNL     1     -43.758  40.379  25.186  1.00  0.00     0.044 H 
ATOM     48  H   UNL     1     -45.475  40.401  25.610  1.00  0.00     0.044 H 
ATOM     49  H   UNL     1     -45.225  42.399  27.022  1.00  0.00     0.039 H 
BRANCH  44  50
ATOM     50  C   UNL     1     -43.522  43.015  25.856  1.00  0.00     0.243 C 
ATOM     51  F   UNL     1     -43.269  44.080  26.658  1.00  0.00    -0.210 F 
ATOM     52  F   UNL     1     -44.272  43.471  24.823  1.00  0.00    -0.210 F 
ATOM     53  H   UNL     1     -42.575  42.634  25.466  1.00  0.00     0.104 H 
ENDBRANCH  44  50
ENDBRANCH  38  41
ENDBRANCH   6  38
TORSDOF 6
ENDMDL
MODEL 6
REMARK VINA RESULT:      -9.6      1.660      2.339
REMARK SMILES O=C(NCc1ccc2cc(CN3CC(C(F)F)C3)[nH]c2c1)c1cc(=O)n2ccccc2n1
REMARK SMILES IDX 5 1 6 2 7 3 8 4 9 5 10 6 19 7 20 8 21 9 4 15 3 18 1 19 2 20
REMARK SMILES IDX 22 22 23 23 32 24 24 25 31 27 25 28 26 29 30 30 27 31 29 32
REMARK SMILES IDX 28 34 11 38 12 41 13 42 18 43 14 44 15 50 16 51 17 52
REMARK H PARENT 6 10 7 11 9 12 19 13 21 14 4 16 4 17 3 21 23 26 30 33 27 35
REMARK H PARENT 29 36 28 37 11 39 11 40 13 45 13 46 18 47 18 48 14 49 15 53
REMARK Flexibility Score: inf
ROOT
ATOM      1  C   UNL     1     -46.685  34.378  27.268  1.00  0.00    -0.027 A 
ATOM      2  C   UNL     1     -47.966  34.925  27.124  1.00  0.00    -0.057 A 
ATOM      3  C   UNL     1     -48.986  34.222  26.468  1.00  0.00    -0.052 A 
ATOM      4  C   UNL     1     -48.713  32.946  25.940  1.00  0.00    -0.000 A 
ATOM      5  C   UNL     1     -49.486  31.980  25.237  1.00  0.00    -0.032 A 
ATOM      6  C   UNL     1     -48.674  30.898  24.966  1.00  0.00     0.030 A 
ATOM      7  N   UNL     1     -47.431  31.187  25.479  1.00  0.00    -0.357 N 
ATOM      8  C   UNL     1     -47.429  32.423  26.079  1.00  0.00     0.046 A 
ATOM      9  C   UNL     1     -46.398  33.110  26.731  1.00  0.00    -0.033 A 
ATOM     10  H   UNL     1     -48.184  35.914  27.523  1.00  0.00     0.063 H 
ATOM     11  H   UNL     1     -49.975  34.658  26.372  1.00  0.00     0.063 H 
ATOM     12  H   UNL     1     -50.529  32.073  24.963  1.00  0.00     0.065 H 
ATOM     13  H   UNL     1     -46.646  30.550  25.440  1.00  0.00     0.166 HD
ATOM     14  H   UNL     1     -45.406  32.676  26.819  1.00  0.00     0.065 H 
ENDROOT
BRANCH   1  15
ATOM     15  C   UNL     1     -45.599  35.168  27.950  1.00  0.00     0.043 C 
ATOM     16  H   UNL     1     -44.611  34.755  27.717  1.00  0.00     0.054 H 
ATOM     17  H   UNL     1     -45.710  35.125  29.039  1.00  0.00     0.054 H 
BRANCH  15  18
ATOM     18  N   UNL     1     -45.631  36.545  27.533  1.00  0.00    -0.347 N 
ATOM     19  O   UNL     1     -44.989  37.421  29.555  1.00  0.00    -0.268 OA
ATOM     20  C   UNL     1     -45.301  37.572  28.380  1.00  0.00     0.270 C 
ATOM     21  H   UNL     1     -45.842  36.785  26.569  1.00  0.00     0.164 HD
BRANCH  20  22
ATOM     22  C   UNL     1     -45.361  38.920  27.703  1.00  0.00     0.136 A 
ATOM     23  C   UNL     1     -46.559  39.310  27.260  1.00  0.00     0.035 A 
ATOM     24  N   UNL     1     -44.203  39.654  27.584  1.00  0.00    -0.225 NA
ATOM     25  C   UNL     1     -46.663  40.614  26.594  1.00  0.00     0.258 A 
ATOM     26  H   UNL     1     -47.463  38.722  27.359  1.00  0.00     0.071 H 
ATOM     27  C   UNL     1     -44.300  40.806  26.995  1.00  0.00     0.140 A 
ATOM     28  O   UNL     1     -47.762  40.981  26.183  1.00  0.00    -0.269 OA
ATOM     29  N   UNL     1     -45.482  41.333  26.487  1.00  0.00    -0.268 N 
ATOM     30  C   UNL     1     -43.071  41.635  26.843  1.00  0.00    -0.019 A 
ATOM     31  C   UNL     1     -45.501  42.579  25.868  1.00  0.00     0.014 A 
ATOM     32  C   UNL     1     -43.138  42.828  26.240  1.00  0.00    -0.057 A 
ATOM     33  H   UNL     1     -42.144  41.232  27.235  1.00  0.00     0.066 H 
ATOM     34  C   UNL     1     -44.394  43.318  25.734  1.00  0.00    -0.045 A 
ATOM     35  H   UNL     1     -46.460  42.929  25.494  1.00  0.00     0.082 H 
ATOM     36  H   UNL     1     -42.254  43.446  26.120  1.00  0.00     0.062 H 
ATOM     37  H   UNL     1     -44.420  44.289  25.250  1.00  0.00     0.064 H 
ENDBRANCH  20  22
ENDBRANCH  15  18
ENDBRANCH   1  15
BRANCH   6  38
ATOM     38  C   UNL     1     -48.952  29.615  24.254  1.00  0.00     0.039 C 
ATOM     39  H   UNL     1     -48.638  29.745  23.210  1.00  0.00     0.050 H 
ATOM     40  H   UNL     1     -50.034  29.428  24.238  1.00  0.00     0.050 H 
BRANCH  38  41
ATOM     41  N   UNL     1     -48.189  28.504  24.844  1.00  0.00    -0.297 NA
ATOM     42  C   UNL     1     -48.551  27.220  24.200  1.00  0.00     0.008 C 
ATOM     43  C   UNL     1     -48.815  28.034  26.108  1.00  0.00     0.008 C 
ATOM     44  C   UNL     1     -49.570  26.950  25.319  1.00  0.00     0.045 C 
ATOM     45  H   UNL     1     -48.969  27.281  23.189  1.00  0.00     0.044 H 
ATOM     46  H   UNL     1     -47.709  26.517  24.168  1.00  0.00     0.044 H 
ATOM     47  H   UNL     1     -48.075  27.650  26.822  1.00  0.00     0.044 H 
ATOM     48  H   UNL     1     -49.449  28.750  26.643  1.00  0.00     0.044 H 
ATOM     49  H   UNL     1     -50.585  27.265  25.044  1.00  0.00     0.039 H 
BRANCH  44  50
ATOM     50  C   UNL     1     -49.579  25.565  25.903  1.00  0.00     0.243 C 
ATOM     51  F   UNL     1     -50.809  25.318  26.420  1.00  0.00    -0.210 F 
ATOM     52  F   UNL     1     -48.697  25.474  26.928  1.00  0.00    -0.210 F 
ATOM     53  H   UNL     1     -49.345  24.794  25.163  1.00  0.00     0.104 H 
ENDBRANCH  44  50
ENDBRANCH  38  41
ENDBRANCH   6  38
TORSDOF 6
ENDMDL
MODEL 7
REMARK VINA RESULT:      -9.4      2.319      3.100
REMARK SMILES O=C(NCc1ccc2cc(CN3CC(C(F)F)C3)[nH]c2c1)c1cc(=O)n2ccccc2n1
REMARK SMILES IDX 5 1 6 2 7 3 8 4 9 5 10 6 19 7 20 8 21 9 4 15 3 18 1 19 2 20
REMARK SMILES IDX 22 22 23 23 32 24 24 25 31 27 25 28 26 29 30 30 27 31 29 32
REMARK SMILES IDX 28 34 11 38 12 41 13 42 18 43 14 44 15 50 16 51 17 52
REMARK H PARENT 6 10 7 11 9 12 19 13 21 14 4 16 4 17 3 21 23 26 30 33 27 35
REMARK H PARENT 29 36 28 37 11 39 11 40 13 45 13 46 18 47 18 48 14 49 15 53
REMARK Flexibility Score: inf
ROOT
ATOM      1  C   UNL     1     -46.280  35.344  27.677  1.00  0.00    -0.027 A 
ATOM      2  C   UNL     1     -47.661  35.518  27.528  1.00  0.00    -0.057 A 
ATOM      3  C   UNL     1     -48.414  34.674  26.699  1.00  0.00    -0.052 A 
ATOM      4  C   UNL     1     -47.765  33.640  26.000  1.00  0.00    -0.000 A 
ATOM      5  C   UNL     1     -48.204  32.627  25.102  1.00  0.00    -0.032 A 
ATOM      6  C   UNL     1     -47.103  31.885  24.724  1.00  0.00     0.030 A 
ATOM      7  N   UNL     1     -46.012  32.426  25.364  1.00  0.00    -0.357 N 
ATOM      8  C   UNL     1     -46.388  33.490  26.148  1.00  0.00     0.046 A 
ATOM      9  C   UNL     1     -45.620  34.322  26.971  1.00  0.00    -0.033 A 
ATOM     10  H   UNL     1     -48.169  36.320  28.060  1.00  0.00     0.063 H 
ATOM     11  H   UNL     1     -49.484  34.819  26.601  1.00  0.00     0.063 H 
ATOM     12  H   UNL     1     -49.221  32.462  24.771  1.00  0.00     0.065 H 
ATOM     13  H   UNL     1     -45.074  32.056  25.283  1.00  0.00     0.166 HD
ATOM     14  H   UNL     1     -44.547  34.182  27.062  1.00  0.00     0.065 H 
ENDROOT
BRANCH   1  15
ATOM     15  C   UNL     1     -45.491  36.284  28.550  1.00  0.00     0.043 C 
ATOM     16  H   UNL     1     -44.485  35.890  28.740  1.00  0.00     0.054 H 
ATOM     17  H   UNL     1     -45.971  36.406  29.527  1.00  0.00     0.054 H 
BRANCH  15  18
ATOM     18  N   UNL     1     -45.366  37.576  27.928  1.00  0.00    -0.347 N 
ATOM     19  O   UNL     1     -44.438  38.627  29.745  1.00  0.00    -0.268 OA
ATOM     20  C   UNL     1     -44.826  38.653  28.584  1.00  0.00     0.270 C 
ATOM     21  H   UNL     1     -45.625  37.704  26.955  1.00  0.00     0.164 HD
BRANCH  20  22
ATOM     22  C   UNL     1     -44.757  39.883  27.712  1.00  0.00     0.136 A 
ATOM     23  C   UNL     1     -45.908  40.299  27.179  1.00  0.00     0.035 A 
ATOM     24  N   UNL     1     -43.539  40.493  27.523  1.00  0.00    -0.225 NA
ATOM     25  C   UNL     1     -45.887  41.492  26.323  1.00  0.00     0.258 A 
ATOM     26  H   UNL     1     -46.861  39.810  27.335  1.00  0.00     0.071 H 
ATOM     27  C   UNL     1     -43.524  41.547  26.766  1.00  0.00     0.140 A 
ATOM     28  O   UNL     1     -46.942  41.882  25.827  1.00  0.00    -0.269 OA
ATOM     29  N   UNL     1     -44.646  42.087  26.148  1.00  0.00    -0.268 N 
ATOM     30  C   UNL     1     -42.225  42.240  26.532  1.00  0.00    -0.019 A 
ATOM     31  C   UNL     1     -44.547  43.223  25.350  1.00  0.00     0.014 A 
ATOM     32  C   UNL     1     -42.179  43.329  25.756  1.00  0.00    -0.057 A 
ATOM     33  H   UNL     1     -41.345  41.826  27.009  1.00  0.00     0.066 H 
ATOM     34  C   UNL     1     -43.377  43.839  25.143  1.00  0.00    -0.045 A 
ATOM     35  H   UNL     1     -45.464  43.590  24.898  1.00  0.00     0.082 H 
ATOM     36  H   UNL     1     -41.243  43.847  25.574  1.00  0.00     0.062 H 
ATOM     37  H   UNL     1     -43.311  44.725  24.519  1.00  0.00     0.064 H 
ENDBRANCH  20  22
ENDBRANCH  15  18
ENDBRANCH   1  15
BRANCH   6  38
ATOM     38  C   UNL     1     -46.975  30.716  23.803  1.00  0.00     0.039 C 
ATOM     39  H   UNL     1     -45.908  30.465  23.739  1.00  0.00     0.050 H 
ATOM     40  H   UNL     1     -47.293  31.004  22.793  1.00  0.00     0.050 H 
BRANCH  38  41
ATOM     41  N   UNL     1     -47.706  29.549  24.322  1.00  0.00    -0.297 NA
ATOM     42  C   UNL     1     -47.481  28.366  23.460  1.00  0.00     0.008 C 
ATOM     43  C   UNL     1     -49.129  29.575  23.898  1.00  0.00     0.008 C 
ATOM     44  C   UNL     1     -48.778  28.681  22.696  1.00  0.00     0.045 C 
ATOM     45  H   UNL     1     -46.567  28.367  22.855  1.00  0.00     0.044 H 
ATOM     46  H   UNL     1     -47.502  27.426  24.025  1.00  0.00     0.044 H 
ATOM     47  H   UNL     1     -49.794  29.109  24.636  1.00  0.00     0.044 H 
ATOM     48  H   UNL     1     -49.554  30.553  23.644  1.00  0.00     0.044 H 
ATOM     49  H   UNL     1     -48.593  29.263  21.783  1.00  0.00     0.039 H 
BRANCH  44  50
ATOM     50  C   UNL     1     -49.694  27.524  22.416  1.00  0.00     0.243 C 
ATOM     51  F   UNL     1     -49.415  27.034  21.181  1.00  0.00    -0.210 F 
ATOM     52  F   UNL     1     -50.986  27.934  22.392  1.00  0.00    -0.210 F 
ATOM     53  H   UNL     1     -49.591  26.717  23.147  1.00  0.00     0.104 H 
ENDBRANCH  44  50
ENDBRANCH  38  41
ENDBRANCH   6  38
TORSDOF 6
ENDMDL
