MODEL 1
REMARK VINA RESULT:     -10.0      0.000      0.000
REMARK SMILES CNc1ccc2ccc(OC[C@H]3O[C@@H](n4cc(C5CCCC5)c5c(N)ncnc54)[C@H](O)[C@@H]3O)cc2n1
REMARK SMILES IDX 11 1 10 4 9 5 3 6 4 7 36 8 5 9 35 11 6 12 34 14 7 15 8 17
REMARK SMILES IDX 2 20 1 22 12 26 13 27 32 28 14 30 30 31 33 35 15 37 16 38
REMARK SMILES IDX 29 39 17 40 23 42 28 43 24 44 27 45 26 46 18 48 19 49 22 50
REMARK SMILES IDX 20 52 21 55 25 62 31 65
REMARK H PARENT 11 2 11 3 4 10 5 13 34 16 7 18 8 19 2 21 1 23 1 24 1 25 12 29
REMARK H PARENT 32 32 14 33 30 34 33 36 16 41 27 47 18 51 19 53 19 54 22 56
REMARK H PARENT 22 57 20 58 20 59 21 60 21 61 25 63 25 64 31 66
REMARK Flexibility Score: inf
ROOT
ATOM      1  C   UNL     1     -47.973  35.767  27.065  1.00  0.00     0.117 C 
ATOM      2  H   UNL     1     -47.678  35.991  26.033  1.00  0.00     0.073 H 
ATOM      3  H   UNL     1     -48.683  36.546  27.353  1.00  0.00     0.073 H 
ENDROOT
BRANCH   1   4
ATOM      4  O   UNL     1     -48.556  34.459  27.026  1.00  0.00    -0.491 OA
BRANCH   4   5
ATOM      5  C   UNL     1     -48.051  33.556  26.133  1.00  0.00     0.121 A 
ATOM      6  C   UNL     1     -49.166  29.663  23.648  1.00  0.00     0.126 A 
ATOM      7  C   UNL     1     -47.950  29.685  22.974  1.00  0.00    -0.019 A 
ATOM      8  N   UNL     1     -49.447  30.541  24.630  1.00  0.00    -0.231 NA
ATOM      9  C   UNL     1     -47.008  30.655  23.297  1.00  0.00    -0.049 A 
ATOM     10  H   UNL     1     -47.739  28.951  22.204  1.00  0.00     0.066 H 
ATOM     11  C   UNL     1     -48.558  31.507  24.916  1.00  0.00     0.076 A 
ATOM     12  C   UNL     1     -47.314  31.608  24.271  1.00  0.00     0.001 A 
ATOM     13  H   UNL     1     -46.059  30.677  22.771  1.00  0.00     0.063 H 
ATOM     14  C   UNL     1     -48.887  32.468  25.859  1.00  0.00     0.007 A 
ATOM     15  C   UNL     1     -46.431  32.649  24.598  1.00  0.00    -0.049 A 
ATOM     16  H   UNL     1     -49.846  32.386  26.363  1.00  0.00     0.069 H 
ATOM     17  C   UNL     1     -46.804  33.625  25.524  1.00  0.00    -0.019 A 
ATOM     18  H   UNL     1     -45.459  32.721  24.115  1.00  0.00     0.063 H 
ATOM     19  H   UNL     1     -46.093  34.411  25.751  1.00  0.00     0.066 H 
BRANCH   6  20
ATOM     20  N   UNL     1     -50.113  28.696  23.252  1.00  0.00    -0.373 N 
ATOM     21  H   UNL     1     -50.520  28.324  24.110  1.00  0.00     0.161 HD
BRANCH  20  22
ATOM     22  C   UNL     1     -49.547  27.620  22.453  1.00  0.00     0.005 C 
ATOM     23  H   UNL     1     -50.341  26.905  22.210  1.00  0.00     0.045 H 
ATOM     24  H   UNL     1     -49.146  27.996  21.505  1.00  0.00     0.045 H 
ATOM     25  H   UNL     1     -48.766  27.074  22.992  1.00  0.00     0.045 H 
ENDBRANCH  20  22
ENDBRANCH   6  20
ENDBRANCH   4   5
ENDBRANCH   1   4
BRANCH   1  26
ATOM     26  C   UNL     1     -46.719  35.834  27.950  1.00  0.00     0.123 C 
ATOM     27  O   UNL     1     -45.788  36.805  27.419  1.00  0.00    -0.345 OA
ATOM     28  C   UNL     1     -47.001  36.220  29.397  1.00  0.00     0.114 C 
ATOM     29  H   UNL     1     -46.214  34.862  27.898  1.00  0.00     0.067 H 
ATOM     30  C   UNL     1     -45.504  37.786  28.448  1.00  0.00     0.164 C 
ATOM     31  C   UNL     1     -46.663  37.697  29.448  1.00  0.00     0.128 C 
ATOM     32  H   UNL     1     -48.016  35.993  29.735  1.00  0.00     0.066 H 
ATOM     33  H   UNL     1     -44.547  37.525  28.917  1.00  0.00     0.088 H 
ATOM     34  H   UNL     1     -47.522  38.294  29.139  1.00  0.00     0.068 H 
BRANCH  28  35
ATOM     35  O   UNL     1     -46.103  35.509  30.267  1.00  0.00    -0.387 OA
ATOM     36  H   UNL     1     -46.434  35.696  31.171  1.00  0.00     0.211 HD
ENDBRANCH  28  35
BRANCH  30  37
ATOM     37  N   UNL     1     -45.295  39.089  27.821  1.00  0.00    -0.303 N 
ATOM     38  C   UNL     1     -44.077  39.724  27.714  1.00  0.00     0.013 A 
ATOM     39  C   UNL     1     -46.276  39.930  27.351  1.00  0.00     0.147 A 
ATOM     40  C   UNL     1     -44.253  40.956  27.108  1.00  0.00    -0.014 A 
ATOM     41  H   UNL     1     -43.179  39.233  28.069  1.00  0.00     0.082 H 
ATOM     42  C   UNL     1     -45.666  41.084  26.864  1.00  0.00     0.065 A 
ATOM     43  N   UNL     1     -47.597  39.670  27.361  1.00  0.00    -0.218 NA
ATOM     44  C   UNL     1     -46.524  42.049  26.300  1.00  0.00     0.136 A 
ATOM     45  C   UNL     1     -48.303  40.664  26.797  1.00  0.00     0.120 A 
ATOM     46  N   UNL     1     -47.851  41.820  26.283  1.00  0.00    -0.219 NA
ATOM     47  H   UNL     1     -49.379  40.519  26.753  1.00  0.00     0.106 H 
BRANCH  40  48
ATOM     48  C   UNL     1     -43.191  41.975  26.778  1.00  0.00    -0.014 C 
ATOM     49  C   UNL     1     -41.748  41.462  26.836  1.00  0.00    -0.046 C 
ATOM     50  C   UNL     1     -43.163  43.134  27.780  1.00  0.00    -0.046 C 
ATOM     51  H   UNL     1     -43.390  42.351  25.768  1.00  0.00     0.035 H 
ATOM     52  C   UNL     1     -41.254  41.721  28.261  1.00  0.00    -0.053 C 
ATOM     53  H   UNL     1     -41.634  40.412  26.550  1.00  0.00     0.027 H 
ATOM     54  H   UNL     1     -41.131  42.049  26.143  1.00  0.00     0.027 H 
ATOM     55  C   UNL     1     -42.285  42.633  28.917  1.00  0.00    -0.053 C 
ATOM     56  H   UNL     1     -44.152  43.436  28.137  1.00  0.00     0.027 H 
ATOM     57  H   UNL     1     -42.692  44.010  27.316  1.00  0.00     0.027 H 
ATOM     58  H   UNL     1     -40.265  42.192  28.241  1.00  0.00     0.027 H 
ATOM     59  H   UNL     1     -41.155  40.785  28.823  1.00  0.00     0.027 H 
ATOM     60  H   UNL     1     -41.816  43.456  29.465  1.00  0.00     0.027 H 
ATOM     61  H   UNL     1     -42.884  42.061  29.635  1.00  0.00     0.027 H 
ENDBRANCH  40  48
BRANCH  44  62
ATOM     62  N   UNL     1     -46.112  43.269  25.770  1.00  0.00    -0.383 N 
ATOM     63  H   UNL     1     -46.839  43.623  25.157  1.00  0.00     0.158 HD
ATOM     64  H   UNL     1     -45.790  43.921  26.471  1.00  0.00     0.158 HD
ENDBRANCH  44  62
ENDBRANCH  30  37
BRANCH  31  65
ATOM     65  O   UNL     1     -46.313  38.060  30.789  1.00  0.00    -0.386 OA
ATOM     66  H   UNL     1     -45.380  38.368  30.728  1.00  0.00     0.211 HD
ENDBRANCH  31  65
ENDBRANCH   1  26
TORSDOF 10
ENDMDL
MODEL 2
REMARK VINA RESULT:      -9.7      3.664     11.621
REMARK SMILES CNc1ccc2ccc(OC[C@H]3O[C@@H](n4cc(C5CCCC5)c5c(N)ncnc54)[C@H](O)[C@@H]3O)cc2n1
REMARK SMILES IDX 11 1 10 4 9 5 3 6 4 7 36 8 5 9 35 11 6 12 34 14 7 15 8 17
REMARK SMILES IDX 2 20 1 22 12 26 13 27 32 28 14 30 30 31 33 35 15 37 16 38
REMARK SMILES IDX 29 39 17 40 23 42 28 43 24 44 27 45 26 46 18 48 19 49 22 50
REMARK SMILES IDX 20 52 21 55 25 62 31 65
REMARK H PARENT 11 2 11 3 4 10 5 13 34 16 7 18 8 19 2 21 1 23 1 24 1 25 12 29
REMARK H PARENT 32 32 14 33 30 34 33 36 16 41 27 47 18 51 19 53 19 54 22 56
REMARK H PARENT 22 57 20 58 20 59 21 60 21 61 25 63 25 64 31 66
REMARK Flexibility Score: inf
ROOT
ATOM      1  C   UNL     1     -45.982  32.037  23.083  1.00  0.00     0.117 C 
ATOM      2  H   UNL     1     -46.561  32.941  22.862  1.00  0.00     0.073 H 
ATOM      3  H   UNL     1     -44.930  32.326  23.014  1.00  0.00     0.073 H 
ENDROOT
BRANCH   1   4
ATOM      4  O   UNL     1     -46.372  31.640  24.403  1.00  0.00    -0.491 OA
BRANCH   4   5
ATOM      5  C   UNL     1     -47.133  32.505  25.137  1.00  0.00     0.121 A 
ATOM      6  C   UNL     1     -47.093  36.808  27.151  1.00  0.00     0.126 A 
ATOM      7  C   UNL     1     -48.433  36.707  27.509  1.00  0.00    -0.019 A 
ATOM      8  N   UNL     1     -46.437  35.786  26.569  1.00  0.00    -0.231 NA
ATOM      9  C   UNL     1     -49.127  35.534  27.233  1.00  0.00    -0.049 A 
ATOM     10  H   UNL     1     -48.931  37.537  27.999  1.00  0.00     0.066 H 
ATOM     11  C   UNL     1     -47.114  34.668  26.260  1.00  0.00     0.076 A 
ATOM     12  C   UNL     1     -48.473  34.492  26.574  1.00  0.00     0.001 A 
ATOM     13  H   UNL     1     -50.174  35.454  27.509  1.00  0.00     0.063 H 
ATOM     14  C   UNL     1     -46.464  33.653  25.574  1.00  0.00     0.007 A 
ATOM     15  C   UNL     1     -49.134  33.308  26.212  1.00  0.00    -0.049 A 
ATOM     16  H   UNL     1     -45.412  33.785  25.339  1.00  0.00     0.069 H 
ATOM     17  C   UNL     1     -48.465  32.319  25.489  1.00  0.00    -0.019 A 
ATOM     18  H   UNL     1     -50.180  33.160  26.469  1.00  0.00     0.063 H 
ATOM     19  H   UNL     1     -49.010  31.419  25.231  1.00  0.00     0.066 H 
BRANCH   6  20
ATOM     20  N   UNL     1     -46.442  38.034  27.401  1.00  0.00    -0.373 N 
ATOM     21  H   UNL     1     -46.524  38.583  26.545  1.00  0.00     0.161 HD
BRANCH  20  22
ATOM     22  C   UNL     1     -45.044  37.886  27.775  1.00  0.00     0.005 C 
ATOM     23  H   UNL     1     -44.943  38.073  28.849  1.00  0.00     0.045 H 
ATOM     24  H   UNL     1     -44.686  36.867  27.586  1.00  0.00     0.045 H 
ATOM     25  H   UNL     1     -44.401  38.604  27.255  1.00  0.00     0.045 H 
ENDBRANCH  20  22
ENDBRANCH   6  20
ENDBRANCH   4   5
ENDBRANCH   1   4
BRANCH   1  26
ATOM     26  C   UNL     1     -46.315  30.980  22.020  1.00  0.00     0.123 C 
ATOM     27  O   UNL     1     -46.650  29.725  22.655  1.00  0.00    -0.345 OA
ATOM     28  C   UNL     1     -47.481  31.357  21.114  1.00  0.00     0.114 C 
ATOM     29  H   UNL     1     -45.409  30.795  21.430  1.00  0.00     0.067 H 
ATOM     30  C   UNL     1     -47.971  29.321  22.215  1.00  0.00     0.164 C 
ATOM     31  C   UNL     1     -48.653  30.596  21.702  1.00  0.00     0.128 C 
ATOM     32  H   UNL     1     -47.658  32.433  21.029  1.00  0.00     0.066 H 
ATOM     33  H   UNL     1     -47.857  28.578  21.417  1.00  0.00     0.088 H 
ATOM     34  H   UNL     1     -49.114  31.170  22.507  1.00  0.00     0.068 H 
BRANCH  28  35
ATOM     35  O   UNL     1     -47.233  30.869  19.783  1.00  0.00    -0.387 OA
ATOM     36  H   UNL     1     -46.765  30.018  19.916  1.00  0.00     0.211 HD
ENDBRANCH  28  35
BRANCH  30  37
ATOM     37  N   UNL     1     -48.647  28.627  23.309  1.00  0.00    -0.303 N 
ATOM     38  C   UNL     1     -48.033  28.194  24.463  1.00  0.00     0.013 A 
ATOM     39  C   UNL     1     -49.953  28.197  23.313  1.00  0.00     0.147 A 
ATOM     40  C   UNL     1     -48.958  27.538  25.257  1.00  0.00    -0.014 A 
ATOM     41  H   UNL     1     -46.983  28.403  24.628  1.00  0.00     0.082 H 
ATOM     42  C   UNL     1     -50.197  27.550  24.523  1.00  0.00     0.065 A 
ATOM     43  N   UNL     1     -50.838  28.380  22.315  1.00  0.00    -0.218 NA
ATOM     44  C   UNL     1     -51.508  27.076  24.721  1.00  0.00     0.136 A 
ATOM     45  C   UNL     1     -52.047  27.884  22.626  1.00  0.00     0.120 A 
ATOM     46  N   UNL     1     -52.424  27.249  23.748  1.00  0.00    -0.219 NA
ATOM     47  H   UNL     1     -52.822  28.008  21.875  1.00  0.00     0.106 H 
BRANCH  40  48
ATOM     48  C   UNL     1     -48.727  26.918  26.613  1.00  0.00    -0.014 C 
ATOM     49  C   UNL     1     -47.384  27.259  27.270  1.00  0.00    -0.046 C 
ATOM     50  C   UNL     1     -48.681  25.388  26.554  1.00  0.00    -0.046 C 
ATOM     51  H   UNL     1     -49.536  27.248  27.275  1.00  0.00     0.035 H 
ATOM     52  C   UNL     1     -46.403  26.167  26.838  1.00  0.00    -0.053 C 
ATOM     53  H   UNL     1     -47.010  28.258  27.033  1.00  0.00     0.027 H 
ATOM     54  H   UNL     1     -47.497  27.211  28.361  1.00  0.00     0.027 H 
ATOM     55  C   UNL     1     -47.237  25.065  26.195  1.00  0.00    -0.053 C 
ATOM     56  H   UNL     1     -49.383  24.949  25.839  1.00  0.00     0.027 H 
ATOM     57  H   UNL     1     -48.909  24.975  27.545  1.00  0.00     0.027 H 
ATOM     58  H   UNL     1     -45.850  25.789  27.704  1.00  0.00     0.027 H 
ATOM     59  H   UNL     1     -45.665  26.555  26.126  1.00  0.00     0.027 H 
ATOM     60  H   UNL     1     -46.942  24.070  26.542  1.00  0.00     0.027 H 
ATOM     61  H   UNL     1     -47.105  25.084  25.107  1.00  0.00     0.027 H 
ENDBRANCH  40  48
BRANCH  44  62
ATOM     62  N   UNL     1     -51.948  26.396  25.854  1.00  0.00    -0.383 N 
ATOM     63  H   UNL     1     -52.948  26.536  25.953  1.00  0.00     0.158 HD
ATOM     64  H   UNL     1     -51.646  25.434  25.885  1.00  0.00     0.158 HD
ENDBRANCH  44  62
ENDBRANCH  30  37
BRANCH  31  65
ATOM     65  O   UNL     1     -49.634  30.369  20.682  1.00  0.00    -0.386 OA
ATOM     66  H   UNL     1     -49.656  31.207  20.167  1.00  0.00     0.211 HD
ENDBRANCH  31  65
ENDBRANCH   1  26
TORSDOF 10
ENDMDL
MODEL 3
REMARK VINA RESULT:      -9.5      2.236      3.400
REMARK SMILES CNc1ccc2ccc(OC[C@H]3O[C@@H](n4cc(C5CCCC5)c5c(N)ncnc54)[C@H](O)[C@@H]3O)cc2n1
REMARK SMILES IDX 11 1 10 4 9 5 3 6 4 7 36 8 5 9 35 11 6 12 34 14 7 15 8 17
REMARK SMILES IDX 2 20 1 22 12 26 13 27 32 28 14 30 30 31 33 35 15 37 16 38
REMARK SMILES IDX 29 39 17 40 23 42 28 43 24 44 27 45 26 46 18 48 19 49 22 50
REMARK SMILES IDX 20 52 21 55 25 62 31 65
REMARK H PARENT 11 2 11 3 4 10 5 13 34 16 7 18 8 19 2 21 1 23 1 24 1 25 12 29
REMARK H PARENT 32 32 14 33 30 34 33 36 16 41 27 47 18 51 19 53 19 54 22 56
REMARK H PARENT 22 57 20 58 20 59 21 60 21 61 25 63 25 64 31 66
REMARK Flexibility Score: inf
ROOT
ATOM      1  C   UNL     1     -46.489  35.720  26.597  1.00  0.00     0.117 C 
ATOM      2  H   UNL     1     -45.494  36.105  26.347  1.00  0.00     0.073 H 
ATOM      3  H   UNL     1     -47.124  35.938  25.733  1.00  0.00     0.073 H 
ENDROOT
BRANCH   1   4
ATOM      4  O   UNL     1     -46.315  34.317  26.829  1.00  0.00    -0.491 OA
BRANCH   4   5
ATOM      5  C   UNL     1     -47.002  33.444  26.034  1.00  0.00     0.121 A 
ATOM      6  C   UNL     1     -46.447  30.249  22.562  1.00  0.00     0.126 A 
ATOM      7  C   UNL     1     -47.786  29.877  22.622  1.00  0.00    -0.019 A 
ATOM      8  N   UNL     1     -45.957  31.256  23.310  1.00  0.00    -0.231 NA
ATOM      9  C   UNL     1     -48.639  30.538  23.499  1.00  0.00    -0.049 A 
ATOM     10  H   UNL     1     -48.160  29.080  21.990  1.00  0.00     0.066 H 
ATOM     11  C   UNL     1     -46.767  31.868  24.191  1.00  0.00     0.076 A 
ATOM     12  C   UNL     1     -48.127  31.542  24.325  1.00  0.00     0.001 A 
ATOM     13  H   UNL     1     -49.684  30.249  23.551  1.00  0.00     0.063 H 
ATOM     14  C   UNL     1     -46.240  32.837  25.030  1.00  0.00     0.007 A 
ATOM     15  C   UNL     1     -48.922  32.203  25.274  1.00  0.00    -0.049 A 
ATOM     16  H   UNL     1     -45.190  33.095  24.921  1.00  0.00     0.069 H 
ATOM     17  C   UNL     1     -48.357  33.149  26.132  1.00  0.00    -0.019 A 
ATOM     18  H   UNL     1     -49.980  31.967  25.368  1.00  0.00     0.063 H 
ATOM     19  H   UNL     1     -49.005  33.638  26.849  1.00  0.00     0.066 H 
BRANCH   6  20
ATOM     20  N   UNL     1     -45.606  29.517  21.698  1.00  0.00    -0.373 N 
ATOM     21  H   UNL     1     -46.216  28.908  21.152  1.00  0.00     0.161 HD
BRANCH  20  22
ATOM     22  C   UNL     1     -44.598  28.731  22.392  1.00  0.00     0.005 C 
ATOM     23  H   UNL     1     -43.913  28.303  21.654  1.00  0.00     0.045 H 
ATOM     24  H   UNL     1     -44.001  29.356  23.067  1.00  0.00     0.045 H 
ATOM     25  H   UNL     1     -45.039  27.901  22.953  1.00  0.00     0.045 H 
ENDBRANCH  20  22
ENDBRANCH   6  20
ENDBRANCH   4   5
ENDBRANCH   1   4
BRANCH   1  26
ATOM     26  C   UNL     1     -46.999  36.471  27.836  1.00  0.00     0.123 C 
ATOM     27  O   UNL     1     -45.962  37.333  28.356  1.00  0.00    -0.345 OA
ATOM     28  C   UNL     1     -48.224  37.340  27.574  1.00  0.00     0.114 C 
ATOM     29  H   UNL     1     -47.208  35.732  28.619  1.00  0.00     0.067 H 
ATOM     30  C   UNL     1     -46.467  38.692  28.401  1.00  0.00     0.164 C 
ATOM     31  C   UNL     1     -47.649  38.735  27.425  1.00  0.00     0.128 C 
ATOM     32  H   UNL     1     -48.828  37.024  26.719  1.00  0.00     0.066 H 
ATOM     33  H   UNL     1     -46.786  38.906  29.429  1.00  0.00     0.088 H 
ATOM     34  H   UNL     1     -47.328  38.906  26.396  1.00  0.00     0.068 H 
BRANCH  28  35
ATOM     35  O   UNL     1     -49.085  37.316  28.726  1.00  0.00    -0.387 OA
ATOM     36  H   UNL     1     -49.109  38.246  29.036  1.00  0.00     0.211 HD
ENDBRANCH  28  35
BRANCH  30  37
ATOM     37  N   UNL     1     -45.371  39.618  28.126  1.00  0.00    -0.303 N 
ATOM     38  C   UNL     1     -45.288  40.429  27.016  1.00  0.00     0.013 A 
ATOM     39  C   UNL     1     -44.211  39.742  28.853  1.00  0.00     0.147 A 
ATOM     40  C   UNL     1     -44.099  41.139  27.053  1.00  0.00    -0.014 A 
ATOM     41  H   UNL     1     -46.096  40.441  26.294  1.00  0.00     0.082 H 
ATOM     42  C   UNL     1     -43.412  40.706  28.242  1.00  0.00     0.065 A 
ATOM     43  N   UNL     1     -43.912  39.049  29.968  1.00  0.00    -0.218 NA
ATOM     44  C   UNL     1     -42.191  40.997  28.881  1.00  0.00     0.136 A 
ATOM     45  C   UNL     1     -42.724  39.418  30.479  1.00  0.00     0.120 A 
ATOM     46  N   UNL     1     -41.860  40.330  30.004  1.00  0.00    -0.219 NA
ATOM     47  H   UNL     1     -42.420  38.913  31.391  1.00  0.00     0.106 H 
BRANCH  40  48
ATOM     48  C   UNL     1     -43.606  42.153  26.052  1.00  0.00    -0.014 C 
ATOM     49  C   UNL     1     -43.522  43.595  26.565  1.00  0.00    -0.046 C 
ATOM     50  C   UNL     1     -44.545  42.290  24.849  1.00  0.00    -0.046 C 
ATOM     51  H   UNL     1     -42.609  41.839  25.721  1.00  0.00     0.035 H 
ATOM     52  C   UNL     1     -44.869  44.247  26.243  1.00  0.00    -0.053 C 
ATOM     53  H   UNL     1     -43.273  43.679  27.626  1.00  0.00     0.027 H 
ATOM     54  H   UNL     1     -42.738  44.128  26.010  1.00  0.00     0.027 H 
ATOM     55  C   UNL     1     -45.596  43.294  25.301  1.00  0.00    -0.053 C 
ATOM     56  H   UNL     1     -44.998  41.347  24.530  1.00  0.00     0.027 H 
ATOM     57  H   UNL     1     -43.991  42.703  23.996  1.00  0.00     0.027 H 
ATOM     58  H   UNL     1     -44.715  45.225  25.775  1.00  0.00     0.027 H 
ATOM     59  H   UNL     1     -45.458  44.412  27.153  1.00  0.00     0.027 H 
ATOM     60  H   UNL     1     -46.050  43.819  24.455  1.00  0.00     0.027 H 
ATOM     61  H   UNL     1     -46.402  42.782  25.839  1.00  0.00     0.027 H 
ENDBRANCH  40  48
BRANCH  44  62
ATOM     62  N   UNL     1     -41.251  41.918  28.423  1.00  0.00    -0.383 N 
ATOM     63  H   UNL     1     -41.720  42.798  28.235  1.00  0.00     0.158 HD
ATOM     64  H   UNL     1     -40.437  41.985  29.015  1.00  0.00     0.158 HD
ENDBRANCH  44  62
ENDBRANCH  30  37
BRANCH  31  65
ATOM     65  O   UNL     1     -48.652  39.703  27.757  1.00  0.00    -0.386 OA
ATOM     66  H   UNL     1     -49.064  39.939  26.896  1.00  0.00     0.211 HD
ENDBRANCH  31  65
ENDBRANCH   1  26
TORSDOF 10
ENDMDL
MODEL 4
REMARK VINA RESULT:      -9.5      2.251     11.049
REMARK SMILES CNc1ccc2ccc(OC[C@H]3O[C@@H](n4cc(C5CCCC5)c5c(N)ncnc54)[C@H](O)[C@@H]3O)cc2n1
REMARK SMILES IDX 11 1 10 4 9 5 3 6 4 7 36 8 5 9 35 11 6 12 34 14 7 15 8 17
REMARK SMILES IDX 2 20 1 22 12 26 13 27 32 28 14 30 30 31 33 35 15 37 16 38
REMARK SMILES IDX 29 39 17 40 23 42 28 43 24 44 27 45 26 46 18 48 19 49 22 50
REMARK SMILES IDX 20 52 21 55 25 62 31 65
REMARK H PARENT 11 2 11 3 4 10 5 13 34 16 7 18 8 19 2 21 1 23 1 24 1 25 12 29
REMARK H PARENT 32 32 14 33 30 34 33 36 16 41 27 47 18 51 19 53 19 54 22 56
REMARK H PARENT 22 57 20 58 20 59 21 60 21 61 25 63 25 64 31 66
REMARK Flexibility Score: inf
ROOT
ATOM      1  C   UNL     1     -48.666  34.554  26.591  1.00  0.00     0.117 C 
ATOM      2  H   UNL     1     -49.661  34.099  26.528  1.00  0.00     0.073 H 
ATOM      3  H   UNL     1     -48.563  35.182  25.702  1.00  0.00     0.073 H 
ENDROOT
BRANCH   1   4
ATOM      4  O   UNL     1     -48.656  35.300  27.813  1.00  0.00    -0.491 OA
BRANCH   4   5
ATOM      5  C   UNL     1     -47.584  36.110  28.064  1.00  0.00     0.121 A 
ATOM      6  C   UNL     1     -45.368  40.031  26.553  1.00  0.00     0.126 A 
ATOM      7  C   UNL     1     -44.479  40.001  27.623  1.00  0.00    -0.019 A 
ATOM      8  N   UNL     1     -46.274  39.054  26.357  1.00  0.00    -0.231 NA
ATOM      9  C   UNL     1     -44.544  38.953  28.534  1.00  0.00    -0.049 A 
ATOM     10  H   UNL     1     -43.742  40.787  27.743  1.00  0.00     0.066 H 
ATOM     11  C   UNL     1     -46.370  38.063  27.259  1.00  0.00     0.076 A 
ATOM     12  C   UNL     1     -45.521  37.967  28.375  1.00  0.00     0.001 A 
ATOM     13  H   UNL     1     -43.854  38.928  29.372  1.00  0.00     0.063 H 
ATOM     14  C   UNL     1     -47.366  37.110  27.111  1.00  0.00     0.007 A 
ATOM     15  C   UNL     1     -45.678  36.919  29.295  1.00  0.00    -0.049 A 
ATOM     16  H   UNL     1     -48.017  37.180  26.244  1.00  0.00     0.069 H 
ATOM     17  C   UNL     1     -46.713  35.995  29.141  1.00  0.00    -0.019 A 
ATOM     18  H   UNL     1     -45.011  36.830  30.149  1.00  0.00     0.063 H 
ATOM     19  H   UNL     1     -46.799  35.199  29.871  1.00  0.00     0.066 H 
BRANCH   6  20
ATOM     20  N   UNL     1     -45.302  41.139  25.683  1.00  0.00    -0.373 N 
ATOM     21  H   UNL     1     -44.318  41.400  25.625  1.00  0.00     0.161 HD
BRANCH  20  22
ATOM     22  C   UNL     1     -46.101  42.273  26.122  1.00  0.00     0.005 C 
ATOM     23  H   UNL     1     -46.963  41.902  26.685  1.00  0.00     0.045 H 
ATOM     24  H   UNL     1     -45.530  42.927  26.791  1.00  0.00     0.045 H 
ATOM     25  H   UNL     1     -46.485  42.856  25.278  1.00  0.00     0.045 H 
ENDBRANCH  20  22
ENDBRANCH   6  20
ENDBRANCH   4   5
ENDBRANCH   1   4
BRANCH   1  26
ATOM     26  C   UNL     1     -47.620  33.428  26.571  1.00  0.00     0.123 C 
ATOM     27  O   UNL     1     -48.276  32.142  26.489  1.00  0.00    -0.345 OA
ATOM     28  C   UNL     1     -46.639  33.513  25.407  1.00  0.00     0.114 C 
ATOM     29  H   UNL     1     -47.088  33.443  27.530  1.00  0.00     0.067 H 
ATOM     30  C   UNL     1     -47.777  31.441  25.323  1.00  0.00     0.164 C 
ATOM     31  C   UNL     1     -47.186  32.517  24.404  1.00  0.00     0.128 C 
ATOM     32  H   UNL     1     -46.510  34.519  24.998  1.00  0.00     0.066 H 
ATOM     33  H   UNL     1     -47.011  30.728  25.651  1.00  0.00     0.088 H 
ATOM     34  H   UNL     1     -47.945  32.987  23.776  1.00  0.00     0.068 H 
BRANCH  28  35
ATOM     35  O   UNL     1     -45.341  33.069  25.840  1.00  0.00    -0.387 OA
ATOM     36  H   UNL     1     -44.714  33.705  25.435  1.00  0.00     0.211 HD
ENDBRANCH  28  35
BRANCH  30  37
ATOM     37  N   UNL     1     -48.854  30.633  24.755  1.00  0.00    -0.303 N 
ATOM     38  C   UNL     1     -49.776  31.085  23.838  1.00  0.00     0.013 A 
ATOM     39  C   UNL     1     -49.188  29.351  25.125  1.00  0.00     0.147 A 
ATOM     40  C   UNL     1     -50.677  30.072  23.554  1.00  0.00    -0.014 A 
ATOM     41  H   UNL     1     -49.704  32.094  23.452  1.00  0.00     0.082 H 
ATOM     42  C   UNL     1     -50.291  28.952  24.373  1.00  0.00     0.065 A 
ATOM     43  N   UNL     1     -48.547  28.615  26.053  1.00  0.00    -0.218 NA
ATOM     44  C   UNL     1     -50.749  27.638  24.591  1.00  0.00     0.136 A 
ATOM     45  C   UNL     1     -49.080  27.386  26.166  1.00  0.00     0.120 A 
ATOM     46  N   UNL     1     -50.128  26.868  25.506  1.00  0.00    -0.219 NA
ATOM     47  H   UNL     1     -48.605  26.725  26.886  1.00  0.00     0.106 H 
BRANCH  40  48
ATOM     48  C   UNL     1     -51.839  30.121  22.594  1.00  0.00    -0.014 C 
ATOM     49  C   UNL     1     -51.507  29.762  21.141  1.00  0.00    -0.046 C 
ATOM     50  C   UNL     1     -52.421  31.531  22.455  1.00  0.00    -0.046 C 
ATOM     51  H   UNL     1     -52.606  29.429  22.961  1.00  0.00     0.035 H 
ATOM     52  C   UNL     1     -51.148  31.075  20.443  1.00  0.00    -0.053 C 
ATOM     53  H   UNL     1     -50.715  29.015  21.034  1.00  0.00     0.027 H 
ATOM     54  H   UNL     1     -52.403  29.348  20.661  1.00  0.00     0.027 H 
ATOM     55  C   UNL     1     -51.556  32.196  21.393  1.00  0.00    -0.053 C 
ATOM     56  H   UNL     1     -52.427  32.104  23.387  1.00  0.00     0.027 H 
ATOM     57  H   UNL     1     -53.455  31.468  22.093  1.00  0.00     0.027 H 
ATOM     58  H   UNL     1     -51.678  31.155  19.488  1.00  0.00     0.027 H 
ATOM     59  H   UNL     1     -50.075  31.129  20.224  1.00  0.00     0.027 H 
ATOM     60  H   UNL     1     -52.089  33.000  20.875  1.00  0.00     0.027 H 
ATOM     61  H   UNL     1     -50.665  32.638  21.853  1.00  0.00     0.027 H 
ENDBRANCH  40  48
BRANCH  44  62
ATOM     62  N   UNL     1     -51.840  27.057  23.950  1.00  0.00    -0.383 N 
ATOM     63  H   UNL     1     -52.416  26.589  24.641  1.00  0.00     0.158 HD
ATOM     64  H   UNL     1     -52.334  27.696  23.344  1.00  0.00     0.158 HD
ENDBRANCH  44  62
ENDBRANCH  30  37
BRANCH  31  65
ATOM     65  O   UNL     1     -46.121  32.054  23.564  1.00  0.00    -0.386 OA
ATOM     66  H   UNL     1     -45.423  31.754  24.189  1.00  0.00     0.211 HD
ENDBRANCH  31  65
ENDBRANCH   1  26
TORSDOF 10
ENDMDL
MODEL 5
REMARK VINA RESULT:      -9.5      2.050     10.891
REMARK SMILES CNc1ccc2ccc(OC[C@H]3O[C@@H](n4cc(C5CCCC5)c5c(N)ncnc54)[C@H](O)[C@@H]3O)cc2n1
REMARK SMILES IDX 11 1 10 4 9 5 3 6 4 7 36 8 5 9 35 11 6 12 34 14 7 15 8 17
REMARK SMILES IDX 2 20 1 22 12 26 13 27 32 28 14 30 30 31 33 35 15 37 16 38
REMARK SMILES IDX 29 39 17 40 23 42 28 43 24 44 27 45 26 46 18 48 19 49 22 50
REMARK SMILES IDX 20 52 21 55 25 62 31 65
REMARK H PARENT 11 2 11 3 4 10 5 13 34 16 7 18 8 19 2 21 1 23 1 24 1 25 12 29
REMARK H PARENT 32 32 14 33 30 34 33 36 16 41 27 47 18 51 19 53 19 54 22 56
REMARK H PARENT 22 57 20 58 20 59 21 60 21 61 25 63 25 64 31 66
REMARK Flexibility Score: inf
ROOT
ATOM      1  C   UNL     1     -48.906  34.675  26.600  1.00  0.00     0.117 C 
ATOM      2  H   UNL     1     -49.940  34.390  26.374  1.00  0.00     0.073 H 
ATOM      3  H   UNL     1     -48.505  35.112  25.682  1.00  0.00     0.073 H 
ENDROOT
BRANCH   1   4
ATOM      4  O   UNL     1     -48.987  35.610  27.682  1.00  0.00    -0.491 OA
BRANCH   4   5
ATOM      5  C   UNL     1     -47.870  36.332  27.993  1.00  0.00     0.121 A 
ATOM      6  C   UNL     1     -45.328  40.126  26.681  1.00  0.00     0.126 A 
ATOM      7  C   UNL     1     -44.482  40.000  27.778  1.00  0.00    -0.019 A 
ATOM      8  N   UNL     1     -46.294  39.223  26.425  1.00  0.00    -0.231 NA
ATOM      9  C   UNL     1     -44.653  38.933  28.653  1.00  0.00    -0.049 A 
ATOM     10  H   UNL     1     -43.696  40.727  27.947  1.00  0.00     0.066 H 
ATOM     11  C   UNL     1     -46.492  38.216  27.291  1.00  0.00     0.076 A 
ATOM     12  C   UNL     1     -45.692  38.026  28.431  1.00  0.00     0.001 A 
ATOM     13  H   UNL     1     -43.996  38.834  29.511  1.00  0.00     0.063 H 
ATOM     14  C   UNL     1     -47.548  37.342  27.080  1.00  0.00     0.007 A 
ATOM     15  C   UNL     1     -45.956  36.965  29.311  1.00  0.00    -0.049 A 
ATOM     16  H   UNL     1     -48.162  37.484  26.195  1.00  0.00     0.069 H 
ATOM     17  C   UNL     1     -47.048  36.123  29.094  1.00  0.00    -0.019 A 
ATOM     18  H   UNL     1     -45.327  36.804  30.184  1.00  0.00     0.063 H 
ATOM     19  H   UNL     1     -47.216  35.315  29.795  1.00  0.00     0.066 H 
BRANCH   6  20
ATOM     20  N   UNL     1     -45.153  41.251  25.849  1.00  0.00    -0.373 N 
ATOM     21  H   UNL     1     -45.278  40.923  24.891  1.00  0.00     0.161 HD
BRANCH  20  22
ATOM     22  C   UNL     1     -43.854  41.890  25.999  1.00  0.00     0.005 C 
ATOM     23  H   UNL     1     -43.167  41.186  26.479  1.00  0.00     0.045 H 
ATOM     24  H   UNL     1     -43.425  42.153  25.025  1.00  0.00     0.045 H 
ATOM     25  H   UNL     1     -43.906  42.783  26.630  1.00  0.00     0.045 H 
ENDBRANCH  20  22
ENDBRANCH   6  20
ENDBRANCH   4   5
ENDBRANCH   1   4
BRANCH   1  26
ATOM     26  C   UNL     1     -48.126  33.403  26.969  1.00  0.00     0.123 C 
ATOM     27  O   UNL     1     -48.719  32.253  26.324  1.00  0.00    -0.345 OA
ATOM     28  C   UNL     1     -46.655  33.441  26.570  1.00  0.00     0.114 C 
ATOM     29  H   UNL     1     -48.232  33.242  28.048  1.00  0.00     0.067 H 
ATOM     30  C   UNL     1     -47.704  31.594  25.526  1.00  0.00     0.164 C 
ATOM     31  C   UNL     1     -46.613  32.644  25.281  1.00  0.00     0.128 C 
ATOM     32  H   UNL     1     -46.238  34.447  26.476  1.00  0.00     0.066 H 
ATOM     33  H   UNL     1     -47.318  30.740  26.095  1.00  0.00     0.088 H 
ATOM     34  H   UNL     1     -46.842  33.287  24.430  1.00  0.00     0.068 H 
BRANCH  28  35
ATOM     35  O   UNL     1     -45.872  32.755  27.563  1.00  0.00    -0.387 OA
ATOM     36  H   UNL     1     -46.233  31.843  27.577  1.00  0.00     0.211 HD
ENDBRANCH  28  35
BRANCH  30  37
ATOM     37  N   UNL     1     -48.328  31.026  24.334  1.00  0.00    -0.303 N 
ATOM     38  C   UNL     1     -49.514  30.325  24.326  1.00  0.00     0.013 A 
ATOM     39  C   UNL     1     -47.788  30.997  23.070  1.00  0.00     0.147 A 
ATOM     40  C   UNL     1     -49.784  29.894  23.038  1.00  0.00    -0.014 A 
ATOM     41  H   UNL     1     -50.075  30.203  25.244  1.00  0.00     0.082 H 
ATOM     42  C   UNL     1     -48.680  30.337  22.227  1.00  0.00     0.065 A 
ATOM     43  N   UNL     1     -46.600  31.524  22.718  1.00  0.00    -0.218 NA
ATOM     44  C   UNL     1     -48.305  30.250  20.872  1.00  0.00     0.136 A 
ATOM     45  C   UNL     1     -46.361  31.375  21.403  1.00  0.00     0.120 A 
ATOM     46  N   UNL     1     -47.128  30.773  20.480  1.00  0.00    -0.219 NA
ATOM     47  H   UNL     1     -45.425  31.791  21.039  1.00  0.00     0.106 H 
BRANCH  40  48
ATOM     48  C   UNL     1     -50.982  29.108  22.567  1.00  0.00    -0.014 C 
ATOM     49  C   UNL     1     -52.100  28.933  23.600  1.00  0.00    -0.046 C 
ATOM     50  C   UNL     1     -50.629  27.658  22.222  1.00  0.00    -0.046 C 
ATOM     51  H   UNL     1     -51.393  29.618  21.688  1.00  0.00     0.035 H 
ATOM     52  C   UNL     1     -51.802  27.629  24.343  1.00  0.00    -0.053 C 
ATOM     53  H   UNL     1     -52.211  29.776  24.288  1.00  0.00     0.027 H 
ATOM     54  H   UNL     1     -53.059  28.821  23.076  1.00  0.00     0.027 H 
ATOM     55  C   UNL     1     -50.707  26.921  23.552  1.00  0.00    -0.053 C 
ATOM     56  H   UNL     1     -49.648  27.539  21.752  1.00  0.00     0.027 H 
ATOM     57  H   UNL     1     -51.381  27.249  21.536  1.00  0.00     0.027 H 
ATOM     58  H   UNL     1     -52.705  27.012  24.407  1.00  0.00     0.027 H 
ATOM     59  H   UNL     1     -51.469  27.823  25.369  1.00  0.00     0.027 H 
ATOM     60  H   UNL     1     -50.920  25.856  23.418  1.00  0.00     0.027 H 
ATOM     61  H   UNL     1     -49.752  27.000  24.085  1.00  0.00     0.027 H 
ENDBRANCH  40  48
BRANCH  44  62
ATOM     62  N   UNL     1     -49.052  29.622  19.878  1.00  0.00    -0.383 N 
ATOM     63  H   UNL     1     -50.026  29.882  19.987  1.00  0.00     0.158 HD
ATOM     64  H   UNL     1     -48.675  29.756  18.951  1.00  0.00     0.158 HD
ENDBRANCH  44  62
ENDBRANCH  30  37
BRANCH  31  65
ATOM     65  O   UNL     1     -45.300  32.098  25.101  1.00  0.00    -0.386 OA
ATOM     66  H   UNL     1     -45.220  31.958  24.130  1.00  0.00     0.211 HD
ENDBRANCH  31  65
ENDBRANCH   1  26
TORSDOF 10
ENDMDL
MODEL 6
REMARK VINA RESULT:      -9.3      2.292     10.589
REMARK SMILES CNc1ccc2ccc(OC[C@H]3O[C@@H](n4cc(C5CCCC5)c5c(N)ncnc54)[C@H](O)[C@@H]3O)cc2n1
REMARK SMILES IDX 11 1 10 4 9 5 3 6 4 7 36 8 5 9 35 11 6 12 34 14 7 15 8 17
REMARK SMILES IDX 2 20 1 22 12 26 13 27 32 28 14 30 30 31 33 35 15 37 16 38
REMARK SMILES IDX 29 39 17 40 23 42 28 43 24 44 27 45 26 46 18 48 19 49 22 50
REMARK SMILES IDX 20 52 21 55 25 62 31 65
REMARK H PARENT 11 2 11 3 4 10 5 13 34 16 7 18 8 19 2 21 1 23 1 24 1 25 12 29
REMARK H PARENT 32 32 14 33 30 34 33 36 16 41 27 47 18 51 19 53 19 54 22 56
REMARK H PARENT 22 57 20 58 20 59 21 60 21 61 25 63 25 64 31 66
REMARK Flexibility Score: inf
ROOT
ATOM      1  C   UNL     1     -46.832  36.547  26.320  1.00  0.00     0.117 C 
ATOM      2  H   UNL     1     -47.450  36.520  25.415  1.00  0.00     0.073 H 
ATOM      3  H   UNL     1     -45.815  36.306  26.000  1.00  0.00     0.073 H 
ENDROOT
BRANCH   1   4
ATOM      4  O   UNL     1     -46.960  37.876  26.839  1.00  0.00    -0.491 OA
BRANCH   4   5
ATOM      5  C   UNL     1     -45.927  38.381  27.576  1.00  0.00     0.121 A 
ATOM      6  C   UNL     1     -42.726  41.890  27.698  1.00  0.00     0.126 A 
ATOM      7  C   UNL     1     -42.280  41.506  28.959  1.00  0.00    -0.019 A 
ATOM      8  N   UNL     1     -43.653  41.179  27.028  1.00  0.00    -0.231 NA
ATOM      9  C   UNL     1     -42.824  40.376  29.560  1.00  0.00    -0.049 A 
ATOM     10  H   UNL     1     -41.515  42.083  29.466  1.00  0.00     0.066 H 
ATOM     11  C   UNL     1     -44.213  40.112  27.623  1.00  0.00     0.076 A 
ATOM     12  C   UNL     1     -43.830  39.667  28.900  1.00  0.00     0.001 A 
ATOM     13  H   UNL     1     -42.480  40.076  30.544  1.00  0.00     0.063 H 
ATOM     14  C   UNL     1     -45.235  39.437  26.974  1.00  0.00     0.007 A 
ATOM     15  C   UNL     1     -44.462  38.556  29.480  1.00  0.00    -0.049 A 
ATOM     16  H   UNL     1     -45.525  39.776  25.983  1.00  0.00     0.069 H 
ATOM     17  C   UNL     1     -45.513  37.918  28.819  1.00  0.00    -0.019 A 
ATOM     18  H   UNL     1     -44.155  38.197  30.460  1.00  0.00     0.063 H 
ATOM     19  H   UNL     1     -45.973  37.063  29.300  1.00  0.00     0.066 H 
BRANCH   6  20
ATOM     20  N   UNL     1     -42.187  43.071  27.148  1.00  0.00    -0.373 N 
ATOM     21  H   UNL     1     -42.357  43.810  27.831  1.00  0.00     0.161 HD
BRANCH  20  22
ATOM     22  C   UNL     1     -42.762  43.431  25.860  1.00  0.00     0.005 C 
ATOM     23  H   UNL     1     -43.006  44.498  25.868  1.00  0.00     0.045 H 
ATOM     24  H   UNL     1     -42.048  43.265  25.045  1.00  0.00     0.045 H 
ATOM     25  H   UNL     1     -43.687  42.883  25.656  1.00  0.00     0.045 H 
ENDBRANCH  20  22
ENDBRANCH   6  20
ENDBRANCH   4   5
ENDBRANCH   1   4
BRANCH   1  26
ATOM     26  C   UNL     1     -47.354  35.475  27.290  1.00  0.00     0.123 C 
ATOM     27  O   UNL     1     -48.340  34.647  26.632  1.00  0.00    -0.345 OA
ATOM     28  C   UNL     1     -46.271  34.550  27.832  1.00  0.00     0.114 C 
ATOM     29  H   UNL     1     -47.875  35.985  28.110  1.00  0.00     0.067 H 
ATOM     30  C   UNL     1     -47.911  33.265  26.711  1.00  0.00     0.164 C 
ATOM     31  C   UNL     1     -46.401  33.305  26.975  1.00  0.00     0.128 C 
ATOM     32  H   UNL     1     -45.265  34.979  27.828  1.00  0.00     0.066 H 
ATOM     33  H   UNL     1     -48.450  32.783  27.536  1.00  0.00     0.088 H 
ATOM     34  H   UNL     1     -45.823  33.415  26.056  1.00  0.00     0.068 H 
BRANCH  28  35
ATOM     35  O   UNL     1     -46.572  34.205  29.196  1.00  0.00    -0.387 OA
ATOM     36  H   UNL     1     -45.833  33.622  29.473  1.00  0.00     0.211 HD
ENDBRANCH  28  35
BRANCH  30  37
ATOM     37  N   UNL     1     -48.333  32.564  25.500  1.00  0.00    -0.303 N 
ATOM     38  C   UNL     1     -49.641  32.301  25.160  1.00  0.00     0.013 A 
ATOM     39  C   UNL     1     -47.506  31.963  24.581  1.00  0.00     0.147 A 
ATOM     40  C   UNL     1     -49.672  31.583  23.976  1.00  0.00    -0.014 A 
ATOM     41  H   UNL     1     -50.446  32.662  25.789  1.00  0.00     0.082 H 
ATOM     42  C   UNL     1     -48.299  31.376  23.597  1.00  0.00     0.065 A 
ATOM     43  N   UNL     1     -46.160  31.954  24.631  1.00  0.00    -0.218 NA
ATOM     44  C   UNL     1     -47.612  30.744  22.541  1.00  0.00     0.136 A 
ATOM     45  C   UNL     1     -45.629  31.322  23.570  1.00  0.00     0.120 A 
ATOM     46  N   UNL     1     -46.266  30.722  22.552  1.00  0.00    -0.219 NA
ATOM     47  H   UNL     1     -44.543  31.287  23.531  1.00  0.00     0.106 H 
BRANCH  40  48
ATOM     48  C   UNL     1     -50.890  31.098  23.230  1.00  0.00    -0.014 C 
ATOM     49  C   UNL     1     -51.028  31.612  21.793  1.00  0.00    -0.046 C 
ATOM     50  C   UNL     1     -52.196  31.577  23.872  1.00  0.00    -0.046 C 
ATOM     51  H   UNL     1     -50.856  30.003  23.210  1.00  0.00     0.035 H 
ATOM     52  C   UNL     1     -51.850  32.900  21.871  1.00  0.00    -0.053 C 
ATOM     53  H   UNL     1     -50.075  31.769  21.280  1.00  0.00     0.027 H 
ATOM     54  H   UNL     1     -51.591  30.878  21.202  1.00  0.00     0.027 H 
ATOM     55  C   UNL     1     -52.425  32.961  23.282  1.00  0.00    -0.053 C 
ATOM     56  H   UNL     1     -52.170  31.603  24.966  1.00  0.00     0.027 H 
ATOM     57  H   UNL     1     -53.018  30.914  23.572  1.00  0.00     0.027 H 
ATOM     58  H   UNL     1     -52.647  32.889  21.120  1.00  0.00     0.027 H 
ATOM     59  H   UNL     1     -51.229  33.781  21.671  1.00  0.00     0.027 H 
ATOM     60  H   UNL     1     -53.484  33.236  23.283  1.00  0.00     0.027 H 
ATOM     61  H   UNL     1     -51.890  33.716  23.870  1.00  0.00     0.027 H 
ENDBRANCH  40  48
BRANCH  44  62
ATOM     62  N   UNL     1     -48.222  30.093  21.472  1.00  0.00    -0.383 N 
ATOM     63  H   UNL     1     -48.518  30.785  20.792  1.00  0.00     0.158 HD
ATOM     64  H   UNL     1     -47.670  29.335  21.098  1.00  0.00     0.158 HD
ENDBRANCH  44  62
ENDBRANCH  30  37
BRANCH  31  65
ATOM     65  O   UNL     1     -45.898  32.174  27.698  1.00  0.00    -0.386 OA
ATOM     66  H   UNL     1     -44.943  32.136  27.466  1.00  0.00     0.211 HD
ENDBRANCH  31  65
ENDBRANCH   1  26
TORSDOF 10
ENDMDL
MODEL 7
REMARK VINA RESULT:      -8.9      2.246     11.229
REMARK SMILES CNc1ccc2ccc(OC[C@H]3O[C@@H](n4cc(C5CCCC5)c5c(N)ncnc54)[C@H](O)[C@@H]3O)cc2n1
REMARK SMILES IDX 11 1 10 4 9 5 3 6 4 7 36 8 5 9 35 11 6 12 34 14 7 15 8 17
REMARK SMILES IDX 2 20 1 22 12 26 13 27 32 28 14 30 30 31 33 35 15 37 16 38
REMARK SMILES IDX 29 39 17 40 23 42 28 43 24 44 27 45 26 46 18 48 19 49 22 50
REMARK SMILES IDX 20 52 21 55 25 62 31 65
REMARK H PARENT 11 2 11 3 4 10 5 13 34 16 7 18 8 19 2 21 1 23 1 24 1 25 12 29
REMARK H PARENT 32 32 14 33 30 34 33 36 16 41 27 47 18 51 19 53 19 54 22 56
REMARK H PARENT 22 57 20 58 20 59 21 60 21 61 25 63 25 64 31 66
REMARK Flexibility Score: inf
ROOT
ATOM      1  C   UNL     1     -48.745  34.162  26.330  1.00  0.00     0.117 C 
ATOM      2  H   UNL     1     -49.717  33.658  26.280  1.00  0.00     0.073 H 
ATOM      3  H   UNL     1     -48.684  34.792  25.438  1.00  0.00     0.073 H 
ENDROOT
BRANCH   1   4
ATOM      4  O   UNL     1     -48.759  34.911  27.550  1.00  0.00    -0.491 OA
BRANCH   4   5
ATOM      5  C   UNL     1     -47.692  35.721  27.820  1.00  0.00     0.121 A 
ATOM      6  C   UNL     1     -45.634  39.814  26.560  1.00  0.00     0.126 A 
ATOM      7  C   UNL     1     -44.691  39.710  27.578  1.00  0.00    -0.019 A 
ATOM      8  N   UNL     1     -46.529  38.836  26.323  1.00  0.00    -0.231 NA
ATOM      9  C   UNL     1     -44.688  38.584  28.394  1.00  0.00    -0.049 A 
ATOM     10  H   UNL     1     -43.964  40.501  27.732  1.00  0.00     0.066 H 
ATOM     11  C   UNL     1     -46.559  37.767  27.135  1.00  0.00     0.076 A 
ATOM     12  C   UNL     1     -45.652  37.593  28.195  1.00  0.00     0.001 A 
ATOM     13  H   UNL     1     -43.956  38.501  29.190  1.00  0.00     0.063 H 
ATOM     14  C   UNL     1     -47.542  36.807  26.951  1.00  0.00     0.007 A 
ATOM     15  C   UNL     1     -45.742  36.464  29.023  1.00  0.00    -0.049 A 
ATOM     16  H   UNL     1     -48.238  36.938  26.127  1.00  0.00     0.069 H 
ATOM     17  C   UNL     1     -46.765  35.532  28.838  1.00  0.00    -0.019 A 
ATOM     18  H   UNL     1     -45.030  36.316  29.833  1.00  0.00     0.063 H 
ATOM     19  H   UNL     1     -46.797  34.673  29.497  1.00  0.00     0.066 H 
BRANCH   6  20
ATOM     20  N   UNL     1     -45.634  40.996  25.791  1.00  0.00    -0.373 N 
ATOM     21  H   UNL     1     -45.142  40.776  24.926  1.00  0.00     0.161 HD
BRANCH  20  22
ATOM     22  C   UNL     1     -45.004  42.126  26.458  1.00  0.00     0.005 C 
ATOM     23  H   UNL     1     -44.431  42.696  25.720  1.00  0.00     0.045 H 
ATOM     24  H   UNL     1     -45.752  42.803  26.886  1.00  0.00     0.045 H 
ATOM     25  H   UNL     1     -44.308  41.805  27.240  1.00  0.00     0.045 H 
ENDBRANCH  20  22
ENDBRANCH   6  20
ENDBRANCH   4   5
ENDBRANCH   1   4
BRANCH   1  26
ATOM     26  C   UNL     1     -47.644  33.091  26.300  1.00  0.00     0.123 C 
ATOM     27  O   UNL     1     -48.236  31.772  26.245  1.00  0.00    -0.345 OA
ATOM     28  C   UNL     1     -46.692  33.212  25.116  1.00  0.00     0.114 C 
ATOM     29  H   UNL     1     -47.094  33.143  27.248  1.00  0.00     0.067 H 
ATOM     30  C   UNL     1     -47.725  31.084  25.076  1.00  0.00     0.164 C 
ATOM     31  C   UNL     1     -47.207  32.178  24.134  1.00  0.00     0.128 C 
ATOM     32  H   UNL     1     -46.622  34.219  24.693  1.00  0.00     0.066 H 
ATOM     33  H   UNL     1     -46.917  30.414  25.395  1.00  0.00     0.088 H 
ATOM     34  H   UNL     1     -48.002  32.602  23.517  1.00  0.00     0.068 H 
BRANCH  28  35
ATOM     35  O   UNL     1     -45.365  32.839  25.527  1.00  0.00    -0.387 OA
ATOM     36  H   UNL     1     -45.503  32.173  26.234  1.00  0.00     0.211 HD
ENDBRANCH  28  35
BRANCH  30  37
ATOM     37  N   UNL     1     -48.770  30.216  24.539  1.00  0.00    -0.303 N 
ATOM     38  C   UNL     1     -48.902  28.875  24.824  1.00  0.00     0.013 A 
ATOM     39  C   UNL     1     -49.702  30.560  23.589  1.00  0.00     0.147 A 
ATOM     40  C   UNL     1     -49.968  28.355  24.110  1.00  0.00    -0.014 A 
ATOM     41  H   UNL     1     -48.226  28.404  25.528  1.00  0.00     0.082 H 
ATOM     42  C   UNL     1     -50.492  29.443  23.324  1.00  0.00     0.065 A 
ATOM     43  N   UNL     1     -49.826  31.775  23.021  1.00  0.00    -0.218 NA
ATOM     44  C   UNL     1     -51.536  29.625  22.396  1.00  0.00     0.136 A 
ATOM     45  C   UNL     1     -50.855  31.818  22.158  1.00  0.00     0.120 A 
ATOM     46  N   UNL     1     -51.696  30.829  21.815  1.00  0.00    -0.219 NA
ATOM     47  H   UNL     1     -51.029  32.773  21.671  1.00  0.00     0.106 H 
BRANCH  40  48
ATOM     48  C   UNL     1     -50.482  26.937  24.130  1.00  0.00    -0.014 C 
ATOM     49  C   UNL     1     -51.836  26.739  24.821  1.00  0.00    -0.046 C 
ATOM     50  C   UNL     1     -49.570  25.999  24.928  1.00  0.00    -0.046 C 
ATOM     51  H   UNL     1     -50.563  26.595  23.092  1.00  0.00     0.035 H 
ATOM     52  C   UNL     1     -51.531  26.426  26.288  1.00  0.00    -0.053 C 
ATOM     53  H   UNL     1     -52.519  27.587  24.720  1.00  0.00     0.027 H 
ATOM     54  H   UNL     1     -52.339  25.869  24.379  1.00  0.00     0.027 H 
ATOM     55  C   UNL     1     -50.033  26.154  26.370  1.00  0.00    -0.053 C 
ATOM     56  H   UNL     1     -48.504  26.218  24.820  1.00  0.00     0.027 H 
ATOM     57  H   UNL     1     -49.734  24.963  24.603  1.00  0.00     0.027 H 
ATOM     58  H   UNL     1     -52.109  25.556  26.619  1.00  0.00     0.027 H 
ATOM     59  H   UNL     1     -51.806  27.264  26.938  1.00  0.00     0.027 H 
ATOM     60  H   UNL     1     -49.808  25.267  26.969  1.00  0.00     0.027 H 
ATOM     61  H   UNL     1     -49.525  27.004  26.840  1.00  0.00     0.027 H 
ENDBRANCH  40  48
BRANCH  44  62
ATOM     62  N   UNL     1     -52.424  28.632  21.991  1.00  0.00    -0.383 N 
ATOM     63  H   UNL     1     -53.355  28.873  22.314  1.00  0.00     0.158 HD
ATOM     64  H   UNL     1     -52.357  28.412  21.008  1.00  0.00     0.158 HD
ENDBRANCH  44  62
ENDBRANCH  30  37
BRANCH  31  65
ATOM     65  O   UNL     1     -46.137  31.760  23.277  1.00  0.00    -0.386 OA
ATOM     66  H   UNL     1     -46.404  32.065  22.380  1.00  0.00     0.211 HD
ENDBRANCH  31  65
ENDBRANCH   1  26
TORSDOF 10
ENDMDL
