MODEL 1
REMARK VINA RESULT:     -10.0      0.000      0.000
REMARK SMILES CCc1cc(N(C)C)c2ccc(OCc3cncc(-n4cc(-c5ccn(C)n5)c5c(N)ncnc54)c3)cc2n1
REMARK SMILES IDX 14 1 13 4 12 5 3 6 4 7 39 8 5 9 38 11 9 12 37 13 10 14 11 16
REMARK SMILES IDX 2 19 1 22 6 26 7 27 8 31 15 35 16 36 36 37 17 38 19 40 18 42
REMARK SMILES IDX 20 44 21 45 35 46 22 47 29 49 34 50 30 51 33 52 32 53 23 55
REMARK SMILES IDX 24 56 28 57 25 58 26 60 27 62 31 66
REMARK H PARENT 14 2 14 3 4 10 37 15 10 17 11 18 2 20 2 21 1 23 1 24 1 25 7 28
REMARK H PARENT 7 29 7 30 8 32 8 33 8 34 16 39 36 41 18 43 21 48 33 54 24 59
REMARK H PARENT 25 61 27 63 27 64 27 65 31 67 31 68
REMARK Flexibility Score: inf
ROOT
ATOM      1  C   UNL     1     -47.841  35.524  26.632  1.00  0.00     0.115 C 
ATOM      2  H   UNL     1     -47.253  35.468  25.708  1.00  0.00     0.076 H 
ATOM      3  H   UNL     1     -48.768  36.043  26.357  1.00  0.00     0.076 H 
ENDROOT
BRANCH   1   4
ATOM      4  O   UNL     1     -48.223  34.213  27.094  1.00  0.00    -0.489 OA
BRANCH   4   5
ATOM      5  C   UNL     1     -47.892  33.214  26.215  1.00  0.00     0.122 A 
ATOM      6  C   UNL     1     -49.097  29.421  23.640  1.00  0.00     0.043 A 
ATOM      7  C   UNL     1     -47.908  29.439  22.923  1.00  0.00    -0.016 A 
ATOM      8  N   UNL     1     -49.373  30.312  24.618  1.00  0.00    -0.253 NA
ATOM      9  C   UNL     1     -46.945  30.409  23.214  1.00  0.00     0.047 A 
ATOM     10  H   UNL     1     -47.748  28.715  22.132  1.00  0.00     0.066 H 
ATOM     11  C   UNL     1     -48.456  31.246  24.915  1.00  0.00     0.076 A 
ATOM     12  C   UNL     1     -47.218  31.343  24.246  1.00  0.00     0.024 A 
ATOM     13  C   UNL     1     -48.764  32.172  25.902  1.00  0.00     0.007 A 
ATOM     14  C   UNL     1     -46.311  32.357  24.630  1.00  0.00    -0.047 A 
ATOM     15  H   UNL     1     -49.720  32.088  26.411  1.00  0.00     0.069 H 
ATOM     16  C   UNL     1     -46.643  33.284  25.614  1.00  0.00    -0.019 A 
ATOM     17  H   UNL     1     -45.340  32.430  24.143  1.00  0.00     0.063 H 
ATOM     18  H   UNL     1     -45.949  34.079  25.874  1.00  0.00     0.066 H 
BRANCH   6  19
ATOM     19  C   UNL     1     -50.144  28.377  23.355  1.00  0.00    -0.013 C 
ATOM     20  H   UNL     1     -49.883  27.439  23.860  1.00  0.00     0.033 H 
ATOM     21  H   UNL     1     -50.153  28.161  22.280  1.00  0.00     0.033 H 
BRANCH  19  22
ATOM     22  C   UNL     1     -51.525  28.837  23.790  1.00  0.00    -0.060 C 
ATOM     23  H   UNL     1     -52.225  28.848  22.948  1.00  0.00     0.023 H 
ATOM     24  H   UNL     1     -51.939  28.176  24.560  1.00  0.00     0.023 H 
ATOM     25  H   UNL     1     -51.475  29.849  24.204  1.00  0.00     0.023 H 
ENDBRANCH  19  22
ENDBRANCH   6  19
BRANCH   9  26
ATOM     26  N   UNL     1     -45.737  30.506  22.473  1.00  0.00    -0.377 N 
BRANCH  26  27
ATOM     27  C   UNL     1     -45.002  29.249  22.325  1.00  0.00     0.006 C 
ATOM     28  H   UNL     1     -44.195  29.325  21.588  1.00  0.00     0.046 H 
ATOM     29  H   UNL     1     -45.673  28.431  22.041  1.00  0.00     0.046 H 
ATOM     30  H   UNL     1     -44.550  28.976  23.286  1.00  0.00     0.046 H 
ENDBRANCH  26  27
BRANCH  26  31
ATOM     31  C   UNL     1     -45.951  31.232  21.215  1.00  0.00     0.006 C 
ATOM     32  H   UNL     1     -46.261  30.556  20.411  1.00  0.00     0.046 H 
ATOM     33  H   UNL     1     -46.754  31.966  21.344  1.00  0.00     0.046 H 
ATOM     34  H   UNL     1     -45.048  31.769  20.902  1.00  0.00     0.046 H 
ENDBRANCH  26  31
ENDBRANCH   9  26
ENDBRANCH   4   5
ENDBRANCH   1   4
BRANCH   1  35
ATOM     35  C   UNL     1     -47.123  36.326  27.690  1.00  0.00     0.010 A 
ATOM     36  C   UNL     1     -46.917  35.825  28.965  1.00  0.00     0.034 A 
ATOM     37  C   UNL     1     -46.558  37.573  27.390  1.00  0.00    -0.028 A 
ATOM     38  N   UNL     1     -46.222  36.476  29.922  1.00  0.00    -0.262 NA
ATOM     39  H   UNL     1     -47.307  34.855  29.265  1.00  0.00     0.084 H 
ATOM     40  C   UNL     1     -45.773  38.251  28.329  1.00  0.00     0.066 A 
ATOM     41  H   UNL     1     -46.731  37.979  26.398  1.00  0.00     0.065 H 
ATOM     42  C   UNL     1     -45.658  37.666  29.584  1.00  0.00     0.051 A 
ATOM     43  H   UNL     1     -45.075  38.095  30.391  1.00  0.00     0.086 H 
BRANCH  40  44
ATOM     44  N   UNL     1     -45.081  39.451  27.973  1.00  0.00    -0.299 N 
ATOM     45  C   UNL     1     -45.408  40.257  26.895  1.00  0.00     0.021 A 
ATOM     46  C   UNL     1     -43.955  40.009  28.579  1.00  0.00     0.150 A 
ATOM     47  C   UNL     1     -44.494  41.283  26.788  1.00  0.00     0.033 A 
ATOM     48  H   UNL     1     -46.229  40.016  26.236  1.00  0.00     0.083 H 
ATOM     49  C   UNL     1     -43.580  41.153  27.871  1.00  0.00     0.071 A 
ATOM     50  N   UNL     1     -43.334  39.542  29.680  1.00  0.00    -0.218 NA
ATOM     51  C   UNL     1     -42.466  41.858  28.360  1.00  0.00     0.137 A 
ATOM     52  C   UNL     1     -42.280  40.286  30.037  1.00  0.00     0.120 A 
ATOM     53  N   UNL     1     -41.814  41.393  29.442  1.00  0.00    -0.219 NA
ATOM     54  H   UNL     1     -41.734  39.953  30.915  1.00  0.00     0.106 H 
BRANCH  47  55
ATOM     55  C   UNL     1     -44.470  42.297  25.732  1.00  0.00     0.095 A 
ATOM     56  C   UNL     1     -45.591  43.059  25.331  1.00  0.00    -0.016 A 
ATOM     57  N   UNL     1     -43.387  42.585  24.997  1.00  0.00    -0.173 NA
ATOM     58  C   UNL     1     -45.132  43.862  24.313  1.00  0.00     0.025 A 
ATOM     59  H   UNL     1     -46.594  43.033  25.731  1.00  0.00     0.066 H 
ATOM     60  N   UNL     1     -43.813  43.553  24.162  1.00  0.00    -0.275 N 
ATOM     61  H   UNL     1     -45.620  44.613  23.710  1.00  0.00     0.084 H 
BRANCH  60  62
ATOM     62  C   UNL     1     -42.884  44.143  23.227  1.00  0.00     0.030 C 
ATOM     63  H   UNL     1     -41.898  43.692  23.361  1.00  0.00     0.048 H 
ATOM     64  H   UNL     1     -42.835  45.216  23.423  1.00  0.00     0.048 H 
ATOM     65  H   UNL     1     -43.248  43.952  22.214  1.00  0.00     0.048 H 
ENDBRANCH  60  62
ENDBRANCH  47  55
BRANCH  51  66
ATOM     66  N   UNL     1     -41.978  43.027  27.796  1.00  0.00    -0.383 N 
ATOM     67  H   UNL     1     -41.566  43.658  28.488  1.00  0.00     0.158 HD
ATOM     68  H   UNL     1     -42.638  43.429  27.146  1.00  0.00     0.158 HD
ENDBRANCH  51  66
ENDBRANCH  40  44
ENDBRANCH   1  35
TORSDOF 12
ENDMDL
MODEL 2
REMARK VINA RESULT:      -9.8      1.012      2.532
REMARK SMILES CCc1cc(N(C)C)c2ccc(OCc3cncc(-n4cc(-c5ccn(C)n5)c5c(N)ncnc54)c3)cc2n1
REMARK SMILES IDX 14 1 13 4 12 5 3 6 4 7 39 8 5 9 38 11 9 12 37 13 10 14 11 16
REMARK SMILES IDX 2 19 1 22 6 26 7 27 8 31 15 35 16 36 36 37 17 38 19 40 18 42
REMARK SMILES IDX 20 44 21 45 35 46 22 47 29 49 34 50 30 51 33 52 32 53 23 55
REMARK SMILES IDX 24 56 28 57 25 58 26 60 27 62 31 66
REMARK H PARENT 14 2 14 3 4 10 37 15 10 17 11 18 2 20 2 21 1 23 1 24 1 25 7 28
REMARK H PARENT 7 29 7 30 8 32 8 33 8 34 16 39 36 41 18 43 21 48 33 54 24 59
REMARK H PARENT 25 61 27 63 27 64 27 65 31 67 31 68
REMARK Flexibility Score: inf
ROOT
ATOM      1  C   UNL     1     -46.157  34.770  27.389  1.00  0.00     0.115 C 
ATOM      2  H   UNL     1     -46.177  33.818  27.932  1.00  0.00     0.076 H 
ATOM      3  H   UNL     1     -45.262  34.725  26.754  1.00  0.00     0.076 H 
ENDROOT
BRANCH   1   4
ATOM      4  O   UNL     1     -47.285  34.894  26.501  1.00  0.00    -0.489 OA
BRANCH   4   5
ATOM      5  C   UNL     1     -47.595  33.725  25.856  1.00  0.00     0.122 A 
ATOM      6  C   UNL     1     -46.346  30.083  23.091  1.00  0.00     0.043 A 
ATOM      7  C   UNL     1     -47.505  29.374  23.375  1.00  0.00    -0.016 A 
ATOM      8  N   UNL     1     -46.095  31.309  23.601  1.00  0.00    -0.253 NA
ATOM      9  C   UNL     1     -48.465  29.937  24.221  1.00  0.00     0.047 A 
ATOM     10  H   UNL     1     -47.645  28.384  22.957  1.00  0.00     0.066 H 
ATOM     11  C   UNL     1     -47.009  31.868  24.410  1.00  0.00     0.076 A 
ATOM     12  C   UNL     1     -48.219  31.228  24.756  1.00  0.00     0.024 A 
ATOM     13  C   UNL     1     -46.727  33.114  24.951  1.00  0.00     0.007 A 
ATOM     14  C   UNL     1     -49.125  31.896  25.610  1.00  0.00    -0.047 A 
ATOM     15  H   UNL     1     -45.794  33.598  24.678  1.00  0.00     0.069 H 
ATOM     16  C   UNL     1     -48.819  33.141  26.153  1.00  0.00    -0.019 A 
ATOM     17  H   UNL     1     -50.075  31.429  25.867  1.00  0.00     0.063 H 
ATOM     18  H   UNL     1     -49.511  33.626  26.836  1.00  0.00     0.066 H 
BRANCH   6  19
ATOM     19  C   UNL     1     -45.304  29.504  22.170  1.00  0.00    -0.013 C 
ATOM     20  H   UNL     1     -44.517  30.244  21.983  1.00  0.00     0.033 H 
ATOM     21  H   UNL     1     -45.764  29.286  21.199  1.00  0.00     0.033 H 
BRANCH  19  22
ATOM     22  C   UNL     1     -44.700  28.231  22.741  1.00  0.00    -0.060 C 
ATOM     23  H   UNL     1     -44.902  27.370  22.095  1.00  0.00     0.023 H 
ATOM     24  H   UNL     1     -43.613  28.322  22.846  1.00  0.00     0.023 H 
ATOM     25  H   UNL     1     -45.120  28.021  23.729  1.00  0.00     0.023 H 
ENDBRANCH  19  22
ENDBRANCH   6  19
BRANCH   9  26
ATOM     26  N   UNL     1     -49.641  29.232  24.589  1.00  0.00    -0.377 N 
BRANCH  26  27
ATOM     27  C   UNL     1     -50.586  28.996  23.496  1.00  0.00     0.006 C 
ATOM     28  H   UNL     1     -51.610  28.849  23.858  1.00  0.00     0.046 H 
ATOM     29  H   UNL     1     -50.288  28.128  22.897  1.00  0.00     0.046 H 
ATOM     30  H   UNL     1     -50.591  29.863  22.827  1.00  0.00     0.046 H 
ENDBRANCH  26  27
BRANCH  26  31
ATOM     31  C   UNL     1     -49.309  28.032  25.369  1.00  0.00     0.006 C 
ATOM     32  H   UNL     1     -49.111  28.279  26.417  1.00  0.00     0.046 H 
ATOM     33  H   UNL     1     -50.157  27.338  25.357  1.00  0.00     0.046 H 
ATOM     34  H   UNL     1     -48.439  27.511  24.954  1.00  0.00     0.046 H 
ENDBRANCH  26  31
ENDBRANCH   9  26
ENDBRANCH   4   5
ENDBRANCH   1   4
BRANCH   1  35
ATOM     35  C   UNL     1     -46.032  35.938  28.335  1.00  0.00     0.010 A 
ATOM     36  C   UNL     1     -46.246  35.795  29.696  1.00  0.00     0.034 A 
ATOM     37  C   UNL     1     -45.605  37.193  27.880  1.00  0.00    -0.028 A 
ATOM     38  N   UNL     1     -46.080  36.794  30.590  1.00  0.00    -0.262 NA
ATOM     39  H   UNL     1     -46.558  34.846  30.127  1.00  0.00     0.084 H 
ATOM     40  C   UNL     1     -45.354  38.237  28.778  1.00  0.00     0.066 A 
ATOM     41  H   UNL     1     -45.453  37.317  26.811  1.00  0.00     0.065 H 
ATOM     42  C   UNL     1     -45.630  37.986  30.117  1.00  0.00     0.051 A 
ATOM     43  H   UNL     1     -45.473  38.714  30.904  1.00  0.00     0.086 H 
BRANCH  40  44
ATOM     44  N   UNL     1     -44.782  39.467  28.327  1.00  0.00    -0.299 N 
ATOM     45  C   UNL     1     -45.256  40.210  27.258  1.00  0.00     0.021 A 
ATOM     46  C   UNL     1     -43.652  40.123  28.816  1.00  0.00     0.150 A 
ATOM     47  C   UNL     1     -44.429  41.291  27.041  1.00  0.00     0.033 A 
ATOM     48  H   UNL     1     -46.109  39.889  26.679  1.00  0.00     0.083 H 
ATOM     49  C   UNL     1     -43.421  41.263  28.044  1.00  0.00     0.071 A 
ATOM     50  N   UNL     1     -42.909  39.740  29.873  1.00  0.00    -0.218 NA
ATOM     51  C   UNL     1     -42.323  42.061  28.414  1.00  0.00     0.137 A 
ATOM     52  C   UNL     1     -41.884  40.567  30.114  1.00  0.00     0.120 A 
ATOM     53  N   UNL     1     -41.550  41.681  29.448  1.00  0.00    -0.219 NA
ATOM     54  H   UNL     1     -41.244  40.305  30.951  1.00  0.00     0.106 H 
BRANCH  47  55
ATOM     55  C   UNL     1     -44.567  42.266  25.957  1.00  0.00     0.095 A 
ATOM     56  C   UNL     1     -44.258  42.004  24.602  1.00  0.00    -0.016 A 
ATOM     57  N   UNL     1     -44.962  43.533  26.138  1.00  0.00    -0.173 NA
ATOM     58  C   UNL     1     -44.510  43.184  23.943  1.00  0.00     0.025 A 
ATOM     59  H   UNL     1     -43.906  41.081  24.164  1.00  0.00     0.066 H 
ATOM     60  N   UNL     1     -44.940  44.058  24.897  1.00  0.00    -0.275 N 
ATOM     61  H   UNL     1     -44.431  43.461  22.902  1.00  0.00     0.084 H 
BRANCH  60  62
ATOM     62  C   UNL     1     -45.348  45.428  24.698  1.00  0.00     0.030 C 
ATOM     63  H   UNL     1     -46.240  45.454  24.067  1.00  0.00     0.048 H 
ATOM     64  H   UNL     1     -44.529  45.963  24.211  1.00  0.00     0.048 H 
ATOM     65  H   UNL     1     -45.568  45.867  25.675  1.00  0.00     0.048 H 
ENDBRANCH  60  62
ENDBRANCH  47  55
BRANCH  51  66
ATOM     66  N   UNL     1     -41.969  43.240  27.774  1.00  0.00    -0.383 N 
ATOM     67  H   UNL     1     -41.369  43.836  28.349  1.00  0.00     0.158 HD
ATOM     68  H   UNL     1     -42.766  43.678  27.335  1.00  0.00     0.158 HD
ENDBRANCH  51  66
ENDBRANCH  40  44
ENDBRANCH   1  35
TORSDOF 12
ENDMDL
MODEL 3
REMARK VINA RESULT:      -9.7      2.189     12.180
REMARK SMILES CCc1cc(N(C)C)c2ccc(OCc3cncc(-n4cc(-c5ccn(C)n5)c5c(N)ncnc54)c3)cc2n1
REMARK SMILES IDX 14 1 13 4 12 5 3 6 4 7 39 8 5 9 38 11 9 12 37 13 10 14 11 16
REMARK SMILES IDX 2 19 1 22 6 26 7 27 8 31 15 35 16 36 36 37 17 38 19 40 18 42
REMARK SMILES IDX 20 44 21 45 35 46 22 47 29 49 34 50 30 51 33 52 32 53 23 55
REMARK SMILES IDX 24 56 28 57 25 58 26 60 27 62 31 66
REMARK H PARENT 14 2 14 3 4 10 37 15 10 17 11 18 2 20 2 21 1 23 1 24 1 25 7 28
REMARK H PARENT 7 29 7 30 8 32 8 33 8 34 16 39 36 41 18 43 21 48 33 54 24 59
REMARK H PARENT 25 61 27 63 27 64 27 65 31 67 31 68
REMARK Flexibility Score: inf
ROOT
ATOM      1  C   UNL     1     -46.308  35.644  27.042  1.00  0.00     0.115 C 
ATOM      2  H   UNL     1     -45.986  36.143  26.120  1.00  0.00     0.076 H 
ATOM      3  H   UNL     1     -45.455  35.027  27.352  1.00  0.00     0.076 H 
ENDROOT
BRANCH   1   4
ATOM      4  O   UNL     1     -46.536  36.594  28.102  1.00  0.00    -0.489 OA
BRANCH   4   5
ATOM      5  C   UNL     1     -46.127  37.864  27.787  1.00  0.00     0.122 A 
ATOM      6  C   UNL     1     -43.000  41.405  28.176  1.00  0.00     0.043 A 
ATOM      7  C   UNL     1     -43.571  42.122  27.132  1.00  0.00    -0.016 A 
ATOM      8  N   UNL     1     -43.488  40.219  28.599  1.00  0.00    -0.253 NA
ATOM      9  C   UNL     1     -44.697  41.609  26.483  1.00  0.00     0.047 A 
ATOM     10  H   UNL     1     -43.124  43.058  26.817  1.00  0.00     0.066 H 
ATOM     11  C   UNL     1     -44.574  39.715  27.992  1.00  0.00     0.076 A 
ATOM     12  C   UNL     1     -45.226  40.370  26.925  1.00  0.00     0.024 A 
ATOM     13  C   UNL     1     -45.047  38.482  28.417  1.00  0.00     0.007 A 
ATOM     14  C   UNL     1     -46.367  39.767  26.349  1.00  0.00    -0.047 A 
ATOM     15  H   UNL     1     -44.538  37.987  29.240  1.00  0.00     0.069 H 
ATOM     16  C   UNL     1     -46.820  38.524  26.782  1.00  0.00    -0.019 A 
ATOM     17  H   UNL     1     -46.898  40.270  25.543  1.00  0.00     0.063 H 
ATOM     18  H   UNL     1     -47.678  38.057  26.306  1.00  0.00     0.066 H 
BRANCH   6  19
ATOM     19  C   UNL     1     -41.794  41.943  28.901  1.00  0.00    -0.013 C 
ATOM     20  H   UNL     1     -41.976  42.979  29.211  1.00  0.00     0.033 H 
ATOM     21  H   UNL     1     -40.942  41.969  28.211  1.00  0.00     0.033 H 
BRANCH  19  22
ATOM     22  C   UNL     1     -41.442  41.090  30.108  1.00  0.00    -0.060 C 
ATOM     23  H   UNL     1     -42.342  40.726  30.615  1.00  0.00     0.023 H 
ATOM     24  H   UNL     1     -40.847  40.217  29.816  1.00  0.00     0.023 H 
ATOM     25  H   UNL     1     -40.859  41.673  30.828  1.00  0.00     0.023 H 
ENDBRANCH  19  22
ENDBRANCH   6  19
BRANCH   9  26
ATOM     26  N   UNL     1     -45.285  42.274  25.374  1.00  0.00    -0.377 N 
BRANCH  26  27
ATOM     27  C   UNL     1     -46.194  43.367  25.721  1.00  0.00     0.006 C 
ATOM     28  H   UNL     1     -46.993  43.493  24.981  1.00  0.00     0.046 H 
ATOM     29  H   UNL     1     -45.651  44.313  25.828  1.00  0.00     0.046 H 
ATOM     30  H   UNL     1     -46.666  43.156  26.687  1.00  0.00     0.046 H 
ENDBRANCH  26  27
BRANCH  26  31
ATOM     31  C   UNL     1     -44.267  42.629  24.377  1.00  0.00     0.006 C 
ATOM     32  H   UNL     1     -44.048  43.702  24.393  1.00  0.00     0.046 H 
ATOM     33  H   UNL     1     -43.330  42.107  24.603  1.00  0.00     0.046 H 
ATOM     34  H   UNL     1     -44.578  42.343  23.366  1.00  0.00     0.046 H 
ENDBRANCH  26  31
ENDBRANCH   9  26
ENDBRANCH   4   5
ENDBRANCH   1   4
BRANCH   1  35
ATOM     35  C   UNL     1     -47.499  34.752  26.796  1.00  0.00     0.010 A 
ATOM     36  C   UNL     1     -48.795  35.233  26.877  1.00  0.00     0.034 A 
ATOM     37  C   UNL     1     -47.330  33.422  26.386  1.00  0.00    -0.028 A 
ATOM     38  N   UNL     1     -49.889  34.491  26.599  1.00  0.00    -0.262 NA
ATOM     39  H   UNL     1     -49.004  36.260  27.168  1.00  0.00     0.084 H 
ATOM     40  C   UNL     1     -48.431  32.638  26.022  1.00  0.00     0.066 A 
ATOM     41  H   UNL     1     -46.318  33.033  26.338  1.00  0.00     0.065 H 
ATOM     42  C   UNL     1     -49.685  33.217  26.169  1.00  0.00     0.051 A 
ATOM     43  H   UNL     1     -50.609  32.710  25.917  1.00  0.00     0.086 H 
BRANCH  40  44
ATOM     44  N   UNL     1     -48.247  31.332  25.468  1.00  0.00    -0.299 N 
ATOM     45  C   UNL     1     -48.707  30.160  26.045  1.00  0.00     0.021 A 
ATOM     46  C   UNL     1     -47.557  30.977  24.308  1.00  0.00     0.150 A 
ATOM     47  C   UNL     1     -48.289  29.080  25.299  1.00  0.00     0.033 A 
ATOM     48  H   UNL     1     -49.244  30.163  26.982  1.00  0.00     0.083 H 
ATOM     49  C   UNL     1     -47.581  29.588  24.175  1.00  0.00     0.071 A 
ATOM     50  N   UNL     1     -46.976  31.829  23.440  1.00  0.00    -0.218 NA
ATOM     51  C   UNL     1     -46.944  29.054  23.040  1.00  0.00     0.137 A 
ATOM     52  C   UNL     1     -46.388  31.203  22.413  1.00  0.00     0.120 A 
ATOM     53  N   UNL     1     -46.333  29.885  22.175  1.00  0.00    -0.219 NA
ATOM     54  H   UNL     1     -45.896  31.838  21.683  1.00  0.00     0.106 H 
BRANCH  47  55
ATOM     55  C   UNL     1     -48.523  27.672  25.631  1.00  0.00     0.095 A 
ATOM     56  C   UNL     1     -49.790  27.047  25.614  1.00  0.00    -0.016 A 
ATOM     57  N   UNL     1     -47.560  26.830  26.032  1.00  0.00    -0.173 NA
ATOM     58  C   UNL     1     -49.554  25.750  26.005  1.00  0.00     0.025 A 
ATOM     59  H   UNL     1     -50.745  27.478  25.346  1.00  0.00     0.066 H 
ATOM     60  N   UNL     1     -48.213  25.667  26.229  1.00  0.00    -0.275 N 
ATOM     61  H   UNL     1     -50.212  24.902  26.129  1.00  0.00     0.084 H 
BRANCH  60  62
ATOM     62  C   UNL     1     -47.471  24.499  26.641  1.00  0.00     0.030 C 
ATOM     63  H   UNL     1     -47.792  23.637  26.051  1.00  0.00     0.048 H 
ATOM     64  H   UNL     1     -47.671  24.323  27.701  1.00  0.00     0.048 H 
ATOM     65  H   UNL     1     -46.408  24.691  26.476  1.00  0.00     0.048 H 
ENDBRANCH  60  62
ENDBRANCH  47  55
BRANCH  51  66
ATOM     66  N   UNL     1     -46.899  27.701  22.739  1.00  0.00    -0.383 N 
ATOM     67  H   UNL     1     -47.295  27.487  21.820  1.00  0.00     0.158 HD
ATOM     68  H   UNL     1     -47.212  27.137  23.516  1.00  0.00     0.158 HD
ENDBRANCH  51  66
ENDBRANCH  40  44
ENDBRANCH   1  35
TORSDOF 12
ENDMDL
MODEL 4
REMARK VINA RESULT:      -9.5      1.775      3.443
REMARK SMILES CCc1cc(N(C)C)c2ccc(OCc3cncc(-n4cc(-c5ccn(C)n5)c5c(N)ncnc54)c3)cc2n1
REMARK SMILES IDX 14 1 13 4 12 5 3 6 4 7 39 8 5 9 38 11 9 12 37 13 10 14 11 16
REMARK SMILES IDX 2 19 1 22 6 26 7 27 8 31 15 35 16 36 36 37 17 38 19 40 18 42
REMARK SMILES IDX 20 44 21 45 35 46 22 47 29 49 34 50 30 51 33 52 32 53 23 55
REMARK SMILES IDX 24 56 28 57 25 58 26 60 27 62 31 66
REMARK H PARENT 14 2 14 3 4 10 37 15 10 17 11 18 2 20 2 21 1 23 1 24 1 25 7 28
REMARK H PARENT 7 29 7 30 8 32 8 33 8 34 16 39 36 41 18 43 21 48 33 54 24 59
REMARK H PARENT 25 61 27 63 27 64 27 65 31 67 31 68
REMARK Flexibility Score: inf
ROOT
ATOM      1  C   UNL     1     -47.635  34.882  27.264  1.00  0.00     0.115 C 
ATOM      2  H   UNL     1     -47.999  35.169  26.271  1.00  0.00     0.076 H 
ATOM      3  H   UNL     1     -48.529  34.588  27.829  1.00  0.00     0.076 H 
ENDROOT
BRANCH   1   4
ATOM      4  O   UNL     1     -46.788  33.718  27.199  1.00  0.00    -0.489 OA
BRANCH   4   5
ATOM      5  C   UNL     1     -47.132  32.855  26.191  1.00  0.00     0.122 A 
ATOM      6  C   UNL     1     -46.363  31.024  21.887  1.00  0.00     0.043 A 
ATOM      7  C   UNL     1     -47.271  29.992  22.084  1.00  0.00    -0.016 A 
ATOM      8  N   UNL     1     -46.124  31.974  22.818  1.00  0.00    -0.253 NA
ATOM      9  C   UNL     1     -47.977  29.918  23.288  1.00  0.00     0.047 A 
ATOM     10  H   UNL     1     -47.406  29.242  21.312  1.00  0.00     0.066 H 
ATOM     11  C   UNL     1     -46.799  31.922  23.978  1.00  0.00     0.076 A 
ATOM     12  C   UNL     1     -47.744  30.914  24.269  1.00  0.00     0.024 A 
ATOM     13  C   UNL     1     -46.524  32.887  24.937  1.00  0.00     0.007 A 
ATOM     14  C   UNL     1     -48.411  30.944  25.515  1.00  0.00    -0.047 A 
ATOM     15  H   UNL     1     -45.796  33.658  24.702  1.00  0.00     0.069 H 
ATOM     16  C   UNL     1     -48.113  31.912  26.469  1.00  0.00    -0.019 A 
ATOM     17  H   UNL     1     -49.162  30.190  25.746  1.00  0.00     0.063 H 
ATOM     18  H   UNL     1     -48.608  31.901  27.436  1.00  0.00     0.066 H 
BRANCH   6  19
ATOM     19  C   UNL     1     -45.601  31.133  20.593  1.00  0.00    -0.013 C 
ATOM     20  H   UNL     1     -45.420  30.134  20.180  1.00  0.00     0.033 H 
ATOM     21  H   UNL     1     -44.616  31.572  20.792  1.00  0.00     0.033 H 
BRANCH  19  22
ATOM     22  C   UNL     1     -46.341  31.991  19.580  1.00  0.00    -0.060 C 
ATOM     23  H   UNL     1     -47.104  31.412  19.049  1.00  0.00     0.023 H 
ATOM     24  H   UNL     1     -46.840  32.836  20.067  1.00  0.00     0.023 H 
ATOM     25  H   UNL     1     -45.642  32.392  18.839  1.00  0.00     0.023 H 
ENDBRANCH  19  22
ENDBRANCH   6  19
BRANCH   9  26
ATOM     26  N   UNL     1     -48.874  28.852  23.561  1.00  0.00    -0.377 N 
BRANCH  26  27
ATOM     27  C   UNL     1     -49.941  28.675  22.575  1.00  0.00     0.006 C 
ATOM     28  H   UNL     1     -50.537  29.585  22.441  1.00  0.00     0.046 H 
ATOM     29  H   UNL     1     -50.604  27.848  22.855  1.00  0.00     0.046 H 
ATOM     30  H   UNL     1     -49.501  28.420  21.604  1.00  0.00     0.046 H 
ENDBRANCH  26  27
BRANCH  26  31
ATOM     31  C   UNL     1     -48.142  27.621  23.885  1.00  0.00     0.006 C 
ATOM     32  H   UNL     1     -48.732  26.962  24.531  1.00  0.00     0.046 H 
ATOM     33  H   UNL     1     -47.931  27.064  22.965  1.00  0.00     0.046 H 
ATOM     34  H   UNL     1     -47.186  27.839  24.375  1.00  0.00     0.046 H 
ENDBRANCH  26  31
ENDBRANCH   9  26
ENDBRANCH   4   5
ENDBRANCH   1   4
BRANCH   1  35
ATOM     35  C   UNL     1     -46.972  36.045  27.960  1.00  0.00     0.010 A 
ATOM     36  C   UNL     1     -46.313  35.887  29.168  1.00  0.00     0.034 A 
ATOM     37  C   UNL     1     -46.924  37.311  27.361  1.00  0.00    -0.028 A 
ATOM     38  N   UNL     1     -45.648  36.882  29.794  1.00  0.00    -0.262 NA
ATOM     39  H   UNL     1     -46.289  34.930  29.683  1.00  0.00     0.084 H 
ATOM     40  C   UNL     1     -46.189  38.353  27.940  1.00  0.00     0.066 A 
ATOM     41  H   UNL     1     -47.454  37.446  26.423  1.00  0.00     0.065 H 
ATOM     42  C   UNL     1     -45.591  38.087  29.165  1.00  0.00     0.051 A 
ATOM     43  H   UNL     1     -44.995  38.812  29.708  1.00  0.00     0.086 H 
BRANCH  40  44
ATOM     44  N   UNL     1     -46.021  39.597  27.256  1.00  0.00    -0.299 N 
ATOM     45  C   UNL     1     -44.821  40.054  26.737  1.00  0.00     0.021 A 
ATOM     46  C   UNL     1     -46.976  40.586  27.018  1.00  0.00     0.150 A 
ATOM     47  C   UNL     1     -44.991  41.319  26.218  1.00  0.00     0.033 A 
ATOM     48  H   UNL     1     -43.910  39.482  26.828  1.00  0.00     0.083 H 
ATOM     49  C   UNL     1     -46.365  41.657  26.365  1.00  0.00     0.071 A 
ATOM     50  N   UNL     1     -48.282  40.520  27.344  1.00  0.00    -0.218 NA
ATOM     51  C   UNL     1     -47.193  42.743  26.028  1.00  0.00     0.137 A 
ATOM     52  C   UNL     1     -48.961  41.619  26.990  1.00  0.00     0.120 A 
ATOM     53  N   UNL     1     -48.495  42.711  26.369  1.00  0.00    -0.219 NA
ATOM     54  H   UNL     1     -50.019  41.627  27.234  1.00  0.00     0.106 H 
BRANCH  47  55
ATOM     55  C   UNL     1     -43.934  42.155  25.644  1.00  0.00     0.095 A 
ATOM     56  C   UNL     1     -42.810  42.626  26.361  1.00  0.00    -0.016 A 
ATOM     57  N   UNL     1     -43.940  42.605  24.382  1.00  0.00    -0.173 NA
ATOM     58  C   UNL     1     -42.098  43.378  25.456  1.00  0.00     0.025 A 
ATOM     59  H   UNL     1     -42.549  42.437  27.393  1.00  0.00     0.066 H 
ATOM     60  N   UNL     1     -42.803  43.323  24.291  1.00  0.00    -0.275 N 
ATOM     61  H   UNL     1     -41.170  43.923  25.543  1.00  0.00     0.084 H 
BRANCH  60  62
ATOM     62  C   UNL     1     -42.454  43.943  23.035  1.00  0.00     0.030 C 
ATOM     63  H   UNL     1     -41.416  43.705  22.788  1.00  0.00     0.048 H 
ATOM     64  H   UNL     1     -42.575  45.023  23.139  1.00  0.00     0.048 H 
ATOM     65  H   UNL     1     -43.121  43.553  22.262  1.00  0.00     0.048 H 
ENDBRANCH  60  62
ENDBRANCH  47  55
BRANCH  51  66
ATOM     66  N   UNL     1     -46.757  43.874  25.353  1.00  0.00    -0.383 N 
ATOM     67  H   UNL     1     -47.313  44.704  25.571  1.00  0.00     0.158 HD
ATOM     68  H   UNL     1     -46.586  43.680  24.376  1.00  0.00     0.158 HD
ENDBRANCH  51  66
ENDBRANCH  40  44
ENDBRANCH   1  35
TORSDOF 12
ENDMDL
MODEL 5
REMARK VINA RESULT:      -9.2      1.930     11.911
REMARK SMILES CCc1cc(N(C)C)c2ccc(OCc3cncc(-n4cc(-c5ccn(C)n5)c5c(N)ncnc54)c3)cc2n1
REMARK SMILES IDX 14 1 13 4 12 5 3 6 4 7 39 8 5 9 38 11 9 12 37 13 10 14 11 16
REMARK SMILES IDX 2 19 1 22 6 26 7 27 8 31 15 35 16 36 36 37 17 38 19 40 18 42
REMARK SMILES IDX 20 44 21 45 35 46 22 47 29 49 34 50 30 51 33 52 32 53 23 55
REMARK SMILES IDX 24 56 28 57 25 58 26 60 27 62 31 66
REMARK H PARENT 14 2 14 3 4 10 37 15 10 17 11 18 2 20 2 21 1 23 1 24 1 25 7 28
REMARK H PARENT 7 29 7 30 8 32 8 33 8 34 16 39 36 41 18 43 21 48 33 54 24 59
REMARK H PARENT 25 61 27 63 27 64 27 65 31 67 31 68
REMARK Flexibility Score: inf
ROOT
ATOM      1  C   UNL     1     -47.581  36.754  26.868  1.00  0.00     0.115 C 
ATOM      2  H   UNL     1     -48.667  36.773  26.723  1.00  0.00     0.076 H 
ATOM      3  H   UNL     1     -47.156  37.179  25.950  1.00  0.00     0.076 H 
ENDROOT
BRANCH   1   4
ATOM      4  O   UNL     1     -47.178  37.621  27.947  1.00  0.00    -0.489 OA
BRANCH   4   5
ATOM      5  C   UNL     1     -46.462  38.711  27.525  1.00  0.00     0.122 A 
ATOM      6  C   UNL     1     -46.301  43.128  25.810  1.00  0.00     0.043 A 
ATOM      7  C   UNL     1     -44.942  43.254  26.061  1.00  0.00    -0.016 A 
ATOM      8  N   UNL     1     -46.993  41.999  26.082  1.00  0.00    -0.253 NA
ATOM      9  C   UNL     1     -44.243  42.179  26.616  1.00  0.00     0.047 A 
ATOM     10  H   UNL     1     -44.442  44.191  25.845  1.00  0.00     0.066 H 
ATOM     11  C   UNL     1     -46.335  40.953  26.609  1.00  0.00     0.076 A 
ATOM     12  C   UNL     1     -44.954  40.984  26.896  1.00  0.00     0.024 A 
ATOM     13  C   UNL     1     -47.062  39.810  26.910  1.00  0.00     0.007 A 
ATOM     14  C   UNL     1     -44.345  39.832  27.445  1.00  0.00    -0.047 A 
ATOM     15  H   UNL     1     -48.125  39.797  26.684  1.00  0.00     0.069 H 
ATOM     16  C   UNL     1     -45.093  38.699  27.752  1.00  0.00    -0.019 A 
ATOM     17  H   UNL     1     -43.275  39.829  27.649  1.00  0.00     0.063 H 
ATOM     18  H   UNL     1     -44.617  37.834  28.206  1.00  0.00     0.066 H 
BRANCH   6  19
ATOM     19  C   UNL     1     -47.074  44.268  25.200  1.00  0.00    -0.013 C 
ATOM     20  H   UNL     1     -48.147  44.130  25.376  1.00  0.00     0.033 H 
ATOM     21  H   UNL     1     -46.933  44.256  24.112  1.00  0.00     0.033 H 
BRANCH  19  22
ATOM     22  C   UNL     1     -46.622  45.609  25.753  1.00  0.00    -0.060 C 
ATOM     23  H   UNL     1     -47.473  46.273  25.933  1.00  0.00     0.023 H 
ATOM     24  H   UNL     1     -46.089  45.485  26.703  1.00  0.00     0.023 H 
ATOM     25  H   UNL     1     -45.947  46.103  25.048  1.00  0.00     0.023 H 
ENDBRANCH  19  22
ENDBRANCH   6  19
BRANCH   9  26
ATOM     26  N   UNL     1     -42.865  42.275  26.944  1.00  0.00    -0.377 N 
BRANCH  26  27
ATOM     27  C   UNL     1     -42.035  42.934  25.934  1.00  0.00     0.006 C 
ATOM     28  H   UNL     1     -41.223  42.289  25.580  1.00  0.00     0.046 H 
ATOM     29  H   UNL     1     -41.610  43.867  26.320  1.00  0.00     0.046 H 
ATOM     30  H   UNL     1     -42.653  43.195  25.068  1.00  0.00     0.046 H 
ENDBRANCH  26  27
BRANCH  26  31
ATOM     31  C   UNL     1     -42.686  42.795  28.305  1.00  0.00     0.006 C 
ATOM     32  H   UNL     1     -42.643  43.890  28.313  1.00  0.00     0.046 H 
ATOM     33  H   UNL     1     -43.539  42.503  28.928  1.00  0.00     0.046 H 
ATOM     34  H   UNL     1     -41.775  42.399  28.770  1.00  0.00     0.046 H 
ENDBRANCH  26  31
ENDBRANCH   9  26
ENDBRANCH   4   5
ENDBRANCH   1   4
BRANCH   1  35
ATOM     35  C   UNL     1     -47.076  35.343  27.039  1.00  0.00     0.010 A 
ATOM     36  C   UNL     1     -46.352  34.961  28.156  1.00  0.00     0.034 A 
ATOM     37  C   UNL     1     -47.403  34.344  26.111  1.00  0.00    -0.028 A 
ATOM     38  N   UNL     1     -45.939  33.696  28.385  1.00  0.00    -0.262 NA
ATOM     39  H   UNL     1     -46.079  35.676  28.929  1.00  0.00     0.084 H 
ATOM     40  C   UNL     1     -47.054  33.007  26.342  1.00  0.00     0.066 A 
ATOM     41  H   UNL     1     -47.955  34.640  25.224  1.00  0.00     0.065 H 
ATOM     42  C   UNL     1     -46.305  32.747  27.482  1.00  0.00     0.051 A 
ATOM     43  H   UNL     1     -45.979  31.753  27.767  1.00  0.00     0.086 H 
BRANCH  40  44
ATOM     44  N   UNL     1     -47.513  31.972  25.469  1.00  0.00    -0.299 N 
ATOM     45  C   UNL     1     -48.449  31.010  25.813  1.00  0.00     0.021 A 
ATOM     46  C   UNL     1     -47.100  31.697  24.165  1.00  0.00     0.150 A 
ATOM     47  C   UNL     1     -48.602  30.118  24.774  1.00  0.00     0.033 A 
ATOM     48  H   UNL     1     -48.897  30.982  26.796  1.00  0.00     0.083 H 
ATOM     49  C   UNL     1     -47.770  30.561  23.708  1.00  0.00     0.071 A 
ATOM     50  N   UNL     1     -46.214  32.415  23.447  1.00  0.00    -0.218 NA
ATOM     51  C   UNL     1     -47.486  30.150  22.393  1.00  0.00     0.137 A 
ATOM     52  C   UNL     1     -46.013  31.916  22.221  1.00  0.00     0.120 A 
ATOM     53  N   UNL     1     -46.584  30.836  21.668  1.00  0.00    -0.219 NA
ATOM     54  H   UNL     1     -45.303  32.450  21.597  1.00  0.00     0.106 H 
BRANCH  47  55
ATOM     55  C   UNL     1     -49.453  28.927  24.790  1.00  0.00     0.095 A 
ATOM     56  C   UNL     1     -50.639  28.781  24.034  1.00  0.00    -0.016 A 
ATOM     57  N   UNL     1     -49.224  27.856  25.562  1.00  0.00    -0.173 NA
ATOM     58  C   UNL     1     -51.122  27.536  24.363  1.00  0.00     0.025 A 
ATOM     59  H   UNL     1     -51.078  29.482  23.338  1.00  0.00     0.066 H 
ATOM     60  N   UNL     1     -50.239  27.021  25.264  1.00  0.00    -0.275 N 
ATOM     61  H   UNL     1     -51.992  26.989  24.031  1.00  0.00     0.084 H 
BRANCH  60  62
ATOM     62  C   UNL     1     -50.300  25.724  25.896  1.00  0.00     0.030 C 
ATOM     63  H   UNL     1     -51.153  25.167  25.500  1.00  0.00     0.048 H 
ATOM     64  H   UNL     1     -50.416  25.872  26.972  1.00  0.00     0.048 H 
ATOM     65  H   UNL     1     -49.371  25.191  25.678  1.00  0.00     0.048 H 
ENDBRANCH  60  62
ENDBRANCH  47  55
BRANCH  51  66
ATOM     66  N   UNL     1     -48.083  29.063  21.773  1.00  0.00    -0.383 N 
ATOM     67  H   UNL     1     -48.078  29.138  20.752  1.00  0.00     0.158 HD
ATOM     68  H   UNL     1     -48.962  28.822  22.210  1.00  0.00     0.158 HD
ENDBRANCH  51  66
ENDBRANCH  40  44
ENDBRANCH   1  35
TORSDOF 12
ENDMDL
MODEL 6
REMARK VINA RESULT:      -8.8      2.439      4.523
REMARK SMILES CCc1cc(N(C)C)c2ccc(OCc3cncc(-n4cc(-c5ccn(C)n5)c5c(N)ncnc54)c3)cc2n1
REMARK SMILES IDX 14 1 13 4 12 5 3 6 4 7 39 8 5 9 38 11 9 12 37 13 10 14 11 16
REMARK SMILES IDX 2 19 1 22 6 26 7 27 8 31 15 35 16 36 36 37 17 38 19 40 18 42
REMARK SMILES IDX 20 44 21 45 35 46 22 47 29 49 34 50 30 51 33 52 32 53 23 55
REMARK SMILES IDX 24 56 28 57 25 58 26 60 27 62 31 66
REMARK H PARENT 14 2 14 3 4 10 37 15 10 17 11 18 2 20 2 21 1 23 1 24 1 25 7 28
REMARK H PARENT 7 29 7 30 8 32 8 33 8 34 16 39 36 41 18 43 21 48 33 54 24 59
REMARK H PARENT 25 61 27 63 27 64 27 65 31 67 31 68
REMARK Flexibility Score: inf
ROOT
ATOM      1  C   UNL     1     -46.592  32.596  24.965  1.00  0.00     0.115 C 
ATOM      2  H   UNL     1     -46.245  31.567  25.114  1.00  0.00     0.076 H 
ATOM      3  H   UNL     1     -45.883  33.041  24.254  1.00  0.00     0.076 H 
ENDROOT
BRANCH   1   4
ATOM      4  O   UNL     1     -47.886  32.629  24.331  1.00  0.00    -0.489 OA
BRANCH   4   5
ATOM      5  C   UNL     1     -48.372  31.383  24.032  1.00  0.00     0.122 A 
ATOM      6  C   UNL     1     -48.964  26.812  25.137  1.00  0.00     0.043 A 
ATOM      7  C   UNL     1     -49.889  26.610  24.123  1.00  0.00    -0.016 A 
ATOM      8  N   UNL     1     -48.360  28.001  25.349  1.00  0.00    -0.253 NA
ATOM      9  C   UNL     1     -50.221  27.670  23.274  1.00  0.00     0.047 A 
ATOM     10  H   UNL     1     -50.362  25.640  24.012  1.00  0.00     0.066 H 
ATOM     11  C   UNL     1     -48.661  29.029  24.539  1.00  0.00     0.076 A 
ATOM     12  C   UNL     1     -49.586  28.922  23.479  1.00  0.00     0.024 A 
ATOM     13  C   UNL     1     -48.055  30.253  24.785  1.00  0.00     0.007 A 
ATOM     14  C   UNL     1     -49.836  30.056  22.673  1.00  0.00    -0.047 A 
ATOM     15  H   UNL     1     -47.344  30.324  25.604  1.00  0.00     0.069 H 
ATOM     16  C   UNL     1     -49.228  31.279  22.943  1.00  0.00    -0.019 A 
ATOM     17  H   UNL     1     -50.527  29.985  21.835  1.00  0.00     0.063 H 
ATOM     18  H   UNL     1     -49.457  32.151  22.337  1.00  0.00     0.066 H 
BRANCH   6  19
ATOM     19  C   UNL     1     -48.580  25.681  26.055  1.00  0.00    -0.013 C 
ATOM     20  H   UNL     1     -48.517  24.744  25.489  1.00  0.00     0.033 H 
ATOM     21  H   UNL     1     -49.369  25.540  26.803  1.00  0.00     0.033 H 
BRANCH  19  22
ATOM     22  C   UNL     1     -47.261  25.956  26.759  1.00  0.00    -0.060 C 
ATOM     23  H   UNL     1     -47.338  26.820  27.426  1.00  0.00     0.023 H 
ATOM     24  H   UNL     1     -46.947  25.096  27.361  1.00  0.00     0.023 H 
ATOM     25  H   UNL     1     -46.475  26.162  26.025  1.00  0.00     0.023 H 
ENDBRANCH  19  22
ENDBRANCH   6  19
BRANCH   9  26
ATOM     26  N   UNL     1     -51.202  27.533  22.257  1.00  0.00    -0.377 N 
BRANCH  26  27
ATOM     27  C   UNL     1     -50.720  26.933  21.012  1.00  0.00     0.006 C 
ATOM     28  H   UNL     1     -50.920  27.568  20.142  1.00  0.00     0.046 H 
ATOM     29  H   UNL     1     -51.170  25.947  20.849  1.00  0.00     0.046 H 
ATOM     30  H   UNL     1     -49.636  26.786  21.074  1.00  0.00     0.046 H 
ENDBRANCH  26  27
BRANCH  26  31
ATOM     31  C   UNL     1     -52.425  26.918  22.790  1.00  0.00     0.006 C 
ATOM     32  H   UNL     1     -52.315  25.833  22.893  1.00  0.00     0.046 H 
ATOM     33  H   UNL     1     -52.634  27.316  23.789  1.00  0.00     0.046 H 
ATOM     34  H   UNL     1     -53.291  27.130  22.153  1.00  0.00     0.046 H 
ENDBRANCH  26  31
ENDBRANCH   9  26
ENDBRANCH   4   5
ENDBRANCH   1   4
BRANCH   1  35
ATOM     35  C   UNL     1     -46.556  33.378  26.254  1.00  0.00     0.010 A 
ATOM     36  C   UNL     1     -46.175  32.791  27.449  1.00  0.00     0.034 A 
ATOM     37  C   UNL     1     -46.822  34.755  26.269  1.00  0.00    -0.028 A 
ATOM     38  N   UNL     1     -46.063  33.466  28.613  1.00  0.00    -0.262 NA
ATOM     39  H   UNL     1     -45.933  31.733  27.511  1.00  0.00     0.084 H 
ATOM     40  C   UNL     1     -46.652  35.506  27.438  1.00  0.00     0.066 A 
ATOM     41  H   UNL     1     -47.139  35.218  25.339  1.00  0.00     0.065 H 
ATOM     42  C   UNL     1     -46.293  34.806  28.583  1.00  0.00     0.051 A 
ATOM     43  H   UNL     1     -46.130  35.279  29.544  1.00  0.00     0.086 H 
BRANCH  40  44
ATOM     44  N   UNL     1     -46.784  36.930  27.416  1.00  0.00    -0.299 N 
ATOM     45  C   UNL     1     -45.747  37.812  27.157  1.00  0.00     0.021 A 
ATOM     46  C   UNL     1     -47.918  37.696  27.685  1.00  0.00     0.150 A 
ATOM     47  C   UNL     1     -46.194  39.108  27.295  1.00  0.00     0.033 A 
ATOM     48  H   UNL     1     -44.744  37.464  26.956  1.00  0.00     0.083 H 
ATOM     49  C   UNL     1     -47.582  39.048  27.602  1.00  0.00     0.071 A 
ATOM     50  N   UNL     1     -49.149  37.219  27.959  1.00  0.00    -0.218 NA
ATOM     51  C   UNL     1     -48.621  39.969  27.827  1.00  0.00     0.137 A 
ATOM     52  C   UNL     1     -50.046  38.190  28.172  1.00  0.00     0.120 A 
ATOM     53  N   UNL     1     -49.851  39.516  28.131  1.00  0.00    -0.219 NA
ATOM     54  H   UNL     1     -51.056  37.866  28.406  1.00  0.00     0.106 H 
BRANCH  47  55
ATOM     55  C   UNL     1     -45.371  40.312  27.167  1.00  0.00     0.095 A 
ATOM     56  C   UNL     1     -44.062  40.444  27.684  1.00  0.00    -0.016 A 
ATOM     57  N   UNL     1     -45.787  41.443  26.580  1.00  0.00    -0.173 NA
ATOM     58  C   UNL     1     -43.676  41.724  27.360  1.00  0.00     0.025 A 
ATOM     59  H   UNL     1     -43.476  39.707  28.215  1.00  0.00     0.066 H 
ATOM     60  N   UNL     1     -44.731  42.271  26.692  1.00  0.00    -0.275 N 
ATOM     61  H   UNL     1     -42.760  42.268  27.536  1.00  0.00     0.084 H 
BRANCH  60  62
ATOM     62  C   UNL     1     -44.807  43.598  26.128  1.00  0.00     0.030 C 
ATOM     63  H   UNL     1     -44.749  44.338  26.930  1.00  0.00     0.048 H 
ATOM     64  H   UNL     1     -45.758  43.693  25.600  1.00  0.00     0.048 H 
ATOM     65  H   UNL     1     -43.969  43.728  25.438  1.00  0.00     0.048 H 
ENDBRANCH  60  62
ENDBRANCH  47  55
BRANCH  51  66
ATOM     66  N   UNL     1     -48.467  41.346  27.756  1.00  0.00    -0.383 N 
ATOM     67  H   UNL     1     -48.996  41.841  28.478  1.00  0.00     0.158 HD
ATOM     68  H   UNL     1     -48.562  41.682  26.808  1.00  0.00     0.158 HD
ENDBRANCH  51  66
ENDBRANCH  40  44
ENDBRANCH   1  35
TORSDOF 12
ENDMDL
