MODEL 1
REMARK VINA RESULT:     -10.5      0.000      0.000
REMARK SMILES CNc1ccc2ccc(OC[C@H]3O[C@@H](n4cc(C(F)(F)F)c5c(N)ncnc54)[C@@H](F)[C@@H]3O)cc2n1
REMARK SMILES IDX 11 1 10 4 9 5 3 6 4 7 35 8 5 9 34 11 6 12 33 14 7 15 8 17
REMARK SMILES IDX 2 20 1 22 12 26 13 27 31 28 14 30 29 31 30 34 32 36 15 38
REMARK SMILES IDX 16 39 28 40 17 41 22 43 27 44 23 45 26 46 25 47 18 49 19 50
REMARK SMILES IDX 20 51 21 52 24 53
REMARK H PARENT 11 2 11 3 4 10 5 13 33 16 7 18 8 19 2 21 1 23 1 24 1 25 12 29
REMARK H PARENT 31 32 14 33 29 35 32 37 16 42 26 48 24 54 24 55
REMARK Flexibility Score: inf
ROOT
ATOM      1  C   UNL     1     -45.528  35.221  27.654  1.00  0.00     0.117 C 
ATOM      2  H   UNL     1     -45.675  34.195  28.014  1.00  0.00     0.073 H 
ATOM      3  H   UNL     1     -44.501  35.268  27.276  1.00  0.00     0.073 H 
ENDROOT
BRANCH   1   4
ATOM      4  O   UNL     1     -46.481  35.395  26.600  1.00  0.00    -0.491 OA
BRANCH   4   5
ATOM      5  C   UNL     1     -47.019  34.287  26.008  1.00  0.00     0.121 A 
ATOM      6  C   UNL     1     -47.100  30.628  22.976  1.00  0.00     0.126 A 
ATOM      7  C   UNL     1     -48.361  30.230  23.398  1.00  0.00    -0.019 A 
ATOM      8  N   UNL     1     -46.474  31.703  23.490  1.00  0.00    -0.231 NA
ATOM      9  C   UNL     1     -48.994  30.954  24.401  1.00  0.00    -0.049 A 
ATOM     10  H   UNL     1     -48.857  29.382  22.940  1.00  0.00     0.066 H 
ATOM     11  C   UNL     1     -47.082  32.409  24.461  1.00  0.00     0.076 A 
ATOM     12  C   UNL     1     -48.356  32.067  24.955  1.00  0.00     0.001 A 
ATOM     13  H   UNL     1     -49.983  30.652  24.735  1.00  0.00     0.063 H 
ATOM     14  C   UNL     1     -46.436  33.517  25.000  1.00  0.00     0.007 A 
ATOM     15  C   UNL     1     -48.951  32.833  25.967  1.00  0.00    -0.049 A 
ATOM     16  H   UNL     1     -45.460  33.755  24.591  1.00  0.00     0.069 H 
ATOM     17  C   UNL     1     -48.281  33.938  26.487  1.00  0.00    -0.019 A 
ATOM     18  H   UNL     1     -49.936  32.578  26.353  1.00  0.00     0.063 H 
ATOM     19  H   UNL     1     -48.747  34.533  27.270  1.00  0.00     0.066 H 
BRANCH   6  20
ATOM     20  N   UNL     1     -46.410  29.960  21.962  1.00  0.00    -0.373 N 
ATOM     21  H   UNL     1     -46.241  30.687  21.266  1.00  0.00     0.161 HD
BRANCH  20  22
ATOM     22  C   UNL     1     -45.166  29.348  22.396  1.00  0.00     0.005 C 
ATOM     23  H   UNL     1     -44.294  29.889  22.016  1.00  0.00     0.045 H 
ATOM     24  H   UNL     1     -45.104  28.297  22.089  1.00  0.00     0.045 H 
ATOM     25  H   UNL     1     -45.116  29.378  23.490  1.00  0.00     0.045 H 
ENDBRANCH  20  22
ENDBRANCH   6  20
ENDBRANCH   4   5
ENDBRANCH   1   4
BRANCH   1  26
ATOM     26  C   UNL     1     -45.786  36.193  28.806  1.00  0.00     0.123 C 
ATOM     27  O   UNL     1     -44.675  37.099  28.978  1.00  0.00    -0.345 OA
ATOM     28  C   UNL     1     -46.986  37.087  28.550  1.00  0.00     0.119 C 
ATOM     29  H   UNL     1     -45.901  35.643  29.748  1.00  0.00     0.067 H 
ATOM     30  C   UNL     1     -45.206  38.350  29.485  1.00  0.00     0.169 C 
ATOM     31  C   UNL     1     -46.726  38.215  29.526  1.00  0.00     0.173 C 
ATOM     32  H   UNL     1     -47.001  37.467  27.523  1.00  0.00     0.066 H 
ATOM     33  H   UNL     1     -44.791  38.497  30.488  1.00  0.00     0.088 H 
ATOM     34  F   UNL     1     -47.390  39.322  29.117  1.00  0.00    -0.239 F 
ATOM     35  H   UNL     1     -47.080  37.959  30.532  1.00  0.00     0.074 H 
BRANCH  28  36
ATOM     36  O   UNL     1     -48.212  36.414  28.799  1.00  0.00    -0.387 OA
ATOM     37  H   UNL     1     -48.272  36.267  29.763  1.00  0.00     0.211 HD
ENDBRANCH  28  36
BRANCH  30  38
ATOM     38  N   UNL     1     -44.730  39.440  28.646  1.00  0.00    -0.302 N 
ATOM     39  C   UNL     1     -45.334  39.948  27.522  1.00  0.00     0.021 A 
ATOM     40  C   UNL     1     -43.572  40.135  28.895  1.00  0.00     0.148 A 
ATOM     41  C   UNL     1     -44.558  40.995  27.038  1.00  0.00     0.087 A 
ATOM     42  H   UNL     1     -46.260  39.532  27.145  1.00  0.00     0.083 H 
ATOM     43  C   UNL     1     -43.430  41.107  27.914  1.00  0.00     0.073 A 
ATOM     44  N   UNL     1     -42.737  39.903  29.920  1.00  0.00    -0.218 NA
ATOM     45  C   UNL     1     -42.294  41.926  28.008  1.00  0.00     0.136 A 
ATOM     46  C   UNL     1     -41.697  40.754  29.911  1.00  0.00     0.120 A 
ATOM     47  N   UNL     1     -41.432  41.731  29.024  1.00  0.00    -0.219 NA
ATOM     48  H   UNL     1     -40.978  40.639  30.716  1.00  0.00     0.106 H 
BRANCH  41  49
ATOM     49  C   UNL     1     -44.830  41.851  25.853  1.00  0.00     0.418 C 
ATOM     50  F   UNL     1     -43.998  41.570  24.820  1.00  0.00    -0.166 F 
ATOM     51  F   UNL     1     -44.675  43.173  26.131  1.00  0.00    -0.166 F 
ATOM     52  F   UNL     1     -46.101  41.700  25.393  1.00  0.00    -0.166 F 
ENDBRANCH  41  49
BRANCH  45  53
ATOM     53  N   UNL     1     -41.986  42.933  27.106  1.00  0.00    -0.383 N 
ATOM     54  H   UNL     1     -41.651  43.755  27.599  1.00  0.00     0.158 HD
ATOM     55  H   UNL     1     -41.425  42.651  26.310  1.00  0.00     0.158 HD
ENDBRANCH  45  53
ENDBRANCH  30  38
ENDBRANCH   1  26
TORSDOF 9
ENDMDL
MODEL 2
REMARK VINA RESULT:      -9.3      2.078      2.803
REMARK SMILES CNc1ccc2ccc(OC[C@H]3O[C@@H](n4cc(C(F)(F)F)c5c(N)ncnc54)[C@@H](F)[C@@H]3O)cc2n1
REMARK SMILES IDX 11 1 10 4 9 5 3 6 4 7 35 8 5 9 34 11 6 12 33 14 7 15 8 17
REMARK SMILES IDX 2 20 1 22 12 26 13 27 31 28 14 30 29 31 30 34 32 36 15 38
REMARK SMILES IDX 16 39 28 40 17 41 22 43 27 44 23 45 26 46 25 47 18 49 19 50
REMARK SMILES IDX 20 51 21 52 24 53
REMARK H PARENT 11 2 11 3 4 10 5 13 33 16 7 18 8 19 2 21 1 23 1 24 1 25 12 29
REMARK H PARENT 31 32 14 33 29 35 32 37 16 42 26 48 24 54 24 55
REMARK Flexibility Score: inf
ROOT
ATOM      1  C   UNL     1     -46.277  34.245  26.167  1.00  0.00     0.117 C 
ATOM      2  H   UNL     1     -45.718  33.337  26.424  1.00  0.00     0.073 H 
ATOM      3  H   UNL     1     -45.587  34.879  25.600  1.00  0.00     0.073 H 
ENDROOT
BRANCH   1   4
ATOM      4  O   UNL     1     -47.370  33.803  25.354  1.00  0.00    -0.491 OA
BRANCH   4   5
ATOM      5  C   UNL     1     -47.426  32.489  24.983  1.00  0.00     0.121 A 
ATOM      6  C   UNL     1     -49.029  28.019  25.174  1.00  0.00     0.126 A 
ATOM      7  C   UNL     1     -48.155  27.600  24.182  1.00  0.00    -0.019 A 
ATOM      8  N   UNL     1     -49.062  29.290  25.617  1.00  0.00    -0.231 NA
ATOM      9  C   UNL     1     -47.294  28.529  23.608  1.00  0.00    -0.049 A 
ATOM     10  H   UNL     1     -48.124  26.562  23.870  1.00  0.00     0.066 H 
ATOM     11  C   UNL     1     -48.231  30.194  25.067  1.00  0.00     0.076 A 
ATOM     12  C   UNL     1     -47.321  29.855  24.046  1.00  0.00     0.001 A 
ATOM     13  H   UNL     1     -46.604  28.210  22.832  1.00  0.00     0.063 H 
ATOM     14  C   UNL     1     -48.265  31.509  25.517  1.00  0.00     0.007 A 
ATOM     15  C   UNL     1     -46.473  30.831  23.503  1.00  0.00    -0.049 A 
ATOM     16  H   UNL     1     -48.973  31.732  26.308  1.00  0.00     0.069 H 
ATOM     17  C   UNL     1     -46.529  32.141  23.974  1.00  0.00    -0.019 A 
ATOM     18  H   UNL     1     -45.765  30.578  22.717  1.00  0.00     0.063 H 
ATOM     19  H   UNL     1     -45.867  32.895  23.554  1.00  0.00     0.066 H 
BRANCH   6  20
ATOM     20  N   UNL     1     -49.911  27.140  25.807  1.00  0.00    -0.373 N 
ATOM     21  H   UNL     1     -50.808  27.339  25.363  1.00  0.00     0.161 HD
BRANCH  20  22
ATOM     22  C   UNL     1     -49.553  25.739  25.668  1.00  0.00     0.005 C 
ATOM     23  H   UNL     1     -49.455  25.247  26.640  1.00  0.00     0.045 H 
ATOM     24  H   UNL     1     -48.623  25.614  25.101  1.00  0.00     0.045 H 
ATOM     25  H   UNL     1     -50.348  25.221  25.121  1.00  0.00     0.045 H 
ENDBRANCH  20  22
ENDBRANCH   6  20
ENDBRANCH   4   5
ENDBRANCH   1   4
BRANCH   1  26
ATOM     26  C   UNL     1     -46.772  34.904  27.456  1.00  0.00     0.123 C 
ATOM     27  O   UNL     1     -45.730  35.697  28.065  1.00  0.00    -0.345 OA
ATOM     28  C   UNL     1     -47.912  35.874  27.208  1.00  0.00     0.119 C 
ATOM     29  H   UNL     1     -47.061  34.138  28.186  1.00  0.00     0.067 H 
ATOM     30  C   UNL     1     -46.370  36.797  28.761  1.00  0.00     0.169 C 
ATOM     31  C   UNL     1     -47.867  36.710  28.470  1.00  0.00     0.173 C 
ATOM     32  H   UNL     1     -47.731  36.502  26.329  1.00  0.00     0.066 H 
ATOM     33  H   UNL     1     -46.162  36.671  29.829  1.00  0.00     0.088 H 
ATOM     34  F   UNL     1     -48.454  37.907  28.236  1.00  0.00    -0.239 F 
ATOM     35  H   UNL     1     -48.407  36.221  29.289  1.00  0.00     0.074 H 
BRANCH  28  36
ATOM     36  O   UNL     1     -49.153  35.205  27.035  1.00  0.00    -0.387 OA
ATOM     37  H   UNL     1     -49.725  35.455  27.787  1.00  0.00     0.211 HD
ENDBRANCH  28  36
BRANCH  30  38
ATOM     38  N   UNL     1     -45.756  38.046  28.335  1.00  0.00    -0.302 N 
ATOM     39  C   UNL     1     -46.116  38.827  27.265  1.00  0.00     0.021 A 
ATOM     40  C   UNL     1     -44.700  38.630  28.991  1.00  0.00     0.148 A 
ATOM     41  C   UNL     1     -45.284  39.941  27.230  1.00  0.00     0.087 A 
ATOM     42  H   UNL     1     -46.926  38.539  26.606  1.00  0.00     0.083 H 
ATOM     43  C   UNL     1     -44.377  39.808  28.331  1.00  0.00     0.073 A 
ATOM     44  N   UNL     1     -44.101  38.136  30.085  1.00  0.00    -0.218 NA
ATOM     45  C   UNL     1     -43.313  40.551  28.865  1.00  0.00     0.136 A 
ATOM     46  C   UNL     1     -43.109  38.937  30.509  1.00  0.00     0.120 A 
ATOM     47  N   UNL     1     -42.686  40.093  29.966  1.00  0.00    -0.219 NA
ATOM     48  H   UNL     1     -42.579  38.612  31.399  1.00  0.00     0.106 H 
BRANCH  41  49
ATOM     49  C   UNL     1     -45.318  41.066  26.259  1.00  0.00     0.418 C 
ATOM     50  F   UNL     1     -46.528  41.184  25.658  1.00  0.00    -0.166 F 
ATOM     51  F   UNL     1     -44.402  40.912  25.266  1.00  0.00    -0.166 F 
ATOM     52  F   UNL     1     -45.050  42.261  26.849  1.00  0.00    -0.166 F 
ENDBRANCH  41  49
BRANCH  45  53
ATOM     53  N   UNL     1     -42.846  41.739  28.324  1.00  0.00    -0.383 N 
ATOM     54  H   UNL     1     -41.836  41.709  28.231  1.00  0.00     0.158 HD
ATOM     55  H   UNL     1     -43.344  42.074  27.507  1.00  0.00     0.158 HD
ENDBRANCH  45  53
ENDBRANCH  30  38
ENDBRANCH   1  26
TORSDOF 9
ENDMDL
MODEL 3
REMARK VINA RESULT:      -9.3      4.818     11.138
REMARK SMILES CNc1ccc2ccc(OC[C@H]3O[C@@H](n4cc(C(F)(F)F)c5c(N)ncnc54)[C@@H](F)[C@@H]3O)cc2n1
REMARK SMILES IDX 11 1 10 4 9 5 3 6 4 7 35 8 5 9 34 11 6 12 33 14 7 15 8 17
REMARK SMILES IDX 2 20 1 22 12 26 13 27 31 28 14 30 29 31 30 34 32 36 15 38
REMARK SMILES IDX 16 39 28 40 17 41 22 43 27 44 23 45 26 46 25 47 18 49 19 50
REMARK SMILES IDX 20 51 21 52 24 53
REMARK H PARENT 11 2 11 3 4 10 5 13 33 16 7 18 8 19 2 21 1 23 1 24 1 25 12 29
REMARK H PARENT 31 32 14 33 29 35 32 37 16 42 26 48 24 54 24 55
REMARK Flexibility Score: inf
ROOT
ATOM      1  C   UNL     1     -46.850  33.530  26.755  1.00  0.00     0.117 C 
ATOM      2  H   UNL     1     -45.883  33.946  26.448  1.00  0.00     0.073 H 
ATOM      3  H   UNL     1     -46.625  32.666  27.389  1.00  0.00     0.073 H 
ENDROOT
BRANCH   1   4
ATOM      4  O   UNL     1     -47.495  34.571  27.497  1.00  0.00    -0.491 OA
BRANCH   4   5
ATOM      5  C   UNL     1     -46.830  35.750  27.692  1.00  0.00     0.121 A 
ATOM      6  C   UNL     1     -45.514  40.187  26.614  1.00  0.00     0.126 A 
ATOM      7  C   UNL     1     -44.700  40.281  27.734  1.00  0.00    -0.019 A 
ATOM      8  N   UNL     1     -46.216  39.076  26.324  1.00  0.00    -0.231 NA
ATOM      9  C   UNL     1     -44.619  39.197  28.600  1.00  0.00    -0.049 A 
ATOM     10  H   UNL     1     -44.118  41.176  27.924  1.00  0.00     0.066 H 
ATOM     11  C   UNL     1     -46.142  38.022  27.157  1.00  0.00     0.076 A 
ATOM     12  C   UNL     1     -45.349  38.038  28.321  1.00  0.00     0.001 A 
ATOM     13  H   UNL     1     -43.982  39.259  29.477  1.00  0.00     0.063 H 
ATOM     14  C   UNL     1     -46.870  36.873  26.865  1.00  0.00     0.007 A 
ATOM     15  C   UNL     1     -45.301  36.915  29.160  1.00  0.00    -0.049 A 
ATOM     16  H   UNL     1     -47.464  36.894  25.958  1.00  0.00     0.069 H 
ATOM     17  C   UNL     1     -46.040  35.777  28.841  1.00  0.00    -0.019 A 
ATOM     18  H   UNL     1     -44.689  36.917  30.059  1.00  0.00     0.063 H 
ATOM     19  H   UNL     1     -45.998  34.907  29.491  1.00  0.00     0.066 H 
BRANCH   6  20
ATOM     20  N   UNL     1     -45.633  41.230  25.692  1.00  0.00    -0.373 N 
ATOM     21  H   UNL     1     -46.514  41.030  25.216  1.00  0.00     0.161 HD
BRANCH  20  22
ATOM     22  C   UNL     1     -45.648  42.553  26.292  1.00  0.00     0.005 C 
ATOM     23  H   UNL     1     -45.772  42.504  27.378  1.00  0.00     0.045 H 
ATOM     24  H   UNL     1     -46.438  43.181  25.864  1.00  0.00     0.045 H 
ATOM     25  H   UNL     1     -44.689  43.044  26.097  1.00  0.00     0.045 H 
ENDBRANCH  20  22
ENDBRANCH   6  20
ENDBRANCH   4   5
ENDBRANCH   1   4
BRANCH   1  26
ATOM     26  C   UNL     1     -47.650  33.161  25.504  1.00  0.00     0.123 C 
ATOM     27  O   UNL     1     -46.977  32.136  24.742  1.00  0.00    -0.345 OA
ATOM     28  C   UNL     1     -49.009  32.574  25.840  1.00  0.00     0.119 C 
ATOM     29  H   UNL     1     -47.753  34.035  24.848  1.00  0.00     0.067 H 
ATOM     30  C   UNL     1     -47.996  31.347  24.077  1.00  0.00     0.169 C 
ATOM     31  C   UNL     1     -49.352  31.868  24.545  1.00  0.00     0.173 C 
ATOM     32  H   UNL     1     -48.951  31.852  26.663  1.00  0.00     0.066 H 
ATOM     33  H   UNL     1     -47.864  31.486  22.999  1.00  0.00     0.088 H 
ATOM     34  F   UNL     1     -50.262  30.897  24.792  1.00  0.00    -0.239 F 
ATOM     35  H   UNL     1     -49.787  32.563  23.817  1.00  0.00     0.074 H 
BRANCH  28  36
ATOM     36  O   UNL     1     -49.952  33.578  26.187  1.00  0.00    -0.387 OA
ATOM     37  H   UNL     1     -49.631  34.420  25.810  1.00  0.00     0.211 HD
ENDBRANCH  28  36
BRANCH  30  38
ATOM     38  N   UNL     1     -47.769  29.939  24.371  1.00  0.00    -0.302 N 
ATOM     39  C   UNL     1     -48.502  29.136  25.210  1.00  0.00     0.021 A 
ATOM     40  C   UNL     1     -46.755  29.204  23.808  1.00  0.00     0.148 A 
ATOM     41  C   UNL     1     -47.958  27.857  25.185  1.00  0.00     0.087 A 
ATOM     42  H   UNL     1     -49.347  29.526  25.765  1.00  0.00     0.083 H 
ATOM     43  C   UNL     1     -46.838  27.906  24.294  1.00  0.00     0.073 A 
ATOM     44  N   UNL     1     -45.851  29.676  22.935  1.00  0.00    -0.218 NA
ATOM     45  C   UNL     1     -45.875  27.000  23.822  1.00  0.00     0.136 A 
ATOM     46  C   UNL     1     -44.993  28.718  22.548  1.00  0.00     0.120 A 
ATOM     47  N   UNL     1     -44.952  27.430  22.941  1.00  0.00    -0.219 NA
ATOM     48  H   UNL     1     -44.234  29.017  21.832  1.00  0.00     0.106 H 
BRANCH  41  49
ATOM     49  C   UNL     1     -48.434  26.657  25.922  1.00  0.00     0.418 C 
ATOM     50  F   UNL     1     -49.516  26.928  26.693  1.00  0.00    -0.166 F 
ATOM     51  F   UNL     1     -47.481  26.153  26.750  1.00  0.00    -0.166 F 
ATOM     52  F   UNL     1     -48.788  25.647  25.083  1.00  0.00    -0.166 F 
ENDBRANCH  41  49
BRANCH  45  53
ATOM     53  N   UNL     1     -45.799  25.672  24.214  1.00  0.00    -0.383 N 
ATOM     54  H   UNL     1     -46.114  25.067  23.463  1.00  0.00     0.158 HD
ATOM     55  H   UNL     1     -44.929  25.395  24.654  1.00  0.00     0.158 HD
ENDBRANCH  45  53
ENDBRANCH  30  38
ENDBRANCH   1  26
TORSDOF 9
ENDMDL
MODEL 4
REMARK VINA RESULT:      -9.0      2.176      3.118
REMARK SMILES CNc1ccc2ccc(OC[C@H]3O[C@@H](n4cc(C(F)(F)F)c5c(N)ncnc54)[C@@H](F)[C@@H]3O)cc2n1
REMARK SMILES IDX 11 1 10 4 9 5 3 6 4 7 35 8 5 9 34 11 6 12 33 14 7 15 8 17
REMARK SMILES IDX 2 20 1 22 12 26 13 27 31 28 14 30 29 31 30 34 32 36 15 38
REMARK SMILES IDX 16 39 28 40 17 41 22 43 27 44 23 45 26 46 25 47 18 49 19 50
REMARK SMILES IDX 20 51 21 52 24 53
REMARK H PARENT 11 2 11 3 4 10 5 13 33 16 7 18 8 19 2 21 1 23 1 24 1 25 12 29
REMARK H PARENT 31 32 14 33 29 35 32 37 16 42 26 48 24 54 24 55
REMARK Flexibility Score: inf
ROOT
ATOM      1  C   UNL     1     -46.717  35.623  26.722  1.00  0.00     0.117 C 
ATOM      2  H   UNL     1     -45.887  35.074  26.260  1.00  0.00     0.073 H 
ATOM      3  H   UNL     1     -46.822  36.553  26.154  1.00  0.00     0.073 H 
ENDROOT
BRANCH   1   4
ATOM      4  O   UNL     1     -47.865  34.781  26.566  1.00  0.00    -0.491 OA
BRANCH   4   5
ATOM      5  C   UNL     1     -47.739  33.621  25.855  1.00  0.00     0.121 A 
ATOM      6  C   UNL     1     -49.177  29.410  24.186  1.00  0.00     0.126 A 
ATOM      7  C   UNL     1     -47.976  29.195  23.525  1.00  0.00    -0.019 A 
ATOM      8  N   UNL     1     -49.411  30.517  24.914  1.00  0.00    -0.231 NA
ATOM      9  C   UNL     1     -46.984  30.166  23.599  1.00  0.00    -0.049 A 
ATOM     10  H   UNL     1     -47.801  28.277  22.975  1.00  0.00     0.066 H 
ATOM     11  C   UNL     1     -48.455  31.461  24.992  1.00  0.00     0.076 A 
ATOM     12  C   UNL     1     -47.212  31.327  24.342  1.00  0.00     0.001 A 
ATOM     13  H   UNL     1     -46.039  30.005  23.088  1.00  0.00     0.063 H 
ATOM     14  C   UNL     1     -48.694  32.609  25.739  1.00  0.00     0.007 A 
ATOM     15  C   UNL     1     -46.245  32.336  24.452  1.00  0.00    -0.049 A 
ATOM     16  H   UNL     1     -49.659  32.675  26.230  1.00  0.00     0.069 H 
ATOM     17  C   UNL     1     -46.512  33.476  25.208  1.00  0.00    -0.019 A 
ATOM     18  H   UNL     1     -45.282  32.242  23.957  1.00  0.00     0.063 H 
ATOM     19  H   UNL     1     -45.759  34.256  25.295  1.00  0.00     0.066 H 
BRANCH   6  20
ATOM     20  N   UNL     1     -50.212  28.472  24.169  1.00  0.00    -0.373 N 
ATOM     21  H   UNL     1     -50.221  28.142  23.203  1.00  0.00     0.161 HD
BRANCH  20  22
ATOM     22  C   UNL     1     -50.032  27.372  25.100  1.00  0.00     0.005 C 
ATOM     23  H   UNL     1     -50.411  27.619  26.097  1.00  0.00     0.045 H 
ATOM     24  H   UNL     1     -48.979  27.075  25.174  1.00  0.00     0.045 H 
ATOM     25  H   UNL     1     -50.598  26.506  24.743  1.00  0.00     0.045 H 
ENDBRANCH  20  22
ENDBRANCH   6  20
ENDBRANCH   4   5
ENDBRANCH   1   4
BRANCH   1  26
ATOM     26  C   UNL     1     -46.395  35.858  28.199  1.00  0.00     0.123 C 
ATOM     27  O   UNL     1     -45.038  36.324  28.366  1.00  0.00    -0.345 OA
ATOM     28  C   UNL     1     -47.262  36.940  28.815  1.00  0.00     0.119 C 
ATOM     29  H   UNL     1     -46.483  34.919  28.760  1.00  0.00     0.067 H 
ATOM     30  C   UNL     1     -45.013  37.180  29.536  1.00  0.00     0.169 C 
ATOM     31  C   UNL     1     -46.449  37.309  30.037  1.00  0.00     0.173 C 
ATOM     32  H   UNL     1     -47.367  37.807  28.152  1.00  0.00     0.066 H 
ATOM     33  H   UNL     1     -44.371  36.696  30.280  1.00  0.00     0.088 H 
ATOM     34  F   UNL     1     -46.784  38.558  30.438  1.00  0.00    -0.239 F 
ATOM     35  H   UNL     1     -46.647  36.621  30.868  1.00  0.00     0.074 H 
BRANCH  28  36
ATOM     36  O   UNL     1     -48.560  36.462  29.139  1.00  0.00    -0.387 OA
ATOM     37  H   UNL     1     -49.200  36.988  28.621  1.00  0.00     0.211 HD
ENDBRANCH  28  36
BRANCH  30  38
ATOM     38  N   UNL     1     -44.394  38.449  29.179  1.00  0.00    -0.302 N 
ATOM     39  C   UNL     1     -43.344  39.069  29.811  1.00  0.00     0.021 A 
ATOM     40  C   UNL     1     -44.794  39.210  28.108  1.00  0.00     0.148 A 
ATOM     41  C   UNL     1     -43.054  40.248  29.134  1.00  0.00     0.087 A 
ATOM     42  H   UNL     1     -42.884  38.637  30.691  1.00  0.00     0.083 H 
ATOM     43  C   UNL     1     -43.987  40.338  28.051  1.00  0.00     0.073 A 
ATOM     44  N   UNL     1     -45.793  38.897  27.268  1.00  0.00    -0.218 NA
ATOM     45  C   UNL     1     -44.248  41.240  27.008  1.00  0.00     0.136 A 
ATOM     46  C   UNL     1     -45.940  39.826  26.309  1.00  0.00     0.120 A 
ATOM     47  N   UNL     1     -45.239  40.962  26.139  1.00  0.00    -0.219 NA
ATOM     48  H   UNL     1     -46.724  39.641  25.581  1.00  0.00     0.106 H 
BRANCH  41  49
ATOM     49  C   UNL     1     -41.984  41.232  29.448  1.00  0.00     0.418 C 
ATOM     50  F   UNL     1     -41.339  40.932  30.602  1.00  0.00    -0.166 F 
ATOM     51  F   UNL     1     -42.474  42.492  29.590  1.00  0.00    -0.166 F 
ATOM     52  F   UNL     1     -41.041  41.294  28.470  1.00  0.00    -0.166 F 
ENDBRANCH  41  49
BRANCH  45  53
ATOM     53  N   UNL     1     -43.553  42.423  26.811  1.00  0.00    -0.383 N 
ATOM     54  H   UNL     1     -44.065  43.030  26.180  1.00  0.00     0.158 HD
ATOM     55  H   UNL     1     -43.206  42.871  27.652  1.00  0.00     0.158 HD
ENDBRANCH  45  53
ENDBRANCH  30  38
ENDBRANCH   1  26
TORSDOF 9
ENDMDL
MODEL 5
REMARK VINA RESULT:      -9.0      1.510      2.251
REMARK SMILES CNc1ccc2ccc(OC[C@H]3O[C@@H](n4cc(C(F)(F)F)c5c(N)ncnc54)[C@@H](F)[C@@H]3O)cc2n1
REMARK SMILES IDX 11 1 10 4 9 5 3 6 4 7 35 8 5 9 34 11 6 12 33 14 7 15 8 17
REMARK SMILES IDX 2 20 1 22 12 26 13 27 31 28 14 30 29 31 30 34 32 36 15 38
REMARK SMILES IDX 16 39 28 40 17 41 22 43 27 44 23 45 26 46 25 47 18 49 19 50
REMARK SMILES IDX 20 51 21 52 24 53
REMARK H PARENT 11 2 11 3 4 10 5 13 33 16 7 18 8 19 2 21 1 23 1 24 1 25 12 29
REMARK H PARENT 31 32 14 33 29 35 32 37 16 42 26 48 24 54 24 55
REMARK Flexibility Score: inf
ROOT
ATOM      1  C   UNL     1     -46.676  35.374  26.570  1.00  0.00     0.117 C 
ATOM      2  H   UNL     1     -46.212  36.030  25.824  1.00  0.00     0.073 H 
ATOM      3  H   UNL     1     -47.745  35.349  26.334  1.00  0.00     0.073 H 
ENDROOT
BRANCH   1   4
ATOM      4  O   UNL     1     -46.068  34.092  26.381  1.00  0.00    -0.491 OA
BRANCH   4   5
ATOM      5  C   UNL     1     -46.681  33.186  25.561  1.00  0.00     0.121 A 
ATOM      6  C   UNL     1     -50.389  30.826  23.753  1.00  0.00     0.126 A 
ATOM      7  C   UNL     1     -49.578  30.077  22.913  1.00  0.00    -0.019 A 
ATOM      8  N   UNL     1     -49.893  31.747  24.601  1.00  0.00    -0.231 NA
ATOM      9  C   UNL     1     -48.206  30.297  22.930  1.00  0.00    -0.049 A 
ATOM     10  H   UNL     1     -50.001  29.316  22.266  1.00  0.00     0.066 H 
ATOM     11  C   UNL     1     -48.566  31.965  24.624  1.00  0.00     0.076 A 
ATOM     12  C   UNL     1     -47.673  31.256  23.796  1.00  0.00     0.001 A 
ATOM     13  H   UNL     1     -47.562  29.713  22.279  1.00  0.00     0.063 H 
ATOM     14  C   UNL     1     -48.050  32.919  25.494  1.00  0.00     0.007 A 
ATOM     15  C   UNL     1     -46.296  31.515  23.855  1.00  0.00    -0.049 A 
ATOM     16  H   UNL     1     -48.765  33.440  26.121  1.00  0.00     0.069 H 
ATOM     17  C   UNL     1     -45.808  32.477  24.737  1.00  0.00    -0.019 A 
ATOM     18  H   UNL     1     -45.599  30.972  23.222  1.00  0.00     0.063 H 
ATOM     19  H   UNL     1     -44.739  32.674  24.784  1.00  0.00     0.066 H 
BRANCH   6  20
ATOM     20  N   UNL     1     -51.774  30.649  23.802  1.00  0.00    -0.373 N 
ATOM     21  H   UNL     1     -52.101  31.457  24.334  1.00  0.00     0.161 HD
BRANCH  20  22
ATOM     22  C   UNL     1     -52.409  30.587  22.497  1.00  0.00     0.005 C 
ATOM     23  H   UNL     1     -51.729  30.903  21.700  1.00  0.00     0.045 H 
ATOM     24  H   UNL     1     -53.319  31.197  22.461  1.00  0.00     0.045 H 
ATOM     25  H   UNL     1     -52.695  29.550  22.288  1.00  0.00     0.045 H 
ENDBRANCH  20  22
ENDBRANCH   6  20
ENDBRANCH   4   5
ENDBRANCH   1   4
BRANCH   1  26
ATOM     26  C   UNL     1     -46.385  35.927  27.966  1.00  0.00     0.123 C 
ATOM     27  O   UNL     1     -45.117  36.618  27.996  1.00  0.00    -0.345 OA
ATOM     28  C   UNL     1     -47.407  36.961  28.403  1.00  0.00     0.119 C 
ATOM     29  H   UNL     1     -46.322  35.108  28.693  1.00  0.00     0.067 H 
ATOM     30  C   UNL     1     -45.217  37.672  28.988  1.00  0.00     0.169 C 
ATOM     31  C   UNL     1     -46.653  37.672  29.507  1.00  0.00     0.173 C 
ATOM     32  H   UNL     1     -47.650  37.662  27.596  1.00  0.00     0.066 H 
ATOM     33  H   UNL     1     -44.503  37.438  29.785  1.00  0.00     0.088 H 
ATOM     34  F   UNL     1     -47.177  38.908  29.683  1.00  0.00    -0.239 F 
ATOM     35  H   UNL     1     -46.736  37.130  30.457  1.00  0.00     0.074 H 
BRANCH  28  36
ATOM     36  O   UNL     1     -48.611  36.361  28.856  1.00  0.00    -0.387 OA
ATOM     37  H   UNL     1     -49.093  36.045  28.066  1.00  0.00     0.211 HD
ENDBRANCH  28  36
BRANCH  30  38
ATOM     38  N   UNL     1     -44.807  38.930  28.382  1.00  0.00    -0.302 N 
ATOM     39  C   UNL     1     -45.358  39.544  27.284  1.00  0.00     0.021 A 
ATOM     40  C   UNL     1     -43.778  39.701  28.865  1.00  0.00     0.148 A 
ATOM     41  C   UNL     1     -44.680  40.736  27.056  1.00  0.00     0.087 A 
ATOM     42  H   UNL     1     -46.182  39.093  26.743  1.00  0.00     0.083 H 
ATOM     43  C   UNL     1     -43.667  40.829  28.064  1.00  0.00     0.073 A 
ATOM     44  N   UNL     1     -43.024  39.401  29.935  1.00  0.00    -0.218 NA
ATOM     45  C   UNL     1     -42.661  41.744  28.411  1.00  0.00     0.136 A 
ATOM     46  C   UNL     1     -42.107  40.352  30.174  1.00  0.00     0.120 A 
ATOM     47  N   UNL     1     -41.884  41.485  29.480  1.00  0.00    -0.219 NA
ATOM     48  H   UNL     1     -41.461  40.190  31.031  1.00  0.00     0.106 H 
BRANCH  41  49
ATOM     49  C   UNL     1     -44.944  41.737  25.989  1.00  0.00     0.418 C 
ATOM     50  F   UNL     1     -44.867  43.008  26.454  1.00  0.00    -0.166 F 
ATOM     51  F   UNL     1     -46.182  41.593  25.447  1.00  0.00    -0.166 F 
ATOM     52  F   UNL     1     -44.059  41.636  24.961  1.00  0.00    -0.166 F 
ENDBRANCH  41  49
BRANCH  45  53
ATOM     53  N   UNL     1     -42.399  42.913  27.713  1.00  0.00    -0.383 N 
ATOM     54  H   UNL     1     -42.369  43.702  28.349  1.00  0.00     0.158 HD
ATOM     55  H   UNL     1     -41.633  42.864  27.051  1.00  0.00     0.158 HD
ENDBRANCH  45  53
ENDBRANCH  30  38
ENDBRANCH   1  26
TORSDOF 9
ENDMDL
MODEL 6
REMARK VINA RESULT:      -8.9      2.662      3.504
REMARK SMILES CNc1ccc2ccc(OC[C@H]3O[C@@H](n4cc(C(F)(F)F)c5c(N)ncnc54)[C@@H](F)[C@@H]3O)cc2n1
REMARK SMILES IDX 11 1 10 4 9 5 3 6 4 7 35 8 5 9 34 11 6 12 33 14 7 15 8 17
REMARK SMILES IDX 2 20 1 22 12 26 13 27 31 28 14 30 29 31 30 34 32 36 15 38
REMARK SMILES IDX 16 39 28 40 17 41 22 43 27 44 23 45 26 46 25 47 18 49 19 50
REMARK SMILES IDX 20 51 21 52 24 53
REMARK H PARENT 11 2 11 3 4 10 5 13 33 16 7 18 8 19 2 21 1 23 1 24 1 25 12 29
REMARK H PARENT 31 32 14 33 29 35 32 37 16 42 26 48 24 54 24 55
REMARK Flexibility Score: inf
ROOT
ATOM      1  C   UNL     1     -47.512  34.879  27.886  1.00  0.00     0.117 C 
ATOM      2  H   UNL     1     -48.377  35.359  28.360  1.00  0.00     0.073 H 
ATOM      3  H   UNL     1     -47.434  33.881  28.332  1.00  0.00     0.073 H 
ENDROOT
BRANCH   1   4
ATOM      4  O   UNL     1     -47.831  34.806  26.493  1.00  0.00    -0.491 OA
BRANCH   4   5
ATOM      5  C   UNL     1     -47.652  33.620  25.837  1.00  0.00     0.121 A 
ATOM      6  C   UNL     1     -48.662  29.110  24.729  1.00  0.00     0.126 A 
ATOM      7  C   UNL     1     -47.590  29.023  23.852  1.00  0.00    -0.019 A 
ATOM      8  N   UNL     1     -48.934  30.229  25.427  1.00  0.00    -0.231 NA
ATOM      9  C   UNL     1     -46.778  30.136  23.671  1.00  0.00    -0.049 A 
ATOM     10  H   UNL     1     -47.373  28.098  23.331  1.00  0.00     0.066 H 
ATOM     11  C   UNL     1     -48.151  31.310  25.257  1.00  0.00     0.076 A 
ATOM     12  C   UNL     1     -47.050  31.310  24.379  1.00  0.00     0.001 A 
ATOM     13  H   UNL     1     -45.934  30.077  22.990  1.00  0.00     0.063 H 
ATOM     14  C   UNL     1     -48.431  32.470  25.972  1.00  0.00     0.007 A 
ATOM     15  C   UNL     1     -46.260  32.460  24.235  1.00  0.00    -0.049 A 
ATOM     16  H   UNL     1     -49.282  32.431  26.644  1.00  0.00     0.069 H 
ATOM     17  C   UNL     1     -46.564  33.607  24.965  1.00  0.00    -0.019 A 
ATOM     18  H   UNL     1     -45.407  32.469  23.561  1.00  0.00     0.063 H 
ATOM     19  H   UNL     1     -45.949  34.497  24.854  1.00  0.00     0.066 H 
BRANCH   6  20
ATOM     20  N   UNL     1     -49.512  28.029  24.973  1.00  0.00    -0.373 N 
ATOM     21  H   UNL     1     -49.335  27.402  24.188  1.00  0.00     0.161 HD
BRANCH  20  22
ATOM     22  C   UNL     1     -49.275  27.363  26.242  1.00  0.00     0.005 C 
ATOM     23  H   UNL     1     -48.332  27.683  26.698  1.00  0.00     0.045 H 
ATOM     24  H   UNL     1     -49.273  26.272  26.132  1.00  0.00     0.045 H 
ATOM     25  H   UNL     1     -50.078  27.626  26.939  1.00  0.00     0.045 H 
ENDBRANCH  20  22
ENDBRANCH   6  20
ENDBRANCH   4   5
ENDBRANCH   1   4
BRANCH   1  26
ATOM     26  C   UNL     1     -46.272  35.741  28.129  1.00  0.00     0.123 C 
ATOM     27  O   UNL     1     -46.129  36.745  27.102  1.00  0.00    -0.345 OA
ATOM     28  C   UNL     1     -46.353  36.517  29.431  1.00  0.00     0.119 C 
ATOM     29  H   UNL     1     -45.367  35.120  28.100  1.00  0.00     0.067 H 
ATOM     30  C   UNL     1     -45.485  37.896  27.704  1.00  0.00     0.169 C 
ATOM     31  C   UNL     1     -45.322  37.600  29.193  1.00  0.00     0.173 C 
ATOM     32  H   UNL     1     -47.344  36.961  29.581  1.00  0.00     0.066 H 
ATOM     33  H   UNL     1     -44.514  38.020  27.212  1.00  0.00     0.088 H 
ATOM     34  F   UNL     1     -45.586  38.655  29.999  1.00  0.00    -0.239 F 
ATOM     35  H   UNL     1     -44.311  37.242  29.422  1.00  0.00     0.074 H 
BRANCH  28  36
ATOM     36  O   UNL     1     -46.049  35.704  30.556  1.00  0.00    -0.387 OA
ATOM     37  H   UNL     1     -46.899  35.411  30.939  1.00  0.00     0.211 HD
ENDBRANCH  28  36
BRANCH  30  38
ATOM     38  N   UNL     1     -46.278  39.084  27.420  1.00  0.00    -0.302 N 
ATOM     39  C   UNL     1     -47.596  39.298  27.739  1.00  0.00     0.021 A 
ATOM     40  C   UNL     1     -45.778  40.192  26.782  1.00  0.00     0.148 A 
ATOM     41  C   UNL     1     -47.955  40.570  27.305  1.00  0.00     0.087 A 
ATOM     42  H   UNL     1     -48.184  38.539  28.240  1.00  0.00     0.083 H 
ATOM     43  C   UNL     1     -46.792  41.135  26.690  1.00  0.00     0.073 A 
ATOM     44  N   UNL     1     -44.518  40.324  26.337  1.00  0.00    -0.218 NA
ATOM     45  C   UNL     1     -46.462  42.347  26.063  1.00  0.00     0.136 A 
ATOM     46  C   UNL     1     -44.319  41.525  25.770  1.00  0.00     0.120 A 
ATOM     47  N   UNL     1     -45.208  42.524  25.606  1.00  0.00    -0.219 NA
ATOM     48  H   UNL     1     -43.320  41.717  25.392  1.00  0.00     0.106 H 
BRANCH  41  49
ATOM     49  C   UNL     1     -49.276  41.237  27.452  1.00  0.00     0.418 C 
ATOM     50  F   UNL     1     -50.185  40.437  28.062  1.00  0.00    -0.166 F 
ATOM     51  F   UNL     1     -49.807  41.588  26.251  1.00  0.00    -0.166 F 
ATOM     52  F   UNL     1     -49.195  42.379  28.186  1.00  0.00    -0.166 F 
ENDBRANCH  41  49
BRANCH  45  53
ATOM     53  N   UNL     1     -47.355  43.390  25.869  1.00  0.00    -0.383 N 
ATOM     54  H   UNL     1     -47.599  43.464  24.888  1.00  0.00     0.158 HD
ATOM     55  H   UNL     1     -48.138  43.420  26.512  1.00  0.00     0.158 HD
ENDBRANCH  45  53
ENDBRANCH  30  38
ENDBRANCH   1  26
TORSDOF 9
ENDMDL
MODEL 7
REMARK VINA RESULT:      -8.9      2.778      4.679
REMARK SMILES CNc1ccc2ccc(OC[C@H]3O[C@@H](n4cc(C(F)(F)F)c5c(N)ncnc54)[C@@H](F)[C@@H]3O)cc2n1
REMARK SMILES IDX 11 1 10 4 9 5 3 6 4 7 35 8 5 9 34 11 6 12 33 14 7 15 8 17
REMARK SMILES IDX 2 20 1 22 12 26 13 27 31 28 14 30 29 31 30 34 32 36 15 38
REMARK SMILES IDX 16 39 28 40 17 41 22 43 27 44 23 45 26 46 25 47 18 49 19 50
REMARK SMILES IDX 20 51 21 52 24 53
REMARK H PARENT 11 2 11 3 4 10 5 13 33 16 7 18 8 19 2 21 1 23 1 24 1 25 12 29
REMARK H PARENT 31 32 14 33 29 35 32 37 16 42 26 48 24 54 24 55
REMARK Flexibility Score: inf
ROOT
ATOM      1  C   UNL     1     -45.834  39.247  28.368  1.00  0.00     0.117 C 
ATOM      2  H   UNL     1     -46.721  39.228  27.723  1.00  0.00     0.073 H 
ATOM      3  H   UNL     1     -46.050  39.967  29.164  1.00  0.00     0.073 H 
ENDROOT
BRANCH   1   4
ATOM      4  O   UNL     1     -45.710  37.917  28.885  1.00  0.00    -0.491 OA
BRANCH   4   5
ATOM      5  C   UNL     1     -46.327  36.893  28.223  1.00  0.00     0.121 A 
ATOM      6  C   UNL     1     -46.489  32.954  25.568  1.00  0.00     0.126 A 
ATOM      7  C   UNL     1     -47.876  32.930  25.583  1.00  0.00    -0.019 A 
ATOM      8  N   UNL     1     -45.777  33.915  26.188  1.00  0.00    -0.231 NA
ATOM      9  C   UNL     1     -48.558  33.921  26.279  1.00  0.00    -0.049 A 
ATOM     10  H   UNL     1     -48.424  32.164  25.045  1.00  0.00     0.066 H 
ATOM     11  C   UNL     1     -46.432  34.877  26.863  1.00  0.00     0.076 A 
ATOM     12  C   UNL     1     -47.838  34.920  26.937  1.00  0.00     0.001 A 
ATOM     13  H   UNL     1     -49.644  33.912  26.293  1.00  0.00     0.063 H 
ATOM     14  C   UNL     1     -45.701  35.869  27.509  1.00  0.00     0.007 A 
ATOM     15  C   UNL     1     -48.477  35.945  27.651  1.00  0.00    -0.049 A 
ATOM     16  H   UNL     1     -44.622  35.808  27.425  1.00  0.00     0.069 H 
ATOM     17  C   UNL     1     -47.719  36.925  28.288  1.00  0.00    -0.019 A 
ATOM     18  H   UNL     1     -49.562  35.988  27.712  1.00  0.00     0.063 H 
ATOM     19  H   UNL     1     -48.217  37.720  28.838  1.00  0.00     0.066 H 
BRANCH   6  20
ATOM     20  N   UNL     1     -45.736  32.001  24.878  1.00  0.00    -0.373 N 
ATOM     21  H   UNL     1     -45.490  31.321  25.599  1.00  0.00     0.161 HD
BRANCH  20  22
ATOM     22  C   UNL     1     -46.444  31.369  23.778  1.00  0.00     0.005 C 
ATOM     23  H   UNL     1     -46.877  32.109  23.097  1.00  0.00     0.045 H 
ATOM     24  H   UNL     1     -47.235  30.700  24.138  1.00  0.00     0.045 H 
ATOM     25  H   UNL     1     -45.737  30.768  23.197  1.00  0.00     0.045 H 
ENDBRANCH  20  22
ENDBRANCH   6  20
ENDBRANCH   4   5
ENDBRANCH   1   4
BRANCH   1  26
ATOM     26  C   UNL     1     -44.616  39.632  27.527  1.00  0.00     0.123 C 
ATOM     27  O   UNL     1     -45.017  40.121  26.228  1.00  0.00    -0.345 OA
ATOM     28  C   UNL     1     -43.821  40.767  28.146  1.00  0.00     0.119 C 
ATOM     29  H   UNL     1     -43.979  38.755  27.357  1.00  0.00     0.067 H 
ATOM     30  C   UNL     1     -44.027  41.092  25.803  1.00  0.00     0.169 C 
ATOM     31  C   UNL     1     -43.035  41.263  26.951  1.00  0.00     0.173 C 
ATOM     32  H   UNL     1     -44.472  41.561  28.530  1.00  0.00     0.066 H 
ATOM     33  H   UNL     1     -43.539  40.688  24.909  1.00  0.00     0.088 H 
ATOM     34  F   UNL     1     -42.654  42.544  27.165  1.00  0.00    -0.239 F 
ATOM     35  H   UNL     1     -42.132  40.662  26.793  1.00  0.00     0.074 H 
BRANCH  28  36
ATOM     36  O   UNL     1     -42.988  40.317  29.205  1.00  0.00    -0.387 OA
ATOM     37  H   UNL     1     -42.217  40.917  29.242  1.00  0.00     0.211 HD
ENDBRANCH  28  36
BRANCH  30  38
ATOM     38  N   UNL     1     -44.706  42.321  25.418  1.00  0.00    -0.302 N 
ATOM     39  C   UNL     1     -45.928  42.768  25.857  1.00  0.00     0.021 A 
ATOM     40  C   UNL     1     -44.176  43.233  24.540  1.00  0.00     0.148 A 
ATOM     41  C   UNL     1     -46.192  43.994  25.258  1.00  0.00     0.087 A 
ATOM     42  H   UNL     1     -46.522  42.187  26.553  1.00  0.00     0.083 H 
ATOM     43  C   UNL     1     -45.073  44.285  24.413  1.00  0.00     0.073 A 
ATOM     44  N   UNL     1     -42.989  43.114  23.924  1.00  0.00    -0.218 NA
ATOM     45  C   UNL     1     -44.697  45.325  23.549  1.00  0.00     0.136 A 
ATOM     46  C   UNL     1     -42.734  44.172  23.136  1.00  0.00     0.120 A 
ATOM     47  N   UNL     1     -43.511  45.249  22.914  1.00  0.00    -0.219 NA
ATOM     48  H   UNL     1     -41.786  44.157  22.608  1.00  0.00     0.106 H 
BRANCH  41  49
ATOM     49  C   UNL     1     -47.387  44.857  25.451  1.00  0.00     0.418 C 
ATOM     50  F   UNL     1     -48.074  45.039  24.296  1.00  0.00    -0.166 F 
ATOM     51  F   UNL     1     -47.058  46.093  25.909  1.00  0.00    -0.166 F 
ATOM     52  F   UNL     1     -48.259  44.331  26.353  1.00  0.00    -0.166 F 
ENDBRANCH  41  49
BRANCH  45  53
ATOM     53  N   UNL     1     -45.477  46.442  23.290  1.00  0.00    -0.383 N 
ATOM     54  H   UNL     1     -46.460  46.217  23.406  1.00  0.00     0.158 HD
ATOM     55  H   UNL     1     -45.176  47.300  23.738  1.00  0.00     0.158 HD
ENDBRANCH  45  53
ENDBRANCH  30  38
ENDBRANCH   1  26
TORSDOF 9
ENDMDL
