MODEL 1
REMARK VINA RESULT:      -9.6      0.000      0.000
REMARK SMILES Nc1ncnc2c1c(C1CCCC1)cn2[C@@H]1O[C@H](COc2ccc3ccc(N4CCC4)nc3c2)[C@@H](O)[C@@H]1F
REMARK SMILES IDX 19 1 18 4 16 5 17 6 37 7 35 9 38 10 15 14 2 15 3 16 7 17
REMARK SMILES IDX 4 18 6 19 8 20 5 21 14 23 1 25 9 28 10 29 13 30 11 32 12 35
REMARK SMILES IDX 36 42 20 44 21 45 22 46 34 47 23 48 33 50 24 52 32 54 25 55
REMARK SMILES IDX 27 56 26 57 28 60 29 61 31 62 30 63
REMARK H PARENT 19 2 19 3 16 8 37 11 18 12 35 13 4 22 14 24 1 26 1 27 9 31
REMARK H PARENT 10 33 10 34 13 36 13 37 11 38 11 39 12 40 12 41 36 43 22 49
REMARK H PARENT 34 51 23 53 25 58 26 59 29 64 29 65 31 66 31 67 30 68 30 69
REMARK Flexibility Score: inf
ROOT
ATOM      1  C   UNL     1     -47.654  35.085  27.968  1.00  0.00     0.117 C 
ATOM      2  H   UNL     1     -48.496  35.572  28.473  1.00  0.00     0.073 H 
ATOM      3  H   UNL     1     -47.529  34.061  28.340  1.00  0.00     0.073 H 
ENDROOT
BRANCH   1   4
ATOM      4  C   UNL     1     -46.371  35.869  28.255  1.00  0.00     0.123 C 
ATOM      5  C   UNL     1     -45.496  37.992  27.843  1.00  0.00     0.169 C 
ATOM      6  O   UNL     1     -46.126  36.848  27.224  1.00  0.00    -0.345 OA
ATOM      7  C   UNL     1     -45.359  37.700  29.334  1.00  0.00     0.173 C 
ATOM      8  H   UNL     1     -44.487  38.057  27.417  1.00  0.00     0.088 H 
ATOM      9  C   UNL     1     -46.384  36.616  29.585  1.00  0.00     0.119 C 
ATOM     10  F   UNL     1     -45.554  38.769  30.136  1.00  0.00    -0.239 F 
ATOM     11  H   UNL     1     -44.354  37.320  29.551  1.00  0.00     0.074 H 
ATOM     12  H   UNL     1     -45.532  35.162  28.230  1.00  0.00     0.067 H 
ATOM     13  H   UNL     1     -47.363  37.027  29.834  1.00  0.00     0.066 H 
BRANCH   5  14
ATOM     14  N   UNL     1     -46.194  39.193  27.424  1.00  0.00    -0.303 N 
ATOM     15  C   UNL     1     -46.318  42.430  25.990  1.00  0.00     0.136 A 
ATOM     16  N   UNL     1     -45.045  42.602  25.584  1.00  0.00    -0.219 NA
ATOM     17  C   UNL     1     -46.685  41.224  26.617  1.00  0.00     0.065 A 
ATOM     18  C   UNL     1     -44.172  41.602  25.794  1.00  0.00     0.120 A 
ATOM     19  C   UNL     1     -45.671  40.287  26.784  1.00  0.00     0.147 A 
ATOM     20  C   UNL     1     -47.889  40.655  27.162  1.00  0.00    -0.014 A 
ATOM     21  N   UNL     1     -44.395  40.425  26.390  1.00  0.00    -0.218 NA
ATOM     22  H   UNL     1     -43.160  41.775  25.443  1.00  0.00     0.106 H 
ATOM     23  C   UNL     1     -47.535  39.412  27.660  1.00  0.00     0.013 A 
ATOM     24  H   UNL     1     -48.129  38.664  28.168  1.00  0.00     0.082 H 
BRANCH  15  25
ATOM     25  N   UNL     1     -47.179  43.501  25.775  1.00  0.00    -0.383 N 
ATOM     26  H   UNL     1     -46.664  44.369  25.869  1.00  0.00     0.158 HD
ATOM     27  H   UNL     1     -48.036  43.446  26.306  1.00  0.00     0.158 HD
ENDBRANCH  15  25
BRANCH  20  28
ATOM     28  C   UNL     1     -49.253  41.298  27.183  1.00  0.00    -0.014 C 
ATOM     29  C   UNL     1     -50.399  40.380  27.626  1.00  0.00    -0.046 C 
ATOM     30  C   UNL     1     -49.344  42.450  28.188  1.00  0.00    -0.046 C 
ATOM     31  H   UNL     1     -49.471  41.659  26.170  1.00  0.00     0.035 H 
ATOM     32  C   UNL     1     -50.542  40.568  29.139  1.00  0.00    -0.053 C 
ATOM     33  H   UNL     1     -50.256  39.329  27.353  1.00  0.00     0.027 H 
ATOM     34  H   UNL     1     -51.329  40.709  27.146  1.00  0.00     0.027 H 
ATOM     35  C   UNL     1     -49.686  41.775  29.509  1.00  0.00    -0.053 C 
ATOM     36  H   UNL     1     -50.161  43.124  27.903  1.00  0.00     0.027 H 
ATOM     37  H   UNL     1     -48.429  43.046  28.262  1.00  0.00     0.027 H 
ATOM     38  H   UNL     1     -51.592  40.735  29.401  1.00  0.00     0.027 H 
ATOM     39  H   UNL     1     -50.211  39.679  29.684  1.00  0.00     0.027 H 
ATOM     40  H   UNL     1     -50.206  42.453  30.193  1.00  0.00     0.027 H 
ATOM     41  H   UNL     1     -48.770  41.441  30.012  1.00  0.00     0.027 H 
ENDBRANCH  20  28
ENDBRANCH   5  14
BRANCH   9  42
ATOM     42  O   UNL     1     -45.993  35.760  30.661  1.00  0.00    -0.387 OA
ATOM     43  H   UNL     1     -45.510  35.014  30.256  1.00  0.00     0.211 HD
ENDBRANCH   9  42
ENDBRANCH   1   4
BRANCH   1  44
ATOM     44  O   UNL     1     -47.891  35.051  26.558  1.00  0.00    -0.491 OA
BRANCH  44  45
ATOM     45  C   UNL     1     -47.674  33.862  25.920  1.00  0.00     0.121 A 
ATOM     46  C   UNL     1     -46.569  33.850  25.071  1.00  0.00    -0.019 A 
ATOM     47  C   UNL     1     -48.460  32.714  26.040  1.00  0.00     0.007 A 
ATOM     48  C   UNL     1     -46.249  32.699  24.355  1.00  0.00    -0.049 A 
ATOM     49  H   UNL     1     -45.951  34.738  24.976  1.00  0.00     0.066 H 
ATOM     50  C   UNL     1     -48.163  31.551  25.338  1.00  0.00     0.076 A 
ATOM     51  H   UNL     1     -49.336  32.694  26.679  1.00  0.00     0.069 H 
ATOM     52  C   UNL     1     -47.042  31.549  24.487  1.00  0.00     0.001 A 
ATOM     53  H   UNL     1     -45.381  32.706  23.701  1.00  0.00     0.063 H 
ATOM     54  N   UNL     1     -48.952  30.473  25.493  1.00  0.00    -0.231 NA
ATOM     55  C   UNL     1     -46.759  30.375  23.786  1.00  0.00    -0.049 A 
ATOM     56  C   UNL     1     -48.666  29.338  24.816  1.00  0.00     0.129 A 
ATOM     57  C   UNL     1     -47.579  29.263  23.951  1.00  0.00    -0.019 A 
ATOM     58  H   UNL     1     -45.910  30.318  23.110  1.00  0.00     0.063 H 
ATOM     59  H   UNL     1     -47.373  28.353  23.398  1.00  0.00     0.066 H 
BRANCH  56  60
ATOM     60  N   UNL     1     -49.509  28.223  24.981  1.00  0.00    -0.356 N 
ATOM     61  C   UNL     1     -49.385  27.270  26.047  1.00  0.00     0.021 C 
ATOM     62  C   UNL     1     -49.772  27.202  24.009  1.00  0.00     0.021 C 
ATOM     63  C   UNL     1     -50.229  26.328  25.183  1.00  0.00    -0.018 C 
ATOM     64  H   UNL     1     -49.846  27.599  26.982  1.00  0.00     0.049 H 
ATOM     65  H   UNL     1     -48.355  26.941  26.215  1.00  0.00     0.049 H 
ATOM     66  H   UNL     1     -50.547  27.471  23.289  1.00  0.00     0.049 H 
ATOM     67  H   UNL     1     -48.868  26.854  23.498  1.00  0.00     0.049 H 
ATOM     68  H   UNL     1     -51.305  26.369  25.385  1.00  0.00     0.030 H 
ATOM     69  H   UNL     1     -49.902  25.285  25.155  1.00  0.00     0.030 H 
ENDBRANCH  56  60
ENDBRANCH  44  45
ENDBRANCH   1  44
TORSDOF 8
ENDMDL
MODEL 2
REMARK VINA RESULT:      -9.5      1.084      2.886
REMARK SMILES Nc1ncnc2c1c(C1CCCC1)cn2[C@@H]1O[C@H](COc2ccc3ccc(N4CCC4)nc3c2)[C@@H](O)[C@@H]1F
REMARK SMILES IDX 19 1 18 4 16 5 17 6 37 7 35 9 38 10 15 14 2 15 3 16 7 17
REMARK SMILES IDX 4 18 6 19 8 20 5 21 14 23 1 25 9 28 10 29 13 30 11 32 12 35
REMARK SMILES IDX 36 42 20 44 21 45 22 46 34 47 23 48 33 50 24 52 32 54 25 55
REMARK SMILES IDX 27 56 26 57 28 60 29 61 31 62 30 63
REMARK H PARENT 19 2 19 3 16 8 37 11 18 12 35 13 4 22 14 24 1 26 1 27 9 31
REMARK H PARENT 10 33 10 34 13 36 13 37 11 38 11 39 12 40 12 41 36 43 22 49
REMARK H PARENT 34 51 23 53 25 58 26 59 29 64 29 65 31 66 31 67 30 68 30 69
REMARK Flexibility Score: inf
ROOT
ATOM      1  C   UNL     1     -47.640  35.141  27.914  1.00  0.00     0.117 C 
ATOM      2  H   UNL     1     -48.453  35.717  28.369  1.00  0.00     0.073 H 
ATOM      3  H   UNL     1     -47.635  34.116  28.306  1.00  0.00     0.073 H 
ENDROOT
BRANCH   1   4
ATOM      4  C   UNL     1     -46.301  35.800  28.256  1.00  0.00     0.123 C 
ATOM      5  C   UNL     1     -45.206  37.823  27.872  1.00  0.00     0.169 C 
ATOM      6  O   UNL     1     -45.916  36.740  27.231  1.00  0.00    -0.345 OA
ATOM      7  C   UNL     1     -45.166  37.535  29.369  1.00  0.00     0.173 C 
ATOM      8  H   UNL     1     -44.178  37.787  27.493  1.00  0.00     0.088 H 
ATOM      9  C   UNL     1     -46.302  36.557  29.579  1.00  0.00     0.119 C 
ATOM     10  F   UNL     1     -45.292  38.626  30.155  1.00  0.00    -0.239 F 
ATOM     11  H   UNL     1     -44.213  37.061  29.634  1.00  0.00     0.074 H 
ATOM     12  H   UNL     1     -45.534  35.014  28.273  1.00  0.00     0.067 H 
ATOM     13  H   UNL     1     -47.247  37.064  29.781  1.00  0.00     0.066 H 
BRANCH   5  14
ATOM     14  N   UNL     1     -45.765  39.082  27.414  1.00  0.00    -0.303 N 
ATOM     15  C   UNL     1     -48.435  41.364  26.952  1.00  0.00     0.136 A 
ATOM     16  N   UNL     1     -49.448  40.736  27.579  1.00  0.00    -0.219 NA
ATOM     17  C   UNL     1     -47.162  40.763  26.925  1.00  0.00     0.065 A 
ATOM     18  C   UNL     1     -49.196  39.551  28.161  1.00  0.00     0.120 A 
ATOM     19  C   UNL     1     -47.054  39.527  27.553  1.00  0.00     0.147 A 
ATOM     20  C   UNL     1     -45.863  41.093  26.400  1.00  0.00    -0.014 A 
ATOM     21  N   UNL     1     -48.041  38.875  28.188  1.00  0.00    -0.218 NA
ATOM     22  H   UNL     1     -50.035  39.082  28.666  1.00  0.00     0.106 H 
ATOM     23  C   UNL     1     -45.041  40.023  26.712  1.00  0.00     0.013 A 
ATOM     24  H   UNL     1     -43.996  39.851  26.488  1.00  0.00     0.082 H 
BRANCH  15  25
ATOM     25  N   UNL     1     -48.749  42.574  26.342  1.00  0.00    -0.383 N 
ATOM     26  H   UNL     1     -49.572  42.454  25.762  1.00  0.00     0.158 HD
ATOM     27  H   UNL     1     -47.962  43.018  25.892  1.00  0.00     0.158 HD
ENDBRANCH  15  25
BRANCH  20  28
ATOM     28  C   UNL     1     -45.490  42.352  25.658  1.00  0.00    -0.014 C 
ATOM     29  C   UNL     1     -45.289  43.591  26.540  1.00  0.00    -0.046 C 
ATOM     30  C   UNL     1     -44.143  42.234  24.941  1.00  0.00    -0.046 C 
ATOM     31  H   UNL     1     -46.288  42.566  24.937  1.00  0.00     0.035 H 
ATOM     32  C   UNL     1     -43.800  43.634  26.891  1.00  0.00    -0.053 C 
ATOM     33  H   UNL     1     -45.924  43.608  27.432  1.00  0.00     0.027 H 
ATOM     34  H   UNL     1     -45.535  44.489  25.958  1.00  0.00     0.027 H 
ATOM     35  C   UNL     1     -43.115  42.602  26.001  1.00  0.00    -0.053 C 
ATOM     36  H   UNL     1     -44.097  42.963  24.122  1.00  0.00     0.027 H 
ATOM     37  H   UNL     1     -43.952  41.242  24.518  1.00  0.00     0.027 H 
ATOM     38  H   UNL     1     -43.398  44.637  26.712  1.00  0.00     0.027 H 
ATOM     39  H   UNL     1     -43.633  43.403  27.947  1.00  0.00     0.027 H 
ATOM     40  H   UNL     1     -42.191  42.990  25.558  1.00  0.00     0.027 H 
ATOM     41  H   UNL     1     -42.848  41.718  26.593  1.00  0.00     0.027 H 
ENDBRANCH  20  28
ENDBRANCH   5  14
BRANCH   9  42
ATOM     42  O   UNL     1     -46.044  35.679  30.677  1.00  0.00    -0.387 OA
ATOM     43  H   UNL     1     -46.733  34.987  30.641  1.00  0.00     0.211 HD
ENDBRANCH   9  42
ENDBRANCH   1   4
BRANCH   1  44
ATOM     44  O   UNL     1     -47.809  35.103  26.495  1.00  0.00    -0.491 OA
BRANCH  44  45
ATOM     45  C   UNL     1     -47.620  33.899  25.877  1.00  0.00     0.121 A 
ATOM     46  C   UNL     1     -46.528  33.852  25.014  1.00  0.00    -0.019 A 
ATOM     47  C   UNL     1     -48.423  32.766  26.030  1.00  0.00     0.007 A 
ATOM     48  C   UNL     1     -46.236  32.682  24.317  1.00  0.00    -0.049 A 
ATOM     49  H   UNL     1     -45.896  34.728  24.894  1.00  0.00     0.066 H 
ATOM     50  C   UNL     1     -48.154  31.585  25.347  1.00  0.00     0.076 A 
ATOM     51  H   UNL     1     -49.290  32.773  26.681  1.00  0.00     0.069 H 
ATOM     52  C   UNL     1     -47.045  31.548  24.481  1.00  0.00     0.001 A 
ATOM     53  H   UNL     1     -45.376  32.662  23.651  1.00  0.00     0.063 H 
ATOM     54  N   UNL     1     -48.958  30.523  25.535  1.00  0.00    -0.231 NA
ATOM     55  C   UNL     1     -46.791  30.356  23.800  1.00  0.00    -0.049 A 
ATOM     56  C   UNL     1     -48.700  29.370  24.876  1.00  0.00     0.129 A 
ATOM     57  C   UNL     1     -47.626  29.261  23.999  1.00  0.00    -0.019 A 
ATOM     58  H   UNL     1     -45.952  30.272  23.114  1.00  0.00     0.063 H 
ATOM     59  H   UNL     1     -47.442  28.337  23.461  1.00  0.00     0.066 H 
BRANCH  56  60
ATOM     60  N   UNL     1     -49.558  28.273  25.074  1.00  0.00    -0.356 N 
ATOM     61  C   UNL     1     -49.380  27.286  26.101  1.00  0.00     0.021 C 
ATOM     62  C   UNL     1     -49.923  27.288  24.098  1.00  0.00     0.021 C 
ATOM     63  C   UNL     1     -50.314  26.391  25.278  1.00  0.00    -0.018 C 
ATOM     64  H   UNL     1     -49.759  27.598  27.078  1.00  0.00     0.049 H 
ATOM     65  H   UNL     1     -48.349  26.926  26.180  1.00  0.00     0.049 H 
ATOM     66  H   UNL     1     -50.743  27.599  23.447  1.00  0.00     0.049 H 
ATOM     67  H   UNL     1     -49.070  26.933  23.509  1.00  0.00     0.049 H 
ATOM     68  H   UNL     1     -51.369  26.454  25.564  1.00  0.00     0.030 H 
ATOM     69  H   UNL     1     -50.019  25.342  25.197  1.00  0.00     0.030 H 
ENDBRANCH  56  60
ENDBRANCH  44  45
ENDBRANCH   1  44
TORSDOF 8
ENDMDL
MODEL 3
REMARK VINA RESULT:      -9.3      3.190     11.015
REMARK SMILES Nc1ncnc2c1c(C1CCCC1)cn2[C@@H]1O[C@H](COc2ccc3ccc(N4CCC4)nc3c2)[C@@H](O)[C@@H]1F
REMARK SMILES IDX 19 1 18 4 16 5 17 6 37 7 35 9 38 10 15 14 2 15 3 16 7 17
REMARK SMILES IDX 4 18 6 19 8 20 5 21 14 23 1 25 9 28 10 29 13 30 11 32 12 35
REMARK SMILES IDX 36 42 20 44 21 45 22 46 34 47 23 48 33 50 24 52 32 54 25 55
REMARK SMILES IDX 27 56 26 57 28 60 29 61 31 62 30 63
REMARK H PARENT 19 2 19 3 16 8 37 11 18 12 35 13 4 22 14 24 1 26 1 27 9 31
REMARK H PARENT 10 33 10 34 13 36 13 37 11 38 11 39 12 40 12 41 36 43 22 49
REMARK H PARENT 34 51 23 53 25 58 26 59 29 64 29 65 31 66 31 67 30 68 30 69
REMARK Flexibility Score: inf
ROOT
ATOM      1  C   UNL     1     -48.679  34.540  26.973  1.00  0.00     0.117 C 
ATOM      2  H   UNL     1     -48.857  34.542  28.054  1.00  0.00     0.073 H 
ATOM      3  H   UNL     1     -49.620  34.368  26.434  1.00  0.00     0.073 H 
ENDROOT
BRANCH   1   4
ATOM      4  C   UNL     1     -47.705  33.412  26.623  1.00  0.00     0.123 C 
ATOM      5  C   UNL     1     -47.785  31.233  25.794  1.00  0.00     0.169 C 
ATOM      6  O   UNL     1     -48.330  32.122  26.795  1.00  0.00    -0.345 OA
ATOM      7  C   UNL     1     -46.783  32.024  24.961  1.00  0.00     0.173 C 
ATOM      8  H   UNL     1     -47.235  30.456  26.338  1.00  0.00     0.088 H 
ATOM      9  C   UNL     1     -47.179  33.466  25.194  1.00  0.00     0.119 C 
ATOM     10  F   UNL     1     -46.775  31.712  23.647  1.00  0.00    -0.239 F 
ATOM     11  H   UNL     1     -45.766  31.852  25.335  1.00  0.00     0.074 H 
ATOM     12  H   UNL     1     -46.868  33.458  27.334  1.00  0.00     0.067 H 
ATOM     13  H   UNL     1     -47.926  33.807  24.476  1.00  0.00     0.066 H 
BRANCH   5  14
ATOM     14  N   UNL     1     -48.882  30.560  25.122  1.00  0.00    -0.303 N 
ATOM     15  C   UNL     1     -50.623  27.668  24.047  1.00  0.00     0.136 A 
ATOM     16  N   UNL     1     -49.894  26.683  24.605  1.00  0.00    -0.219 NA
ATOM     17  C   UNL     1     -50.248  29.009  24.259  1.00  0.00     0.065 A 
ATOM     18  C   UNL     1     -48.830  27.026  25.350  1.00  0.00     0.120 A 
ATOM     19  C   UNL     1     -49.112  29.212  25.037  1.00  0.00     0.147 A 
ATOM     20  C   UNL     1     -50.743  30.305  23.876  1.00  0.00    -0.014 A 
ATOM     21  N   UNL     1     -48.365  28.254  25.608  1.00  0.00    -0.218 NA
ATOM     22  H   UNL     1     -48.274  26.204  25.791  1.00  0.00     0.106 H 
ATOM     23  C   UNL     1     -49.862  31.227  24.416  1.00  0.00     0.013 A 
ATOM     24  H   UNL     1     -49.850  32.307  24.354  1.00  0.00     0.082 H 
BRANCH  15  25
ATOM     25  N   UNL     1     -51.699  27.266  23.264  1.00  0.00    -0.383 N 
ATOM     26  H   UNL     1     -51.844  26.269  23.380  1.00  0.00     0.158 HD
ATOM     27  H   UNL     1     -51.649  27.587  22.308  1.00  0.00     0.158 HD
ENDBRANCH  15  25
BRANCH  20  28
ATOM     28  C   UNL     1     -51.971  30.584  23.047  1.00  0.00    -0.014 C 
ATOM     29  C   UNL     1     -52.423  32.050  23.028  1.00  0.00    -0.046 C 
ATOM     30  C   UNL     1     -51.758  30.285  21.561  1.00  0.00    -0.046 C 
ATOM     31  H   UNL     1     -52.791  29.974  23.445  1.00  0.00     0.035 H 
ATOM     32  C   UNL     1     -51.744  32.696  21.819  1.00  0.00    -0.053 C 
ATOM     33  H   UNL     1     -52.213  32.591  23.957  1.00  0.00     0.027 H 
ATOM     34  H   UNL     1     -53.510  32.088  22.878  1.00  0.00     0.027 H 
ATOM     35  C   UNL     1     -51.140  31.558  21.002  1.00  0.00    -0.053 C 
ATOM     36  H   UNL     1     -52.727  30.109  21.077  1.00  0.00     0.027 H 
ATOM     37  H   UNL     1     -51.127  29.410  21.372  1.00  0.00     0.027 H 
ATOM     38  H   UNL     1     -52.476  33.258  21.229  1.00  0.00     0.027 H 
ATOM     39  H   UNL     1     -50.967  33.402  22.128  1.00  0.00     0.027 H 
ATOM     40  H   UNL     1     -51.336  31.672  19.931  1.00  0.00     0.027 H 
ATOM     41  H   UNL     1     -50.051  31.541  21.135  1.00  0.00     0.027 H 
ENDBRANCH  20  28
ENDBRANCH   5  14
BRANCH   9  42
ATOM     42  O   UNL     1     -46.055  34.343  25.090  1.00  0.00    -0.387 OA
ATOM     43  H   UNL     1     -45.284  33.841  25.416  1.00  0.00     0.211 HD
ENDBRANCH   9  42
ENDBRANCH   1   4
BRANCH   1  44
ATOM     44  O   UNL     1     -48.125  35.795  26.571  1.00  0.00    -0.491 OA
BRANCH  44  45
ATOM     45  C   UNL     1     -47.243  36.389  27.429  1.00  0.00     0.121 A 
ATOM     46  C   UNL     1     -47.222  35.844  28.711  1.00  0.00    -0.019 A 
ATOM     47  C   UNL     1     -46.412  37.470  27.129  1.00  0.00     0.007 A 
ATOM     48  C   UNL     1     -46.371  36.369  29.682  1.00  0.00    -0.049 A 
ATOM     49  H   UNL     1     -47.863  35.000  28.951  1.00  0.00     0.066 H 
ATOM     50  C   UNL     1     -45.552  38.013  28.078  1.00  0.00     0.076 A 
ATOM     51  H   UNL     1     -46.414  37.928  26.146  1.00  0.00     0.069 H 
ATOM     52  C   UNL     1     -45.536  37.452  29.368  1.00  0.00     0.001 A 
ATOM     53  H   UNL     1     -46.365  35.928  30.675  1.00  0.00     0.063 H 
ATOM     54  N   UNL     1     -44.770  39.052  27.734  1.00  0.00    -0.231 NA
ATOM     55  C   UNL     1     -44.671  38.011  30.311  1.00  0.00    -0.049 A 
ATOM     56  C   UNL     1     -43.930  39.583  28.651  1.00  0.00     0.129 A 
ATOM     57  C   UNL     1     -43.864  39.085  29.948  1.00  0.00    -0.019 A 
ATOM     58  H   UNL     1     -44.621  37.622  31.324  1.00  0.00     0.063 H 
ATOM     59  H   UNL     1     -43.201  39.534  30.681  1.00  0.00     0.066 H 
BRANCH  56  60
ATOM     60  N   UNL     1     -43.127  40.677  28.278  1.00  0.00    -0.356 N 
ATOM     61  C   UNL     1     -42.393  41.492  29.205  1.00  0.00     0.021 C 
ATOM     62  C   UNL     1     -43.539  41.812  27.505  1.00  0.00     0.021 C 
ATOM     63  C   UNL     1     -42.324  42.540  28.090  1.00  0.00    -0.018 C 
ATOM     64  H   UNL     1     -41.438  41.055  29.508  1.00  0.00     0.049 H 
ATOM     65  H   UNL     1     -42.981  41.787  30.079  1.00  0.00     0.049 H 
ATOM     66  H   UNL     1     -43.514  41.640  26.427  1.00  0.00     0.049 H 
ATOM     67  H   UNL     1     -44.511  42.211  27.814  1.00  0.00     0.049 H 
ATOM     68  H   UNL     1     -41.422  42.484  27.471  1.00  0.00     0.030 H 
ATOM     69  H   UNL     1     -42.493  43.575  28.398  1.00  0.00     0.030 H 
ENDBRANCH  56  60
ENDBRANCH  44  45
ENDBRANCH   1  44
TORSDOF 8
ENDMDL
MODEL 4
REMARK VINA RESULT:      -9.3      2.129      3.252
REMARK SMILES Nc1ncnc2c1c(C1CCCC1)cn2[C@@H]1O[C@H](COc2ccc3ccc(N4CCC4)nc3c2)[C@@H](O)[C@@H]1F
REMARK SMILES IDX 19 1 18 4 16 5 17 6 37 7 35 9 38 10 15 14 2 15 3 16 7 17
REMARK SMILES IDX 4 18 6 19 8 20 5 21 14 23 1 25 9 28 10 29 13 30 11 32 12 35
REMARK SMILES IDX 36 42 20 44 21 45 22 46 34 47 23 48 33 50 24 52 32 54 25 55
REMARK SMILES IDX 27 56 26 57 28 60 29 61 31 62 30 63
REMARK H PARENT 19 2 19 3 16 8 37 11 18 12 35 13 4 22 14 24 1 26 1 27 9 31
REMARK H PARENT 10 33 10 34 13 36 13 37 11 38 11 39 12 40 12 41 36 43 22 49
REMARK H PARENT 34 51 23 53 25 58 26 59 29 64 29 65 31 66 31 67 30 68 30 69
REMARK Flexibility Score: inf
ROOT
ATOM      1  C   UNL     1     -46.607  35.700  26.899  1.00  0.00     0.117 C 
ATOM      2  H   UNL     1     -45.674  35.128  26.957  1.00  0.00     0.073 H 
ATOM      3  H   UNL     1     -46.589  36.367  26.029  1.00  0.00     0.073 H 
ENDROOT
BRANCH   1   4
ATOM      4  C   UNL     1     -46.756  36.551  28.163  1.00  0.00     0.123 C 
ATOM      5  C   UNL     1     -45.791  38.453  29.108  1.00  0.00     0.169 C 
ATOM      6  O   UNL     1     -45.500  37.166  28.519  1.00  0.00    -0.345 OA
ATOM      7  C   UNL     1     -47.304  38.639  29.101  1.00  0.00     0.173 C 
ATOM      8  H   UNL     1     -45.462  38.396  30.153  1.00  0.00     0.088 H 
ATOM      9  C   UNL     1     -47.782  37.672  28.039  1.00  0.00     0.119 C 
ATOM     10  F   UNL     1     -47.714  39.901  28.850  1.00  0.00    -0.239 F 
ATOM     11  H   UNL     1     -47.722  38.358  30.075  1.00  0.00     0.074 H 
ATOM     12  H   UNL     1     -47.030  35.881  28.989  1.00  0.00     0.067 H 
ATOM     13  H   UNL     1     -47.799  38.128  27.048  1.00  0.00     0.066 H 
BRANCH   5  14
ATOM     14  N   UNL     1     -44.957  39.456  28.472  1.00  0.00    -0.303 N 
ATOM     15  C   UNL     1     -42.106  41.553  28.323  1.00  0.00     0.136 A 
ATOM     16  N   UNL     1     -41.425  41.172  29.420  1.00  0.00    -0.219 NA
ATOM     17  C   UNL     1     -43.328  40.924  28.017  1.00  0.00     0.065 A 
ATOM     18  C   UNL     1     -41.945  40.196  30.183  1.00  0.00     0.120 A 
ATOM     19  C   UNL     1     -43.752  39.943  28.907  1.00  0.00     0.147 A 
ATOM     20  C   UNL     1     -44.317  41.016  26.976  1.00  0.00    -0.014 A 
ATOM     21  N   UNL     1     -43.097  39.538  30.007  1.00  0.00    -0.218 NA
ATOM     22  H   UNL     1     -41.361  39.910  31.052  1.00  0.00     0.106 H 
ATOM     23  C   UNL     1     -45.307  40.106  27.306  1.00  0.00     0.013 A 
ATOM     24  H   UNL     1     -46.238  39.868  26.808  1.00  0.00     0.082 H 
BRANCH  15  25
ATOM     25  N   UNL     1     -41.542  42.584  27.579  1.00  0.00    -0.383 N 
ATOM     26  H   UNL     1     -40.979  43.167  28.188  1.00  0.00     0.158 HD
ATOM     27  H   UNL     1     -42.206  43.077  26.999  1.00  0.00     0.158 HD
ENDBRANCH  15  25
BRANCH  20  28
ATOM     28  C   UNL     1     -44.273  41.929  25.776  1.00  0.00    -0.014 C 
ATOM     29  C   UNL     1     -45.642  42.332  25.215  1.00  0.00    -0.046 C 
ATOM     30  C   UNL     1     -43.633  43.284  26.093  1.00  0.00    -0.046 C 
ATOM     31  H   UNL     1     -43.711  41.418  24.986  1.00  0.00     0.035 H 
ATOM     32  C   UNL     1     -46.024  43.642  25.908  1.00  0.00    -0.053 C 
ATOM     33  H   UNL     1     -46.413  41.564  25.332  1.00  0.00     0.027 H 
ATOM     34  H   UNL     1     -45.546  42.524  24.138  1.00  0.00     0.027 H 
ATOM     35  C   UNL     1     -44.777  44.125  26.641  1.00  0.00    -0.053 C 
ATOM     36  H   UNL     1     -43.258  43.740  25.168  1.00  0.00     0.027 H 
ATOM     37  H   UNL     1     -42.798  43.225  26.799  1.00  0.00     0.027 H 
ATOM     38  H   UNL     1     -46.355  44.379  25.168  1.00  0.00     0.027 H 
ATOM     39  H   UNL     1     -46.851  43.495  26.610  1.00  0.00     0.027 H 
ATOM     40  H   UNL     1     -44.603  45.196  26.496  1.00  0.00     0.027 H 
ATOM     41  H   UNL     1     -44.890  43.955  27.719  1.00  0.00     0.027 H 
ENDBRANCH  20  28
ENDBRANCH   5  14
BRANCH   9  42
ATOM     42  O   UNL     1     -49.102  37.197  28.314  1.00  0.00    -0.387 OA
ATOM     43  H   UNL     1     -49.000  36.287  28.655  1.00  0.00     0.211 HD
ENDBRANCH   9  42
ENDBRANCH   1   4
BRANCH   1  44
ATOM     44  O   UNL     1     -47.717  34.806  26.788  1.00  0.00    -0.491 OA
BRANCH  44  45
ATOM     45  C   UNL     1     -47.530  33.672  26.047  1.00  0.00     0.121 A 
ATOM     46  C   UNL     1     -46.506  33.753  25.107  1.00  0.00    -0.019 A 
ATOM     47  C   UNL     1     -48.277  32.496  26.150  1.00  0.00     0.007 A 
ATOM     48  C   UNL     1     -46.224  32.666  24.283  1.00  0.00    -0.049 A 
ATOM     49  H   UNL     1     -45.918  34.663  25.025  1.00  0.00     0.066 H 
ATOM     50  C   UNL     1     -48.017  31.396  25.340  1.00  0.00     0.076 A 
ATOM     51  H   UNL     1     -49.092  32.405  26.859  1.00  0.00     0.069 H 
ATOM     52  C   UNL     1     -46.976  31.488  24.397  1.00  0.00     0.001 A 
ATOM     53  H   UNL     1     -45.418  32.746  23.558  1.00  0.00     0.063 H 
ATOM     54  N   UNL     1     -48.764  30.287  25.483  1.00  0.00    -0.231 NA
ATOM     55  C   UNL     1     -46.730  30.376  23.589  1.00  0.00    -0.049 A 
ATOM     56  C   UNL     1     -48.514  29.212  24.701  1.00  0.00     0.129 A 
ATOM     57  C   UNL     1     -47.507  29.231  23.742  1.00  0.00    -0.019 A 
ATOM     58  H   UNL     1     -45.944  30.392  22.839  1.00  0.00     0.063 H 
ATOM     59  H   UNL     1     -47.330  28.370  23.107  1.00  0.00     0.066 H 
BRANCH  56  60
ATOM     60  N   UNL     1     -49.314  28.064  24.856  1.00  0.00    -0.356 N 
ATOM     61  C   UNL     1     -50.709  28.002  24.521  1.00  0.00     0.021 C 
ATOM     62  C   UNL     1     -49.501  27.312  26.062  1.00  0.00     0.021 C 
ATOM     63  C   UNL     1     -50.775  26.759  25.413  1.00  0.00    -0.018 C 
ATOM     64  H   UNL     1     -50.895  27.836  23.457  1.00  0.00     0.049 H 
ATOM     65  H   UNL     1     -51.278  28.863  24.888  1.00  0.00     0.049 H 
ATOM     66  H   UNL     1     -48.711  26.583  26.251  1.00  0.00     0.049 H 
ATOM     67  H   UNL     1     -49.667  27.945  26.940  1.00  0.00     0.049 H 
ATOM     68  H   UNL     1     -50.636  25.811  24.881  1.00  0.00     0.030 H 
ATOM     69  H   UNL     1     -51.649  26.686  26.066  1.00  0.00     0.030 H 
ENDBRANCH  56  60
ENDBRANCH  44  45
ENDBRANCH   1  44
TORSDOF 8
ENDMDL
MODEL 5
REMARK VINA RESULT:      -9.2      4.006     11.706
REMARK SMILES Nc1ncnc2c1c(C1CCCC1)cn2[C@@H]1O[C@H](COc2ccc3ccc(N4CCC4)nc3c2)[C@@H](O)[C@@H]1F
REMARK SMILES IDX 19 1 18 4 16 5 17 6 37 7 35 9 38 10 15 14 2 15 3 16 7 17
REMARK SMILES IDX 4 18 6 19 8 20 5 21 14 23 1 25 9 28 10 29 13 30 11 32 12 35
REMARK SMILES IDX 36 42 20 44 21 45 22 46 34 47 23 48 33 50 24 52 32 54 25 55
REMARK SMILES IDX 27 56 26 57 28 60 29 61 31 62 30 63
REMARK H PARENT 19 2 19 3 16 8 37 11 18 12 35 13 4 22 14 24 1 26 1 27 9 31
REMARK H PARENT 10 33 10 34 13 36 13 37 11 38 11 39 12 40 12 41 36 43 22 49
REMARK H PARENT 34 51 23 53 25 58 26 59 29 64 29 65 31 66 31 67 30 68 30 69
REMARK Flexibility Score: inf
ROOT
ATOM      1  C   UNL     1     -45.967  31.435  22.619  1.00  0.00     0.117 C 
ATOM      2  H   UNL     1     -46.283  32.461  22.401  1.00  0.00     0.073 H 
ATOM      3  H   UNL     1     -44.890  31.322  22.440  1.00  0.00     0.073 H 
ENDROOT
BRANCH   1   4
ATOM      4  C   UNL     1     -46.717  30.469  21.697  1.00  0.00     0.123 C 
ATOM      5  C   UNL     1     -48.012  28.537  21.879  1.00  0.00     0.169 C 
ATOM      6  O   UNL     1     -46.759  29.144  22.268  1.00  0.00    -0.345 OA
ATOM      7  C   UNL     1     -48.780  29.549  21.036  1.00  0.00     0.173 C 
ATOM      8  H   UNL     1     -47.757  27.686  21.236  1.00  0.00     0.088 H 
ATOM      9  C   UNL     1     -48.158  30.877  21.410  1.00  0.00     0.119 C 
ATOM     10  F   UNL     1     -50.116  29.548  21.237  1.00  0.00    -0.239 F 
ATOM     11  H   UNL     1     -48.619  29.349  19.970  1.00  0.00     0.074 H 
ATOM     12  H   UNL     1     -46.154  30.395  20.758  1.00  0.00     0.067 H 
ATOM     13  H   UNL     1     -48.652  31.334  22.269  1.00  0.00     0.066 H 
BRANCH   5  14
ATOM     14  N   UNL     1     -48.646  27.980  23.061  1.00  0.00    -0.303 N 
ATOM     15  C   UNL     1     -51.435  26.718  24.843  1.00  0.00     0.136 A 
ATOM     16  N   UNL     1     -52.392  26.720  23.896  1.00  0.00    -0.219 NA
ATOM     17  C   UNL     1     -50.138  27.153  24.512  1.00  0.00     0.065 A 
ATOM     18  C   UNL     1     -52.063  27.137  22.662  1.00  0.00     0.120 A 
ATOM     19  C   UNL     1     -49.948  27.575  23.200  1.00  0.00     0.147 A 
ATOM     20  C   UNL     1     -48.876  27.287  25.192  1.00  0.00    -0.014 A 
ATOM     21  N   UNL     1     -50.878  27.587  22.233  1.00  0.00    -0.218 NA
ATOM     22  H   UNL     1     -52.859  27.113  21.924  1.00  0.00     0.106 H 
ATOM     23  C   UNL     1     -47.994  27.814  24.264  1.00  0.00     0.013 A 
ATOM     24  H   UNL     1     -46.952  28.088  24.362  1.00  0.00     0.082 H 
BRANCH  15  25
ATOM     25  N   UNL     1     -51.828  26.303  26.110  1.00  0.00    -0.383 N 
ATOM     26  H   UNL     1     -51.749  25.294  26.172  1.00  0.00     0.158 HD
ATOM     27  H   UNL     1     -52.714  26.686  26.407  1.00  0.00     0.158 HD
ENDBRANCH  15  25
BRANCH  20  28
ATOM     28  C   UNL     1     -48.591  26.927  26.629  1.00  0.00    -0.014 C 
ATOM     29  C   UNL     1     -48.684  25.431  26.955  1.00  0.00    -0.046 C 
ATOM     30  C   UNL     1     -47.159  27.270  27.048  1.00  0.00    -0.046 C 
ATOM     31  H   UNL     1     -49.311  27.464  27.259  1.00  0.00     0.035 H 
ATOM     32  C   UNL     1     -47.275  24.862  26.776  1.00  0.00    -0.053 C 
ATOM     33  H   UNL     1     -49.425  24.892  26.357  1.00  0.00     0.027 H 
ATOM     34  H   UNL     1     -48.976  25.311  28.006  1.00  0.00     0.027 H 
ATOM     35  C   UNL     1     -46.340  26.059  26.624  1.00  0.00    -0.053 C 
ATOM     36  H   UNL     1     -47.109  27.377  28.139  1.00  0.00     0.027 H 
ATOM     37  H   UNL     1     -46.777  28.194  26.602  1.00  0.00     0.027 H 
ATOM     38  H   UNL     1     -46.998  24.256  27.645  1.00  0.00     0.027 H 
ATOM     39  H   UNL     1     -47.216  24.214  25.897  1.00  0.00     0.027 H 
ATOM     40  H   UNL     1     -45.431  25.949  27.224  1.00  0.00     0.027 H 
ATOM     41  H   UNL     1     -46.031  26.158  25.576  1.00  0.00     0.027 H 
ENDBRANCH  20  28
ENDBRANCH   5  14
BRANCH   9  42
ATOM     42  O   UNL     1     -48.224  31.812  20.332  1.00  0.00    -0.387 OA
ATOM     43  H   UNL     1     -48.595  31.326  19.570  1.00  0.00     0.211 HD
ENDBRANCH   9  42
ENDBRANCH   1   4
BRANCH   1  44
ATOM     44  O   UNL     1     -46.256  31.119  23.983  1.00  0.00    -0.491 OA
BRANCH  44  45
ATOM     45  C   UNL     1     -46.908  32.070  24.717  1.00  0.00     0.121 A 
ATOM     46  C   UNL     1     -48.229  31.759  25.031  1.00  0.00    -0.019 A 
ATOM     47  C   UNL     1     -46.371  33.288  25.138  1.00  0.00     0.007 A 
ATOM     48  C   UNL     1     -49.003  32.653  25.767  1.00  0.00    -0.049 A 
ATOM     49  H   UNL     1     -48.652  30.811  24.710  1.00  0.00     0.066 H 
ATOM     50  C   UNL     1     -47.121  34.199  25.875  1.00  0.00     0.076 A 
ATOM     51  H   UNL     1     -45.352  33.570  24.898  1.00  0.00     0.069 H 
ATOM     52  C   UNL     1     -48.453  33.872  26.190  1.00  0.00     0.001 A 
ATOM     53  H   UNL     1     -50.031  32.391  26.007  1.00  0.00     0.063 H 
ATOM     54  N   UNL     1     -46.553  35.356  26.258  1.00  0.00    -0.231 NA
ATOM     55  C   UNL     1     -49.194  34.798  26.927  1.00  0.00    -0.049 A 
ATOM     56  C   UNL     1     -47.276  36.245  26.978  1.00  0.00     0.129 A 
ATOM     57  C   UNL     1     -48.600  35.993  27.321  1.00  0.00    -0.019 A 
ATOM     58  H   UNL     1     -50.229  34.601  27.194  1.00  0.00     0.063 H 
ATOM     59  H   UNL     1     -49.175  36.723  27.880  1.00  0.00     0.066 H 
BRANCH  56  60
ATOM     60  N   UNL     1     -46.670  37.456  27.360  1.00  0.00    -0.356 N 
ATOM     61  C   UNL     1     -46.550  38.603  26.505  1.00  0.00     0.021 C 
ATOM     62  C   UNL     1     -45.342  37.619  27.876  1.00  0.00     0.021 C 
ATOM     63  C   UNL     1     -45.457  39.090  27.462  1.00  0.00    -0.018 C 
ATOM     64  H   UNL     1     -47.456  39.214  26.466  1.00  0.00     0.049 H 
ATOM     65  H   UNL     1     -46.202  38.355  25.497  1.00  0.00     0.049 H 
ATOM     66  H   UNL     1     -45.263  37.433  28.949  1.00  0.00     0.049 H 
ATOM     67  H   UNL     1     -44.594  37.040  27.324  1.00  0.00     0.049 H 
ATOM     68  H   UNL     1     -45.814  39.756  28.256  1.00  0.00     0.030 H 
ATOM     69  H   UNL     1     -44.571  39.524  26.992  1.00  0.00     0.030 H 
ENDBRANCH  56  60
ENDBRANCH  44  45
ENDBRANCH   1  44
TORSDOF 8
ENDMDL
MODEL 6
REMARK VINA RESULT:      -9.0      2.804     11.297
REMARK SMILES Nc1ncnc2c1c(C1CCCC1)cn2[C@@H]1O[C@H](COc2ccc3ccc(N4CCC4)nc3c2)[C@@H](O)[C@@H]1F
REMARK SMILES IDX 19 1 18 4 16 5 17 6 37 7 35 9 38 10 15 14 2 15 3 16 7 17
REMARK SMILES IDX 4 18 6 19 8 20 5 21 14 23 1 25 9 28 10 29 13 30 11 32 12 35
REMARK SMILES IDX 36 42 20 44 21 45 22 46 34 47 23 48 33 50 24 52 32 54 25 55
REMARK SMILES IDX 27 56 26 57 28 60 29 61 31 62 30 63
REMARK H PARENT 19 2 19 3 16 8 37 11 18 12 35 13 4 22 14 24 1 26 1 27 9 31
REMARK H PARENT 10 33 10 34 13 36 13 37 11 38 11 39 12 40 12 41 36 43 22 49
REMARK H PARENT 34 51 23 53 25 58 26 59 29 64 29 65 31 66 31 67 30 68 30 69
REMARK Flexibility Score: inf
ROOT
ATOM      1  C   UNL     1     -46.450  33.562  26.504  1.00  0.00     0.117 C 
ATOM      2  H   UNL     1     -45.690  34.241  26.101  1.00  0.00     0.073 H 
ATOM      3  H   UNL     1     -45.988  32.616  26.812  1.00  0.00     0.073 H 
ENDROOT
BRANCH   1   4
ATOM      4  C   UNL     1     -47.489  33.267  25.419  1.00  0.00     0.123 C 
ATOM      5  C   UNL     1     -48.012  31.553  23.926  1.00  0.00     0.169 C 
ATOM      6  O   UNL     1     -46.941  32.396  24.407  1.00  0.00    -0.345 OA
ATOM      7  C   UNL     1     -49.277  31.920  24.693  1.00  0.00     0.173 C 
ATOM      8  H   UNL     1     -48.165  31.818  22.873  1.00  0.00     0.088 H 
ATOM      9  C   UNL     1     -48.759  32.602  25.940  1.00  0.00     0.119 C 
ATOM     10  F   UNL     1     -50.078  30.874  24.990  1.00  0.00    -0.239 F 
ATOM     11  H   UNL     1     -49.880  32.624  24.107  1.00  0.00     0.074 H 
ATOM     12  H   UNL     1     -47.738  34.215  24.924  1.00  0.00     0.067 H 
ATOM     13  H   UNL     1     -48.569  31.893  26.747  1.00  0.00     0.066 H 
BRANCH   5  14
ATOM     14  N   UNL     1     -47.559  30.173  23.937  1.00  0.00    -0.303 N 
ATOM     15  C   UNL     1     -45.355  27.571  22.981  1.00  0.00     0.136 A 
ATOM     16  N   UNL     1     -44.428  28.241  22.269  1.00  0.00    -0.219 NA
ATOM     17  C   UNL     1     -46.426  28.279  23.558  1.00  0.00     0.065 A 
ATOM     18  C   UNL     1     -44.565  29.571  22.143  1.00  0.00     0.120 A 
ATOM     19  C   UNL     1     -46.449  29.651  23.327  1.00  0.00     0.147 A 
ATOM     20  C   UNL     1     -47.570  27.962  24.371  1.00  0.00    -0.014 A 
ATOM     21  N   UNL     1     -45.541  30.349  22.626  1.00  0.00    -0.218 NA
ATOM     22  H   UNL     1     -43.792  30.076  21.572  1.00  0.00     0.106 H 
ATOM     23  C   UNL     1     -48.245  29.155  24.566  1.00  0.00     0.013 A 
ATOM     24  H   UNL     1     -49.162  29.364  25.100  1.00  0.00     0.082 H 
BRANCH  15  25
ATOM     25  N   UNL     1     -45.186  26.193  23.063  1.00  0.00    -0.383 N 
ATOM     26  H   UNL     1     -45.681  25.748  22.298  1.00  0.00     0.158 HD
ATOM     27  H   UNL     1     -45.374  25.815  23.980  1.00  0.00     0.158 HD
ENDBRANCH  15  25
BRANCH  20  28
ATOM     28  C   UNL     1     -47.946  26.598  24.894  1.00  0.00    -0.014 C 
ATOM     29  C   UNL     1     -46.786  25.782  25.476  1.00  0.00    -0.046 C 
ATOM     30  C   UNL     1     -48.925  26.669  26.069  1.00  0.00    -0.046 C 
ATOM     31  H   UNL     1     -48.387  26.031  24.065  1.00  0.00     0.035 H 
ATOM     32  C   UNL     1     -46.750  26.090  26.975  1.00  0.00    -0.053 C 
ATOM     33  H   UNL     1     -45.822  25.974  24.993  1.00  0.00     0.027 H 
ATOM     34  H   UNL     1     -46.998  24.713  25.347  1.00  0.00     0.027 H 
ATOM     35  C   UNL     1     -48.036  26.847  27.292  1.00  0.00    -0.053 C 
ATOM     36  H   UNL     1     -49.470  25.720  26.153  1.00  0.00     0.027 H 
ATOM     37  H   UNL     1     -49.663  27.472  25.983  1.00  0.00     0.027 H 
ATOM     38  H   UNL     1     -46.689  25.161  27.551  1.00  0.00     0.027 H 
ATOM     39  H   UNL     1     -45.875  26.692  27.238  1.00  0.00     0.027 H 
ATOM     40  H   UNL     1     -48.516  26.478  28.204  1.00  0.00     0.027 H 
ATOM     41  H   UNL     1     -47.814  27.910  27.447  1.00  0.00     0.027 H 
ENDBRANCH  20  28
ENDBRANCH   5  14
BRANCH   9  42
ATOM     42  O   UNL     1     -49.684  33.573  26.433  1.00  0.00    -0.387 OA
ATOM     43  H   UNL     1     -50.566  33.155  26.395  1.00  0.00     0.211 HD
ENDBRANCH   9  42
ENDBRANCH   1   4
BRANCH   1  44
ATOM     44  O   UNL     1     -47.089  34.166  27.631  1.00  0.00    -0.491 OA
BRANCH  44  45
ATOM     45  C   UNL     1     -47.190  35.529  27.632  1.00  0.00     0.121 A 
ATOM     46  C   UNL     1     -48.495  36.016  27.654  1.00  0.00    -0.019 A 
ATOM     47  C   UNL     1     -46.123  36.429  27.594  1.00  0.00     0.007 A 
ATOM     48  C   UNL     1     -48.731  37.389  27.648  1.00  0.00    -0.049 A 
ATOM     49  H   UNL     1     -49.331  35.322  27.688  1.00  0.00     0.066 H 
ATOM     50  C   UNL     1     -46.329  37.804  27.587  1.00  0.00     0.076 A 
ATOM     51  H   UNL     1     -45.095  36.084  27.559  1.00  0.00     0.069 H 
ATOM     52  C   UNL     1     -47.651  38.284  27.615  1.00  0.00     0.001 A 
ATOM     53  H   UNL     1     -49.755  37.751  27.671  1.00  0.00     0.063 H 
ATOM     54  N   UNL     1     -45.264  38.625  27.554  1.00  0.00    -0.231 NA
ATOM     55  C   UNL     1     -47.842  39.668  27.604  1.00  0.00    -0.049 A 
ATOM     56  C   UNL     1     -45.458  39.964  27.551  1.00  0.00     0.129 A 
ATOM     57  C   UNL     1     -46.736  40.512  27.570  1.00  0.00    -0.019 A 
ATOM     58  H   UNL     1     -48.841  40.095  27.618  1.00  0.00     0.063 H 
ATOM     59  H   UNL     1     -46.878  41.587  27.546  1.00  0.00     0.066 H 
BRANCH  56  60
ATOM     60  N   UNL     1     -44.333  40.808  27.503  1.00  0.00    -0.356 N 
ATOM     61  C   UNL     1     -43.496  40.972  26.348  1.00  0.00     0.021 C 
ATOM     62  C   UNL     1     -43.211  40.785  28.396  1.00  0.00     0.021 C 
ATOM     63  C   UNL     1     -42.441  41.537  27.305  1.00  0.00    -0.018 C 
ATOM     64  H   UNL     1     -43.898  41.675  25.614  1.00  0.00     0.049 H 
ATOM     65  H   UNL     1     -43.226  40.023  25.873  1.00  0.00     0.049 H 
ATOM     66  H   UNL     1     -43.378  41.336  29.324  1.00  0.00     0.049 H 
ATOM     67  H   UNL     1     -42.849  39.772  28.602  1.00  0.00     0.049 H 
ATOM     68  H   UNL     1     -42.460  42.628  27.407  1.00  0.00     0.030 H 
ATOM     69  H   UNL     1     -41.414  41.205  27.131  1.00  0.00     0.030 H 
ENDBRANCH  56  60
ENDBRANCH  44  45
ENDBRANCH   1  44
TORSDOF 8
ENDMDL
MODEL 7
REMARK VINA RESULT:      -8.8      3.141      6.092
REMARK SMILES Nc1ncnc2c1c(C1CCCC1)cn2[C@@H]1O[C@H](COc2ccc3ccc(N4CCC4)nc3c2)[C@@H](O)[C@@H]1F
REMARK SMILES IDX 19 1 18 4 16 5 17 6 37 7 35 9 38 10 15 14 2 15 3 16 7 17
REMARK SMILES IDX 4 18 6 19 8 20 5 21 14 23 1 25 9 28 10 29 13 30 11 32 12 35
REMARK SMILES IDX 36 42 20 44 21 45 22 46 34 47 23 48 33 50 24 52 32 54 25 55
REMARK SMILES IDX 27 56 26 57 28 60 29 61 31 62 30 63
REMARK H PARENT 19 2 19 3 16 8 37 11 18 12 35 13 4 22 14 24 1 26 1 27 9 31
REMARK H PARENT 10 33 10 34 13 36 13 37 11 38 11 39 12 40 12 41 36 43 22 49
REMARK H PARENT 34 51 23 53 25 58 26 59 29 64 29 65 31 66 31 67 30 68 30 69
REMARK Flexibility Score: inf
ROOT
ATOM      1  C   UNL     1     -49.107  40.441  28.710  1.00  0.00     0.117 C 
ATOM      2  H   UNL     1     -49.600  39.612  28.191  1.00  0.00     0.073 H 
ATOM      3  H   UNL     1     -49.341  40.411  29.782  1.00  0.00     0.073 H 
ENDROOT
BRANCH   1   4
ATOM      4  C   UNL     1     -49.614  41.768  28.138  1.00  0.00     0.123 C 
ATOM      5  C   UNL     1     -48.779  43.575  26.923  1.00  0.00     0.169 C 
ATOM      6  O   UNL     1     -48.551  42.742  28.081  1.00  0.00    -0.345 OA
ATOM      7  C   UNL     1     -50.041  43.077  26.229  1.00  0.00     0.173 C 
ATOM      8  H   UNL     1     -48.977  44.585  27.303  1.00  0.00     0.088 H 
ATOM      9  C   UNL     1     -50.193  41.657  26.732  1.00  0.00     0.119 C 
ATOM     10  F   UNL     1     -49.999  43.129  24.880  1.00  0.00    -0.239 F 
ATOM     11  H   UNL     1     -50.904  43.677  26.543  1.00  0.00     0.074 H 
ATOM     12  H   UNL     1     -50.373  42.163  28.827  1.00  0.00     0.067 H 
ATOM     13  H   UNL     1     -49.660  40.941  26.105  1.00  0.00     0.066 H 
BRANCH   5  14
ATOM     14  N   UNL     1     -47.545  43.661  26.161  1.00  0.00    -0.303 N 
ATOM     15  C   UNL     1     -45.393  45.209  23.812  1.00  0.00     0.136 A 
ATOM     16  N   UNL     1     -46.072  46.332  23.513  1.00  0.00    -0.219 NA
ATOM     17  C   UNL     1     -45.931  44.306  24.749  1.00  0.00     0.065 A 
ATOM     18  C   UNL     1     -47.245  46.548  24.130  1.00  0.00     0.120 A 
ATOM     19  C   UNL     1     -47.164  44.651  25.294  1.00  0.00     0.147 A 
ATOM     20  C   UNL     1     -45.537  43.054  25.339  1.00  0.00    -0.014 A 
ATOM     21  N   UNL     1     -47.865  45.763  25.019  1.00  0.00    -0.218 NA
ATOM     22  H   UNL     1     -47.756  47.469  23.870  1.00  0.00     0.106 H 
ATOM     23  C   UNL     1     -46.568  42.688  26.189  1.00  0.00     0.013 A 
ATOM     24  H   UNL     1     -46.688  41.811  26.810  1.00  0.00     0.082 H 
BRANCH  15  25
ATOM     25  N   UNL     1     -44.196  45.016  23.130  1.00  0.00    -0.383 N 
ATOM     26  H   UNL     1     -44.386  44.568  22.240  1.00  0.00     0.158 HD
ATOM     27  H   UNL     1     -43.475  44.582  23.688  1.00  0.00     0.158 HD
ENDBRANCH  15  25
BRANCH  20  28
ATOM     28  C   UNL     1     -44.258  42.301  25.070  1.00  0.00    -0.014 C 
ATOM     29  C   UNL     1     -42.987  42.965  25.611  1.00  0.00    -0.046 C 
ATOM     30  C   UNL     1     -44.230  40.929  25.749  1.00  0.00    -0.046 C 
ATOM     31  H   UNL     1     -44.156  42.190  23.984  1.00  0.00     0.035 H 
ATOM     32  C   UNL     1     -42.760  42.388  27.010  1.00  0.00    -0.053 C 
ATOM     33  H   UNL     1     -43.027  44.060  25.619  1.00  0.00     0.027 H 
ATOM     34  H   UNL     1     -42.136  42.683  24.977  1.00  0.00     0.027 H 
ATOM     35  C   UNL     1     -43.721  41.212  27.155  1.00  0.00    -0.053 C 
ATOM     36  H   UNL     1     -43.518  40.275  25.230  1.00  0.00     0.027 H 
ATOM     37  H   UNL     1     -45.201  40.422  25.763  1.00  0.00     0.027 H 
ATOM     38  H   UNL     1     -41.720  42.062  27.121  1.00  0.00     0.027 H 
ATOM     39  H   UNL     1     -42.948  43.137  27.786  1.00  0.00     0.027 H 
ATOM     40  H   UNL     1     -43.236  40.337  27.599  1.00  0.00     0.027 H 
ATOM     41  H   UNL     1     -44.555  41.492  27.811  1.00  0.00     0.027 H 
ENDBRANCH  20  28
ENDBRANCH   5  14
BRANCH   9  42
ATOM     42  O   UNL     1     -51.564  41.256  26.768  1.00  0.00    -0.387 OA
ATOM     43  H   UNL     1     -52.023  41.898  27.343  1.00  0.00     0.211 HD
ENDBRANCH   9  42
ENDBRANCH   1   4
BRANCH   1  44
ATOM     44  O   UNL     1     -47.692  40.350  28.531  1.00  0.00    -0.491 OA
BRANCH  44  45
ATOM     45  C   UNL     1     -47.172  39.107  28.308  1.00  0.00     0.121 A 
ATOM     46  C   UNL     1     -45.903  38.901  28.845  1.00  0.00    -0.019 A 
ATOM     47  C   UNL     1     -47.789  38.078  27.592  1.00  0.00     0.007 A 
ATOM     48  C   UNL     1     -45.261  37.676  28.676  1.00  0.00    -0.049 A 
ATOM     49  H   UNL     1     -45.418  39.695  29.406  1.00  0.00     0.066 H 
ATOM     50  C   UNL     1     -47.171  36.846  27.409  1.00  0.00     0.076 A 
ATOM     51  H   UNL     1     -48.769  38.209  27.147  1.00  0.00     0.069 H 
ATOM     52  C   UNL     1     -45.891  36.648  27.960  1.00  0.00     0.001 A 
ATOM     53  H   UNL     1     -44.273  37.532  29.106  1.00  0.00     0.063 H 
ATOM     54  N   UNL     1     -47.813  35.889  26.714  1.00  0.00    -0.231 NA
ATOM     55  C   UNL     1     -45.283  35.406  27.764  1.00  0.00    -0.049 A 
ATOM     56  C   UNL     1     -47.219  34.687  26.535  1.00  0.00     0.129 A 
ATOM     57  C   UNL     1     -45.952  34.421  27.045  1.00  0.00    -0.019 A 
ATOM     58  H   UNL     1     -44.293  35.200  28.161  1.00  0.00     0.063 H 
ATOM     59  H   UNL     1     -45.478  33.460  26.876  1.00  0.00     0.066 H 
BRANCH  56  60
ATOM     60  N   UNL     1     -47.899  33.702  25.796  1.00  0.00    -0.356 N 
ATOM     61  C   UNL     1     -49.175  33.156  26.163  1.00  0.00     0.021 C 
ATOM     62  C   UNL     1     -47.386  32.419  25.411  1.00  0.00     0.021 C 
ATOM     63  C   UNL     1     -48.846  31.991  25.223  1.00  0.00    -0.018 C 
ATOM     64  H   UNL     1     -50.020  33.783  25.867  1.00  0.00     0.049 H 
ATOM     65  H   UNL     1     -49.241  32.888  27.222  1.00  0.00     0.049 H 
ATOM     66  H   UNL     1     -46.780  32.444  24.503  1.00  0.00     0.049 H 
ATOM     67  H   UNL     1     -46.855  31.909  26.221  1.00  0.00     0.049 H 
ATOM     68  H   UNL     1     -49.225  32.112  24.202  1.00  0.00     0.030 H 
ATOM     69  H   UNL     1     -49.101  30.994  25.593  1.00  0.00     0.030 H 
ENDBRANCH  56  60
ENDBRANCH  44  45
ENDBRANCH   1  44
TORSDOF 8
ENDMDL
