MODEL 1
REMARK VINA RESULT:     -10.2      0.000      0.000
REMARK SMILES Cn1ccc(-c2cn([C@@H]3O[C@H](COc4ccc5cnc(NC6CC6)nc5c4)[C@@H](O)[C@@H]3F)c3ncnc(N)c23)n1
REMARK SMILES IDX 12 1 11 4 9 5 10 6 30 7 28 9 31 10 8 14 6 15 7 16 38 17
REMARK SMILES IDX 32 19 36 20 33 21 35 22 34 23 5 25 2 26 3 27 39 28 4 29 1 32
REMARK SMILES IDX 37 36 29 39 13 41 14 42 15 43 27 44 16 45 26 47 17 49 25 51
REMARK SMILES IDX 18 52 20 53 19 54 21 56 22 58 23 59 24 60
REMARK H PARENT 12 2 12 3 9 8 30 11 11 12 28 13 7 18 34 24 3 30 4 31 1 33 1 34
REMARK H PARENT 1 35 37 37 37 38 29 40 15 46 27 48 16 50 18 55 21 57 22 61
REMARK H PARENT 23 62 23 63 24 64 24 65
REMARK Flexibility Score: inf
ROOT
ATOM      1  C   UNL     1     -46.899  35.705  26.474  1.00  0.00     0.117 C 
ATOM      2  H   UNL     1     -46.064  35.299  25.890  1.00  0.00     0.073 H 
ATOM      3  H   UNL     1     -47.294  36.601  25.979  1.00  0.00     0.073 H 
ENDROOT
BRANCH   1   4
ATOM      4  C   UNL     1     -46.404  36.093  27.869  1.00  0.00     0.123 C 
ATOM      5  C   UNL     1     -45.013  37.662  28.894  1.00  0.00     0.169 C 
ATOM      6  O   UNL     1     -45.102  36.711  27.800  1.00  0.00    -0.345 OA
ATOM      7  C   UNL     1     -46.347  37.633  29.634  1.00  0.00     0.173 C 
ATOM      8  H   UNL     1     -44.196  37.326  29.543  1.00  0.00     0.088 H 
ATOM      9  C   UNL     1     -47.299  37.088  28.592  1.00  0.00     0.119 C 
ATOM     10  F   UNL     1     -46.771  38.849  30.052  1.00  0.00    -0.239 F 
ATOM     11  H   UNL     1     -46.302  36.974  30.507  1.00  0.00     0.074 H 
ATOM     12  H   UNL     1     -46.301  35.174  28.461  1.00  0.00     0.067 H 
ATOM     13  H   UNL     1     -47.653  37.894  27.938  1.00  0.00     0.066 H 
BRANCH   5  14
ATOM     14  N   UNL     1     -44.654  38.969  28.364  1.00  0.00    -0.302 N 
ATOM     15  C   UNL     1     -44.632  40.858  27.175  1.00  0.00     0.033 A 
ATOM     16  C   UNL     1     -45.245  39.625  27.314  1.00  0.00     0.019 A 
ATOM     17  C   UNL     1     -43.598  40.938  28.162  1.00  0.00     0.071 A 
ATOM     18  H   UNL     1     -46.060  39.175  26.766  1.00  0.00     0.083 H 
ATOM     19  C   UNL     1     -43.666  39.758  28.897  1.00  0.00     0.148 A 
ATOM     20  C   UNL     1     -42.604  41.851  28.558  1.00  0.00     0.137 A 
ATOM     21  N   UNL     1     -42.906  39.422  29.955  1.00  0.00    -0.218 NA
ATOM     22  N   UNL     1     -41.834  41.561  29.628  1.00  0.00    -0.219 NA
ATOM     23  C   UNL     1     -42.022  40.386  30.253  1.00  0.00     0.120 A 
ATOM     24  H   UNL     1     -41.375  40.194  31.103  1.00  0.00     0.106 H 
BRANCH  15  25
ATOM     25  C   UNL     1     -45.001  41.896  26.204  1.00  0.00     0.095 A 
ATOM     26  N   UNL     1     -46.029  43.467  25.226  1.00  0.00    -0.275 N 
ATOM     27  C   UNL     1     -44.987  43.179  24.397  1.00  0.00     0.025 A 
ATOM     28  N   UNL     1     -46.070  42.695  26.327  1.00  0.00    -0.173 NA
ATOM     29  C   UNL     1     -44.298  42.154  25.004  1.00  0.00    -0.016 A 
ATOM     30  H   UNL     1     -44.825  43.708  23.468  1.00  0.00     0.084 H 
ATOM     31  H   UNL     1     -43.413  41.664  24.627  1.00  0.00     0.066 H 
BRANCH  26  32
ATOM     32  C   UNL     1     -47.042  44.476  25.029  1.00  0.00     0.030 C 
ATOM     33  H   UNL     1     -47.456  44.355  24.025  1.00  0.00     0.048 H 
ATOM     34  H   UNL     1     -47.818  44.337  25.786  1.00  0.00     0.048 H 
ATOM     35  H   UNL     1     -46.593  45.467  25.132  1.00  0.00     0.048 H 
ENDBRANCH  26  32
ENDBRANCH  15  25
BRANCH  20  36
ATOM     36  N   UNL     1     -42.349  43.054  27.918  1.00  0.00    -0.383 N 
ATOM     37  H   UNL     1     -42.991  43.796  28.212  1.00  0.00     0.158 HD
ATOM     38  H   UNL     1     -41.364  43.273  27.908  1.00  0.00     0.158 HD
ENDBRANCH  20  36
ENDBRANCH   5  14
BRANCH   9  39
ATOM     39  O   UNL     1     -48.432  36.453  29.173  1.00  0.00    -0.387 OA
ATOM     40  H   UNL     1     -48.165  35.537  29.381  1.00  0.00     0.211 HD
ENDBRANCH   9  39
ENDBRANCH   1   4
BRANCH   1  41
ATOM     41  O   UNL     1     -47.936  34.718  26.588  1.00  0.00    -0.491 OA
BRANCH  41  42
ATOM     42  C   UNL     1     -47.661  33.584  25.875  1.00  0.00     0.121 A 
ATOM     43  C   UNL     1     -46.509  33.592  25.096  1.00  0.00    -0.019 A 
ATOM     44  C   UNL     1     -48.518  32.480  25.859  1.00  0.00     0.007 A 
ATOM     45  C   UNL     1     -46.197  32.476  24.327  1.00  0.00    -0.048 A 
ATOM     46  H   UNL     1     -45.851  34.456  25.102  1.00  0.00     0.066 H 
ATOM     47  C   UNL     1     -48.228  31.354  25.098  1.00  0.00     0.079 A 
ATOM     48  H   UNL     1     -49.440  32.492  26.432  1.00  0.00     0.069 H 
ATOM     49  C   UNL     1     -47.059  31.362  24.335  1.00  0.00     0.019 A 
ATOM     50  H   UNL     1     -45.292  32.475  23.725  1.00  0.00     0.063 H 
ATOM     51  N   UNL     1     -49.066  30.307  25.113  1.00  0.00    -0.213 NA
ATOM     52  C   UNL     1     -46.835  30.210  23.603  1.00  0.00     0.040 A 
ATOM     53  C   UNL     1     -48.759  29.232  24.367  1.00  0.00     0.223 A 
ATOM     54  N   UNL     1     -47.660  29.149  23.606  1.00  0.00    -0.221 NA
ATOM     55  H   UNL     1     -45.959  30.100  22.970  1.00  0.00     0.085 H 
BRANCH  53  56
ATOM     56  N   UNL     1     -49.692  28.193  24.430  1.00  0.00    -0.351 N 
ATOM     57  H   UNL     1     -50.600  28.647  24.420  1.00  0.00     0.163 HD
BRANCH  56  58
ATOM     58  C   UNL     1     -49.549  26.953  25.185  1.00  0.00     0.029 C 
ATOM     59  C   UNL     1     -48.246  26.264  25.462  1.00  0.00    -0.031 C 
ATOM     60  C   UNL     1     -49.029  26.882  26.591  1.00  0.00    -0.031 C 
ATOM     61  H   UNL     1     -50.375  26.283  24.951  1.00  0.00     0.053 H 
ATOM     62  H   UNL     1     -48.223  25.183  25.391  1.00  0.00     0.029 H 
ATOM     63  H   UNL     1     -47.324  26.740  25.156  1.00  0.00     0.029 H 
ATOM     64  H   UNL     1     -49.531  26.217  27.283  1.00  0.00     0.029 H 
ATOM     65  H   UNL     1     -48.627  27.775  27.051  1.00  0.00     0.029 H 
ENDBRANCH  56  58
ENDBRANCH  53  56
ENDBRANCH  41  42
ENDBRANCH   1  41
TORSDOF 10
ENDMDL
MODEL 2
REMARK VINA RESULT:      -9.3      1.651      2.362
REMARK SMILES Cn1ccc(-c2cn([C@@H]3O[C@H](COc4ccc5cnc(NC6CC6)nc5c4)[C@@H](O)[C@@H]3F)c3ncnc(N)c23)n1
REMARK SMILES IDX 12 1 11 4 9 5 10 6 30 7 28 9 31 10 8 14 6 15 7 16 38 17
REMARK SMILES IDX 32 19 36 20 33 21 35 22 34 23 5 25 2 26 3 27 39 28 4 29 1 32
REMARK SMILES IDX 37 36 29 39 13 41 14 42 15 43 27 44 16 45 26 47 17 49 25 51
REMARK SMILES IDX 18 52 20 53 19 54 21 56 22 58 23 59 24 60
REMARK H PARENT 12 2 12 3 9 8 30 11 11 12 28 13 7 18 34 24 3 30 4 31 1 33 1 34
REMARK H PARENT 1 35 37 37 37 38 29 40 15 46 27 48 16 50 18 55 21 57 22 61
REMARK H PARENT 23 62 23 63 24 64 24 65
REMARK Flexibility Score: inf
ROOT
ATOM      1  C   UNL     1     -45.578  35.342  27.613  1.00  0.00     0.117 C 
ATOM      2  H   UNL     1     -45.787  34.320  27.949  1.00  0.00     0.073 H 
ATOM      3  H   UNL     1     -44.519  35.433  27.342  1.00  0.00     0.073 H 
ENDROOT
BRANCH   1   4
ATOM      4  C   UNL     1     -45.881  36.323  28.747  1.00  0.00     0.123 C 
ATOM      5  C   UNL     1     -45.247  38.444  29.486  1.00  0.00     0.169 C 
ATOM      6  O   UNL     1     -44.742  37.167  29.017  1.00  0.00    -0.345 OA
ATOM      7  C   UNL     1     -46.770  38.370  29.462  1.00  0.00     0.173 C 
ATOM      8  H   UNL     1     -44.875  38.578  30.508  1.00  0.00     0.088 H 
ATOM      9  C   UNL     1     -47.039  37.268  28.460  1.00  0.00     0.119 C 
ATOM     10  F   UNL     1     -47.371  39.514  29.058  1.00  0.00    -0.239 F 
ATOM     11  H   UNL     1     -47.170  38.110  30.448  1.00  0.00     0.074 H 
ATOM     12  H   UNL     1     -46.081  35.741  29.656  1.00  0.00     0.067 H 
ATOM     13  H   UNL     1     -47.019  37.666  27.439  1.00  0.00     0.066 H 
BRANCH   5  14
ATOM     14  N   UNL     1     -44.689  39.510  28.666  1.00  0.00    -0.302 N 
ATOM     15  C   UNL     1     -44.413  41.076  27.099  1.00  0.00     0.033 A 
ATOM     16  C   UNL     1     -45.245  40.061  27.540  1.00  0.00     0.019 A 
ATOM     17  C   UNL     1     -43.284  41.117  27.978  1.00  0.00     0.071 A 
ATOM     18  H   UNL     1     -46.189  39.704  27.154  1.00  0.00     0.083 H 
ATOM     19  C   UNL     1     -43.509  40.149  28.952  1.00  0.00     0.148 A 
ATOM     20  C   UNL     1     -42.088  41.846  28.104  1.00  0.00     0.137 A 
ATOM     21  N   UNL     1     -42.723  39.867  30.006  1.00  0.00    -0.218 NA
ATOM     22  N   UNL     1     -41.281  41.609  29.160  1.00  0.00    -0.219 NA
ATOM     23  C   UNL     1     -41.634  40.651  30.033  1.00  0.00     0.120 A 
ATOM     24  H   UNL     1     -40.951  40.490  30.861  1.00  0.00     0.106 H 
BRANCH  15  25
ATOM     25  C   UNL     1     -44.667  41.959  25.954  1.00  0.00     0.095 A 
ATOM     26  N   UNL     1     -45.495  43.458  24.709  1.00  0.00    -0.275 N 
ATOM     27  C   UNL     1     -44.542  42.866  23.935  1.00  0.00     0.025 A 
ATOM     28  N   UNL     1     -45.602  42.919  25.938  1.00  0.00    -0.173 NA
ATOM     29  C   UNL     1     -43.986  41.879  24.716  1.00  0.00    -0.016 A 
ATOM     30  H   UNL     1     -44.344  43.182  22.921  1.00  0.00     0.084 H 
ATOM     31  H   UNL     1     -43.199  41.199  24.428  1.00  0.00     0.066 H 
BRANCH  26  32
ATOM     32  C   UNL     1     -46.357  44.554  24.337  1.00  0.00     0.030 C 
ATOM     33  H   UNL     1     -45.774  45.477  24.373  1.00  0.00     0.048 H 
ATOM     34  H   UNL     1     -46.729  44.372  23.326  1.00  0.00     0.048 H 
ATOM     35  H   UNL     1     -47.193  44.612  25.038  1.00  0.00     0.048 H 
ENDBRANCH  26  32
ENDBRANCH  15  25
BRANCH  20  36
ATOM     36  N   UNL     1     -41.665  42.814  27.205  1.00  0.00    -0.383 N 
ATOM     37  H   UNL     1     -42.199  43.684  27.289  1.00  0.00     0.158 HD
ATOM     38  H   UNL     1     -40.659  42.890  27.181  1.00  0.00     0.158 HD
ENDBRANCH  20  36
ENDBRANCH   5  14
BRANCH   9  39
ATOM     39  O   UNL     1     -48.297  36.639  28.672  1.00  0.00    -0.387 OA
ATOM     40  H   UNL     1     -48.112  35.708  28.899  1.00  0.00     0.211 HD
ENDBRANCH   9  39
ENDBRANCH   1   4
BRANCH   1  41
ATOM     41  O   UNL     1     -46.397  35.655  26.475  1.00  0.00    -0.491 OA
BRANCH  41  42
ATOM     42  C   UNL     1     -47.138  34.586  26.053  1.00  0.00     0.121 A 
ATOM     43  C   UNL     1     -48.341  34.354  26.710  1.00  0.00    -0.019 A 
ATOM     44  C   UNL     1     -46.697  33.712  25.055  1.00  0.00     0.007 A 
ATOM     45  C   UNL     1     -49.121  33.263  26.342  1.00  0.00    -0.048 A 
ATOM     46  H   UNL     1     -48.676  35.029  27.493  1.00  0.00     0.066 H 
ATOM     47  C   UNL     1     -47.458  32.615  24.670  1.00  0.00     0.079 A 
ATOM     48  H   UNL     1     -45.737  33.869  24.574  1.00  0.00     0.069 H 
ATOM     49  C   UNL     1     -48.675  32.401  25.321  1.00  0.00     0.019 A 
ATOM     50  H   UNL     1     -50.067  33.084  26.846  1.00  0.00     0.063 H 
ATOM     51  N   UNL     1     -47.012  31.803  23.702  1.00  0.00    -0.213 NA
ATOM     52  C   UNL     1     -49.378  31.292  24.888  1.00  0.00     0.040 A 
ATOM     53  C   UNL     1     -47.770  30.749  23.351  1.00  0.00     0.223 A 
ATOM     54  N   UNL     1     -48.950  30.466  23.917  1.00  0.00    -0.221 NA
ATOM     55  H   UNL     1     -50.338  31.022  25.320  1.00  0.00     0.085 H 
BRANCH  53  56
ATOM     56  N   UNL     1     -47.223  29.947  22.345  1.00  0.00    -0.351 N 
ATOM     57  H   UNL     1     -46.227  29.922  22.534  1.00  0.00     0.163 HD
BRANCH  56  58
ATOM     58  C   UNL     1     -47.663  29.892  20.955  1.00  0.00     0.029 C 
ATOM     59  C   UNL     1     -49.088  29.737  20.513  1.00  0.00    -0.031 C 
ATOM     60  C   UNL     1     -48.350  31.022  20.246  1.00  0.00    -0.031 C 
ATOM     61  H   UNL     1     -46.942  29.330  20.364  1.00  0.00     0.053 H 
ATOM     62  H   UNL     1     -49.287  29.081  19.674  1.00  0.00     0.029 H 
ATOM     63  H   UNL     1     -49.874  29.741  21.257  1.00  0.00     0.029 H 
ATOM     64  H   UNL     1     -48.053  31.234  19.226  1.00  0.00     0.029 H 
ATOM     65  H   UNL     1     -48.645  31.898  20.810  1.00  0.00     0.029 H 
ENDBRANCH  56  58
ENDBRANCH  53  56
ENDBRANCH  41  42
ENDBRANCH   1  41
TORSDOF 10
ENDMDL
MODEL 3
REMARK VINA RESULT:      -9.1      2.197      3.038
REMARK SMILES Cn1ccc(-c2cn([C@@H]3O[C@H](COc4ccc5cnc(NC6CC6)nc5c4)[C@@H](O)[C@@H]3F)c3ncnc(N)c23)n1
REMARK SMILES IDX 12 1 11 4 9 5 10 6 30 7 28 9 31 10 8 14 6 15 7 16 38 17
REMARK SMILES IDX 32 19 36 20 33 21 35 22 34 23 5 25 2 26 3 27 39 28 4 29 1 32
REMARK SMILES IDX 37 36 29 39 13 41 14 42 15 43 27 44 16 45 26 47 17 49 25 51
REMARK SMILES IDX 18 52 20 53 19 54 21 56 22 58 23 59 24 60
REMARK H PARENT 12 2 12 3 9 8 30 11 11 12 28 13 7 18 34 24 3 30 4 31 1 33 1 34
REMARK H PARENT 1 35 37 37 37 38 29 40 15 46 27 48 16 50 18 55 21 57 22 61
REMARK H PARENT 23 62 23 63 24 64 24 65
REMARK Flexibility Score: inf
ROOT
ATOM      1  C   UNL     1     -47.557  35.431  28.264  1.00  0.00     0.117 C 
ATOM      2  H   UNL     1     -48.275  35.899  28.948  1.00  0.00     0.073 H 
ATOM      3  H   UNL     1     -47.361  34.400  28.586  1.00  0.00     0.073 H 
ENDROOT
BRANCH   1   4
ATOM      4  C   UNL     1     -46.243  36.212  28.291  1.00  0.00     0.123 C 
ATOM      5  C   UNL     1     -45.347  38.221  27.508  1.00  0.00     0.169 C 
ATOM      6  O   UNL     1     -46.120  37.053  27.124  1.00  0.00    -0.345 OA
ATOM      7  C   UNL     1     -45.022  38.085  28.992  1.00  0.00     0.173 C 
ATOM      8  H   UNL     1     -44.434  38.212  26.902  1.00  0.00     0.088 H 
ATOM      9  C   UNL     1     -46.094  37.139  29.488  1.00  0.00     0.119 C 
ATOM     10  F   UNL     1     -45.085  39.250  29.679  1.00  0.00    -0.239 F 
ATOM     11  H   UNL     1     -44.024  37.661  29.142  1.00  0.00     0.074 H 
ATOM     12  H   UNL     1     -45.417  35.490  28.263  1.00  0.00     0.067 H 
ATOM     13  H   UNL     1     -47.014  37.689  29.716  1.00  0.00     0.066 H 
BRANCH   5  14
ATOM     14  N   UNL     1     -46.096  39.422  27.170  1.00  0.00    -0.302 N 
ATOM     15  C   UNL     1     -47.731  40.926  26.941  1.00  0.00     0.033 A 
ATOM     16  C   UNL     1     -47.439  39.636  27.349  1.00  0.00     0.019 A 
ATOM     17  C   UNL     1     -46.514  41.508  26.458  1.00  0.00     0.071 A 
ATOM     18  H   UNL     1     -48.073  38.867  27.766  1.00  0.00     0.083 H 
ATOM     19  C   UNL     1     -45.521  40.552  26.646  1.00  0.00     0.148 A 
ATOM     20  C   UNL     1     -46.096  42.725  25.890  1.00  0.00     0.137 A 
ATOM     21  N   UNL     1     -44.211  40.686  26.370  1.00  0.00    -0.218 NA
ATOM     22  N   UNL     1     -44.787  42.907  25.619  1.00  0.00    -0.219 NA
ATOM     23  C   UNL     1     -43.934  41.898  25.866  1.00  0.00     0.120 A 
ATOM     24  H   UNL     1     -42.893  42.088  25.625  1.00  0.00     0.106 H 
BRANCH  15  25
ATOM     25  C   UNL     1     -49.045  41.575  27.018  1.00  0.00     0.095 A 
ATOM     26  N   UNL     1     -50.799  42.643  26.503  1.00  0.00    -0.275 N 
ATOM     27  C   UNL     1     -50.954  42.359  27.826  1.00  0.00     0.025 A 
ATOM     28  N   UNL     1     -49.642  42.189  25.986  1.00  0.00    -0.173 NA
ATOM     29  C   UNL     1     -49.825  41.665  28.195  1.00  0.00    -0.016 A 
ATOM     30  H   UNL     1     -51.828  42.665  28.383  1.00  0.00     0.084 H 
ATOM     31  H   UNL     1     -49.598  41.283  29.179  1.00  0.00     0.066 H 
BRANCH  26  32
ATOM     32  C   UNL     1     -51.722  43.357  25.654  1.00  0.00     0.030 C 
ATOM     33  H   UNL     1     -51.160  44.096  25.079  1.00  0.00     0.048 H 
ATOM     34  H   UNL     1     -52.206  42.637  24.989  1.00  0.00     0.048 H 
ATOM     35  H   UNL     1     -52.472  43.856  26.272  1.00  0.00     0.048 H 
ENDBRANCH  26  32
ENDBRANCH  15  25
BRANCH  20  36
ATOM     36  N   UNL     1     -46.947  43.775  25.581  1.00  0.00    -0.383 N 
ATOM     37  H   UNL     1     -47.592  43.543  24.820  1.00  0.00     0.158 HD
ATOM     38  H   UNL     1     -47.342  44.194  26.409  1.00  0.00     0.158 HD
ENDBRANCH  20  36
ENDBRANCH   5  14
BRANCH   9  39
ATOM     39  O   UNL     1     -45.693  36.431  30.656  1.00  0.00    -0.387 OA
ATOM     40  H   UNL     1     -45.155  35.674  30.355  1.00  0.00     0.211 HD
ENDBRANCH   9  39
ENDBRANCH   1   4
BRANCH   1  41
ATOM     41  O   UNL     1     -48.090  35.428  26.930  1.00  0.00    -0.491 OA
BRANCH  41  42
ATOM     42  C   UNL     1     -47.780  34.286  26.244  1.00  0.00     0.121 A 
ATOM     43  C   UNL     1     -46.611  34.302  25.490  1.00  0.00    -0.019 A 
ATOM     44  C   UNL     1     -48.616  33.166  26.231  1.00  0.00     0.007 A 
ATOM     45  C   UNL     1     -46.263  33.177  24.749  1.00  0.00    -0.048 A 
ATOM     46  H   UNL     1     -45.969  35.178  25.494  1.00  0.00     0.066 H 
ATOM     47  C   UNL     1     -48.289  32.032  25.498  1.00  0.00     0.079 A 
ATOM     48  H   UNL     1     -49.550  33.173  26.785  1.00  0.00     0.069 H 
ATOM     49  C   UNL     1     -47.105  32.048  24.760  1.00  0.00     0.019 A 
ATOM     50  H   UNL     1     -45.345  33.182  24.167  1.00  0.00     0.063 H 
ATOM     51  N   UNL     1     -49.108  30.971  25.515  1.00  0.00    -0.213 NA
ATOM     52  C   UNL     1     -46.844  30.887  24.055  1.00  0.00     0.040 A 
ATOM     53  C   UNL     1     -48.766  29.888  24.795  1.00  0.00     0.223 A 
ATOM     54  N   UNL     1     -47.649  29.811  24.060  1.00  0.00    -0.221 NA
ATOM     55  H   UNL     1     -45.952  30.781  23.443  1.00  0.00     0.085 H 
BRANCH  53  56
ATOM     56  N   UNL     1     -49.681  28.834  24.858  1.00  0.00    -0.351 N 
ATOM     57  H   UNL     1     -50.515  29.227  25.284  1.00  0.00     0.163 HD
BRANCH  56  58
ATOM     58  C   UNL     1     -49.365  27.435  25.125  1.00  0.00     0.029 C 
ATOM     59  C   UNL     1     -49.069  26.866  26.481  1.00  0.00    -0.031 C 
ATOM     60  C   UNL     1     -50.322  26.462  25.751  1.00  0.00    -0.031 C 
ATOM     61  H   UNL     1     -48.744  27.039  24.323  1.00  0.00     0.053 H 
ATOM     62  H   UNL     1     -48.269  26.140  26.559  1.00  0.00     0.029 H 
ATOM     63  H   UNL     1     -49.164  27.503  27.351  1.00  0.00     0.029 H 
ATOM     64  H   UNL     1     -50.369  25.461  25.338  1.00  0.00     0.029 H 
ATOM     65  H   UNL     1     -51.268  26.824  26.135  1.00  0.00     0.029 H 
ENDBRANCH  56  58
ENDBRANCH  53  56
ENDBRANCH  41  42
ENDBRANCH   1  41
TORSDOF 10
ENDMDL
MODEL 4
REMARK VINA RESULT:      -8.9      2.801      5.060
REMARK SMILES Cn1ccc(-c2cn([C@@H]3O[C@H](COc4ccc5cnc(NC6CC6)nc5c4)[C@@H](O)[C@@H]3F)c3ncnc(N)c23)n1
REMARK SMILES IDX 12 1 11 4 9 5 10 6 30 7 28 9 31 10 8 14 6 15 7 16 38 17
REMARK SMILES IDX 32 19 36 20 33 21 35 22 34 23 5 25 2 26 3 27 39 28 4 29 1 32
REMARK SMILES IDX 37 36 29 39 13 41 14 42 15 43 27 44 16 45 26 47 17 49 25 51
REMARK SMILES IDX 18 52 20 53 19 54 21 56 22 58 23 59 24 60
REMARK H PARENT 12 2 12 3 9 8 30 11 11 12 28 13 7 18 34 24 3 30 4 31 1 33 1 34
REMARK H PARENT 1 35 37 37 37 38 29 40 15 46 27 48 16 50 18 55 21 57 22 61
REMARK H PARENT 23 62 23 63 24 64 24 65
REMARK Flexibility Score: inf
ROOT
ATOM      1  C   UNL     1     -45.563  38.521  28.420  1.00  0.00     0.117 C 
ATOM      2  H   UNL     1     -45.757  38.950  29.410  1.00  0.00     0.073 H 
ATOM      3  H   UNL     1     -45.282  37.465  28.524  1.00  0.00     0.073 H 
ENDROOT
BRANCH   1   4
ATOM      4  C   UNL     1     -44.408  39.273  27.756  1.00  0.00     0.123 C 
ATOM      5  C   UNL     1     -44.048  40.944  26.167  1.00  0.00     0.169 C 
ATOM      6  O   UNL     1     -44.773  39.715  26.432  1.00  0.00    -0.345 OA
ATOM      7  C   UNL     1     -43.232  41.271  27.414  1.00  0.00     0.173 C 
ATOM      8  H   UNL     1     -43.395  40.750  25.309  1.00  0.00     0.088 H 
ATOM      9  C   UNL     1     -43.967  40.522  28.505  1.00  0.00     0.119 C 
ATOM     10  F   UNL     1     -43.187  42.590  27.713  1.00  0.00    -0.239 F 
ATOM     11  H   UNL     1     -42.201  40.912  27.319  1.00  0.00     0.074 H 
ATOM     12  H   UNL     1     -43.566  38.577  27.649  1.00  0.00     0.067 H 
ATOM     13  H   UNL     1     -44.811  41.116  28.874  1.00  0.00     0.066 H 
BRANCH   5  14
ATOM     14  N   UNL     1     -44.991  41.984  25.784  1.00  0.00    -0.302 N 
ATOM     15  C   UNL     1     -46.808  43.276  25.652  1.00  0.00     0.033 A 
ATOM     16  C   UNL     1     -46.282  42.131  26.225  1.00  0.00     0.019 A 
ATOM     17  C   UNL     1     -45.801  43.828  24.796  1.00  0.00     0.071 A 
ATOM     18  H   UNL     1     -46.716  41.426  26.920  1.00  0.00     0.083 H 
ATOM     19  C   UNL     1     -44.681  43.013  24.931  1.00  0.00     0.148 A 
ATOM     20  C   UNL     1     -45.663  44.919  23.920  1.00  0.00     0.137 A 
ATOM     21  N   UNL     1     -43.485  43.180  24.338  1.00  0.00    -0.218 NA
ATOM     22  N   UNL     1     -44.472  45.136  23.322  1.00  0.00    -0.219 NA
ATOM     23  C   UNL     1     -43.471  44.271  23.557  1.00  0.00     0.120 A 
ATOM     24  H   UNL     1     -42.535  44.481  23.049  1.00  0.00     0.106 H 
BRANCH  15  25
ATOM     25  C   UNL     1     -48.145  43.826  25.903  1.00  0.00     0.095 A 
ATOM     26  N   UNL     1     -50.119  44.537  25.618  1.00  0.00    -0.275 N 
ATOM     27  C   UNL     1     -49.885  44.717  26.948  1.00  0.00     0.025 A 
ATOM     28  N   UNL     1     -49.074  44.008  24.954  1.00  0.00    -0.173 NA
ATOM     29  C   UNL     1     -48.604  44.267  27.167  1.00  0.00    -0.016 A 
ATOM     30  H   UNL     1     -50.626  45.140  27.611  1.00  0.00     0.084 H 
ATOM     31  H   UNL     1     -48.077  44.262  28.109  1.00  0.00     0.066 H 
BRANCH  26  32
ATOM     32  C   UNL     1     -51.329  44.854  24.898  1.00  0.00     0.030 C 
ATOM     33  H   UNL     1     -52.029  44.024  25.019  1.00  0.00     0.048 H 
ATOM     34  H   UNL     1     -51.746  45.774  25.314  1.00  0.00     0.048 H 
ATOM     35  H   UNL     1     -51.096  44.995  23.840  1.00  0.00     0.048 H 
ENDBRANCH  26  32
ENDBRANCH  15  25
BRANCH  20  36
ATOM     36  N   UNL     1     -46.681  45.811  23.617  1.00  0.00    -0.383 N 
ATOM     37  H   UNL     1     -47.604  45.367  23.627  1.00  0.00     0.158 HD
ATOM     38  H   UNL     1     -46.581  46.679  24.122  1.00  0.00     0.158 HD
ENDBRANCH  20  36
ENDBRANCH   5  14
BRANCH   9  39
ATOM     39  O   UNL     1     -43.125  40.206  29.607  1.00  0.00    -0.387 OA
ATOM     40  H   UNL     1     -43.118  40.989  30.190  1.00  0.00     0.211 HD
ENDBRANCH   9  39
ENDBRANCH   1   4
BRANCH   1  41
ATOM     41  O   UNL     1     -46.740  38.630  27.605  1.00  0.00    -0.491 OA
BRANCH  41  42
ATOM     42  C   UNL     1     -47.263  37.411  27.272  1.00  0.00     0.121 A 
ATOM     43  C   UNL     1     -48.539  37.123  27.744  1.00  0.00    -0.019 A 
ATOM     44  C   UNL     1     -46.542  36.456  26.550  1.00  0.00     0.007 A 
ATOM     45  C   UNL     1     -49.107  35.885  27.461  1.00  0.00    -0.048 A 
ATOM     46  H   UNL     1     -49.092  37.864  28.314  1.00  0.00     0.066 H 
ATOM     47  C   UNL     1     -47.089  35.213  26.256  1.00  0.00     0.079 A 
ATOM     48  H   UNL     1     -45.529  36.666  26.221  1.00  0.00     0.069 H 
ATOM     49  C   UNL     1     -48.378  34.939  26.715  1.00  0.00     0.019 A 
ATOM     50  H   UNL     1     -50.109  35.660  27.819  1.00  0.00     0.063 H 
ATOM     51  N   UNL     1     -46.376  34.323  25.552  1.00  0.00    -0.213 NA
ATOM     52  C   UNL     1     -48.858  33.684  26.386  1.00  0.00     0.040 A 
ATOM     53  C   UNL     1     -46.930  33.128  25.283  1.00  0.00     0.223 A 
ATOM     54  N   UNL     1     -48.160  32.777  25.679  1.00  0.00    -0.221 NA
ATOM     55  H   UNL     1     -49.848  33.355  26.690  1.00  0.00     0.085 H 
BRANCH  53  56
ATOM     56  N   UNL     1     -46.113  32.256  24.557  1.00  0.00    -0.351 N 
ATOM     57  H   UNL     1     -45.197  32.694  24.545  1.00  0.00     0.163 HD
BRANCH  56  58
ATOM     58  C   UNL     1     -46.514  31.464  23.400  1.00  0.00     0.029 C 
ATOM     59  C   UNL     1     -45.616  30.522  22.653  1.00  0.00    -0.031 C 
ATOM     60  C   UNL     1     -46.781  29.988  23.444  1.00  0.00    -0.031 C 
ATOM     61  H   UNL     1     -47.182  32.048  22.768  1.00  0.00     0.053 H 
ATOM     62  H   UNL     1     -45.687  30.509  21.573  1.00  0.00     0.029 H 
ATOM     63  H   UNL     1     -44.616  30.341  23.026  1.00  0.00     0.029 H 
ATOM     64  H   UNL     1     -47.637  29.612  22.896  1.00  0.00     0.029 H 
ATOM     65  H   UNL     1     -46.564  29.439  24.352  1.00  0.00     0.029 H 
ENDBRANCH  56  58
ENDBRANCH  53  56
ENDBRANCH  41  42
ENDBRANCH   1  41
TORSDOF 10
ENDMDL
MODEL 5
REMARK VINA RESULT:      -8.7      2.485     12.194
REMARK SMILES Cn1ccc(-c2cn([C@@H]3O[C@H](COc4ccc5cnc(NC6CC6)nc5c4)[C@@H](O)[C@@H]3F)c3ncnc(N)c23)n1
REMARK SMILES IDX 12 1 11 4 9 5 10 6 30 7 28 9 31 10 8 14 6 15 7 16 38 17
REMARK SMILES IDX 32 19 36 20 33 21 35 22 34 23 5 25 2 26 3 27 39 28 4 29 1 32
REMARK SMILES IDX 37 36 29 39 13 41 14 42 15 43 27 44 16 45 26 47 17 49 25 51
REMARK SMILES IDX 18 52 20 53 19 54 21 56 22 58 23 59 24 60
REMARK H PARENT 12 2 12 3 9 8 30 11 11 12 28 13 7 18 34 24 3 30 4 31 1 33 1 34
REMARK H PARENT 1 35 37 37 37 38 29 40 15 46 27 48 16 50 18 55 21 57 22 61
REMARK H PARENT 23 62 23 63 24 64 24 65
REMARK Flexibility Score: inf
ROOT
ATOM      1  C   UNL     1     -47.036  33.849  26.961  1.00  0.00     0.117 C 
ATOM      2  H   UNL     1     -46.046  34.224  26.676  1.00  0.00     0.073 H 
ATOM      3  H   UNL     1     -46.928  32.914  27.525  1.00  0.00     0.073 H 
ENDROOT
BRANCH   1   4
ATOM      4  C   UNL     1     -47.858  33.572  25.702  1.00  0.00     0.123 C 
ATOM      5  C   UNL     1     -48.074  31.952  24.035  1.00  0.00     0.169 C 
ATOM      6  O   UNL     1     -47.116  32.757  24.770  1.00  0.00    -0.345 OA
ATOM      7  C   UNL     1     -49.460  32.279  24.581  1.00  0.00     0.173 C 
ATOM      8  H   UNL     1     -47.989  32.239  22.981  1.00  0.00     0.088 H 
ATOM      9  C   UNL     1     -49.159  32.826  25.960  1.00  0.00     0.119 C 
ATOM     10  F   UNL     1     -50.280  31.207  24.682  1.00  0.00    -0.239 F 
ATOM     11  H   UNL     1     -49.964  33.030  23.963  1.00  0.00     0.074 H 
ATOM     12  H   UNL     1     -48.061  34.532  25.210  1.00  0.00     0.067 H 
ATOM     13  H   UNL     1     -49.043  32.007  26.679  1.00  0.00     0.066 H 
BRANCH   5  14
ATOM     14  N   UNL     1     -47.706  30.549  24.147  1.00  0.00    -0.302 N 
ATOM     15  C   UNL     1     -47.678  28.386  24.701  1.00  0.00     0.033 A 
ATOM     16  C   UNL     1     -48.306  29.598  24.932  1.00  0.00     0.019 A 
ATOM     17  C   UNL     1     -46.625  28.621  23.760  1.00  0.00     0.071 A 
ATOM     18  H   UNL     1     -49.138  29.851  25.574  1.00  0.00     0.083 H 
ATOM     19  C   UNL     1     -46.697  29.969  23.420  1.00  0.00     0.148 A 
ATOM     20  C   UNL     1     -45.611  27.882  23.125  1.00  0.00     0.137 A 
ATOM     21  N   UNL     1     -45.922  30.619  22.533  1.00  0.00    -0.218 NA
ATOM     22  N   UNL     1     -44.826  28.491  22.213  1.00  0.00    -0.219 NA
ATOM     23  C   UNL     1     -45.019  29.800  21.974  1.00  0.00     0.120 A 
ATOM     24  H   UNL     1     -44.359  30.249  21.238  1.00  0.00     0.106 H 
BRANCH  15  25
ATOM     25  C   UNL     1     -48.050  27.098  25.299  1.00  0.00     0.095 A 
ATOM     26  N   UNL     1     -47.943  25.228  26.285  1.00  0.00    -0.275 N 
ATOM     27  C   UNL     1     -49.251  25.343  25.923  1.00  0.00     0.025 A 
ATOM     28  N   UNL     1     -47.186  26.275  25.909  1.00  0.00    -0.173 NA
ATOM     29  C   UNL     1     -49.355  26.551  25.273  1.00  0.00    -0.016 A 
ATOM     30  H   UNL     1     -49.982  24.578  26.147  1.00  0.00     0.084 H 
ATOM     31  H   UNL     1     -50.249  26.973  24.840  1.00  0.00     0.066 H 
BRANCH  26  32
ATOM     32  C   UNL     1     -47.333  24.131  26.998  1.00  0.00     0.030 C 
ATOM     33  H   UNL     1     -46.250  24.273  26.985  1.00  0.00     0.048 H 
ATOM     34  H   UNL     1     -47.711  24.134  28.023  1.00  0.00     0.048 H 
ATOM     35  H   UNL     1     -47.593  23.190  26.507  1.00  0.00     0.048 H 
ENDBRANCH  26  32
ENDBRANCH  15  25
BRANCH  20  36
ATOM     36  N   UNL     1     -45.351  26.542  23.372  1.00  0.00    -0.383 N 
ATOM     37  H   UNL     1     -45.008  26.380  24.324  1.00  0.00     0.158 HD
ATOM     38  H   UNL     1     -46.098  25.948  23.044  1.00  0.00     0.158 HD
ENDBRANCH  20  36
ENDBRANCH   5  14
BRANCH   9  39
ATOM     39  O   UNL     1     -50.181  33.697  26.432  1.00  0.00    -0.387 OA
ATOM     40  H   UNL     1     -50.418  33.393  27.328  1.00  0.00     0.211 HD
ENDBRANCH   9  39
ENDBRANCH   1   4
BRANCH   1  41
ATOM     41  O   UNL     1     -47.709  34.827  27.770  1.00  0.00    -0.491 OA
BRANCH  41  42
ATOM     42  C   UNL     1     -46.872  35.821  28.197  1.00  0.00     0.121 A 
ATOM     43  C   UNL     1     -46.514  35.810  29.541  1.00  0.00    -0.019 A 
ATOM     44  C   UNL     1     -46.437  36.849  27.357  1.00  0.00     0.007 A 
ATOM     45  C   UNL     1     -45.689  36.815  30.035  1.00  0.00    -0.048 A 
ATOM     46  H   UNL     1     -46.862  35.015  30.193  1.00  0.00     0.066 H 
ATOM     47  C   UNL     1     -45.613  37.864  27.828  1.00  0.00     0.079 A 
ATOM     48  H   UNL     1     -46.754  36.881  26.319  1.00  0.00     0.069 H 
ATOM     49  C   UNL     1     -45.241  37.835  29.173  1.00  0.00     0.019 A 
ATOM     50  H   UNL     1     -45.398  36.804  31.082  1.00  0.00     0.063 H 
ATOM     51  N   UNL     1     -45.204  38.830  26.993  1.00  0.00    -0.213 NA
ATOM     52  C   UNL     1     -44.421  38.874  29.572  1.00  0.00     0.040 A 
ATOM     53  C   UNL     1     -44.408  39.799  27.477  1.00  0.00     0.223 A 
ATOM     54  N   UNL     1     -43.998  39.852  28.751  1.00  0.00    -0.221 NA
ATOM     55  H   UNL     1     -44.068  38.960  30.596  1.00  0.00     0.085 H 
BRANCH  53  56
ATOM     56  N   UNL     1     -44.041  40.772  26.544  1.00  0.00    -0.351 N 
ATOM     57  H   UNL     1     -43.346  40.329  25.952  1.00  0.00     0.163 HD
BRANCH  56  58
ATOM     58  C   UNL     1     -43.918  42.204  26.796  1.00  0.00     0.029 C 
ATOM     59  C   UNL     1     -42.823  42.842  27.598  1.00  0.00    -0.031 C 
ATOM     60  C   UNL     1     -42.920  43.094  26.116  1.00  0.00    -0.031 C 
ATOM     61  H   UNL     1     -44.906  42.635  26.956  1.00  0.00     0.053 H 
ATOM     62  H   UNL     1     -43.094  43.648  28.269  1.00  0.00     0.029 H 
ATOM     63  H   UNL     1     -42.010  42.227  27.962  1.00  0.00     0.029 H 
ATOM     64  H   UNL     1     -43.254  44.072  25.789  1.00  0.00     0.029 H 
ATOM     65  H   UNL     1     -42.164  42.651  25.480  1.00  0.00     0.029 H 
ENDBRANCH  56  58
ENDBRANCH  53  56
ENDBRANCH  41  42
ENDBRANCH   1  41
TORSDOF 10
ENDMDL
MODEL 6
REMARK VINA RESULT:      -8.5      3.345      5.086
REMARK SMILES Cn1ccc(-c2cn([C@@H]3O[C@H](COc4ccc5cnc(NC6CC6)nc5c4)[C@@H](O)[C@@H]3F)c3ncnc(N)c23)n1
REMARK SMILES IDX 12 1 11 4 9 5 10 6 30 7 28 9 31 10 8 14 6 15 7 16 38 17
REMARK SMILES IDX 32 19 36 20 33 21 35 22 34 23 5 25 2 26 3 27 39 28 4 29 1 32
REMARK SMILES IDX 37 36 29 39 13 41 14 42 15 43 27 44 16 45 26 47 17 49 25 51
REMARK SMILES IDX 18 52 20 53 19 54 21 56 22 58 23 59 24 60
REMARK H PARENT 12 2 12 3 9 8 30 11 11 12 28 13 7 18 34 24 3 30 4 31 1 33 1 34
REMARK H PARENT 1 35 37 37 37 38 29 40 15 46 27 48 16 50 18 55 21 57 22 61
REMARK H PARENT 23 62 23 63 24 64 24 65
REMARK Flexibility Score: inf
ROOT
ATOM      1  C   UNL     1     -49.053  32.305  24.846  1.00  0.00     0.117 C 
ATOM      2  H   UNL     1     -49.747  33.152  24.890  1.00  0.00     0.073 H 
ATOM      3  H   UNL     1     -49.456  31.466  25.428  1.00  0.00     0.073 H 
ENDROOT
BRANCH   1   4
ATOM      4  C   UNL     1     -47.707  32.717  25.445  1.00  0.00     0.123 C 
ATOM      5  C   UNL     1     -46.662  34.595  26.357  1.00  0.00     0.169 C 
ATOM      6  O   UNL     1     -47.460  34.124  25.239  1.00  0.00    -0.345 OA
ATOM      7  C   UNL     1     -46.451  33.412  27.297  1.00  0.00     0.173 C 
ATOM      8  H   UNL     1     -45.710  34.944  25.944  1.00  0.00     0.088 H 
ATOM      9  C   UNL     1     -47.600  32.492  26.946  1.00  0.00     0.119 C 
ATOM     10  F   UNL     1     -46.507  33.736  28.611  1.00  0.00    -0.239 F 
ATOM     11  H   UNL     1     -45.488  32.925  27.112  1.00  0.00     0.074 H 
ATOM     12  H   UNL     1     -46.917  32.164  24.920  1.00  0.00     0.067 H 
ATOM     13  H   UNL     1     -48.507  32.789  27.486  1.00  0.00     0.066 H 
BRANCH   5  14
ATOM     14  N   UNL     1     -47.326  35.734  26.973  1.00  0.00    -0.302 N 
ATOM     15  C   UNL     1     -48.876  37.108  27.806  1.00  0.00     0.033 A 
ATOM     16  C   UNL     1     -48.677  35.919  27.126  1.00  0.00     0.019 A 
ATOM     17  C   UNL     1     -47.589  37.688  28.042  1.00  0.00     0.071 A 
ATOM     18  H   UNL     1     -49.383  35.187  26.761  1.00  0.00     0.083 H 
ATOM     19  C   UNL     1     -46.655  36.790  27.536  1.00  0.00     0.148 A 
ATOM     20  C   UNL     1     -47.063  38.855  28.627  1.00  0.00     0.137 A 
ATOM     21  N   UNL     1     -45.316  36.909  27.578  1.00  0.00    -0.218 NA
ATOM     22  N   UNL     1     -45.725  39.003  28.709  1.00  0.00    -0.219 NA
ATOM     23  C   UNL     1     -44.941  38.044  28.188  1.00  0.00     0.120 A 
ATOM     24  H   UNL     1     -43.871  38.211  28.270  1.00  0.00     0.106 H 
BRANCH  15  25
ATOM     25  C   UNL     1     -50.175  37.651  28.224  1.00  0.00     0.095 A 
ATOM     26  N   UNL     1     -51.747  38.996  28.672  1.00  0.00    -0.275 N 
ATOM     27  C   UNL     1     -52.242  37.773  29.014  1.00  0.00     0.025 A 
ATOM     28  N   UNL     1     -50.488  38.954  28.199  1.00  0.00    -0.173 NA
ATOM     29  C   UNL     1     -51.239  36.873  28.738  1.00  0.00    -0.016 A 
ATOM     30  H   UNL     1     -53.236  37.645  29.416  1.00  0.00     0.084 H 
ATOM     31  H   UNL     1     -51.274  35.805  28.891  1.00  0.00     0.066 H 
BRANCH  26  32
ATOM     32  C   UNL     1     -52.425  40.266  28.773  1.00  0.00     0.030 C 
ATOM     33  H   UNL     1     -52.393  40.590  29.816  1.00  0.00     0.048 H 
ATOM     34  H   UNL     1     -51.909  40.984  28.130  1.00  0.00     0.048 H 
ATOM     35  H   UNL     1     -53.462  40.151  28.449  1.00  0.00     0.048 H 
ENDBRANCH  26  32
ENDBRANCH  15  25
BRANCH  20  36
ATOM     36  N   UNL     1     -47.835  39.887  29.139  1.00  0.00    -0.383 N 
ATOM     37  H   UNL     1     -47.290  40.739  29.299  1.00  0.00     0.158 HD
ATOM     38  H   UNL     1     -48.708  39.985  28.641  1.00  0.00     0.158 HD
ENDBRANCH  20  36
ENDBRANCH   5  14
BRANCH   9  39
ATOM     39  O   UNL     1     -47.318  31.132  27.256  1.00  0.00    -0.387 OA
ATOM     40  H   UNL     1     -47.184  31.085  28.222  1.00  0.00     0.211 HD
ENDBRANCH   9  39
ENDBRANCH   1   4
BRANCH   1  41
ATOM     41  O   UNL     1     -48.868  31.901  23.480  1.00  0.00    -0.491 OA
BRANCH  41  42
ATOM     42  C   UNL     1     -47.882  30.963  23.339  1.00  0.00     0.121 A 
ATOM     43  C   UNL     1     -46.831  31.276  22.485  1.00  0.00    -0.019 A 
ATOM     44  C   UNL     1     -47.941  29.713  23.961  1.00  0.00     0.007 A 
ATOM     45  C   UNL     1     -45.817  30.346  22.281  1.00  0.00    -0.048 A 
ATOM     46  H   UNL     1     -46.795  32.244  21.994  1.00  0.00     0.066 H 
ATOM     47  C   UNL     1     -46.940  28.767  23.773  1.00  0.00     0.079 A 
ATOM     48  H   UNL     1     -48.785  29.453  24.593  1.00  0.00     0.069 H 
ATOM     49  C   UNL     1     -45.877  29.097  22.930  1.00  0.00     0.019 A 
ATOM     50  H   UNL     1     -44.988  30.591  21.622  1.00  0.00     0.063 H 
ATOM     51  N   UNL     1     -47.020  27.582  24.394  1.00  0.00    -0.213 NA
ATOM     52  C   UNL     1     -44.919  28.110  22.789  1.00  0.00     0.040 A 
ATOM     53  C   UNL     1     -46.037  26.687  24.192  1.00  0.00     0.223 A 
ATOM     54  N   UNL     1     -44.979  26.915  23.403  1.00  0.00    -0.221 NA
ATOM     55  H   UNL     1     -44.046  28.250  22.157  1.00  0.00     0.085 H 
BRANCH  53  56
ATOM     56  N   UNL     1     -46.207  25.473  24.864  1.00  0.00    -0.351 N 
ATOM     57  H   UNL     1     -45.878  24.761  24.221  1.00  0.00     0.163 HD
BRANCH  56  58
ATOM     58  C   UNL     1     -47.303  25.135  25.765  1.00  0.00     0.029 C 
ATOM     59  C   UNL     1     -47.136  24.633  27.169  1.00  0.00    -0.031 C 
ATOM     60  C   UNL     1     -47.737  25.992  26.919  1.00  0.00    -0.031 C 
ATOM     61  H   UNL     1     -48.104  24.654  25.205  1.00  0.00     0.053 H 
ATOM     62  H   UNL     1     -47.794  23.840  27.502  1.00  0.00     0.029 H 
ATOM     63  H   UNL     1     -46.142  24.582  27.594  1.00  0.00     0.029 H 
ATOM     64  H   UNL     1     -48.800  26.114  27.086  1.00  0.00     0.029 H 
ATOM     65  H   UNL     1     -47.146  26.859  27.184  1.00  0.00     0.029 H 
ENDBRANCH  56  58
ENDBRANCH  53  56
ENDBRANCH  41  42
ENDBRANCH   1  41
TORSDOF 10
ENDMDL
MODEL 7
REMARK VINA RESULT:      -8.3      3.697      6.982
REMARK SMILES Cn1ccc(-c2cn([C@@H]3O[C@H](COc4ccc5cnc(NC6CC6)nc5c4)[C@@H](O)[C@@H]3F)c3ncnc(N)c23)n1
REMARK SMILES IDX 12 1 11 4 9 5 10 6 30 7 28 9 31 10 8 14 6 15 7 16 38 17
REMARK SMILES IDX 32 19 36 20 33 21 35 22 34 23 5 25 2 26 3 27 39 28 4 29 1 32
REMARK SMILES IDX 37 36 29 39 13 41 14 42 15 43 27 44 16 45 26 47 17 49 25 51
REMARK SMILES IDX 18 52 20 53 19 54 21 56 22 58 23 59 24 60
REMARK H PARENT 12 2 12 3 9 8 30 11 11 12 28 13 7 18 34 24 3 30 4 31 1 33 1 34
REMARK H PARENT 1 35 37 37 37 38 29 40 15 46 27 48 16 50 18 55 21 57 22 61
REMARK H PARENT 23 62 23 63 24 64 24 65
REMARK Flexibility Score: inf
ROOT
ATOM      1  C   UNL     1     -43.796  40.299  27.184  1.00  0.00     0.117 C 
ATOM      2  H   UNL     1     -42.959  40.057  27.849  1.00  0.00     0.073 H 
ATOM      3  H   UNL     1     -43.956  39.475  26.477  1.00  0.00     0.073 H 
ENDROOT
BRANCH   1   4
ATOM      4  C   UNL     1     -43.470  41.567  26.393  1.00  0.00     0.123 C 
ATOM      5  C   UNL     1     -44.547  43.207  25.129  1.00  0.00     0.169 C 
ATOM      6  O   UNL     1     -44.426  41.775  25.334  1.00  0.00    -0.345 OA
ATOM      7  C   UNL     1     -43.638  43.892  26.146  1.00  0.00     0.173 C 
ATOM      8  H   UNL     1     -44.216  43.412  24.105  1.00  0.00     0.088 H 
ATOM      9  C   UNL     1     -43.488  42.841  27.225  1.00  0.00     0.119 C 
ATOM     10  F   UNL     1     -44.158  45.023  26.676  1.00  0.00    -0.239 F 
ATOM     11  H   UNL     1     -42.668  44.143  25.705  1.00  0.00     0.074 H 
ATOM     12  H   UNL     1     -42.486  41.432  25.926  1.00  0.00     0.067 H 
ATOM     13  H   UNL     1     -44.335  42.883  27.920  1.00  0.00     0.066 H 
BRANCH   5  14
ATOM     14  N   UNL     1     -45.947  43.589  25.231  1.00  0.00    -0.302 N 
ATOM     15  C   UNL     1     -48.085  43.721  25.865  1.00  0.00     0.033 A 
ATOM     16  C   UNL     1     -46.900  43.027  26.042  1.00  0.00     0.019 A 
ATOM     17  C   UNL     1     -47.848  44.726  24.873  1.00  0.00     0.071 A 
ATOM     18  H   UNL     1     -46.658  42.197  26.691  1.00  0.00     0.083 H 
ATOM     19  C   UNL     1     -46.503  44.629  24.529  1.00  0.00     0.148 A 
ATOM     20  C   UNL     1     -48.580  45.728  24.210  1.00  0.00     0.137 A 
ATOM     21  N   UNL     1     -45.835  45.408  23.659  1.00  0.00    -0.218 NA
ATOM     22  N   UNL     1     -47.942  46.546  23.347  1.00  0.00    -0.219 NA
ATOM     23  C   UNL     1     -46.632  46.343  23.121  1.00  0.00     0.120 A 
ATOM     24  H   UNL     1     -46.164  47.020  22.413  1.00  0.00     0.106 H 
BRANCH  15  25
ATOM     25  C   UNL     1     -49.340  43.477  26.586  1.00  0.00     0.095 A 
ATOM     26  N   UNL     1     -51.097  43.769  27.729  1.00  0.00    -0.275 N 
ATOM     27  C   UNL     1     -51.066  42.427  27.498  1.00  0.00     0.025 A 
ATOM     28  N   UNL     1     -50.053  44.432  27.197  1.00  0.00    -0.173 NA
ATOM     29  C   UNL     1     -49.929  42.202  26.757  1.00  0.00    -0.016 A 
ATOM     30  H   UNL     1     -51.830  41.760  27.869  1.00  0.00     0.084 H 
ATOM     31  H   UNL     1     -49.576  41.248  26.395  1.00  0.00     0.066 H 
BRANCH  26  32
ATOM     32  C   UNL     1     -52.101  44.500  28.464  1.00  0.00     0.030 C 
ATOM     33  H   UNL     1     -51.613  45.015  29.295  1.00  0.00     0.048 H 
ATOM     34  H   UNL     1     -52.569  45.219  27.787  1.00  0.00     0.048 H 
ATOM     35  H   UNL     1     -52.852  43.804  28.846  1.00  0.00     0.048 H 
ENDBRANCH  26  32
ENDBRANCH  15  25
BRANCH  20  36
ATOM     36  N   UNL     1     -49.939  45.945  24.382  1.00  0.00    -0.383 N 
ATOM     37  H   UNL     1     -50.269  46.771  23.875  1.00  0.00     0.158 HD
ATOM     38  H   UNL     1     -50.471  45.094  24.273  1.00  0.00     0.158 HD
ENDBRANCH  20  36
ENDBRANCH   5  14
BRANCH   9  39
ATOM     39  O   UNL     1     -42.287  43.000  27.972  1.00  0.00    -0.387 OA
ATOM     40  H   UNL     1     -42.500  42.783  28.898  1.00  0.00     0.211 HD
ENDBRANCH   9  39
ENDBRANCH   1   4
BRANCH   1  41
ATOM     41  O   UNL     1     -44.987  40.509  27.960  1.00  0.00    -0.491 OA
BRANCH  41  42
ATOM     42  C   UNL     1     -45.860  39.459  27.875  1.00  0.00     0.121 A 
ATOM     43  C   UNL     1     -47.213  39.754  27.994  1.00  0.00    -0.019 A 
ATOM     44  C   UNL     1     -45.432  38.135  27.744  1.00  0.00     0.007 A 
ATOM     45  C   UNL     1     -48.143  38.721  27.945  1.00  0.00    -0.048 A 
ATOM     46  H   UNL     1     -47.541  40.783  28.107  1.00  0.00     0.066 H 
ATOM     47  C   UNL     1     -46.342  37.086  27.693  1.00  0.00     0.079 A 
ATOM     48  H   UNL     1     -44.373  37.903  27.696  1.00  0.00     0.069 H 
ATOM     49  C   UNL     1     -47.701  37.392  27.792  1.00  0.00     0.019 A 
ATOM     50  H   UNL     1     -49.203  38.948  28.027  1.00  0.00     0.063 H 
ATOM     51  N   UNL     1     -45.900  35.828  27.555  1.00  0.00    -0.213 NA
ATOM     52  C   UNL     1     -48.547  36.301  27.735  1.00  0.00     0.040 A 
ATOM     53  C   UNL     1     -46.804  34.834  27.510  1.00  0.00     0.223 A 
ATOM     54  N   UNL     1     -48.125  35.032  27.595  1.00  0.00    -0.221 NA
ATOM     55  H   UNL     1     -49.626  36.413  27.803  1.00  0.00     0.085 H 
BRANCH  53  56
ATOM     56  N   UNL     1     -46.256  33.555  27.380  1.00  0.00    -0.351 N 
ATOM     57  H   UNL     1     -45.347  33.605  27.827  1.00  0.00     0.163 HD
BRANCH  56  58
ATOM     58  C   UNL     1     -46.414  32.664  26.235  1.00  0.00     0.029 C 
ATOM     59  C   UNL     1     -47.660  32.540  25.410  1.00  0.00    -0.031 C 
ATOM     60  C   UNL     1     -46.411  33.125  24.806  1.00  0.00    -0.031 C 
ATOM     61  H   UNL     1     -45.904  31.722  26.429  1.00  0.00     0.053 H 
ATOM     62  H   UNL     1     -47.960  31.548  25.097  1.00  0.00     0.029 H 
ATOM     63  H   UNL     1     -48.493  33.203  25.611  1.00  0.00     0.029 H 
ATOM     64  H   UNL     1     -45.870  32.528  24.083  1.00  0.00     0.029 H 
ATOM     65  H   UNL     1     -46.405  34.187  24.594  1.00  0.00     0.029 H 
ENDBRANCH  56  58
ENDBRANCH  53  56
ENDBRANCH  41  42
ENDBRANCH   1  41
TORSDOF 10
ENDMDL
