MODEL 1
REMARK VINA RESULT:      -9.8      0.000      0.000
REMARK SMILES COCCN(C)C(=O)c1cn([C@@H]2O[C@H](COc3ccc4ccc(N5CCC5)nc4c3)[C@@H](O)[C@@H]2F)c2ncnc(N)c12
REMARK SMILES IDX 9 1 10 2 11 3 35 4 36 5 37 6 38 7 39 8 41 9 7 12 8 13 5 14
REMARK SMILES IDX 4 15 3 18 2 21 1 22 6 26 12 30 13 31 33 32 14 34 31 35 34 36
REMARK SMILES IDX 15 40 16 43 17 44 18 45 30 46 19 47 29 49 20 51 28 53 21 54
REMARK SMILES IDX 23 55 22 56 24 59 25 60 27 61 26 62 32 69 40 71
REMARK H PARENT 10 10 37 11 4 16 4 17 3 19 3 20 1 23 1 24 1 25 6 27 6 28 6 29
REMARK H PARENT 12 33 33 37 14 38 31 39 15 41 15 42 18 48 30 50 19 52 21 57
REMARK H PARENT 22 58 25 63 25 64 27 65 27 66 26 67 26 68 32 70 40 72 40 73
REMARK Flexibility Score: inf
ROOT
ATOM      1  C   UNL     1     -44.644  40.883  27.025  1.00  0.00     0.071 A 
ATOM      2  C   UNL     1     -45.211  39.639  27.256  1.00  0.00     0.022 A 
ATOM      3  N   UNL     1     -44.631  39.099  28.374  1.00  0.00    -0.302 N 
ATOM      4  C   UNL     1     -43.653  39.944  28.834  1.00  0.00     0.148 A 
ATOM      5  N   UNL     1     -42.873  39.712  29.904  1.00  0.00    -0.218 NA
ATOM      6  C   UNL     1     -41.990  40.706  30.093  1.00  0.00     0.120 A 
ATOM      7  N   UNL     1     -41.830  41.827  29.364  1.00  0.00    -0.219 NA
ATOM      8  C   UNL     1     -42.645  42.027  28.309  1.00  0.00     0.137 A 
ATOM      9  C   UNL     1     -43.616  41.059  28.007  1.00  0.00     0.074 A 
ATOM     10  H   UNL     1     -45.997  39.123  26.721  1.00  0.00     0.083 H 
ATOM     11  H   UNL     1     -41.317  40.593  30.937  1.00  0.00     0.106 H 
ENDROOT
BRANCH   1  12
ATOM     12  C   UNL     1     -45.025  41.755  25.920  1.00  0.00     0.256 C 
ATOM     13  O   UNL     1     -44.336  41.791  24.901  1.00  0.00    -0.269 OA
BRANCH  12  14
ATOM     14  N   UNL     1     -46.154  42.570  26.077  1.00  0.00    -0.339 N 
BRANCH  14  15
ATOM     15  C   UNL     1     -47.480  42.030  26.426  1.00  0.00     0.044 C 
ATOM     16  H   UNL     1     -47.783  41.272  25.704  1.00  0.00     0.052 H 
ATOM     17  H   UNL     1     -47.385  41.533  27.398  1.00  0.00     0.052 H 
BRANCH  15  18
ATOM     18  C   UNL     1     -48.584  43.095  26.493  1.00  0.00     0.064 C 
ATOM     19  H   UNL     1     -48.894  43.215  27.537  1.00  0.00     0.059 H 
ATOM     20  H   UNL     1     -48.220  44.060  26.123  1.00  0.00     0.059 H 
BRANCH  18  21
ATOM     21  O   UNL     1     -49.710  42.683  25.717  1.00  0.00    -0.383 OA
BRANCH  21  22
ATOM     22  C   UNL     1     -50.626  41.911  26.480  1.00  0.00     0.036 C 
ATOM     23  H   UNL     1     -50.154  41.556  27.401  1.00  0.00     0.053 H 
ATOM     24  H   UNL     1     -51.518  42.498  26.713  1.00  0.00     0.053 H 
ATOM     25  H   UNL     1     -50.921  41.044  25.885  1.00  0.00     0.053 H 
ENDBRANCH  21  22
ENDBRANCH  18  21
ENDBRANCH  15  18
ENDBRANCH  14  15
BRANCH  14  26
ATOM     26  C   UNL     1     -46.139  43.840  25.374  1.00  0.00     0.010 C 
ATOM     27  H   UNL     1     -46.279  43.686  24.299  1.00  0.00     0.046 H 
ATOM     28  H   UNL     1     -45.175  44.335  25.531  1.00  0.00     0.046 H 
ATOM     29  H   UNL     1     -46.950  44.471  25.748  1.00  0.00     0.046 H 
ENDBRANCH  14  26
ENDBRANCH  12  14
ENDBRANCH   1  12
BRANCH   3  30
ATOM     30  C   UNL     1     -44.978  37.847  29.025  1.00  0.00     0.169 C 
ATOM     31  O   UNL     1     -45.054  36.781  28.046  1.00  0.00    -0.345 OA
ATOM     32  C   UNL     1     -46.309  37.895  29.765  1.00  0.00     0.173 C 
ATOM     33  H   UNL     1     -44.156  37.579  29.700  1.00  0.00     0.088 H 
ATOM     34  C   UNL     1     -46.251  36.024  28.311  1.00  0.00     0.123 C 
ATOM     35  C   UNL     1     -46.760  36.456  29.689  1.00  0.00     0.119 C 
ATOM     36  F   UNL     1     -47.220  38.659  29.099  1.00  0.00    -0.239 F 
ATOM     37  H   UNL     1     -46.209  38.288  30.781  1.00  0.00     0.074 H 
ATOM     38  H   UNL     1     -45.982  34.961  28.320  1.00  0.00     0.067 H 
ATOM     39  H   UNL     1     -47.841  36.344  29.812  1.00  0.00     0.066 H 
BRANCH  34  40
ATOM     40  C   UNL     1     -47.252  36.279  27.177  1.00  0.00     0.117 C 
ATOM     41  H   UNL     1     -47.829  37.190  27.372  1.00  0.00     0.073 H 
ATOM     42  H   UNL     1     -46.686  36.427  26.248  1.00  0.00     0.073 H 
BRANCH  40  43
ATOM     43  O   UNL     1     -48.115  35.150  27.057  1.00  0.00    -0.491 OA
BRANCH  43  44
ATOM     44  C   UNL     1     -47.708  34.144  26.224  1.00  0.00     0.121 A 
ATOM     45  C   UNL     1     -46.541  34.134  25.466  1.00  0.00    -0.019 A 
ATOM     46  C   UNL     1     -48.570  33.043  26.171  1.00  0.00     0.007 A 
ATOM     47  C   UNL     1     -46.249  33.032  24.659  1.00  0.00    -0.049 A 
ATOM     48  H   UNL     1     -45.835  34.958  25.480  1.00  0.00     0.066 H 
ATOM     49  C   UNL     1     -48.305  31.936  25.376  1.00  0.00     0.076 A 
ATOM     50  H   UNL     1     -49.480  33.048  26.765  1.00  0.00     0.069 H 
ATOM     51  C   UNL     1     -47.125  31.935  24.611  1.00  0.00     0.001 A 
ATOM     52  H   UNL     1     -45.334  33.034  24.071  1.00  0.00     0.063 H 
ATOM     53  N   UNL     1     -49.173  30.908  25.364  1.00  0.00    -0.231 NA
ATOM     54  C   UNL     1     -46.866  30.819  23.814  1.00  0.00    -0.049 A 
ATOM     55  C   UNL     1     -48.912  29.827  24.594  1.00  0.00     0.129 A 
ATOM     56  C   UNL     1     -47.768  29.758  23.805  1.00  0.00    -0.019 A 
ATOM     57  H   UNL     1     -45.973  30.764  23.198  1.00  0.00     0.063 H 
ATOM     58  H   UNL     1     -47.580  28.894  23.178  1.00  0.00     0.066 H 
BRANCH  55  59
ATOM     59  N   UNL     1     -49.837  28.766  24.582  1.00  0.00    -0.356 N 
ATOM     60  C   UNL     1     -50.434  28.169  23.423  1.00  0.00     0.021 C 
ATOM     61  C   UNL     1     -49.609  27.491  25.203  1.00  0.00     0.021 C 
ATOM     62  C   UNL     1     -50.735  26.957  24.312  1.00  0.00    -0.018 C 
ATOM     63  H   UNL     1     -51.305  28.712  23.050  1.00  0.00     0.049 H 
ATOM     64  H   UNL     1     -49.714  27.986  22.618  1.00  0.00     0.049 H 
ATOM     65  H   UNL     1     -49.808  27.488  26.277  1.00  0.00     0.049 H 
ATOM     66  H   UNL     1     -48.617  27.079  24.989  1.00  0.00     0.049 H 
ATOM     67  H   UNL     1     -51.727  26.973  24.778  1.00  0.00     0.030 H 
ATOM     68  H   UNL     1     -50.560  25.978  23.858  1.00  0.00     0.030 H 
ENDBRANCH  55  59
ENDBRANCH  43  44
ENDBRANCH  40  43
ENDBRANCH  34  40
BRANCH  35  69
ATOM     69  O   UNL     1     -46.115  35.709  30.728  1.00  0.00    -0.387 OA
ATOM     70  H   UNL     1     -45.719  36.353  31.346  1.00  0.00     0.211 HD
ENDBRANCH  35  69
ENDBRANCH   3  30
BRANCH   8  71
ATOM     71  N   UNL     1     -42.454  43.194  27.585  1.00  0.00    -0.383 N 
ATOM     72  H   UNL     1     -42.911  43.979  28.034  1.00  0.00     0.158 HD
ATOM     73  H   UNL     1     -41.509  43.347  27.256  1.00  0.00     0.158 HD
ENDBRANCH   8  71
TORSDOF 14
ENDMDL
MODEL 2
REMARK VINA RESULT:      -9.0      2.797     11.244
REMARK SMILES COCCN(C)C(=O)c1cn([C@@H]2O[C@H](COc3ccc4ccc(N5CCC5)nc4c3)[C@@H](O)[C@@H]2F)c2ncnc(N)c12
REMARK SMILES IDX 9 1 10 2 11 3 35 4 36 5 37 6 38 7 39 8 41 9 7 12 8 13 5 14
REMARK SMILES IDX 4 15 3 18 2 21 1 22 6 26 12 30 13 31 33 32 14 34 31 35 34 36
REMARK SMILES IDX 15 40 16 43 17 44 18 45 30 46 19 47 29 49 20 51 28 53 21 54
REMARK SMILES IDX 23 55 22 56 24 59 25 60 27 61 26 62 32 69 40 71
REMARK H PARENT 10 10 37 11 4 16 4 17 3 19 3 20 1 23 1 24 1 25 6 27 6 28 6 29
REMARK H PARENT 12 33 33 37 14 38 31 39 15 41 15 42 18 48 30 50 19 52 21 57
REMARK H PARENT 22 58 25 63 25 64 27 65 27 66 26 67 26 68 32 70 40 72 40 73
REMARK Flexibility Score: inf
ROOT
ATOM      1  C   UNL     1     -49.602  31.376  23.402  1.00  0.00     0.071 A 
ATOM      2  C   UNL     1     -49.356  31.884  24.668  1.00  0.00     0.022 A 
ATOM      3  N   UNL     1     -48.009  31.824  24.907  1.00  0.00    -0.302 N 
ATOM      4  C   UNL     1     -47.383  31.224  23.844  1.00  0.00     0.148 A 
ATOM      5  N   UNL     1     -46.063  30.988  23.758  1.00  0.00    -0.218 NA
ATOM      6  C   UNL     1     -45.749  30.365  22.611  1.00  0.00     0.120 A 
ATOM      7  N   UNL     1     -46.574  29.987  21.616  1.00  0.00    -0.219 NA
ATOM      8  C   UNL     1     -47.889  30.259  21.736  1.00  0.00     0.137 A 
ATOM      9  C   UNL     1     -48.346  30.912  22.892  1.00  0.00     0.074 A 
ATOM     10  H   UNL     1     -50.042  32.305  25.392  1.00  0.00     0.083 H 
ATOM     11  H   UNL     1     -44.698  30.133  22.465  1.00  0.00     0.106 H 
ENDROOT
BRANCH   1  12
ATOM     12  C   UNL     1     -50.928  31.292  22.803  1.00  0.00     0.256 C 
ATOM     13  O   UNL     1     -51.460  32.302  22.342  1.00  0.00    -0.269 OA
BRANCH  12  14
ATOM     14  N   UNL     1     -51.583  30.053  22.815  1.00  0.00    -0.339 N 
BRANCH  14  15
ATOM     15  C   UNL     1     -51.264  28.996  23.791  1.00  0.00     0.044 C 
ATOM     16  H   UNL     1     -50.388  29.273  24.378  1.00  0.00     0.052 H 
ATOM     17  H   UNL     1     -52.110  28.924  24.484  1.00  0.00     0.052 H 
BRANCH  15  18
ATOM     18  C   UNL     1     -50.998  27.624  23.154  1.00  0.00     0.064 C 
ATOM     19  H   UNL     1     -51.870  26.983  23.323  1.00  0.00     0.059 H 
ATOM     20  H   UNL     1     -50.837  27.719  22.074  1.00  0.00     0.059 H 
BRANCH  18  21
ATOM     21  O   UNL     1     -49.851  27.020  23.752  1.00  0.00    -0.383 OA
BRANCH  21  22
ATOM     22  C   UNL     1     -49.476  27.673  24.957  1.00  0.00     0.036 C 
ATOM     23  H   UNL     1     -48.855  27.016  25.572  1.00  0.00     0.053 H 
ATOM     24  H   UNL     1     -48.941  28.602  24.736  1.00  0.00     0.053 H 
ATOM     25  H   UNL     1     -50.384  27.915  25.512  1.00  0.00     0.053 H 
ENDBRANCH  21  22
ENDBRANCH  18  21
ENDBRANCH  15  18
ENDBRANCH  14  15
BRANCH  14  26
ATOM     26  C   UNL     1     -52.168  29.618  21.560  1.00  0.00     0.010 C 
ATOM     27  H   UNL     1     -51.421  29.105  20.945  1.00  0.00     0.046 H 
ATOM     28  H   UNL     1     -52.536  30.486  21.006  1.00  0.00     0.046 H 
ATOM     29  H   UNL     1     -52.990  28.925  21.764  1.00  0.00     0.046 H 
ENDBRANCH  14  26
ENDBRANCH  12  14
ENDBRANCH   1  12
BRANCH   3  30
ATOM     30  C   UNL     1     -47.302  32.323  26.075  1.00  0.00     0.169 C 
ATOM     31  O   UNL     1     -48.215  33.039  26.943  1.00  0.00    -0.345 OA
ATOM     32  C   UNL     1     -46.151  33.260  25.733  1.00  0.00     0.173 C 
ATOM     33  H   UNL     1     -46.953  31.457  26.652  1.00  0.00     0.088 H 
ATOM     34  C   UNL     1     -47.570  34.265  27.344  1.00  0.00     0.123 C 
ATOM     35  C   UNL     1     -46.093  34.143  26.957  1.00  0.00     0.119 C 
ATOM     36  F   UNL     1     -46.451  34.045  24.659  1.00  0.00    -0.239 F 
ATOM     37  H   UNL     1     -45.223  32.723  25.515  1.00  0.00     0.074 H 
ATOM     38  H   UNL     1     -47.672  34.357  28.432  1.00  0.00     0.067 H 
ATOM     39  H   UNL     1     -45.611  35.105  26.763  1.00  0.00     0.066 H 
BRANCH  34  40
ATOM     40  C   UNL     1     -48.289  35.439  26.670  1.00  0.00     0.117 C 
ATOM     41  H   UNL     1     -47.690  35.831  25.840  1.00  0.00     0.073 H 
ATOM     42  H   UNL     1     -49.237  35.069  26.259  1.00  0.00     0.073 H 
BRANCH  40  43
ATOM     43  O   UNL     1     -48.532  36.454  27.642  1.00  0.00    -0.491 OA
BRANCH  43  44
ATOM     44  C   UNL     1     -47.441  36.970  28.285  1.00  0.00     0.121 A 
ATOM     45  C   UNL     1     -46.959  36.567  29.527  1.00  0.00    -0.019 A 
ATOM     46  C   UNL     1     -46.776  37.985  27.588  1.00  0.00     0.007 A 
ATOM     47  C   UNL     1     -45.826  37.183  30.063  1.00  0.00    -0.049 A 
ATOM     48  H   UNL     1     -47.432  35.779  30.103  1.00  0.00     0.066 H 
ATOM     49  C   UNL     1     -45.649  38.615  28.098  1.00  0.00     0.076 A 
ATOM     50  H   UNL     1     -47.150  38.299  26.617  1.00  0.00     0.069 H 
ATOM     51  C   UNL     1     -45.171  38.204  29.355  1.00  0.00     0.001 A 
ATOM     52  H   UNL     1     -45.457  36.860  31.034  1.00  0.00     0.063 H 
ATOM     53  N   UNL     1     -45.054  39.587  27.383  1.00  0.00    -0.231 NA
ATOM     54  C   UNL     1     -44.038  38.842  29.861  1.00  0.00    -0.049 A 
ATOM     55  C   UNL     1     -43.953  40.196  27.877  1.00  0.00     0.129 A 
ATOM     56  C   UNL     1     -43.426  39.848  29.117  1.00  0.00    -0.019 A 
ATOM     57  H   UNL     1     -43.626  38.571  30.829  1.00  0.00     0.063 H 
ATOM     58  H   UNL     1     -42.554  40.357  29.511  1.00  0.00     0.066 H 
BRANCH  55  59
ATOM     59  N   UNL     1     -43.351  41.220  27.122  1.00  0.00    -0.356 N 
ATOM     60  C   UNL     1     -43.945  42.475  26.761  1.00  0.00     0.021 C 
ATOM     61  C   UNL     1     -42.096  41.835  27.456  1.00  0.00     0.021 C 
ATOM     62  C   UNL     1     -42.517  42.984  26.534  1.00  0.00    -0.018 C 
ATOM     63  H   UNL     1     -44.576  42.420  25.871  1.00  0.00     0.049 H 
ATOM     64  H   UNL     1     -44.479  42.950  27.590  1.00  0.00     0.049 H 
ATOM     65  H   UNL     1     -41.228  41.258  27.133  1.00  0.00     0.049 H 
ATOM     66  H   UNL     1     -42.015  42.102  28.515  1.00  0.00     0.049 H 
ATOM     67  H   UNL     1     -42.162  42.888  25.501  1.00  0.00     0.030 H 
ATOM     68  H   UNL     1     -42.306  43.992  26.901  1.00  0.00     0.030 H 
ENDBRANCH  55  59
ENDBRANCH  43  44
ENDBRANCH  40  43
ENDBRANCH  34  40
BRANCH  35  69
ATOM     69  O   UNL     1     -45.350  33.472  27.982  1.00  0.00    -0.387 OA
ATOM     70  H   UNL     1     -45.044  34.151  28.612  1.00  0.00     0.211 HD
ENDBRANCH  35  69
ENDBRANCH   3  30
BRANCH   8  71
ATOM     71  N   UNL     1     -48.707  29.859  20.690  1.00  0.00    -0.383 N 
ATOM     72  H   UNL     1     -49.679  29.840  20.976  1.00  0.00     0.158 HD
ATOM     73  H   UNL     1     -48.504  30.289  19.796  1.00  0.00     0.158 HD
ENDBRANCH   8  71
TORSDOF 14
ENDMDL
MODEL 3
REMARK VINA RESULT:      -8.8      1.485      2.191
REMARK SMILES COCCN(C)C(=O)c1cn([C@@H]2O[C@H](COc3ccc4ccc(N5CCC5)nc4c3)[C@@H](O)[C@@H]2F)c2ncnc(N)c12
REMARK SMILES IDX 9 1 10 2 11 3 35 4 36 5 37 6 38 7 39 8 41 9 7 12 8 13 5 14
REMARK SMILES IDX 4 15 3 18 2 21 1 22 6 26 12 30 13 31 33 32 14 34 31 35 34 36
REMARK SMILES IDX 15 40 16 43 17 44 18 45 30 46 19 47 29 49 20 51 28 53 21 54
REMARK SMILES IDX 23 55 22 56 24 59 25 60 27 61 26 62 32 69 40 71
REMARK H PARENT 10 10 37 11 4 16 4 17 3 19 3 20 1 23 1 24 1 25 6 27 6 28 6 29
REMARK H PARENT 12 33 33 37 14 38 31 39 15 41 15 42 18 48 30 50 19 52 21 57
REMARK H PARENT 22 58 25 63 25 64 27 65 27 66 26 67 26 68 32 70 40 72 40 73
REMARK Flexibility Score: inf
ROOT
ATOM      1  C   UNL     1     -44.575  41.078  27.040  1.00  0.00     0.071 A 
ATOM      2  C   UNL     1     -45.158  39.855  27.339  1.00  0.00     0.022 A 
ATOM      3  N   UNL     1     -44.539  39.338  28.446  1.00  0.00    -0.302 N 
ATOM      4  C   UNL     1     -43.521  40.173  28.832  1.00  0.00     0.148 A 
ATOM      5  N   UNL     1     -42.698  39.956  29.872  1.00  0.00    -0.218 NA
ATOM      6  C   UNL     1     -41.785  40.934  29.988  1.00  0.00     0.120 A 
ATOM      7  N   UNL     1     -41.635  42.027  29.216  1.00  0.00    -0.219 NA
ATOM      8  C   UNL     1     -42.493  42.213  28.194  1.00  0.00     0.137 A 
ATOM      9  C   UNL     1     -43.499  41.260  27.968  1.00  0.00     0.074 A 
ATOM     10  H   UNL     1     -45.980  39.342  26.857  1.00  0.00     0.083 H 
ATOM     11  H   UNL     1     -41.076  40.832  30.803  1.00  0.00     0.106 H 
ENDROOT
BRANCH   1  12
ATOM     12  C   UNL     1     -44.987  41.923  25.927  1.00  0.00     0.256 C 
ATOM     13  O   UNL     1     -44.275  42.013  24.927  1.00  0.00    -0.269 OA
BRANCH  12  14
ATOM     14  N   UNL     1     -46.176  42.653  26.053  1.00  0.00    -0.339 N 
BRANCH  14  15
ATOM     15  C   UNL     1     -47.455  42.028  26.434  1.00  0.00     0.044 C 
ATOM     16  H   UNL     1     -47.787  41.338  25.657  1.00  0.00     0.052 H 
ATOM     17  H   UNL     1     -47.274  41.435  27.337  1.00  0.00     0.052 H 
BRANCH  15  18
ATOM     18  C   UNL     1     -48.585  43.035  26.693  1.00  0.00     0.064 C 
ATOM     19  H   UNL     1     -48.507  43.846  25.960  1.00  0.00     0.059 H 
ATOM     20  H   UNL     1     -49.566  42.560  26.583  1.00  0.00     0.059 H 
BRANCH  18  21
ATOM     21  O   UNL     1     -48.465  43.580  28.007  1.00  0.00    -0.383 OA
BRANCH  21  22
ATOM     22  C   UNL     1     -48.976  44.903  28.081  1.00  0.00     0.036 C 
ATOM     23  H   UNL     1     -50.069  44.891  28.119  1.00  0.00     0.053 H 
ATOM     24  H   UNL     1     -48.573  45.419  28.957  1.00  0.00     0.053 H 
ATOM     25  H   UNL     1     -48.665  45.440  27.183  1.00  0.00     0.053 H 
ENDBRANCH  21  22
ENDBRANCH  18  21
ENDBRANCH  15  18
ENDBRANCH  14  15
BRANCH  14  26
ATOM     26  C   UNL     1     -46.263  43.887  25.294  1.00  0.00     0.010 C 
ATOM     27  H   UNL     1     -45.890  44.730  25.885  1.00  0.00     0.046 H 
ATOM     28  H   UNL     1     -47.306  44.084  25.030  1.00  0.00     0.046 H 
ATOM     29  H   UNL     1     -45.656  43.798  24.388  1.00  0.00     0.046 H 
ENDBRANCH  14  26
ENDBRANCH  12  14
ENDBRANCH   1  12
BRANCH   3  30
ATOM     30  C   UNL     1     -44.883  38.114  29.152  1.00  0.00     0.169 C 
ATOM     31  O   UNL     1     -44.619  36.963  28.312  1.00  0.00    -0.345 OA
ATOM     32  C   UNL     1     -46.343  38.053  29.583  1.00  0.00     0.173 C 
ATOM     33  H   UNL     1     -44.209  38.022  30.013  1.00  0.00     0.088 H 
ATOM     34  C   UNL     1     -45.755  36.080  28.406  1.00  0.00     0.123 C 
ATOM     35  C   UNL     1     -46.605  36.565  29.584  1.00  0.00     0.119 C 
ATOM     36  F   UNL     1     -47.160  38.624  28.654  1.00  0.00    -0.239 F 
ATOM     37  H   UNL     1     -46.518  38.547  30.543  1.00  0.00     0.074 H 
ATOM     38  H   UNL     1     -45.379  35.068  28.598  1.00  0.00     0.067 H 
ATOM     39  H   UNL     1     -47.667  36.322  29.488  1.00  0.00     0.066 H 
BRANCH  34  40
ATOM     40  C   UNL     1     -46.497  36.095  27.064  1.00  0.00     0.117 C 
ATOM     41  H   UNL     1     -46.398  37.075  26.581  1.00  0.00     0.073 H 
ATOM     42  H   UNL     1     -46.036  35.345  26.409  1.00  0.00     0.073 H 
BRANCH  40  43
ATOM     43  O   UNL     1     -47.870  35.780  27.290  1.00  0.00    -0.491 OA
BRANCH  43  44
ATOM     44  C   UNL     1     -48.360  34.664  26.668  1.00  0.00     0.121 A 
ATOM     45  C   UNL     1     -49.690  34.256  26.654  1.00  0.00    -0.019 A 
ATOM     46  C   UNL     1     -47.401  33.903  25.991  1.00  0.00     0.007 A 
ATOM     47  C   UNL     1     -50.049  33.091  25.972  1.00  0.00    -0.049 A 
ATOM     48  H   UNL     1     -50.472  34.816  27.154  1.00  0.00     0.066 H 
ATOM     49  C   UNL     1     -47.730  32.740  25.307  1.00  0.00     0.076 A 
ATOM     50  H   UNL     1     -46.362  34.222  26.000  1.00  0.00     0.069 H 
ATOM     51  C   UNL     1     -49.076  32.333  25.300  1.00  0.00     0.001 A 
ATOM     52  H   UNL     1     -51.091  32.781  25.965  1.00  0.00     0.063 H 
ATOM     53  N   UNL     1     -46.764  32.048  24.677  1.00  0.00    -0.231 NA
ATOM     54  C   UNL     1     -49.399  31.163  24.610  1.00  0.00    -0.049 A 
ATOM     55  C   UNL     1     -47.086  30.919  24.006  1.00  0.00     0.129 A 
ATOM     56  C   UNL     1     -48.394  30.450  23.960  1.00  0.00    -0.019 A 
ATOM     57  H   UNL     1     -50.421  30.797  24.574  1.00  0.00     0.063 H 
ATOM     58  H   UNL     1     -48.636  29.534  23.434  1.00  0.00     0.066 H 
BRANCH  55  59
ATOM     59  N   UNL     1     -46.060  30.199  23.363  1.00  0.00    -0.356 N 
ATOM     60  C   UNL     1     -46.026  28.783  23.137  1.00  0.00     0.021 C 
ATOM     61  C   UNL     1     -45.579  30.489  22.041  1.00  0.00     0.021 C 
ATOM     62  C   UNL     1     -44.993  29.072  22.042  1.00  0.00    -0.018 C 
ATOM     63  H   UNL     1     -45.662  28.212  23.994  1.00  0.00     0.049 H 
ATOM     64  H   UNL     1     -46.981  28.384  22.779  1.00  0.00     0.049 H 
ATOM     65  H   UNL     1     -44.854  31.304  22.010  1.00  0.00     0.049 H 
ATOM     66  H   UNL     1     -46.384  30.653  21.316  1.00  0.00     0.049 H 
ATOM     67  H   UNL     1     -43.952  29.015  22.377  1.00  0.00     0.030 H 
ATOM     68  H   UNL     1     -45.112  28.507  21.114  1.00  0.00     0.030 H 
ENDBRANCH  55  59
ENDBRANCH  43  44
ENDBRANCH  40  43
ENDBRANCH  34  40
BRANCH  35  69
ATOM     69  O   UNL     1     -46.132  36.009  30.817  1.00  0.00    -0.387 OA
ATOM     70  H   UNL     1     -45.645  35.192  30.600  1.00  0.00     0.211 HD
ENDBRANCH  35  69
ENDBRANCH   3  30
BRANCH   8  71
ATOM     71  N   UNL     1     -42.310  43.352  27.424  1.00  0.00    -0.383 N 
ATOM     72  H   UNL     1     -42.458  44.190  27.975  1.00  0.00     0.158 HD
ATOM     73  H   UNL     1     -41.494  43.340  26.825  1.00  0.00     0.158 HD
ENDBRANCH   8  71
TORSDOF 14
ENDMDL
MODEL 4
REMARK VINA RESULT:      -8.5      2.754     11.341
REMARK SMILES COCCN(C)C(=O)c1cn([C@@H]2O[C@H](COc3ccc4ccc(N5CCC5)nc4c3)[C@@H](O)[C@@H]2F)c2ncnc(N)c12
REMARK SMILES IDX 9 1 10 2 11 3 35 4 36 5 37 6 38 7 39 8 41 9 7 12 8 13 5 14
REMARK SMILES IDX 4 15 3 18 2 21 1 22 6 26 12 30 13 31 33 32 14 34 31 35 34 36
REMARK SMILES IDX 15 40 16 43 17 44 18 45 30 46 19 47 29 49 20 51 28 53 21 54
REMARK SMILES IDX 23 55 22 56 24 59 25 60 27 61 26 62 32 69 40 71
REMARK H PARENT 10 10 37 11 4 16 4 17 3 19 3 20 1 23 1 24 1 25 6 27 6 28 6 29
REMARK H PARENT 12 33 33 37 14 38 31 39 15 41 15 42 18 48 30 50 19 52 21 57
REMARK H PARENT 22 58 25 63 25 64 27 65 27 66 26 67 26 68 32 70 40 72 40 73
REMARK Flexibility Score: inf
ROOT
ATOM      1  C   UNL     1     -47.108  31.364  23.599  1.00  0.00     0.071 A 
ATOM      2  C   UNL     1     -46.516  31.929  24.718  1.00  0.00     0.022 A 
ATOM      3  N   UNL     1     -47.505  32.397  25.543  1.00  0.00    -0.302 N 
ATOM      4  C   UNL     1     -48.726  32.203  24.948  1.00  0.00     0.148 A 
ATOM      5  N   UNL     1     -49.908  32.564  25.476  1.00  0.00    -0.218 NA
ATOM      6  C   UNL     1     -50.925  32.269  24.650  1.00  0.00     0.120 A 
ATOM      7  N   UNL     1     -50.870  31.688  23.437  1.00  0.00    -0.219 NA
ATOM      8  C   UNL     1     -49.665  31.328  22.953  1.00  0.00     0.137 A 
ATOM      9  C   UNL     1     -48.519  31.580  23.724  1.00  0.00     0.074 A 
ATOM     10  H   UNL     1     -45.471  32.002  24.989  1.00  0.00     0.083 H 
ATOM     11  H   UNL     1     -51.917  32.534  25.002  1.00  0.00     0.106 H 
ENDROOT
BRANCH   1  12
ATOM     12  C   UNL     1     -46.361  30.754  22.506  1.00  0.00     0.256 C 
ATOM     13  O   UNL     1     -45.946  31.452  21.581  1.00  0.00    -0.269 OA
BRANCH  12  14
ATOM     14  N   UNL     1     -46.179  29.365  22.522  1.00  0.00    -0.339 N 
BRANCH  14  15
ATOM     15  C   UNL     1     -47.170  28.441  23.102  1.00  0.00     0.044 C 
ATOM     16  H   UNL     1     -47.945  28.998  23.629  1.00  0.00     0.052 H 
ATOM     17  H   UNL     1     -47.654  27.916  22.271  1.00  0.00     0.052 H 
BRANCH  15  18
ATOM     18  C   UNL     1     -46.567  27.420  24.079  1.00  0.00     0.064 C 
ATOM     19  H   UNL     1     -46.550  26.438  23.595  1.00  0.00     0.059 H 
ATOM     20  H   UNL     1     -45.541  27.695  24.349  1.00  0.00     0.059 H 
BRANCH  18  21
ATOM     21  O   UNL     1     -47.364  27.344  25.262  1.00  0.00    -0.383 OA
BRANCH  21  22
ATOM     22  C   UNL     1     -48.570  26.627  25.042  1.00  0.00     0.036 C 
ATOM     23  H   UNL     1     -49.120  27.050  24.196  1.00  0.00     0.053 H 
ATOM     24  H   UNL     1     -48.358  25.569  24.864  1.00  0.00     0.053 H 
ATOM     25  H   UNL     1     -49.189  26.715  25.938  1.00  0.00     0.053 H 
ENDBRANCH  21  22
ENDBRANCH  18  21
ENDBRANCH  15  18
ENDBRANCH  14  15
BRANCH  14  26
ATOM     26  C   UNL     1     -44.808  28.891  22.470  1.00  0.00     0.010 C 
ATOM     27  H   UNL     1     -44.648  28.093  23.202  1.00  0.00     0.046 H 
ATOM     28  H   UNL     1     -44.125  29.715  22.700  1.00  0.00     0.046 H 
ATOM     29  H   UNL     1     -44.598  28.498  21.471  1.00  0.00     0.046 H 
ENDBRANCH  14  26
ENDBRANCH  12  14
ENDBRANCH   1  12
BRANCH   3  30
ATOM     30  C   UNL     1     -47.341  32.990  26.860  1.00  0.00     0.169 C 
ATOM     31  O   UNL     1     -48.232  34.123  27.011  1.00  0.00    -0.345 OA
ATOM     32  C   UNL     1     -45.922  33.472  27.136  1.00  0.00     0.173 C 
ATOM     33  H   UNL     1     -47.662  32.250  27.604  1.00  0.00     0.088 H 
ATOM     34  C   UNL     1     -47.477  35.202  27.598  1.00  0.00     0.123 C 
ATOM     35  C   UNL     1     -46.161  34.604  28.107  1.00  0.00     0.119 C 
ATOM     36  F   UNL     1     -45.346  33.991  26.015  1.00  0.00    -0.239 F 
ATOM     37  H   UNL     1     -45.275  32.676  27.516  1.00  0.00     0.074 H 
ATOM     38  H   UNL     1     -48.061  35.604  28.434  1.00  0.00     0.067 H 
ATOM     39  H   UNL     1     -45.336  35.321  28.133  1.00  0.00     0.066 H 
BRANCH  34  40
ATOM     40  C   UNL     1     -47.288  36.297  26.541  1.00  0.00     0.117 C 
ATOM     41  H   UNL     1     -46.271  36.266  26.134  1.00  0.00     0.073 H 
ATOM     42  H   UNL     1     -47.989  36.104  25.720  1.00  0.00     0.073 H 
BRANCH  40  43
ATOM     43  O   UNL     1     -47.557  37.565  27.136  1.00  0.00    -0.491 OA
BRANCH  43  44
ATOM     44  C   UNL     1     -46.476  38.322  27.496  1.00  0.00     0.121 A 
ATOM     45  C   UNL     1     -45.706  38.153  28.643  1.00  0.00    -0.019 A 
ATOM     46  C   UNL     1     -46.147  39.340  26.594  1.00  0.00     0.007 A 
ATOM     47  C   UNL     1     -44.623  39.002  28.881  1.00  0.00    -0.049 A 
ATOM     48  H   UNL     1     -45.913  37.373  29.368  1.00  0.00     0.066 H 
ATOM     49  C   UNL     1     -45.077  40.199  26.807  1.00  0.00     0.076 A 
ATOM     50  H   UNL     1     -46.746  39.472  25.696  1.00  0.00     0.069 H 
ATOM     51  C   UNL     1     -44.307  40.022  27.970  1.00  0.00     0.001 A 
ATOM     52  H   UNL     1     -44.027  38.860  29.780  1.00  0.00     0.063 H 
ATOM     53  N   UNL     1     -44.812  41.161  25.905  1.00  0.00    -0.231 NA
ATOM     54  C   UNL     1     -43.233  40.890  28.177  1.00  0.00    -0.049 A 
ATOM     55  C   UNL     1     -43.766  41.994  26.110  1.00  0.00     0.129 A 
ATOM     56  C   UNL     1     -42.963  41.885  27.241  1.00  0.00    -0.019 A 
ATOM     57  H   UNL     1     -42.606  40.805  29.060  1.00  0.00     0.063 H 
ATOM     58  H   UNL     1     -42.139  42.570  27.403  1.00  0.00     0.066 H 
BRANCH  55  59
ATOM     59  N   UNL     1     -43.511  43.004  25.164  1.00  0.00    -0.356 N 
ATOM     60  C   UNL     1     -42.227  43.536  24.810  1.00  0.00     0.021 C 
ATOM     61  C   UNL     1     -43.940  42.951  23.794  1.00  0.00     0.021 C 
ATOM     62  C   UNL     1     -42.885  44.028  23.517  1.00  0.00    -0.018 C 
ATOM     63  H   UNL     1     -41.873  44.315  25.490  1.00  0.00     0.049 H 
ATOM     64  H   UNL     1     -41.465  42.760  24.676  1.00  0.00     0.049 H 
ATOM     65  H   UNL     1     -44.979  43.254  23.651  1.00  0.00     0.049 H 
ATOM     66  H   UNL     1     -43.746  41.984  23.318  1.00  0.00     0.049 H 
ATOM     67  H   UNL     1     -43.264  45.055  23.566  1.00  0.00     0.030 H 
ATOM     68  H   UNL     1     -42.299  43.897  22.604  1.00  0.00     0.030 H 
ENDBRANCH  55  59
ENDBRANCH  43  44
ENDBRANCH  40  43
ENDBRANCH  34  40
BRANCH  35  69
ATOM     69  O   UNL     1     -46.322  34.064  29.424  1.00  0.00    -0.387 OA
ATOM     70  H   UNL     1     -47.084  34.516  29.833  1.00  0.00     0.211 HD
ENDBRANCH  35  69
ENDBRANCH   3  30
BRANCH   8  71
ATOM     71  N   UNL     1     -49.649  30.728  21.703  1.00  0.00    -0.383 N 
ATOM     72  H   UNL     1     -50.317  29.968  21.655  1.00  0.00     0.158 HD
ATOM     73  H   UNL     1     -49.632  31.368  20.918  1.00  0.00     0.158 HD
ENDBRANCH   8  71
TORSDOF 14
ENDMDL
MODEL 5
REMARK VINA RESULT:      -7.8      1.919      3.681
REMARK SMILES COCCN(C)C(=O)c1cn([C@@H]2O[C@H](COc3ccc4ccc(N5CCC5)nc4c3)[C@@H](O)[C@@H]2F)c2ncnc(N)c12
REMARK SMILES IDX 9 1 10 2 11 3 35 4 36 5 37 6 38 7 39 8 41 9 7 12 8 13 5 14
REMARK SMILES IDX 4 15 3 18 2 21 1 22 6 26 12 30 13 31 33 32 14 34 31 35 34 36
REMARK SMILES IDX 15 40 16 43 17 44 18 45 30 46 19 47 29 49 20 51 28 53 21 54
REMARK SMILES IDX 23 55 22 56 24 59 25 60 27 61 26 62 32 69 40 71
REMARK H PARENT 10 10 37 11 4 16 4 17 3 19 3 20 1 23 1 24 1 25 6 27 6 28 6 29
REMARK H PARENT 12 33 33 37 14 38 31 39 15 41 15 42 18 48 30 50 19 52 21 57
REMARK H PARENT 22 58 25 63 25 64 27 65 27 66 26 67 26 68 32 70 40 72 40 73
REMARK Flexibility Score: inf
ROOT
ATOM      1  C   UNL     1     -45.117  40.647  27.022  1.00  0.00     0.071 A 
ATOM      2  C   UNL     1     -45.474  39.542  27.780  1.00  0.00     0.022 A 
ATOM      3  N   UNL     1     -46.840  39.508  27.882  1.00  0.00    -0.302 N 
ATOM      4  C   UNL     1     -47.372  40.609  27.259  1.00  0.00     0.148 A 
ATOM      5  N   UNL     1     -48.682  40.898  27.189  1.00  0.00    -0.218 NA
ATOM      6  C   UNL     1     -48.896  42.054  26.539  1.00  0.00     0.120 A 
ATOM      7  N   UNL     1     -47.986  42.882  25.993  1.00  0.00    -0.219 NA
ATOM      8  C   UNL     1     -46.683  42.545  26.073  1.00  0.00     0.137 A 
ATOM      9  C   UNL     1     -46.328  41.355  26.727  1.00  0.00     0.074 A 
ATOM     10  H   UNL     1     -44.854  38.773  28.222  1.00  0.00     0.083 H 
ATOM     11  H   UNL     1     -49.933  42.362  26.442  1.00  0.00     0.106 H 
ENDROOT
BRANCH   1  12
ATOM     12  C   UNL     1     -43.741  40.997  26.696  1.00  0.00     0.256 C 
ATOM     13  O   UNL     1     -43.115  40.330  25.872  1.00  0.00    -0.269 OA
BRANCH  12  14
ATOM     14  N   UNL     1     -43.151  42.071  27.377  1.00  0.00    -0.339 N 
BRANCH  14  15
ATOM     15  C   UNL     1     -42.821  43.346  26.714  1.00  0.00     0.044 C 
ATOM     16  H   UNL     1     -43.715  43.785  26.270  1.00  0.00     0.052 H 
ATOM     17  H   UNL     1     -42.471  44.036  27.489  1.00  0.00     0.052 H 
BRANCH  15  18
ATOM     18  C   UNL     1     -41.756  43.215  25.615  1.00  0.00     0.064 C 
ATOM     19  H   UNL     1     -40.770  43.386  26.060  1.00  0.00     0.059 H 
ATOM     20  H   UNL     1     -41.771  42.213  25.173  1.00  0.00     0.059 H 
BRANCH  18  21
ATOM     21  O   UNL     1     -41.983  44.188  24.595  1.00  0.00    -0.383 OA
BRANCH  21  22
ATOM     22  C   UNL     1     -42.763  43.665  23.529  1.00  0.00     0.036 C 
ATOM     23  H   UNL     1     -42.131  43.450  22.662  1.00  0.00     0.053 H 
ATOM     24  H   UNL     1     -43.288  42.761  23.848  1.00  0.00     0.053 H 
ATOM     25  H   UNL     1     -43.500  44.418  23.243  1.00  0.00     0.053 H 
ENDBRANCH  21  22
ENDBRANCH  18  21
ENDBRANCH  15  18
ENDBRANCH  14  15
BRANCH  14  26
ATOM     26  C   UNL     1     -42.380  41.741  28.562  1.00  0.00     0.010 C 
ATOM     27  H   UNL     1     -42.223  40.660  28.630  1.00  0.00     0.046 H 
ATOM     28  H   UNL     1     -42.921  42.070  29.455  1.00  0.00     0.046 H 
ATOM     29  H   UNL     1     -41.406  42.235  28.510  1.00  0.00     0.046 H 
ENDBRANCH  14  26
ENDBRANCH  12  14
ENDBRANCH   1  12
BRANCH   3  30
ATOM     30  C   UNL     1     -47.647  38.480  28.518  1.00  0.00     0.169 C 
ATOM     31  O   UNL     1     -46.818  37.653  29.372  1.00  0.00    -0.345 OA
ATOM     32  C   UNL     1     -48.355  37.565  27.528  1.00  0.00     0.173 C 
ATOM     33  H   UNL     1     -48.364  38.979  29.183  1.00  0.00     0.088 H 
ATOM     34  C   UNL     1     -47.165  36.276  29.122  1.00  0.00     0.123 C 
ATOM     35  C   UNL     1     -48.466  36.280  28.314  1.00  0.00     0.119 C 
ATOM     36  F   UNL     1     -47.580  37.324  26.432  1.00  0.00    -0.239 F 
ATOM     37  H   UNL     1     -49.311  37.975  27.188  1.00  0.00     0.074 H 
ATOM     38  H   UNL     1     -47.321  35.788  30.092  1.00  0.00     0.067 H 
ATOM     39  H   UNL     1     -48.588  35.402  27.675  1.00  0.00     0.066 H 
BRANCH  34  40
ATOM     40  C   UNL     1     -45.993  35.601  28.400  1.00  0.00     0.117 C 
ATOM     41  H   UNL     1     -45.881  36.006  27.388  1.00  0.00     0.073 H 
ATOM     42  H   UNL     1     -45.075  35.820  28.958  1.00  0.00     0.073 H 
BRANCH  40  43
ATOM     43  O   UNL     1     -46.224  34.194  28.358  1.00  0.00    -0.491 OA
BRANCH  43  44
ATOM     44  C   UNL     1     -46.487  33.645  27.134  1.00  0.00     0.121 A 
ATOM     45  C   UNL     1     -46.113  34.176  25.903  1.00  0.00    -0.019 A 
ATOM     46  C   UNL     1     -47.189  32.435  27.173  1.00  0.00     0.007 A 
ATOM     47  C   UNL     1     -46.448  33.501  24.727  1.00  0.00    -0.049 A 
ATOM     48  H   UNL     1     -45.560  35.105  25.819  1.00  0.00     0.066 H 
ATOM     49  C   UNL     1     -47.536  31.744  26.020  1.00  0.00     0.076 A 
ATOM     50  H   UNL     1     -47.480  32.017  28.134  1.00  0.00     0.069 H 
ATOM     51  C   UNL     1     -47.157  32.290  24.781  1.00  0.00     0.001 A 
ATOM     52  H   UNL     1     -46.150  33.925  23.771  1.00  0.00     0.063 H 
ATOM     53  N   UNL     1     -48.215  30.587  26.120  1.00  0.00    -0.231 NA
ATOM     54  C   UNL     1     -47.510  31.591  23.625  1.00  0.00    -0.049 A 
ATOM     55  C   UNL     1     -48.547  29.912  24.997  1.00  0.00     0.129 A 
ATOM     56  C   UNL     1     -48.213  30.393  23.735  1.00  0.00    -0.019 A 
ATOM     57  H   UNL     1     -47.249  31.966  22.640  1.00  0.00     0.063 H 
ATOM     58  H   UNL     1     -48.502  29.852  22.842  1.00  0.00     0.066 H 
BRANCH  55  59
ATOM     59  N   UNL     1     -49.269  28.710  25.120  1.00  0.00    -0.356 N 
ATOM     60  C   UNL     1     -50.363  28.284  24.295  1.00  0.00     0.021 C 
ATOM     61  C   UNL     1     -48.668  27.405  25.110  1.00  0.00     0.021 C 
ATOM     62  C   UNL     1     -50.065  26.863  24.786  1.00  0.00    -0.018 C 
ATOM     63  H   UNL     1     -51.327  28.699  24.600  1.00  0.00     0.049 H 
ATOM     64  H   UNL     1     -50.185  28.452  23.228  1.00  0.00     0.049 H 
ATOM     65  H   UNL     1     -48.254  27.109  26.076  1.00  0.00     0.049 H 
ATOM     66  H   UNL     1     -47.929  27.277  24.312  1.00  0.00     0.049 H 
ATOM     67  H   UNL     1     -50.645  26.557  25.664  1.00  0.00     0.030 H 
ATOM     68  H   UNL     1     -50.108  26.078  24.027  1.00  0.00     0.030 H 
ENDBRANCH  55  59
ENDBRANCH  43  44
ENDBRANCH  40  43
ENDBRANCH  34  40
BRANCH  35  69
ATOM     69  O   UNL     1     -49.605  36.361  29.180  1.00  0.00    -0.387 OA
ATOM     70  H   UNL     1     -50.321  35.842  28.767  1.00  0.00     0.211 HD
ENDBRANCH  35  69
ENDBRANCH   3  30
BRANCH   8  71
ATOM     71  N   UNL     1     -45.776  43.420  25.495  1.00  0.00    -0.383 N 
ATOM     72  H   UNL     1     -46.252  44.139  24.965  1.00  0.00     0.158 HD
ATOM     73  H   UNL     1     -45.025  43.725  26.103  1.00  0.00     0.158 HD
ENDBRANCH   8  71
TORSDOF 14
ENDMDL
MODEL 6
REMARK VINA RESULT:      -7.8      1.684      3.583
REMARK SMILES COCCN(C)C(=O)c1cn([C@@H]2O[C@H](COc3ccc4ccc(N5CCC5)nc4c3)[C@@H](O)[C@@H]2F)c2ncnc(N)c12
REMARK SMILES IDX 9 1 10 2 11 3 35 4 36 5 37 6 38 7 39 8 41 9 7 12 8 13 5 14
REMARK SMILES IDX 4 15 3 18 2 21 1 22 6 26 12 30 13 31 33 32 14 34 31 35 34 36
REMARK SMILES IDX 15 40 16 43 17 44 18 45 30 46 19 47 29 49 20 51 28 53 21 54
REMARK SMILES IDX 23 55 22 56 24 59 25 60 27 61 26 62 32 69 40 71
REMARK H PARENT 10 10 37 11 4 16 4 17 3 19 3 20 1 23 1 24 1 25 6 27 6 28 6 29
REMARK H PARENT 12 33 33 37 14 38 31 39 15 41 15 42 18 48 30 50 19 52 21 57
REMARK H PARENT 22 58 25 63 25 64 27 65 27 66 26 67 26 68 32 70 40 72 40 73
REMARK Flexibility Score: inf
ROOT
ATOM      1  C   UNL     1     -45.153  40.628  26.629  1.00  0.00     0.071 A 
ATOM      2  C   UNL     1     -44.719  39.448  27.216  1.00  0.00     0.022 A 
ATOM      3  N   UNL     1     -45.753  38.918  27.940  1.00  0.00    -0.302 N 
ATOM      4  C   UNL     1     -46.830  39.766  27.887  1.00  0.00     0.148 A 
ATOM      5  N   UNL     1     -48.006  39.561  28.505  1.00  0.00    -0.218 NA
ATOM      6  C   UNL     1     -48.858  40.576  28.291  1.00  0.00     0.120 A 
ATOM      7  N   UNL     1     -48.655  41.693  27.567  1.00  0.00    -0.219 NA
ATOM      8  C   UNL     1     -47.466  41.851  26.951  1.00  0.00     0.137 A 
ATOM      9  C   UNL     1     -46.488  40.854  27.095  1.00  0.00     0.074 A 
ATOM     10  H   UNL     1     -43.763  38.946  27.141  1.00  0.00     0.083 H 
ATOM     11  H   UNL     1     -49.832  40.489  28.761  1.00  0.00     0.106 H 
ENDROOT
BRANCH   1  12
ATOM     12  C   UNL     1     -44.319  41.463  25.774  1.00  0.00     0.256 C 
ATOM     13  O   UNL     1     -44.646  41.665  24.604  1.00  0.00    -0.269 OA
BRANCH  12  14
ATOM     14  N   UNL     1     -43.130  41.979  26.307  1.00  0.00    -0.339 N 
BRANCH  14  15
ATOM     15  C   UNL     1     -42.738  41.777  27.713  1.00  0.00     0.044 C 
ATOM     16  H   UNL     1     -43.149  42.570  28.339  1.00  0.00     0.052 H 
ATOM     17  H   UNL     1     -43.187  40.836  28.046  1.00  0.00     0.052 H 
BRANCH  15  18
ATOM     18  C   UNL     1     -41.219  41.734  27.932  1.00  0.00     0.064 C 
ATOM     19  H   UNL     1     -40.768  41.119  27.145  1.00  0.00     0.059 H 
ATOM     20  H   UNL     1     -40.787  42.740  27.881  1.00  0.00     0.059 H 
BRANCH  18  21
ATOM     21  O   UNL     1     -40.923  41.155  29.204  1.00  0.00    -0.383 OA
BRANCH  21  22
ATOM     22  C   UNL     1     -42.100  40.753  29.889  1.00  0.00     0.036 C 
ATOM     23  H   UNL     1     -42.961  41.335  29.548  1.00  0.00     0.053 H 
ATOM     24  H   UNL     1     -42.283  39.685  29.739  1.00  0.00     0.053 H 
ATOM     25  H   UNL     1     -41.955  40.938  30.955  1.00  0.00     0.053 H 
ENDBRANCH  21  22
ENDBRANCH  18  21
ENDBRANCH  15  18
ENDBRANCH  14  15
BRANCH  14  26
ATOM     26  C   UNL     1     -42.575  43.144  25.643  1.00  0.00     0.010 C 
ATOM     27  H   UNL     1     -41.506  43.004  25.449  1.00  0.00     0.046 H 
ATOM     28  H   UNL     1     -42.699  44.025  26.280  1.00  0.00     0.046 H 
ATOM     29  H   UNL     1     -43.087  43.296  24.688  1.00  0.00     0.046 H 
ENDBRANCH  14  26
ENDBRANCH  12  14
ENDBRANCH   1  12
BRANCH   3  30
ATOM     30  C   UNL     1     -45.767  37.650  28.651  1.00  0.00     0.169 C 
ATOM     31  O   UNL     1     -44.943  36.680  27.958  1.00  0.00    -0.345 OA
ATOM     32  C   UNL     1     -47.161  37.054  28.803  1.00  0.00     0.173 C 
ATOM     33  H   UNL     1     -45.293  37.807  29.628  1.00  0.00     0.088 H 
ATOM     34  C   UNL     1     -45.678  35.442  27.896  1.00  0.00     0.123 C 
ATOM     35  C   UNL     1     -46.863  35.574  28.857  1.00  0.00     0.119 C 
ATOM     36  F   UNL     1     -47.925  37.291  27.699  1.00  0.00    -0.239 F 
ATOM     37  H   UNL     1     -47.691  37.444  29.676  1.00  0.00     0.074 H 
ATOM     38  H   UNL     1     -45.009  34.638  28.224  1.00  0.00     0.067 H 
ATOM     39  H   UNL     1     -47.723  34.959  28.579  1.00  0.00     0.066 H 
BRANCH  34  40
ATOM     40  C   UNL     1     -46.090  35.191  26.440  1.00  0.00     0.117 C 
ATOM     41  H   UNL     1     -46.339  36.136  25.943  1.00  0.00     0.073 H 
ATOM     42  H   UNL     1     -45.237  34.744  25.915  1.00  0.00     0.073 H 
BRANCH  40  43
ATOM     43  O   UNL     1     -47.205  34.301  26.421  1.00  0.00    -0.491 OA
BRANCH  43  44
ATOM     44  C   UNL     1     -47.108  33.203  25.611  1.00  0.00     0.121 A 
ATOM     45  C   UNL     1     -46.278  33.078  24.501  1.00  0.00    -0.019 A 
ATOM     46  C   UNL     1     -47.929  32.131  25.979  1.00  0.00     0.007 A 
ATOM     47  C   UNL     1     -46.281  31.890  23.766  1.00  0.00    -0.049 A 
ATOM     48  H   UNL     1     -45.616  33.875  24.182  1.00  0.00     0.066 H 
ATOM     49  C   UNL     1     -47.952  30.940  25.265  1.00  0.00     0.076 A 
ATOM     50  H   UNL     1     -48.576  32.227  26.847  1.00  0.00     0.069 H 
ATOM     51  C   UNL     1     -47.113  30.824  24.143  1.00  0.00     0.001 A 
ATOM     52  H   UNL     1     -45.627  31.802  22.902  1.00  0.00     0.063 H 
ATOM     53  N   UNL     1     -48.765  29.946  25.664  1.00  0.00    -0.231 NA
ATOM     54  C   UNL     1     -47.142  29.624  23.430  1.00  0.00    -0.049 A 
ATOM     55  C   UNL     1     -48.783  28.784  24.972  1.00  0.00     0.129 A 
ATOM     56  C   UNL     1     -47.986  28.597  23.847  1.00  0.00    -0.019 A 
ATOM     57  H   UNL     1     -46.519  29.478  22.552  1.00  0.00     0.063 H 
ATOM     58  H   UNL     1     -48.023  27.668  23.290  1.00  0.00     0.066 H 
BRANCH  55  59
ATOM     59  N   UNL     1     -49.649  27.758  25.395  1.00  0.00    -0.356 N 
ATOM     60  C   UNL     1     -50.187  26.707  24.581  1.00  0.00     0.021 C 
ATOM     61  C   UNL     1     -49.366  26.862  26.482  1.00  0.00     0.021 C 
ATOM     62  C   UNL     1     -50.442  25.946  25.887  1.00  0.00    -0.018 C 
ATOM     63  H   UNL     1     -51.078  27.000  24.021  1.00  0.00     0.049 H 
ATOM     64  H   UNL     1     -49.441  26.254  23.919  1.00  0.00     0.049 H 
ATOM     65  H   UNL     1     -49.589  27.284  27.464  1.00  0.00     0.049 H 
ATOM     66  H   UNL     1     -48.350  26.457  26.452  1.00  0.00     0.049 H 
ATOM     67  H   UNL     1     -51.443  26.094  26.308  1.00  0.00     0.030 H 
ATOM     68  H   UNL     1     -50.205  24.880  25.871  1.00  0.00     0.030 H 
ENDBRANCH  55  59
ENDBRANCH  43  44
ENDBRANCH  40  43
ENDBRANCH  34  40
BRANCH  35  69
ATOM     69  O   UNL     1     -46.479  35.224  30.192  1.00  0.00    -0.387 OA
ATOM     70  H   UNL     1     -46.190  36.044  30.635  1.00  0.00     0.211 HD
ENDBRANCH  35  69
ENDBRANCH   3  30
BRANCH   8  71
ATOM     71  N   UNL     1     -47.296  43.011  26.211  1.00  0.00    -0.383 N 
ATOM     72  H   UNL     1     -46.524  43.561  26.569  1.00  0.00     0.158 HD
ATOM     73  H   UNL     1     -47.341  42.892  25.206  1.00  0.00     0.158 HD
ENDBRANCH   8  71
TORSDOF 14
ENDMDL
MODEL 7
REMARK VINA RESULT:      -7.8      3.121      6.134
REMARK SMILES COCCN(C)C(=O)c1cn([C@@H]2O[C@H](COc3ccc4ccc(N5CCC5)nc4c3)[C@@H](O)[C@@H]2F)c2ncnc(N)c12
REMARK SMILES IDX 9 1 10 2 11 3 35 4 36 5 37 6 38 7 39 8 41 9 7 12 8 13 5 14
REMARK SMILES IDX 4 15 3 18 2 21 1 22 6 26 12 30 13 31 33 32 14 34 31 35 34 36
REMARK SMILES IDX 15 40 16 43 17 44 18 45 30 46 19 47 29 49 20 51 28 53 21 54
REMARK SMILES IDX 23 55 22 56 24 59 25 60 27 61 26 62 32 69 40 71
REMARK H PARENT 10 10 37 11 4 16 4 17 3 19 3 20 1 23 1 24 1 25 6 27 6 28 6 29
REMARK H PARENT 12 33 33 37 14 38 31 39 15 41 15 42 18 48 30 50 19 52 21 57
REMARK H PARENT 22 58 25 63 25 64 27 65 27 66 26 67 26 68 32 70 40 72 40 73
REMARK Flexibility Score: inf
ROOT
ATOM      1  C   UNL     1     -47.311  43.768  25.531  1.00  0.00     0.071 A 
ATOM      2  C   UNL     1     -46.281  42.910  25.887  1.00  0.00     0.022 A 
ATOM      3  N   UNL     1     -45.121  43.366  25.321  1.00  0.00    -0.302 N 
ATOM      4  C   UNL     1     -45.391  44.468  24.549  1.00  0.00     0.148 A 
ATOM      5  N   UNL     1     -44.481  45.153  23.836  1.00  0.00    -0.218 NA
ATOM      6  C   UNL     1     -45.047  46.166  23.161  1.00  0.00     0.120 A 
ATOM      7  N   UNL     1     -46.344  46.529  23.139  1.00  0.00    -0.219 NA
ATOM      8  C   UNL     1     -47.219  45.824  23.882  1.00  0.00     0.137 A 
ATOM      9  C   UNL     1     -46.750  44.738  24.638  1.00  0.00     0.074 A 
ATOM     10  H   UNL     1     -46.296  42.034  26.522  1.00  0.00     0.083 H 
ATOM     11  H   UNL     1     -44.378  46.768  22.554  1.00  0.00     0.106 H 
ENDROOT
BRANCH   1  12
ATOM     12  C   UNL     1     -48.693  43.601  25.962  1.00  0.00     0.256 C 
ATOM     13  O   UNL     1     -49.579  43.417  25.128  1.00  0.00    -0.269 OA
BRANCH  12  14
ATOM     14  N   UNL     1     -48.978  43.702  27.330  1.00  0.00    -0.339 N 
BRANCH  14  15
ATOM     15  C   UNL     1     -49.431  42.553  28.134  1.00  0.00     0.044 C 
ATOM     16  H   UNL     1     -48.607  42.156  28.727  1.00  0.00     0.052 H 
ATOM     17  H   UNL     1     -50.188  42.923  28.835  1.00  0.00     0.052 H 
BRANCH  15  18
ATOM     18  C   UNL     1     -50.016  41.405  27.298  1.00  0.00     0.064 C 
ATOM     19  H   UNL     1     -51.109  41.462  27.339  1.00  0.00     0.059 H 
ATOM     20  H   UNL     1     -49.701  41.483  26.252  1.00  0.00     0.059 H 
BRANCH  18  21
ATOM     21  O   UNL     1     -49.593  40.148  27.829  1.00  0.00    -0.383 OA
BRANCH  21  22
ATOM     22  C   UNL     1     -48.493  40.291  28.716  1.00  0.00     0.036 C 
ATOM     23  H   UNL     1     -47.553  40.084  28.198  1.00  0.00     0.053 H 
ATOM     24  H   UNL     1     -48.477  41.297  29.145  1.00  0.00     0.053 H 
ATOM     25  H   UNL     1     -48.611  39.567  29.525  1.00  0.00     0.053 H 
ENDBRANCH  21  22
ENDBRANCH  18  21
ENDBRANCH  15  18
ENDBRANCH  14  15
BRANCH  14  26
ATOM     26  C   UNL     1     -49.349  45.018  27.819  1.00  0.00     0.010 C 
ATOM     27  H   UNL     1     -49.009  45.795  27.126  1.00  0.00     0.046 H 
ATOM     28  H   UNL     1     -48.882  45.194  28.793  1.00  0.00     0.046 H 
ATOM     29  H   UNL     1     -50.438  45.078  27.907  1.00  0.00     0.046 H 
ENDBRANCH  14  26
ENDBRANCH  12  14
ENDBRANCH   1  12
BRANCH   3  30
ATOM     30  C   UNL     1     -43.785  42.819  25.497  1.00  0.00     0.169 C 
ATOM     31  O   UNL     1     -43.862  41.412  25.832  1.00  0.00    -0.345 OA
ATOM     32  C   UNL     1     -42.983  43.516  26.589  1.00  0.00     0.173 C 
ATOM     33  H   UNL     1     -43.270  42.872  24.529  1.00  0.00     0.088 H 
ATOM     34  C   UNL     1     -42.955  41.170  26.926  1.00  0.00     0.123 C 
ATOM     35  C   UNL     1     -42.066  42.411  27.056  1.00  0.00     0.119 C 
ATOM     36  F   UNL     1     -43.778  43.876  27.636  1.00  0.00    -0.239 F 
ATOM     37  H   UNL     1     -42.469  44.411  26.225  1.00  0.00     0.074 H 
ATOM     38  H   UNL     1     -42.349  40.292  26.671  1.00  0.00     0.067 H 
ATOM     39  H   UNL     1     -41.687  42.574  28.068  1.00  0.00     0.066 H 
BRANCH  34  40
ATOM     40  C   UNL     1     -43.777  40.866  28.185  1.00  0.00     0.117 C 
ATOM     41  H   UNL     1     -43.210  40.221  28.867  1.00  0.00     0.073 H 
ATOM     42  H   UNL     1     -43.976  41.814  28.700  1.00  0.00     0.073 H 
BRANCH  40  43
ATOM     43  O   UNL     1     -45.001  40.244  27.800  1.00  0.00    -0.491 OA
BRANCH  43  44
ATOM     44  C   UNL     1     -45.205  38.960  28.226  1.00  0.00     0.121 A 
ATOM     45  C   UNL     1     -44.967  38.479  29.510  1.00  0.00    -0.019 A 
ATOM     46  C   UNL     1     -45.708  38.092  27.251  1.00  0.00     0.007 A 
ATOM     47  C   UNL     1     -45.226  37.138  29.805  1.00  0.00    -0.049 A 
ATOM     48  H   UNL     1     -44.587  39.113  30.304  1.00  0.00     0.066 H 
ATOM     49  C   UNL     1     -45.973  36.756  27.517  1.00  0.00     0.076 A 
ATOM     50  H   UNL     1     -45.897  38.468  26.248  1.00  0.00     0.069 H 
ATOM     51  C   UNL     1     -45.727  36.277  28.816  1.00  0.00     0.001 A 
ATOM     52  H   UNL     1     -45.037  36.773  30.812  1.00  0.00     0.063 H 
ATOM     53  N   UNL     1     -46.453  35.968  26.538  1.00  0.00    -0.231 NA
ATOM     54  C   UNL     1     -45.995  34.932  29.076  1.00  0.00    -0.049 A 
ATOM     55  C   UNL     1     -46.716  34.668  26.799  1.00  0.00     0.129 A 
ATOM     56  C   UNL     1     -46.491  34.121  28.058  1.00  0.00    -0.019 A 
ATOM     57  H   UNL     1     -45.819  34.505  30.060  1.00  0.00     0.063 H 
ATOM     58  H   UNL     1     -46.689  33.073  28.250  1.00  0.00     0.066 H 
BRANCH  55  59
ATOM     59  N   UNL     1     -47.206  33.855  25.759  1.00  0.00    -0.356 N 
ATOM     60  C   UNL     1     -46.466  32.865  25.031  1.00  0.00     0.021 C 
ATOM     61  C   UNL     1     -48.357  33.004  25.876  1.00  0.00     0.021 C 
ATOM     62  C   UNL     1     -47.822  32.263  24.646  1.00  0.00    -0.018 C 
ATOM     63  H   UNL     1     -45.878  33.276  24.207  1.00  0.00     0.049 H 
ATOM     64  H   UNL     1     -45.846  32.234  25.677  1.00  0.00     0.049 H 
ATOM     65  H   UNL     1     -49.304  33.531  25.741  1.00  0.00     0.049 H 
ATOM     66  H   UNL     1     -48.366  32.416  26.800  1.00  0.00     0.049 H 
ATOM     67  H   UNL     1     -48.222  32.624  23.692  1.00  0.00     0.030 H 
ATOM     68  H   UNL     1     -47.886  31.172  24.681  1.00  0.00     0.030 H 
ENDBRANCH  55  59
ENDBRANCH  43  44
ENDBRANCH  40  43
ENDBRANCH  34  40
BRANCH  35  69
ATOM     69  O   UNL     1     -40.944  42.329  26.169  1.00  0.00    -0.387 OA
ATOM     70  H   UNL     1     -40.141  42.266  26.720  1.00  0.00     0.211 HD
ENDBRANCH  35  69
ENDBRANCH   3  30
BRANCH   8  71
ATOM     71  N   UNL     1     -48.545  46.230  23.838  1.00  0.00    -0.383 N 
ATOM     72  H   UNL     1     -48.824  46.654  24.715  1.00  0.00     0.158 HD
ATOM     73  H   UNL     1     -48.818  46.715  22.992  1.00  0.00     0.158 HD
ENDBRANCH   8  71
TORSDOF 14
ENDMDL
