MODEL 1
REMARK VINA RESULT:     -10.0      0.000      0.000
REMARK SMILES CC1(C)CCN(Cc2ccc(NCC3(O)CCN(c4cc(NCc5ccccc5)ncn4)CC3)cn2)CC1
REMARK SMILES IDX 13 1 12 4 11 6 8 7 9 8 36 9 10 10 35 12 7 15 6 18 2 19 4 20
REMARK SMILES IDX 38 21 5 22 37 25 1 32 3 36 14 40 16 41 34 42 17 43 33 46
REMARK SMILES IDX 18 49 15 54 19 56 20 57 32 58 21 59 31 61 30 62 22 64 23 66
REMARK SMILES IDX 24 69 25 70 29 71 26 72 28 74 27 76
REMARK H PARENT 13 2 13 3 12 5 9 11 10 13 35 14 7 16 7 17 4 23 4 24 38 26
REMARK H PARENT 38 27 5 28 5 29 37 30 37 31 1 33 1 34 1 35 3 37 3 38 3 39
REMARK H PARENT 16 44 16 45 34 47 34 48 17 50 17 51 33 52 33 53 15 55 20 60
REMARK H PARENT 31 63 22 65 23 67 23 68 25 73 29 75 26 77 28 78 27 79
REMARK Flexibility Score: inf
ROOT
ATOM      1  C   UNL     1     -45.693  35.177  27.321  1.00  0.00     0.044 C 
ATOM      2  H   UNL     1     -44.842  35.791  26.993  1.00  0.00     0.052 H 
ATOM      3  H   UNL     1     -45.225  34.222  27.594  1.00  0.00     0.052 H 
ENDROOT
BRANCH   1   4
ATOM      4  N   UNL     1     -46.558  35.037  26.158  1.00  0.00    -0.381 N 
ATOM      5  H   UNL     1     -47.241  35.781  26.059  1.00  0.00     0.160 HD
BRANCH   4   6
ATOM      6  C   UNL     1     -47.009  33.821  25.662  1.00  0.00     0.053 A 
ATOM      7  C   UNL     1     -48.001  31.403  24.692  1.00  0.00     0.055 A 
ATOM      8  C   UNL     1     -48.749  32.123  25.616  1.00  0.00    -0.037 A 
ATOM      9  N   UNL     1     -46.822  31.862  24.203  1.00  0.00    -0.258 NA
ATOM     10  C   UNL     1     -48.248  33.337  26.090  1.00  0.00    -0.036 A 
ATOM     11  H   UNL     1     -49.698  31.740  25.976  1.00  0.00     0.064 H 
ATOM     12  C   UNL     1     -46.383  33.059  24.679  1.00  0.00     0.050 A 
ATOM     13  H   UNL     1     -48.830  33.887  26.824  1.00  0.00     0.065 H 
ATOM     14  H   UNL     1     -45.460  33.387  24.215  1.00  0.00     0.086 H 
BRANCH   7  15
ATOM     15  C   UNL     1     -48.496  30.052  24.205  1.00  0.00     0.041 C 
ATOM     16  H   UNL     1     -49.594  30.048  24.206  1.00  0.00     0.050 H 
ATOM     17  H   UNL     1     -48.187  29.972  23.154  1.00  0.00     0.050 H 
BRANCH  15  18
ATOM     18  N   UNL     1     -47.970  28.895  24.963  1.00  0.00    -0.297 NA
ATOM     19  C   UNL     1     -48.065  26.133  26.045  1.00  0.00    -0.033 C 
ATOM     20  C   UNL     1     -48.295  27.391  26.906  1.00  0.00    -0.035 C 
ATOM     21  C   UNL     1     -47.252  26.529  24.796  1.00  0.00    -0.035 C 
ATOM     22  C   UNL     1     -48.843  28.577  26.104  1.00  0.00    -0.001 C 
ATOM     23  H   UNL     1     -48.981  27.167  27.733  1.00  0.00     0.029 H 
ATOM     24  H   UNL     1     -47.345  27.697  27.368  1.00  0.00     0.029 H 
ATOM     25  C   UNL     1     -47.834  27.741  24.063  1.00  0.00    -0.001 C 
ATOM     26  H   UNL     1     -46.221  26.768  25.091  1.00  0.00     0.029 H 
ATOM     27  H   UNL     1     -47.185  25.683  24.100  1.00  0.00     0.029 H 
ATOM     28  H   UNL     1     -49.867  28.368  25.772  1.00  0.00     0.043 H 
ATOM     29  H   UNL     1     -48.899  29.431  26.788  1.00  0.00     0.043 H 
ATOM     30  H   UNL     1     -47.152  27.993  23.243  1.00  0.00     0.043 H 
ATOM     31  H   UNL     1     -48.798  27.481  23.606  1.00  0.00     0.043 H 
BRANCH  19  32
ATOM     32  C   UNL     1     -49.409  25.498  25.640  1.00  0.00    -0.060 C 
ATOM     33  H   UNL     1     -50.235  26.205  25.779  1.00  0.00     0.024 H 
ATOM     34  H   UNL     1     -49.426  25.179  24.594  1.00  0.00     0.024 H 
ATOM     35  H   UNL     1     -49.625  24.615  26.253  1.00  0.00     0.024 H 
ENDBRANCH  19  32
BRANCH  19  36
ATOM     36  C   UNL     1     -47.274  25.094  26.860  1.00  0.00    -0.060 C 
ATOM     37  H   UNL     1     -47.092  24.187  26.274  1.00  0.00     0.024 H 
ATOM     38  H   UNL     1     -47.819  24.804  27.766  1.00  0.00     0.024 H 
ATOM     39  H   UNL     1     -46.301  25.490  27.171  1.00  0.00     0.024 H 
ENDBRANCH  19  36
ENDBRANCH  15  18
ENDBRANCH   7  15
ENDBRANCH   4   6
ENDBRANCH   1   4
BRANCH   1  40
ATOM     40  C   UNL     1     -46.291  35.863  28.591  1.00  0.00     0.085 C 
ATOM     41  C   UNL     1     -45.343  36.874  29.259  1.00  0.00    -0.005 C 
ATOM     42  C   UNL     1     -47.703  36.450  28.373  1.00  0.00    -0.005 C 
ATOM     43  C   UNL     1     -45.313  38.262  28.614  1.00  0.00     0.022 C 
ATOM     44  H   UNL     1     -44.325  36.469  29.328  1.00  0.00     0.031 H 
ATOM     45  H   UNL     1     -45.655  36.999  30.307  1.00  0.00     0.031 H 
ATOM     46  C   UNL     1     -47.757  37.970  28.489  1.00  0.00     0.022 C 
ATOM     47  H   UNL     1     -48.420  36.029  29.091  1.00  0.00     0.031 H 
ATOM     48  H   UNL     1     -48.086  36.156  27.391  1.00  0.00     0.031 H 
ATOM     49  N   UNL     1     -46.554  38.524  27.890  1.00  0.00    -0.356 N 
ATOM     50  H   UNL     1     -44.459  38.323  27.929  1.00  0.00     0.049 H 
ATOM     51  H   UNL     1     -45.149  39.011  29.399  1.00  0.00     0.049 H 
ATOM     52  H   UNL     1     -47.812  38.267  29.544  1.00  0.00     0.049 H 
ATOM     53  H   UNL     1     -48.686  38.323  28.028  1.00  0.00     0.049 H 
BRANCH  40  54
ATOM     54  O   UNL     1     -46.445  34.796  29.568  1.00  0.00    -0.388 OA
ATOM     55  H   UNL     1     -45.626  34.271  29.576  1.00  0.00     0.211 HD
ENDBRANCH  40  54
BRANCH  49  56
ATOM     56  C   UNL     1     -46.634  39.741  27.215  1.00  0.00     0.134 A 
ATOM     57  C   UNL     1     -45.541  40.230  26.520  1.00  0.00     0.023 A 
ATOM     58  N   UNL     1     -47.754  40.476  27.318  1.00  0.00    -0.219 NA
ATOM     59  C   UNL     1     -45.638  41.478  25.935  1.00  0.00     0.131 A 
ATOM     60  H   UNL     1     -44.600  39.695  26.512  1.00  0.00     0.070 H 
ATOM     61  C   UNL     1     -47.754  41.670  26.711  1.00  0.00     0.120 A 
ATOM     62  N   UNL     1     -46.748  42.214  26.018  1.00  0.00    -0.219 NA
ATOM     63  H   UNL     1     -48.663  42.257  26.794  1.00  0.00     0.106 H 
BRANCH  59  64
ATOM     64  N   UNL     1     -44.557  42.075  25.282  1.00  0.00    -0.366 N 
ATOM     65  H   UNL     1     -43.919  41.309  25.071  1.00  0.00     0.162 HD
BRANCH  64  66
ATOM     66  C   UNL     1     -43.886  43.115  26.047  1.00  0.00     0.041 C 
ATOM     67  H   UNL     1     -44.602  43.661  26.677  1.00  0.00     0.054 H 
ATOM     68  H   UNL     1     -43.404  43.853  25.394  1.00  0.00     0.054 H 
BRANCH  66  69
ATOM     69  C   UNL     1     -42.832  42.475  26.919  1.00  0.00    -0.029 A 
ATOM     70  C   UNL     1     -43.019  42.385  28.307  1.00  0.00    -0.057 A 
ATOM     71  C   UNL     1     -41.635  42.001  26.363  1.00  0.00    -0.057 A 
ATOM     72  C   UNL     1     -42.036  41.818  29.119  1.00  0.00    -0.062 A 
ATOM     73  H   UNL     1     -43.932  42.762  28.761  1.00  0.00     0.063 H 
ATOM     74  C   UNL     1     -40.654  41.433  27.177  1.00  0.00    -0.062 A 
ATOM     75  H   UNL     1     -41.460  42.075  25.292  1.00  0.00     0.063 H 
ATOM     76  C   UNL     1     -40.855  41.341  28.554  1.00  0.00    -0.062 A 
ATOM     77  H   UNL     1     -42.190  41.752  30.193  1.00  0.00     0.062 H 
ATOM     78  H   UNL     1     -39.729  41.068  26.738  1.00  0.00     0.062 H 
ATOM     79  H   UNL     1     -40.088  40.902  29.186  1.00  0.00     0.062 H 
ENDBRANCH  66  69
ENDBRANCH  64  66
ENDBRANCH  59  64
ENDBRANCH  49  56
ENDBRANCH   1  40
TORSDOF 12
ENDMDL
MODEL 2
REMARK VINA RESULT:      -9.6      1.718      3.000
REMARK SMILES CC1(C)CCN(Cc2ccc(NCC3(O)CCN(c4cc(NCc5ccccc5)ncn4)CC3)cn2)CC1
REMARK SMILES IDX 13 1 12 4 11 6 8 7 9 8 36 9 10 10 35 12 7 15 6 18 2 19 4 20
REMARK SMILES IDX 38 21 5 22 37 25 1 32 3 36 14 40 16 41 34 42 17 43 33 46
REMARK SMILES IDX 18 49 15 54 19 56 20 57 32 58 21 59 31 61 30 62 22 64 23 66
REMARK SMILES IDX 24 69 25 70 29 71 26 72 28 74 27 76
REMARK H PARENT 13 2 13 3 12 5 9 11 10 13 35 14 7 16 7 17 4 23 4 24 38 26
REMARK H PARENT 38 27 5 28 5 29 37 30 37 31 1 33 1 34 1 35 3 37 3 38 3 39
REMARK H PARENT 16 44 16 45 34 47 34 48 17 50 17 51 33 52 33 53 15 55 20 60
REMARK H PARENT 31 63 22 65 23 67 23 68 25 73 29 75 26 77 28 78 27 79
REMARK Flexibility Score: inf
ROOT
ATOM      1  C   UNL     1     -46.157  35.425  27.412  1.00  0.00     0.044 C 
ATOM      2  H   UNL     1     -45.211  35.950  27.218  1.00  0.00     0.052 H 
ATOM      3  H   UNL     1     -45.835  34.499  27.906  1.00  0.00     0.052 H 
ENDROOT
BRANCH   1   4
ATOM      4  N   UNL     1     -46.744  35.161  26.106  1.00  0.00    -0.381 N 
ATOM      5  H   UNL     1     -47.319  35.918  25.750  1.00  0.00     0.160 HD
BRANCH   4   6
ATOM      6  C   UNL     1     -47.175  33.911  25.682  1.00  0.00     0.053 A 
ATOM      7  C   UNL     1     -47.952  31.380  24.808  1.00  0.00     0.055 A 
ATOM      8  C   UNL     1     -46.721  31.889  24.410  1.00  0.00    -0.037 A 
ATOM      9  N   UNL     1     -48.771  32.054  25.653  1.00  0.00    -0.258 NA
ATOM     10  C   UNL     1     -46.337  33.153  24.859  1.00  0.00    -0.036 A 
ATOM     11  H   UNL     1     -46.077  31.319  23.748  1.00  0.00     0.064 H 
ATOM     12  C   UNL     1     -48.347  33.273  26.080  1.00  0.00     0.050 A 
ATOM     13  H   UNL     1     -45.380  33.552  24.531  1.00  0.00     0.065 H 
ATOM     14  H   UNL     1     -49.027  33.736  26.786  1.00  0.00     0.086 H 
BRANCH   7  15
ATOM     15  C   UNL     1     -48.418  30.032  24.287  1.00  0.00     0.041 C 
ATOM     16  H   UNL     1     -49.516  30.018  24.256  1.00  0.00     0.050 H 
ATOM     17  H   UNL     1     -48.078  29.969  23.246  1.00  0.00     0.050 H 
BRANCH  15  18
ATOM     18  N   UNL     1     -47.905  28.869  25.046  1.00  0.00    -0.297 NA
ATOM     19  C   UNL     1     -48.014  26.097  26.101  1.00  0.00    -0.033 C 
ATOM     20  C   UNL     1     -48.265  27.347  26.968  1.00  0.00    -0.035 C 
ATOM     21  C   UNL     1     -47.177  26.507  24.872  1.00  0.00    -0.035 C 
ATOM     22  C   UNL     1     -48.800  28.539  26.166  1.00  0.00    -0.001 C 
ATOM     23  H   UNL     1     -48.967  27.114  27.779  1.00  0.00     0.029 H 
ATOM     24  H   UNL     1     -47.326  27.651  27.452  1.00  0.00     0.029 H 
ATOM     25  C   UNL     1     -47.748  27.724  24.139  1.00  0.00    -0.001 C 
ATOM     26  H   UNL     1     -46.153  26.745  25.190  1.00  0.00     0.029 H 
ATOM     27  H   UNL     1     -47.094  25.667  24.170  1.00  0.00     0.029 H 
ATOM     28  H   UNL     1     -49.816  28.330  25.811  1.00  0.00     0.043 H 
ATOM     29  H   UNL     1     -48.873  29.387  26.856  1.00  0.00     0.043 H 
ATOM     30  H   UNL     1     -47.050  27.985  23.335  1.00  0.00     0.043 H 
ATOM     31  H   UNL     1     -48.701  27.465  23.659  1.00  0.00     0.043 H 
BRANCH  19  32
ATOM     32  C   UNL     1     -49.348  25.462  25.663  1.00  0.00    -0.060 C 
ATOM     33  H   UNL     1     -49.369  24.392  25.902  1.00  0.00     0.024 H 
ATOM     34  H   UNL     1     -50.213  25.921  26.151  1.00  0.00     0.024 H 
ATOM     35  H   UNL     1     -49.493  25.562  24.581  1.00  0.00     0.024 H 
ENDBRANCH  19  32
BRANCH  19  36
ATOM     36  C   UNL     1     -47.237  25.053  26.923  1.00  0.00    -0.060 C 
ATOM     37  H   UNL     1     -47.857  24.174  27.131  1.00  0.00     0.024 H 
ATOM     38  H   UNL     1     -46.910  25.469  27.882  1.00  0.00     0.024 H 
ATOM     39  H   UNL     1     -46.345  24.711  26.387  1.00  0.00     0.024 H 
ENDBRANCH  19  36
ENDBRANCH  15  18
ENDBRANCH   7  15
ENDBRANCH   4   6
ENDBRANCH   1   4
BRANCH   1  40
ATOM     40  C   UNL     1     -46.975  36.308  28.409  1.00  0.00     0.085 C 
ATOM     41  C   UNL     1     -46.367  36.380  29.821  1.00  0.00    -0.005 C 
ATOM     42  C   UNL     1     -47.326  37.707  27.856  1.00  0.00    -0.005 C 
ATOM     43  C   UNL     1     -45.225  37.385  29.986  1.00  0.00     0.022 C 
ATOM     44  H   UNL     1     -46.048  35.386  30.161  1.00  0.00     0.031 H 
ATOM     45  H   UNL     1     -47.165  36.662  30.524  1.00  0.00     0.031 H 
ATOM     46  C   UNL     1     -46.660  38.848  28.619  1.00  0.00     0.022 C 
ATOM     47  H   UNL     1     -48.411  37.876  27.872  1.00  0.00     0.031 H 
ATOM     48  H   UNL     1     -47.046  37.776  26.801  1.00  0.00     0.031 H 
ATOM     49  N   UNL     1     -45.313  38.441  28.982  1.00  0.00    -0.356 N 
ATOM     50  H   UNL     1     -44.267  36.859  29.894  1.00  0.00     0.049 H 
ATOM     51  H   UNL     1     -45.266  37.800  31.001  1.00  0.00     0.049 H 
ATOM     52  H   UNL     1     -47.231  39.080  29.528  1.00  0.00     0.049 H 
ATOM     53  H   UNL     1     -46.700  39.752  28.000  1.00  0.00     0.049 H 
BRANCH  40  54
ATOM     54  O   UNL     1     -48.242  35.615  28.585  1.00  0.00    -0.388 OA
ATOM     55  H   UNL     1     -48.920  36.275  28.811  1.00  0.00     0.211 HD
ENDBRANCH  40  54
BRANCH  49  56
ATOM     56  C   UNL     1     -44.298  39.396  28.994  1.00  0.00     0.134 A 
ATOM     57  C   UNL     1     -44.148  40.273  27.933  1.00  0.00     0.023 A 
ATOM     58  N   UNL     1     -43.413  39.400  30.006  1.00  0.00    -0.219 NA
ATOM     59  C   UNL     1     -43.078  41.148  27.949  1.00  0.00     0.131 A 
ATOM     60  H   UNL     1     -44.792  40.214  27.066  1.00  0.00     0.070 H 
ATOM     61  C   UNL     1     -42.414  40.290  29.935  1.00  0.00     0.120 A 
ATOM     62  N   UNL     1     -42.199  41.173  28.953  1.00  0.00    -0.219 NA
ATOM     63  H   UNL     1     -41.706  40.292  30.756  1.00  0.00     0.106 H 
BRANCH  59  64
ATOM     64  N   UNL     1     -42.812  42.010  26.883  1.00  0.00    -0.366 N 
ATOM     65  H   UNL     1     -42.938  42.947  27.263  1.00  0.00     0.162 HD
BRANCH  64  66
ATOM     66  C   UNL     1     -43.655  41.806  25.714  1.00  0.00     0.041 C 
ATOM     67  H   UNL     1     -44.610  41.344  25.996  1.00  0.00     0.054 H 
ATOM     68  H   UNL     1     -43.179  41.142  24.982  1.00  0.00     0.054 H 
BRANCH  66  69
ATOM     69  C   UNL     1     -43.915  43.143  25.062  1.00  0.00    -0.029 A 
ATOM     70  C   UNL     1     -44.282  43.213  23.710  1.00  0.00    -0.057 A 
ATOM     71  C   UNL     1     -43.752  44.335  25.783  1.00  0.00    -0.057 A 
ATOM     72  C   UNL     1     -44.497  44.448  23.096  1.00  0.00    -0.062 A 
ATOM     73  H   UNL     1     -44.396  42.302  23.127  1.00  0.00     0.063 H 
ATOM     74  C   UNL     1     -43.969  45.569  25.168  1.00  0.00    -0.062 A 
ATOM     75  H   UNL     1     -43.452  44.307  26.829  1.00  0.00     0.063 H 
ATOM     76  C   UNL     1     -44.343  45.625  23.825  1.00  0.00    -0.062 A 
ATOM     77  H   UNL     1     -44.781  44.491  22.047  1.00  0.00     0.062 H 
ATOM     78  H   UNL     1     -43.841  46.488  25.734  1.00  0.00     0.062 H 
ATOM     79  H   UNL     1     -44.507  46.587  23.347  1.00  0.00     0.062 H 
ENDBRANCH  66  69
ENDBRANCH  64  66
ENDBRANCH  59  64
ENDBRANCH  49  56
ENDBRANCH   1  40
TORSDOF 12
ENDMDL
MODEL 3
REMARK VINA RESULT:      -9.2      1.901      2.751
REMARK SMILES CC1(C)CCN(Cc2ccc(NCC3(O)CCN(c4cc(NCc5ccccc5)ncn4)CC3)cn2)CC1
REMARK SMILES IDX 13 1 12 4 11 6 8 7 9 8 36 9 10 10 35 12 7 15 6 18 2 19 4 20
REMARK SMILES IDX 38 21 5 22 37 25 1 32 3 36 14 40 16 41 34 42 17 43 33 46
REMARK SMILES IDX 18 49 15 54 19 56 20 57 32 58 21 59 31 61 30 62 22 64 23 66
REMARK SMILES IDX 24 69 25 70 29 71 26 72 28 74 27 76
REMARK H PARENT 13 2 13 3 12 5 9 11 10 13 35 14 7 16 7 17 4 23 4 24 38 26
REMARK H PARENT 38 27 5 28 5 29 37 30 37 31 1 33 1 34 1 35 3 37 3 38 3 39
REMARK H PARENT 16 44 16 45 34 47 34 48 17 50 17 51 33 52 33 53 15 55 20 60
REMARK H PARENT 31 63 22 65 23 67 23 68 25 73 29 75 26 77 28 78 27 79
REMARK Flexibility Score: inf
ROOT
ATOM      1  C   UNL     1     -45.488  35.713  27.802  1.00  0.00     0.044 C 
ATOM      2  H   UNL     1     -44.522  36.151  27.515  1.00  0.00     0.052 H 
ATOM      3  H   UNL     1     -45.215  34.714  28.164  1.00  0.00     0.052 H 
ENDROOT
BRANCH   1   4
ATOM      4  N   UNL     1     -46.277  35.645  26.581  1.00  0.00    -0.381 N 
ATOM      5  H   UNL     1     -46.763  36.507  26.353  1.00  0.00     0.160 HD
BRANCH   4   6
ATOM      6  C   UNL     1     -46.958  34.514  26.153  1.00  0.00     0.053 A 
ATOM      7  C   UNL     1     -48.407  32.282  25.318  1.00  0.00     0.055 A 
ATOM      8  C   UNL     1     -48.999  33.192  26.186  1.00  0.00    -0.037 A 
ATOM      9  N   UNL     1     -47.159  32.469  24.819  1.00  0.00    -0.258 NA
ATOM     10  C   UNL     1     -48.270  34.311  26.591  1.00  0.00    -0.036 A 
ATOM     11  H   UNL     1     -50.006  33.027  26.555  1.00  0.00     0.064 H 
ATOM     12  C   UNL     1     -46.494  33.583  25.227  1.00  0.00     0.050 A 
ATOM     13  H   UNL     1     -48.734  35.010  27.282  1.00  0.00     0.065 H 
ATOM     14  H   UNL     1     -45.523  33.692  24.758  1.00  0.00     0.086 H 
BRANCH   7  15
ATOM     15  C   UNL     1     -49.157  31.028  24.907  1.00  0.00     0.041 C 
ATOM     16  H   UNL     1     -48.798  30.179  25.505  1.00  0.00     0.050 H 
ATOM     17  H   UNL     1     -50.205  31.187  25.195  1.00  0.00     0.050 H 
BRANCH  15  18
ATOM     18  N   UNL     1     -49.085  30.714  23.462  1.00  0.00    -0.297 NA
ATOM     19  C   UNL     1     -49.869  29.271  20.991  1.00  0.00    -0.033 C 
ATOM     20  C   UNL     1     -48.559  28.996  21.756  1.00  0.00    -0.035 C 
ATOM     21  C   UNL     1     -50.354  30.693  21.335  1.00  0.00    -0.035 C 
ATOM     22  C   UNL     1     -48.655  29.322  23.250  1.00  0.00    -0.001 C 
ATOM     23  H   UNL     1     -48.260  27.947  21.635  1.00  0.00     0.029 H 
ATOM     24  H   UNL     1     -47.749  29.599  21.322  1.00  0.00     0.029 H 
ATOM     25  C   UNL     1     -50.393  30.964  22.841  1.00  0.00    -0.001 C 
ATOM     26  H   UNL     1     -49.686  31.431  20.869  1.00  0.00     0.029 H 
ATOM     27  H   UNL     1     -51.351  30.870  20.909  1.00  0.00     0.029 H 
ATOM     28  H   UNL     1     -49.333  28.619  23.748  1.00  0.00     0.043 H 
ATOM     29  H   UNL     1     -47.660  29.163  23.680  1.00  0.00     0.043 H 
ATOM     30  H   UNL     1     -50.672  32.015  22.983  1.00  0.00     0.043 H 
ATOM     31  H   UNL     1     -51.178  30.361  23.315  1.00  0.00     0.043 H 
BRANCH  19  32
ATOM     32  C   UNL     1     -50.942  28.227  21.356  1.00  0.00    -0.060 C 
ATOM     33  H   UNL     1     -51.709  28.163  20.575  1.00  0.00     0.024 H 
ATOM     34  H   UNL     1     -50.526  27.224  21.485  1.00  0.00     0.024 H 
ATOM     35  H   UNL     1     -51.446  28.494  22.292  1.00  0.00     0.024 H 
ENDBRANCH  19  32
BRANCH  19  36
ATOM     36  C   UNL     1     -49.607  29.173  19.477  1.00  0.00    -0.060 C 
ATOM     37  H   UNL     1     -49.477  28.131  19.165  1.00  0.00     0.024 H 
ATOM     38  H   UNL     1     -48.702  29.723  19.196  1.00  0.00     0.024 H 
ATOM     39  H   UNL     1     -50.441  29.590  18.902  1.00  0.00     0.024 H 
ENDBRANCH  19  36
ENDBRANCH  15  18
ENDBRANCH   7  15
ENDBRANCH   4   6
ENDBRANCH   1   4
BRANCH   1  40
ATOM     40  C   UNL     1     -46.048  36.574  28.980  1.00  0.00     0.085 C 
ATOM     41  C   UNL     1     -45.047  37.605  29.531  1.00  0.00    -0.005 C 
ATOM     42  C   UNL     1     -47.427  37.206  28.686  1.00  0.00    -0.005 C 
ATOM     43  C   UNL     1     -44.943  38.904  28.729  1.00  0.00     0.022 C 
ATOM     44  H   UNL     1     -44.052  37.156  29.653  1.00  0.00     0.031 H 
ATOM     45  H   UNL     1     -45.352  37.867  30.555  1.00  0.00     0.031 H 
ATOM     46  C   UNL     1     -47.399  38.730  28.623  1.00  0.00     0.022 C 
ATOM     47  H   UNL     1     -48.165  36.911  29.444  1.00  0.00     0.031 H 
ATOM     48  H   UNL     1     -47.825  36.820  27.743  1.00  0.00     0.031 H 
ATOM     49  N   UNL     1     -46.168  39.145  27.971  1.00  0.00    -0.356 N 
ATOM     50  H   UNL     1     -44.087  38.838  28.046  1.00  0.00     0.049 H 
ATOM     51  H   UNL     1     -44.738  39.729  29.422  1.00  0.00     0.049 H 
ATOM     52  H   UNL     1     -47.438  39.151  29.637  1.00  0.00     0.049 H 
ATOM     53  H   UNL     1     -48.308  39.076  28.119  1.00  0.00     0.049 H 
BRANCH  40  54
ATOM     54  O   UNL     1     -46.259  35.639  30.074  1.00  0.00    -0.388 OA
ATOM     55  H   UNL     1     -45.873  36.023  30.880  1.00  0.00     0.211 HD
ENDBRANCH  40  54
BRANCH  49  56
ATOM     56  C   UNL     1     -46.182  40.277  27.158  1.00  0.00     0.134 A 
ATOM     57  C   UNL     1     -45.066  40.621  26.415  1.00  0.00     0.023 A 
ATOM     58  N   UNL     1     -47.260  41.080  27.171  1.00  0.00    -0.219 NA
ATOM     59  C   UNL     1     -45.095  41.795  25.688  1.00  0.00     0.131 A 
ATOM     60  H   UNL     1     -44.156  40.038  26.473  1.00  0.00     0.070 H 
ATOM     61  C   UNL     1     -47.196  42.193  26.428  1.00  0.00     0.120 A 
ATOM     62  N   UNL     1     -46.164  42.596  25.680  1.00  0.00    -0.219 NA
ATOM     63  H   UNL     1     -48.071  42.835  26.439  1.00  0.00     0.106 H 
BRANCH  59  64
ATOM     64  N   UNL     1     -43.985  42.251  24.973  1.00  0.00    -0.366 N 
ATOM     65  H   UNL     1     -43.415  41.423  24.813  1.00  0.00     0.162 HD
BRANCH  64  66
ATOM     66  C   UNL     1     -43.218  43.290  25.646  1.00  0.00     0.041 C 
ATOM     67  H   UNL     1     -43.874  44.095  25.998  1.00  0.00     0.054 H 
ATOM     68  H   UNL     1     -42.479  43.746  24.975  1.00  0.00     0.054 H 
BRANCH  66  69
ATOM     69  C   UNL     1     -42.495  42.676  26.821  1.00  0.00    -0.029 A 
ATOM     70  C   UNL     1     -41.416  41.804  26.613  1.00  0.00    -0.057 A 
ATOM     71  C   UNL     1     -42.916  42.935  28.134  1.00  0.00    -0.057 A 
ATOM     72  C   UNL     1     -40.763  41.214  27.697  1.00  0.00    -0.062 A 
ATOM     73  H   UNL     1     -41.084  41.576  25.603  1.00  0.00     0.063 H 
ATOM     74  C   UNL     1     -42.259  42.345  29.215  1.00  0.00    -0.062 A 
ATOM     75  H   UNL     1     -43.761  43.595  28.320  1.00  0.00     0.063 H 
ATOM     76  C   UNL     1     -41.183  41.487  28.997  1.00  0.00    -0.062 A 
ATOM     77  H   UNL     1     -39.927  40.540  27.525  1.00  0.00     0.062 H 
ATOM     78  H   UNL     1     -42.592  42.551  30.230  1.00  0.00     0.062 H 
ATOM     79  H   UNL     1     -40.675  41.026  29.840  1.00  0.00     0.062 H 
ENDBRANCH  66  69
ENDBRANCH  64  66
ENDBRANCH  59  64
ENDBRANCH  49  56
ENDBRANCH   1  40
TORSDOF 12
ENDMDL
MODEL 4
REMARK VINA RESULT:      -9.1      1.772      2.731
REMARK SMILES CC1(C)CCN(Cc2ccc(NCC3(O)CCN(c4cc(NCc5ccccc5)ncn4)CC3)cn2)CC1
REMARK SMILES IDX 13 1 12 4 11 6 8 7 9 8 36 9 10 10 35 12 7 15 6 18 2 19 4 20
REMARK SMILES IDX 38 21 5 22 37 25 1 32 3 36 14 40 16 41 34 42 17 43 33 46
REMARK SMILES IDX 18 49 15 54 19 56 20 57 32 58 21 59 31 61 30 62 22 64 23 66
REMARK SMILES IDX 24 69 25 70 29 71 26 72 28 74 27 76
REMARK H PARENT 13 2 13 3 12 5 9 11 10 13 35 14 7 16 7 17 4 23 4 24 38 26
REMARK H PARENT 38 27 5 28 5 29 37 30 37 31 1 33 1 34 1 35 3 37 3 38 3 39
REMARK H PARENT 16 44 16 45 34 47 34 48 17 50 17 51 33 52 33 53 15 55 20 60
REMARK H PARENT 31 63 22 65 23 67 23 68 25 73 29 75 26 77 28 78 27 79
REMARK Flexibility Score: inf
ROOT
ATOM      1  C   UNL     1     -45.781  33.526  25.697  1.00  0.00     0.044 C 
ATOM      2  H   UNL     1     -45.264  34.493  25.630  1.00  0.00     0.052 H 
ATOM      3  H   UNL     1     -44.962  32.812  25.854  1.00  0.00     0.052 H 
ENDROOT
BRANCH   1   4
ATOM      4  N   UNL     1     -46.427  33.326  24.408  1.00  0.00    -0.381 N 
ATOM      5  H   UNL     1     -46.996  34.110  24.105  1.00  0.00     0.160 HD
BRANCH   4   6
ATOM      6  C   UNL     1     -46.907  32.105  23.955  1.00  0.00     0.053 A 
ATOM      7  C   UNL     1     -47.958  29.683  23.059  1.00  0.00     0.055 A 
ATOM      8  C   UNL     1     -48.765  30.544  23.794  1.00  0.00    -0.037 A 
ATOM      9  N   UNL     1     -46.686  30.003  22.716  1.00  0.00    -0.258 NA
ATOM     10  C   UNL     1     -48.233  31.758  24.231  1.00  0.00    -0.036 A 
ATOM     11  H   UNL     1     -49.786  30.269  24.038  1.00  0.00     0.064 H 
ATOM     12  C   UNL     1     -46.216  31.205  23.147  1.00  0.00     0.050 A 
ATOM     13  H   UNL     1     -48.864  32.419  24.819  1.00  0.00     0.065 H 
ATOM     14  H   UNL     1     -45.211  31.416  22.802  1.00  0.00     0.086 H 
BRANCH   7  15
ATOM     15  C   UNL     1     -48.495  28.331  22.620  1.00  0.00     0.041 C 
ATOM     16  H   UNL     1     -49.578  28.409  22.455  1.00  0.00     0.050 H 
ATOM     17  H   UNL     1     -48.046  28.125  21.639  1.00  0.00     0.050 H 
BRANCH  15  18
ATOM     18  N   UNL     1     -48.188  27.218  23.546  1.00  0.00    -0.297 NA
ATOM     19  C   UNL     1     -47.649  26.015  26.205  1.00  0.00    -0.033 C 
ATOM     20  C   UNL     1     -46.554  26.271  25.150  1.00  0.00    -0.035 C 
ATOM     21  C   UNL     1     -49.012  25.923  25.490  1.00  0.00    -0.035 C 
ATOM     22  C   UNL     1     -46.888  27.429  24.204  1.00  0.00    -0.001 C 
ATOM     23  H   UNL     1     -45.593  26.471  25.640  1.00  0.00     0.029 H 
ATOM     24  H   UNL     1     -46.408  25.363  24.547  1.00  0.00     0.029 H 
ATOM     25  C   UNL     1     -49.267  27.092  24.535  1.00  0.00    -0.001 C 
ATOM     26  H   UNL     1     -49.061  24.990  24.913  1.00  0.00     0.029 H 
ATOM     27  H   UNL     1     -49.826  25.873  26.225  1.00  0.00     0.029 H 
ATOM     28  H   UNL     1     -46.871  28.380  24.749  1.00  0.00     0.043 H 
ATOM     29  H   UNL     1     -46.088  27.477  23.457  1.00  0.00     0.043 H 
ATOM     30  H   UNL     1     -50.216  26.901  24.020  1.00  0.00     0.043 H 
ATOM     31  H   UNL     1     -49.396  28.024  25.101  1.00  0.00     0.043 H 
BRANCH  19  32
ATOM     32  C   UNL     1     -47.662  27.139  27.259  1.00  0.00    -0.060 C 
ATOM     33  H   UNL     1     -47.497  28.116  26.792  1.00  0.00     0.024 H 
ATOM     34  H   UNL     1     -48.609  27.193  27.804  1.00  0.00     0.024 H 
ATOM     35  H   UNL     1     -46.868  26.989  28.000  1.00  0.00     0.024 H 
ENDBRANCH  19  32
BRANCH  19  36
ATOM     36  C   UNL     1     -47.361  24.687  26.928  1.00  0.00    -0.060 C 
ATOM     37  H   UNL     1     -47.764  23.837  26.368  1.00  0.00     0.024 H 
ATOM     38  H   UNL     1     -47.812  24.675  27.927  1.00  0.00     0.024 H 
ATOM     39  H   UNL     1     -46.284  24.526  27.049  1.00  0.00     0.024 H 
ENDBRANCH  19  36
ENDBRANCH  15  18
ENDBRANCH   7  15
ENDBRANCH   4   6
ENDBRANCH   1   4
BRANCH   1  40
ATOM     40  C   UNL     1     -46.694  33.581  26.964  1.00  0.00     0.085 C 
ATOM     41  C   UNL     1     -45.966  34.045  28.238  1.00  0.00    -0.005 C 
ATOM     42  C   UNL     1     -48.018  34.345  26.743  1.00  0.00    -0.005 C 
ATOM     43  C   UNL     1     -45.805  35.560  28.380  1.00  0.00     0.022 C 
ATOM     44  H   UNL     1     -44.990  33.551  28.332  1.00  0.00     0.031 H 
ATOM     45  H   UNL     1     -46.535  33.685  29.109  1.00  0.00     0.031 H 
ATOM     46  C   UNL     1     -48.132  35.621  27.571  1.00  0.00     0.022 C 
ATOM     47  H   UNL     1     -48.883  33.710  26.978  1.00  0.00     0.031 H 
ATOM     48  H   UNL     1     -48.135  34.597  25.685  1.00  0.00     0.031 H 
ATOM     49  N   UNL     1     -46.829  36.264  27.613  1.00  0.00    -0.356 N 
ATOM     50  H   UNL     1     -44.808  35.851  28.028  1.00  0.00     0.049 H 
ATOM     51  H   UNL     1     -45.859  35.821  29.444  1.00  0.00     0.049 H 
ATOM     52  H   UNL     1     -48.457  35.382  28.592  1.00  0.00     0.049 H 
ATOM     53  H   UNL     1     -48.923  36.246  27.141  1.00  0.00     0.049 H 
BRANCH  40  54
ATOM     54  O   UNL     1     -47.065  32.199  27.231  1.00  0.00    -0.388 OA
ATOM     55  H   UNL     1     -47.732  32.196  27.940  1.00  0.00     0.211 HD
ENDBRANCH  40  54
BRANCH  49  56
ATOM     56  C   UNL     1     -46.763  37.656  27.621  1.00  0.00     0.134 A 
ATOM     57  C   UNL     1     -45.537  38.300  27.644  1.00  0.00     0.023 A 
ATOM     58  N   UNL     1     -47.901  38.367  27.694  1.00  0.00    -0.219 NA
ATOM     59  C   UNL     1     -45.519  39.678  27.734  1.00  0.00     0.131 A 
ATOM     60  H   UNL     1     -44.613  37.738  27.686  1.00  0.00     0.070 H 
ATOM     61  C   UNL     1     -47.781  39.699  27.772  1.00  0.00     0.120 A 
ATOM     62  N   UNL     1     -46.642  40.399  27.794  1.00  0.00    -0.219 NA
ATOM     63  H   UNL     1     -48.703  40.267  27.826  1.00  0.00     0.106 H 
BRANCH  59  64
ATOM     64  N   UNL     1     -44.326  40.397  27.839  1.00  0.00    -0.366 N 
ATOM     65  H   UNL     1     -44.589  41.287  28.260  1.00  0.00     0.162 HD
BRANCH  64  66
ATOM     66  C   UNL     1     -43.631  40.604  26.577  1.00  0.00     0.041 C 
ATOM     67  H   UNL     1     -44.006  39.918  25.807  1.00  0.00     0.054 H 
ATOM     68  H   UNL     1     -42.553  40.423  26.673  1.00  0.00     0.054 H 
BRANCH  66  69
ATOM     69  C   UNL     1     -43.847  42.031  26.130  1.00  0.00    -0.029 A 
ATOM     70  C   UNL     1     -43.668  43.090  27.032  1.00  0.00    -0.057 A 
ATOM     71  C   UNL     1     -44.269  42.315  24.823  1.00  0.00    -0.057 A 
ATOM     72  C   UNL     1     -43.892  44.408  26.630  1.00  0.00    -0.062 A 
ATOM     73  H   UNL     1     -43.358  42.891  28.055  1.00  0.00     0.063 H 
ATOM     74  C   UNL     1     -44.491  43.634  24.424  1.00  0.00    -0.062 A 
ATOM     75  H   UNL     1     -44.431  41.509  24.111  1.00  0.00     0.063 H 
ATOM     76  C   UNL     1     -44.301  44.680  25.327  1.00  0.00    -0.062 A 
ATOM     77  H   UNL     1     -43.750  45.223  27.337  1.00  0.00     0.062 H 
ATOM     78  H   UNL     1     -44.818  43.846  23.409  1.00  0.00     0.062 H 
ATOM     79  H   UNL     1     -44.478  45.706  25.015  1.00  0.00     0.062 H 
ENDBRANCH  66  69
ENDBRANCH  64  66
ENDBRANCH  59  64
ENDBRANCH  49  56
ENDBRANCH   1  40
TORSDOF 12
ENDMDL
MODEL 5
REMARK VINA RESULT:      -8.9      2.621      4.237
REMARK SMILES CC1(C)CCN(Cc2ccc(NCC3(O)CCN(c4cc(NCc5ccccc5)ncn4)CC3)cn2)CC1
REMARK SMILES IDX 13 1 12 4 11 6 8 7 9 8 36 9 10 10 35 12 7 15 6 18 2 19 4 20
REMARK SMILES IDX 38 21 5 22 37 25 1 32 3 36 14 40 16 41 34 42 17 43 33 46
REMARK SMILES IDX 18 49 15 54 19 56 20 57 32 58 21 59 31 61 30 62 22 64 23 66
REMARK SMILES IDX 24 69 25 70 29 71 26 72 28 74 27 76
REMARK H PARENT 13 2 13 3 12 5 9 11 10 13 35 14 7 16 7 17 4 23 4 24 38 26
REMARK H PARENT 38 27 5 28 5 29 37 30 37 31 1 33 1 34 1 35 3 37 3 38 3 39
REMARK H PARENT 16 44 16 45 34 47 34 48 17 50 17 51 33 52 33 53 15 55 20 60
REMARK H PARENT 31 63 22 65 23 67 23 68 25 73 29 75 26 77 28 78 27 79
REMARK Flexibility Score: inf
ROOT
ATOM      1  C   UNL     1     -45.680  35.659  28.091  1.00  0.00     0.044 C 
ATOM      2  H   UNL     1     -44.637  36.002  28.076  1.00  0.00     0.052 H 
ATOM      3  H   UNL     1     -45.628  34.714  28.647  1.00  0.00     0.052 H 
ENDROOT
BRANCH   1   4
ATOM      4  N   UNL     1     -46.051  35.443  26.699  1.00  0.00    -0.381 N 
ATOM      5  H   UNL     1     -46.328  36.288  26.209  1.00  0.00     0.160 HD
BRANCH   4   6
ATOM      6  C   UNL     1     -46.704  34.310  26.232  1.00  0.00     0.053 A 
ATOM      7  C   UNL     1     -48.097  32.080  25.303  1.00  0.00     0.055 A 
ATOM      8  C   UNL     1     -48.778  33.059  26.017  1.00  0.00    -0.037 A 
ATOM      9  N   UNL     1     -46.781  32.197  24.994  1.00  0.00    -0.258 NA
ATOM     10  C   UNL     1     -48.075  34.175  26.471  1.00  0.00    -0.036 A 
ATOM     11  H   UNL     1     -49.836  32.947  26.233  1.00  0.00     0.064 H 
ATOM     12  C   UNL     1     -46.141  33.312  25.441  1.00  0.00     0.050 A 
ATOM     13  H   UNL     1     -48.610  34.928  27.043  1.00  0.00     0.065 H 
ATOM     14  H   UNL     1     -45.107  33.363  25.123  1.00  0.00     0.086 H 
BRANCH   7  15
ATOM     15  C   UNL     1     -48.826  30.828  24.847  1.00  0.00     0.041 C 
ATOM     16  H   UNL     1     -48.089  30.072  24.544  1.00  0.00     0.050 H 
ATOM     17  H   UNL     1     -49.334  30.428  25.734  1.00  0.00     0.050 H 
BRANCH  15  18
ATOM     18  N   UNL     1     -49.816  31.051  23.770  1.00  0.00    -0.297 NA
ATOM     19  C   UNL     1     -51.327  30.315  21.324  1.00  0.00    -0.033 C 
ATOM     20  C   UNL     1     -50.174  31.338  21.334  1.00  0.00    -0.035 C 
ATOM     21  C   UNL     1     -51.911  30.213  22.748  1.00  0.00    -0.035 C 
ATOM     22  C   UNL     1     -49.157  31.088  22.454  1.00  0.00    -0.001 C 
ATOM     23  H   UNL     1     -49.654  31.335  20.368  1.00  0.00     0.029 H 
ATOM     24  H   UNL     1     -50.584  32.350  21.460  1.00  0.00     0.029 H 
ATOM     25  C   UNL     1     -50.840  29.999  23.820  1.00  0.00    -0.001 C 
ATOM     26  H   UNL     1     -52.458  31.136  22.986  1.00  0.00     0.029 H 
ATOM     27  H   UNL     1     -52.646  29.399  22.802  1.00  0.00     0.029 H 
ATOM     28  H   UNL     1     -48.605  30.160  22.263  1.00  0.00     0.043 H 
ATOM     29  H   UNL     1     -48.429  31.905  22.417  1.00  0.00     0.043 H 
ATOM     30  H   UNL     1     -51.338  30.017  24.797  1.00  0.00     0.043 H 
ATOM     31  H   UNL     1     -50.389  29.003  23.712  1.00  0.00     0.043 H 
BRANCH  19  32
ATOM     32  C   UNL     1     -50.830  28.939  20.840  1.00  0.00    -0.060 C 
ATOM     33  H   UNL     1     -50.445  28.345  21.678  1.00  0.00     0.024 H 
ATOM     34  H   UNL     1     -51.619  28.352  20.361  1.00  0.00     0.024 H 
ATOM     35  H   UNL     1     -50.017  29.050  20.113  1.00  0.00     0.024 H 
ENDBRANCH  19  32
BRANCH  19  36
ATOM     36  C   UNL     1     -52.424  30.791  20.356  1.00  0.00    -0.060 C 
ATOM     37  H   UNL     1     -52.010  31.443  19.579  1.00  0.00     0.024 H 
ATOM     38  H   UNL     1     -53.202  31.353  20.884  1.00  0.00     0.024 H 
ATOM     39  H   UNL     1     -52.908  29.944  19.856  1.00  0.00     0.024 H 
ENDBRANCH  19  36
ENDBRANCH  15  18
ENDBRANCH   7  15
ENDBRANCH   4   6
ENDBRANCH   1   4
BRANCH   1  40
ATOM     40  C   UNL     1     -46.498  36.714  28.903  1.00  0.00     0.085 C 
ATOM     41  C   UNL     1     -45.921  37.010  30.298  1.00  0.00    -0.005 C 
ATOM     42  C   UNL     1     -46.799  38.007  28.113  1.00  0.00    -0.005 C 
ATOM     43  C   UNL     1     -44.757  38.003  30.323  1.00  0.00     0.022 C 
ATOM     44  H   UNL     1     -45.636  36.081  30.809  1.00  0.00     0.031 H 
ATOM     45  H   UNL     1     -46.727  37.424  30.923  1.00  0.00     0.031 H 
ATOM     46  C   UNL     1     -46.121  39.246  28.691  1.00  0.00     0.022 C 
ATOM     47  H   UNL     1     -47.880  38.200  28.072  1.00  0.00     0.031 H 
ATOM     48  H   UNL     1     -46.494  37.891  27.069  1.00  0.00     0.031 H 
ATOM     49  N   UNL     1     -44.794  38.877  29.154  1.00  0.00    -0.356 N 
ATOM     50  H   UNL     1     -43.811  37.449  30.346  1.00  0.00     0.049 H 
ATOM     51  H   UNL     1     -44.811  38.585  31.252  1.00  0.00     0.049 H 
ATOM     52  H   UNL     1     -46.708  39.640  29.533  1.00  0.00     0.049 H 
ATOM     53  H   UNL     1     -46.124  40.033  27.929  1.00  0.00     0.049 H 
BRANCH  40  54
ATOM     54  O   UNL     1     -47.786  36.089  29.158  1.00  0.00    -0.388 OA
ATOM     55  H   UNL     1     -47.668  35.425  29.859  1.00  0.00     0.211 HD
ENDBRANCH  40  54
BRANCH  49  56
ATOM     56  C   UNL     1     -43.756  39.798  29.033  1.00  0.00     0.134 A 
ATOM     57  C   UNL     1     -43.644  40.583  27.898  1.00  0.00     0.023 A 
ATOM     58  N   UNL     1     -42.814  39.854  29.990  1.00  0.00    -0.219 NA
ATOM     59  C   UNL     1     -42.552  41.423  27.784  1.00  0.00     0.131 A 
ATOM     60  H   UNL     1     -44.339  40.476  27.076  1.00  0.00     0.070 H 
ATOM     61  C   UNL     1     -41.798  40.705  29.792  1.00  0.00     0.120 A 
ATOM     62  N   UNL     1     -41.616  41.500  28.732  1.00  0.00    -0.219 NA
ATOM     63  H   UNL     1     -41.043  40.749  30.570  1.00  0.00     0.106 H 
BRANCH  59  64
ATOM     64  N   UNL     1     -42.326  42.191  26.639  1.00  0.00    -0.366 N 
ATOM     65  H   UNL     1     -41.346  42.462  26.692  1.00  0.00     0.162 HD
BRANCH  64  66
ATOM     66  C   UNL     1     -43.184  43.360  26.515  1.00  0.00     0.041 C 
ATOM     67  H   UNL     1     -42.760  44.215  27.057  1.00  0.00     0.054 H 
ATOM     68  H   UNL     1     -44.182  43.177  26.932  1.00  0.00     0.054 H 
BRANCH  66  69
ATOM     69  C   UNL     1     -43.323  43.708  25.052  1.00  0.00    -0.029 A 
ATOM     70  C   UNL     1     -42.209  43.658  24.202  1.00  0.00    -0.057 A 
ATOM     71  C   UNL     1     -44.557  44.128  24.531  1.00  0.00    -0.057 A 
ATOM     72  C   UNL     1     -42.328  44.005  22.855  1.00  0.00    -0.062 A 
ATOM     73  H   UNL     1     -41.240  43.353  24.589  1.00  0.00     0.063 H 
ATOM     74  C   UNL     1     -44.674  44.472  23.184  1.00  0.00    -0.062 A 
ATOM     75  H   UNL     1     -45.432  44.191  25.174  1.00  0.00     0.063 H 
ATOM     76  C   UNL     1     -43.560  44.410  22.346  1.00  0.00    -0.062 A 
ATOM     77  H   UNL     1     -41.458  43.962  22.204  1.00  0.00     0.062 H 
ATOM     78  H   UNL     1     -45.633  44.796  22.787  1.00  0.00     0.062 H 
ATOM     79  H   UNL     1     -43.653  44.682  21.298  1.00  0.00     0.062 H 
ENDBRANCH  66  69
ENDBRANCH  64  66
ENDBRANCH  59  64
ENDBRANCH  49  56
ENDBRANCH   1  40
TORSDOF 12
ENDMDL
MODEL 6
REMARK VINA RESULT:      -8.6      1.946      2.773
REMARK SMILES CC1(C)CCN(Cc2ccc(NCC3(O)CCN(c4cc(NCc5ccccc5)ncn4)CC3)cn2)CC1
REMARK SMILES IDX 13 1 12 4 11 6 8 7 9 8 36 9 10 10 35 12 7 15 6 18 2 19 4 20
REMARK SMILES IDX 38 21 5 22 37 25 1 32 3 36 14 40 16 41 34 42 17 43 33 46
REMARK SMILES IDX 18 49 15 54 19 56 20 57 32 58 21 59 31 61 30 62 22 64 23 66
REMARK SMILES IDX 24 69 25 70 29 71 26 72 28 74 27 76
REMARK H PARENT 13 2 13 3 12 5 9 11 10 13 35 14 7 16 7 17 4 23 4 24 38 26
REMARK H PARENT 38 27 5 28 5 29 37 30 37 31 1 33 1 34 1 35 3 37 3 38 3 39
REMARK H PARENT 16 44 16 45 34 47 34 48 17 50 17 51 33 52 33 53 15 55 20 60
REMARK H PARENT 31 63 22 65 23 67 23 68 25 73 29 75 26 77 28 78 27 79
REMARK Flexibility Score: inf
ROOT
ATOM      1  C   UNL     1     -46.618  34.602  26.487  1.00  0.00     0.044 C 
ATOM      2  H   UNL     1     -46.593  35.466  25.808  1.00  0.00     0.052 H 
ATOM      3  H   UNL     1     -45.713  34.043  26.220  1.00  0.00     0.052 H 
ENDROOT
BRANCH   1   4
ATOM      4  N   UNL     1     -47.825  33.861  26.148  1.00  0.00    -0.381 N 
ATOM      5  H   UNL     1     -48.516  33.832  26.892  1.00  0.00     0.160 HD
BRANCH   4   6
ATOM      6  C   UNL     1     -47.846  32.727  25.348  1.00  0.00     0.053 A 
ATOM      7  C   UNL     1     -47.796  30.443  23.748  1.00  0.00     0.055 A 
ATOM      8  C   UNL     1     -46.628  31.177  23.924  1.00  0.00    -0.037 A 
ATOM      9  N   UNL     1     -48.954  30.771  24.373  1.00  0.00    -0.258 NA
ATOM     10  C   UNL     1     -46.661  32.314  24.733  1.00  0.00    -0.036 A 
ATOM     11  H   UNL     1     -45.711  30.880  23.426  1.00  0.00     0.064 H 
ATOM     12  C   UNL     1     -48.934  31.875  25.167  1.00  0.00     0.050 A 
ATOM     13  H   UNL     1     -45.749  32.892  24.852  1.00  0.00     0.065 H 
ATOM     14  H   UNL     1     -49.877  32.054  25.669  1.00  0.00     0.086 H 
BRANCH   7  15
ATOM     15  C   UNL     1     -47.801  29.235  22.828  1.00  0.00     0.041 C 
ATOM     16  H   UNL     1     -48.680  29.286  22.172  1.00  0.00     0.050 H 
ATOM     17  H   UNL     1     -46.923  29.340  22.177  1.00  0.00     0.050 H 
BRANCH  15  18
ATOM     18  N   UNL     1     -47.745  27.931  23.525  1.00  0.00    -0.297 NA
ATOM     19  C   UNL     1     -47.514  26.171  25.903  1.00  0.00    -0.033 C 
ATOM     20  C   UNL     1     -46.370  26.389  24.893  1.00  0.00    -0.035 C 
ATOM     21  C   UNL     1     -48.854  26.494  25.212  1.00  0.00    -0.035 C 
ATOM     22  C   UNL     1     -46.442  27.746  24.184  1.00  0.00    -0.001 C 
ATOM     23  H   UNL     1     -45.397  26.294  25.392  1.00  0.00     0.029 H 
ATOM     24  H   UNL     1     -46.402  25.599  24.129  1.00  0.00     0.029 H 
ATOM     25  C   UNL     1     -48.846  27.847  24.495  1.00  0.00    -0.001 C 
ATOM     26  H   UNL     1     -49.082  25.714  24.473  1.00  0.00     0.029 H 
ATOM     27  H   UNL     1     -49.674  26.475  25.941  1.00  0.00     0.029 H 
ATOM     28  H   UNL     1     -46.242  28.555  24.896  1.00  0.00     0.043 H 
ATOM     29  H   UNL     1     -45.636  27.767  23.443  1.00  0.00     0.043 H 
ATOM     30  H   UNL     1     -49.804  27.952  23.973  1.00  0.00     0.043 H 
ATOM     31  H   UNL     1     -48.792  28.664  25.227  1.00  0.00     0.043 H 
BRANCH  19  32
ATOM     32  C   UNL     1     -47.316  27.058  27.148  1.00  0.00    -0.060 C 
ATOM     33  H   UNL     1     -46.282  27.415  27.214  1.00  0.00     0.024 H 
ATOM     34  H   UNL     1     -47.965  27.938  27.144  1.00  0.00     0.024 H 
ATOM     35  H   UNL     1     -47.531  26.498  28.066  1.00  0.00     0.024 H 
ENDBRANCH  19  32
BRANCH  19  36
ATOM     36  C   UNL     1     -47.517  24.702  26.362  1.00  0.00    -0.060 C 
ATOM     37  H   UNL     1     -46.506  24.281  26.349  1.00  0.00     0.024 H 
ATOM     38  H   UNL     1     -48.146  24.085  25.710  1.00  0.00     0.024 H 
ATOM     39  H   UNL     1     -47.903  24.606  27.383  1.00  0.00     0.024 H 
ENDBRANCH  19  36
ENDBRANCH  15  18
ENDBRANCH   7  15
ENDBRANCH   4   6
ENDBRANCH   1   4
BRANCH   1  40
ATOM     40  C   UNL     1     -46.495  35.158  27.942  1.00  0.00     0.085 C 
ATOM     41  C   UNL     1     -45.214  35.973  28.192  1.00  0.00    -0.005 C 
ATOM     42  C   UNL     1     -47.758  35.900  28.432  1.00  0.00    -0.005 C 
ATOM     43  C   UNL     1     -45.266  37.428  27.720  1.00  0.00     0.022 C 
ATOM     44  H   UNL     1     -44.339  35.467  27.762  1.00  0.00     0.031 H 
ATOM     45  H   UNL     1     -45.016  35.979  29.274  1.00  0.00     0.031 H 
ATOM     46  C   UNL     1     -47.532  37.388  28.685  1.00  0.00     0.022 C 
ATOM     47  H   UNL     1     -48.142  35.453  29.359  1.00  0.00     0.031 H 
ATOM     48  H   UNL     1     -48.569  35.783  27.708  1.00  0.00     0.031 H 
ATOM     49  N   UNL     1     -46.644  37.904  27.656  1.00  0.00    -0.356 N 
ATOM     50  H   UNL     1     -44.797  37.502  26.731  1.00  0.00     0.049 H 
ATOM     51  H   UNL     1     -44.667  38.041  28.405  1.00  0.00     0.049 H 
ATOM     52  H   UNL     1     -47.077  37.539  29.673  1.00  0.00     0.049 H 
ATOM     53  H   UNL     1     -48.507  37.888  28.723  1.00  0.00     0.049 H 
BRANCH  40  54
ATOM     54  O   UNL     1     -46.361  33.985  28.792  1.00  0.00    -0.388 OA
ATOM     55  H   UNL     1     -47.247  33.603  28.924  1.00  0.00     0.211 HD
ENDBRANCH  40  54
BRANCH  49  56
ATOM     56  C   UNL     1     -46.832  39.204  27.192  1.00  0.00     0.134 A 
ATOM     57  C   UNL     1     -45.792  39.889  26.585  1.00  0.00     0.023 A 
ATOM     58  N   UNL     1     -48.005  39.819  27.419  1.00  0.00    -0.219 NA
ATOM     59  C   UNL     1     -45.997  41.204  26.216  1.00  0.00     0.131 A 
ATOM     60  H   UNL     1     -44.812  39.441  26.487  1.00  0.00     0.070 H 
ATOM     61  C   UNL     1     -48.110  41.093  27.018  1.00  0.00     0.120 A 
ATOM     62  N   UNL     1     -47.162  41.824  26.422  1.00  0.00    -0.219 NA
ATOM     63  H   UNL     1     -49.061  41.582  27.199  1.00  0.00     0.106 H 
BRANCH  59  64
ATOM     64  N   UNL     1     -44.978  41.986  25.668  1.00  0.00    -0.366 N 
ATOM     65  H   UNL     1     -44.303  42.107  26.421  1.00  0.00     0.162 HD
BRANCH  64  66
ATOM     66  C   UNL     1     -45.416  43.274  25.149  1.00  0.00     0.041 C 
ATOM     67  H   UNL     1     -45.438  44.029  25.946  1.00  0.00     0.054 H 
ATOM     68  H   UNL     1     -46.428  43.220  24.728  1.00  0.00     0.054 H 
BRANCH  66  69
ATOM     69  C   UNL     1     -44.461  43.712  24.064  1.00  0.00    -0.029 A 
ATOM     70  C   UNL     1     -43.105  43.360  24.129  1.00  0.00    -0.057 A 
ATOM     71  C   UNL     1     -44.904  44.512  23.001  1.00  0.00    -0.057 A 
ATOM     72  C   UNL     1     -42.214  43.785  23.142  1.00  0.00    -0.062 A 
ATOM     73  H   UNL     1     -42.736  42.754  24.954  1.00  0.00     0.063 H 
ATOM     74  C   UNL     1     -44.012  44.935  22.015  1.00  0.00    -0.062 A 
ATOM     75  H   UNL     1     -45.948  44.813  22.938  1.00  0.00     0.063 H 
ATOM     76  C   UNL     1     -42.667  44.570  22.085  1.00  0.00    -0.062 A 
ATOM     77  H   UNL     1     -41.164  43.505  23.201  1.00  0.00     0.062 H 
ATOM     78  H   UNL     1     -44.363  45.554  21.193  1.00  0.00     0.062 H 
ATOM     79  H   UNL     1     -41.973  44.903  21.318  1.00  0.00     0.062 H 
ENDBRANCH  66  69
ENDBRANCH  64  66
ENDBRANCH  59  64
ENDBRANCH  49  56
ENDBRANCH   1  40
TORSDOF 12
ENDMDL
MODEL 7
REMARK VINA RESULT:      -8.5      2.301      3.956
REMARK SMILES CC1(C)CCN(Cc2ccc(NCC3(O)CCN(c4cc(NCc5ccccc5)ncn4)CC3)cn2)CC1
REMARK SMILES IDX 13 1 12 4 11 6 8 7 9 8 36 9 10 10 35 12 7 15 6 18 2 19 4 20
REMARK SMILES IDX 38 21 5 22 37 25 1 32 3 36 14 40 16 41 34 42 17 43 33 46
REMARK SMILES IDX 18 49 15 54 19 56 20 57 32 58 21 59 31 61 30 62 22 64 23 66
REMARK SMILES IDX 24 69 25 70 29 71 26 72 28 74 27 76
REMARK H PARENT 13 2 13 3 12 5 9 11 10 13 35 14 7 16 7 17 4 23 4 24 38 26
REMARK H PARENT 38 27 5 28 5 29 37 30 37 31 1 33 1 34 1 35 3 37 3 38 3 39
REMARK H PARENT 16 44 16 45 34 47 34 48 17 50 17 51 33 52 33 53 15 55 20 60
REMARK H PARENT 31 63 22 65 23 67 23 68 25 73 29 75 26 77 28 78 27 79
REMARK Flexibility Score: inf
ROOT
ATOM      1  C   UNL     1     -46.058  35.725  27.322  1.00  0.00     0.044 C 
ATOM      2  H   UNL     1     -45.183  36.281  26.958  1.00  0.00     0.052 H 
ATOM      3  H   UNL     1     -45.616  34.846  27.807  1.00  0.00     0.052 H 
ENDROOT
BRANCH   1   4
ATOM      4  N   UNL     1     -46.821  35.357  26.138  1.00  0.00    -0.381 N 
ATOM      5  H   UNL     1     -47.485  36.064  25.837  1.00  0.00     0.160 HD
BRANCH   4   6
ATOM      6  C   UNL     1     -47.240  34.066  25.848  1.00  0.00     0.053 A 
ATOM      7  C   UNL     1     -47.995  31.451  25.241  1.00  0.00     0.055 A 
ATOM      8  C   UNL     1     -46.817  31.960  24.708  1.00  0.00    -0.037 A 
ATOM      9  N   UNL     1     -48.770  32.168  26.093  1.00  0.00    -0.258 NA
ATOM     10  C   UNL     1     -46.442  33.267  25.024  1.00  0.00    -0.036 A 
ATOM     11  H   UNL     1     -46.207  31.357  24.043  1.00  0.00     0.064 H 
ATOM     12  C   UNL     1     -48.355  33.430  26.388  1.00  0.00     0.050 A 
ATOM     13  H   UNL     1     -45.528  33.664  24.591  1.00  0.00     0.065 H 
ATOM     14  H   UNL     1     -48.995  33.929  27.107  1.00  0.00     0.086 H 
BRANCH   7  15
ATOM     15  C   UNL     1     -48.454  30.053  24.867  1.00  0.00     0.041 C 
ATOM     16  H   UNL     1     -47.590  29.376  24.871  1.00  0.00     0.050 H 
ATOM     17  H   UNL     1     -49.113  29.717  25.678  1.00  0.00     0.050 H 
BRANCH  15  18
ATOM     18  N   UNL     1     -49.177  29.967  23.578  1.00  0.00    -0.297 NA
ATOM     19  C   UNL     1     -49.521  30.412  20.664  1.00  0.00    -0.033 C 
ATOM     20  C   UNL     1     -50.260  31.231  21.741  1.00  0.00    -0.035 C 
ATOM     21  C   UNL     1     -49.095  29.061  21.274  1.00  0.00    -0.035 C 
ATOM     22  C   UNL     1     -49.495  31.311  23.067  1.00  0.00    -0.001 C 
ATOM     23  H   UNL     1     -50.459  32.246  21.378  1.00  0.00     0.029 H 
ATOM     24  H   UNL     1     -51.242  30.776  21.937  1.00  0.00     0.029 H 
ATOM     25  C   UNL     1     -48.368  29.212  22.612  1.00  0.00    -0.001 C 
ATOM     26  H   UNL     1     -49.984  28.435  21.433  1.00  0.00     0.029 H 
ATOM     27  H   UNL     1     -48.454  28.511  20.573  1.00  0.00     0.029 H 
ATOM     28  H   UNL     1     -48.586  31.911  22.943  1.00  0.00     0.043 H 
ATOM     29  H   UNL     1     -50.134  31.845  23.778  1.00  0.00     0.043 H 
ATOM     30  H   UNL     1     -48.176  28.205  23.002  1.00  0.00     0.043 H 
ATOM     31  H   UNL     1     -47.388  29.685  22.461  1.00  0.00     0.043 H 
BRANCH  19  32
ATOM     32  C   UNL     1     -48.294  31.183  20.141  1.00  0.00    -0.060 C 
ATOM     33  H   UNL     1     -48.429  31.469  19.091  1.00  0.00     0.024 H 
ATOM     34  H   UNL     1     -48.102  32.100  20.705  1.00  0.00     0.024 H 
ATOM     35  H   UNL     1     -47.389  30.567  20.201  1.00  0.00     0.024 H 
ENDBRANCH  19  32
BRANCH  19  36
ATOM     36  C   UNL     1     -50.466  30.160  19.476  1.00  0.00    -0.060 C 
ATOM     37  H   UNL     1     -50.076  30.613  18.558  1.00  0.00     0.024 H 
ATOM     38  H   UNL     1     -51.459  30.584  19.664  1.00  0.00     0.024 H 
ATOM     39  H   UNL     1     -50.593  29.088  19.290  1.00  0.00     0.024 H 
ENDBRANCH  19  36
ENDBRANCH  15  18
ENDBRANCH   7  15
ENDBRANCH   4   6
ENDBRANCH   1   4
BRANCH   1  40
ATOM     40  C   UNL     1     -46.763  36.626  28.386  1.00  0.00     0.085 C 
ATOM     41  C   UNL     1     -45.909  36.898  29.638  1.00  0.00    -0.005 C 
ATOM     42  C   UNL     1     -47.363  37.924  27.802  1.00  0.00    -0.005 C 
ATOM     43  C   UNL     1     -44.873  38.014  29.488  1.00  0.00     0.022 C 
ATOM     44  H   UNL     1     -45.424  35.977  29.988  1.00  0.00     0.031 H 
ATOM     45  H   UNL     1     -46.584  37.177  30.461  1.00  0.00     0.031 H 
ATOM     46  C   UNL     1     -46.693  39.193  28.319  1.00  0.00     0.022 C 
ATOM     47  H   UNL     1     -48.437  37.994  28.020  1.00  0.00     0.031 H 
ATOM     48  H   UNL     1     -47.299  37.910  26.710  1.00  0.00     0.031 H 
ATOM     49  N   UNL     1     -45.265  38.950  28.438  1.00  0.00    -0.356 N 
ATOM     50  H   UNL     1     -43.898  37.571  29.250  1.00  0.00     0.049 H 
ATOM     51  H   UNL     1     -44.765  38.525  30.453  1.00  0.00     0.049 H 
ATOM     52  H   UNL     1     -47.103  39.464  29.302  1.00  0.00     0.049 H 
ATOM     53  H   UNL     1     -46.949  40.022  27.649  1.00  0.00     0.049 H 
BRANCH  40  54
ATOM     54  O   UNL     1     -47.890  35.843  28.869  1.00  0.00    -0.388 OA
ATOM     55  H   UNL     1     -48.421  35.571  28.100  1.00  0.00     0.211 HD
ENDBRANCH  40  54
BRANCH  49  56
ATOM     56  C   UNL     1     -44.377  39.989  28.169  1.00  0.00     0.134 A 
ATOM     57  C   UNL     1     -44.459  40.690  26.977  1.00  0.00     0.023 A 
ATOM     58  N   UNL     1     -43.386  40.247  29.039  1.00  0.00    -0.219 NA
ATOM     59  C   UNL     1     -43.507  41.657  26.716  1.00  0.00     0.131 A 
ATOM     60  H   UNL     1     -45.190  40.426  26.224  1.00  0.00     0.070 H 
ATOM     61  C   UNL     1     -42.516  41.208  28.699  1.00  0.00     0.120 A 
ATOM     62  N   UNL     1     -42.524  41.934  27.576  1.00  0.00    -0.219 NA
ATOM     63  H   UNL     1     -41.721  41.415  29.407  1.00  0.00     0.106 H 
BRANCH  59  64
ATOM     64  N   UNL     1     -43.474  42.355  25.506  1.00  0.00    -0.366 N 
ATOM     65  H   UNL     1     -42.767  43.077  25.636  1.00  0.00     0.162 HD
BRANCH  64  66
ATOM     66  C   UNL     1     -44.747  42.939  25.110  1.00  0.00     0.041 C 
ATOM     67  H   UNL     1     -45.583  42.287  25.396  1.00  0.00     0.054 H 
ATOM     68  H   UNL     1     -44.807  43.082  24.023  1.00  0.00     0.054 H 
BRANCH  66  69
ATOM     69  C   UNL     1     -44.899  44.281  25.786  1.00  0.00    -0.029 A 
ATOM     70  C   UNL     1     -46.070  44.590  26.493  1.00  0.00    -0.057 A 
ATOM     71  C   UNL     1     -43.892  45.252  25.682  1.00  0.00    -0.057 A 
ATOM     72  C   UNL     1     -46.224  45.839  27.098  1.00  0.00    -0.062 A 
ATOM     73  H   UNL     1     -46.870  43.858  26.572  1.00  0.00     0.063 H 
ATOM     74  C   UNL     1     -44.048  46.499  26.288  1.00  0.00    -0.062 A 
ATOM     75  H   UNL     1     -42.982  45.042  25.124  1.00  0.00     0.063 H 
ATOM     76  C   UNL     1     -45.213  46.792  26.997  1.00  0.00    -0.062 A 
ATOM     77  H   UNL     1     -47.136  46.069  27.644  1.00  0.00     0.062 H 
ATOM     78  H   UNL     1     -43.263  47.247  26.203  1.00  0.00     0.062 H 
ATOM     79  H   UNL     1     -45.335  47.765  27.465  1.00  0.00     0.062 H 
ENDBRANCH  66  69
ENDBRANCH  64  66
ENDBRANCH  59  64
ENDBRANCH  49  56
ENDBRANCH   1  40
TORSDOF 12
ENDMDL
