MODEL 1
REMARK VINA RESULT:      -9.8      0.000      0.000
REMARK SMILES CC1(C)CCN(Cc2ccc(C(=O)NC[C@@]3(O)CCCN(c4cc(NCc5ccccc5)ncn4)C3)c(O)c2)CC1
REMARK SMILES IDX 15 1 14 4 12 5 13 6 11 8 8 9 9 10 39 11 10 12 37 14 7 17
REMARK SMILES IDX 6 20 2 21 4 22 41 23 5 24 40 27 1 34 3 38 38 42 16 44 18 45
REMARK SMILES IDX 36 46 19 47 21 50 20 53 17 58 22 60 23 61 35 62 24 63 34 65
REMARK SMILES IDX 33 66 25 68 26 70 27 73 28 74 32 75 29 76 31 78 30 80
REMARK H PARENT 15 2 15 3 14 7 9 13 39 15 10 16 7 18 7 19 4 25 4 26 41 28
REMARK H PARENT 41 29 5 30 5 31 40 32 40 33 1 35 1 36 1 37 3 39 3 40 3 41
REMARK H PARENT 38 43 18 48 18 49 36 51 36 52 19 54 19 55 20 56 20 57 17 59
REMARK H PARENT 23 64 34 67 25 69 26 71 26 72 28 77 32 79 29 81 31 82 30 83
REMARK Flexibility Score: inf
ROOT
ATOM      1  C   UNL     1     -48.469  39.948  28.490  1.00  0.00     0.048 C 
ATOM      2  H   UNL     1     -47.875  40.506  27.759  1.00  0.00     0.052 H 
ATOM      3  H   UNL     1     -48.067  40.167  29.483  1.00  0.00     0.052 H 
ENDROOT
BRANCH   1   4
ATOM      4  N   UNL     1     -48.239  38.545  28.183  1.00  0.00    -0.349 N 
ATOM      5  C   UNL     1     -47.111  37.878  28.598  1.00  0.00     0.255 C 
ATOM      6  O   UNL     1     -46.337  38.331  29.438  1.00  0.00    -0.269 OA
ATOM      7  H   UNL     1     -48.715  38.181  27.360  1.00  0.00     0.163 HD
BRANCH   5   8
ATOM      8  C   UNL     1     -46.841  36.540  27.980  1.00  0.00     0.081 A 
ATOM      9  C   UNL     1     -46.385  34.092  26.634  1.00  0.00    -0.030 A 
ATOM     10  C   UNL     1     -46.812  35.222  25.927  1.00  0.00    -0.057 A 
ATOM     11  C   UNL     1     -46.203  34.192  28.023  1.00  0.00    -0.015 A 
ATOM     12  C   UNL     1     -47.036  36.430  26.594  1.00  0.00    -0.045 A 
ATOM     13  H   UNL     1     -46.972  35.175  24.852  1.00  0.00     0.063 H 
ATOM     14  C   UNL     1     -46.423  35.403  28.687  1.00  0.00     0.128 A 
ATOM     15  H   UNL     1     -45.878  33.309  28.568  1.00  0.00     0.067 H 
ATOM     16  H   UNL     1     -47.363  37.296  26.020  1.00  0.00     0.063 H 
BRANCH   9  17
ATOM     17  C   UNL     1     -46.160  32.775  25.920  1.00  0.00     0.023 C 
ATOM     18  H   UNL     1     -45.208  32.881  25.383  1.00  0.00     0.048 H 
ATOM     19  H   UNL     1     -46.019  31.963  26.646  1.00  0.00     0.048 H 
BRANCH  17  20
ATOM     20  N   UNL     1     -47.236  32.434  24.971  1.00  0.00    -0.299 NA
ATOM     21  C   UNL     1     -49.229  30.656  23.668  1.00  0.00    -0.033 C 
ATOM     22  C   UNL     1     -49.604  31.749  24.691  1.00  0.00    -0.035 C 
ATOM     23  C   UNL     1     -47.866  31.012  23.040  1.00  0.00    -0.035 C 
ATOM     24  C   UNL     1     -48.473  32.061  25.678  1.00  0.00    -0.001 C 
ATOM     25  H   UNL     1     -49.861  32.676  24.159  1.00  0.00     0.029 H 
ATOM     26  H   UNL     1     -50.501  31.457  25.249  1.00  0.00     0.029 H 
ATOM     27  C   UNL     1     -46.796  31.348  24.083  1.00  0.00    -0.001 C 
ATOM     28  H   UNL     1     -47.511  30.188  22.409  1.00  0.00     0.029 H 
ATOM     29  H   UNL     1     -47.985  31.880  22.375  1.00  0.00     0.029 H 
ATOM     30  H   UNL     1     -48.815  32.888  26.311  1.00  0.00     0.043 H 
ATOM     31  H   UNL     1     -48.304  31.204  26.342  1.00  0.00     0.043 H 
ATOM     32  H   UNL     1     -45.894  31.660  23.543  1.00  0.00     0.043 H 
ATOM     33  H   UNL     1     -46.529  30.453  24.657  1.00  0.00     0.043 H 
BRANCH  21  34
ATOM     34  C   UNL     1     -49.171  29.275  24.346  1.00  0.00    -0.060 C 
ATOM     35  H   UNL     1     -49.289  28.471  23.609  1.00  0.00     0.024 H 
ATOM     36  H   UNL     1     -49.954  29.142  25.099  1.00  0.00     0.024 H 
ATOM     37  H   UNL     1     -48.208  29.125  24.847  1.00  0.00     0.024 H 
ENDBRANCH  21  34
BRANCH  21  38
ATOM     38  C   UNL     1     -50.300  30.601  22.565  1.00  0.00    -0.060 C 
ATOM     39  H   UNL     1     -50.549  31.607  22.207  1.00  0.00     0.024 H 
ATOM     40  H   UNL     1     -49.957  30.018  21.704  1.00  0.00     0.024 H 
ATOM     41  H   UNL     1     -51.223  30.139  22.932  1.00  0.00     0.024 H 
ENDBRANCH  21  38
ENDBRANCH  17  20
ENDBRANCH   9  17
BRANCH  14  42
ATOM     42  O   UNL     1     -46.231  35.444  30.044  1.00  0.00    -0.507 OA
ATOM     43  H   UNL     1     -45.382  35.884  30.228  1.00  0.00     0.293 HD
ENDBRANCH  14  42
ENDBRANCH   5   8
ENDBRANCH   1   4
BRANCH   1  44
ATOM     44  C   UNL     1     -49.961  40.332  28.353  1.00  0.00     0.099 C 
ATOM     45  C   UNL     1     -50.494  41.060  29.604  1.00  0.00    -0.019 C 
ATOM     46  C   UNL     1     -50.201  41.197  27.086  1.00  0.00     0.050 C 
ATOM     47  C   UNL     1     -49.998  42.500  29.703  1.00  0.00    -0.033 C 
ATOM     48  H   UNL     1     -51.592  41.067  29.580  1.00  0.00     0.030 H 
ATOM     49  H   UNL     1     -50.232  40.508  30.515  1.00  0.00     0.030 H 
ATOM     50  N   UNL     1     -49.761  42.593  27.235  1.00  0.00    -0.353 N 
ATOM     51  H   UNL     1     -51.282  41.218  26.885  1.00  0.00     0.052 H 
ATOM     52  H   UNL     1     -49.785  40.696  26.204  1.00  0.00     0.052 H 
ATOM     53  C   UNL     1     -50.300  43.277  28.420  1.00  0.00     0.019 C 
ATOM     54  H   UNL     1     -48.924  42.509  29.918  1.00  0.00     0.029 H 
ATOM     55  H   UNL     1     -50.489  42.996  30.550  1.00  0.00     0.029 H 
ATOM     56  H   UNL     1     -51.389  43.350  28.300  1.00  0.00     0.049 H 
ATOM     57  H   UNL     1     -49.947  44.313  28.497  1.00  0.00     0.049 H 
BRANCH  44  58
ATOM     58  O   UNL     1     -50.711  39.100  28.203  1.00  0.00    -0.386 OA
ATOM     59  H   UNL     1     -51.572  39.220  28.638  1.00  0.00     0.211 HD
ENDBRANCH  44  58
BRANCH  50  60
ATOM     60  C   UNL     1     -48.423  42.873  26.920  1.00  0.00     0.134 A 
ATOM     61  C   UNL     1     -47.597  41.887  26.406  1.00  0.00     0.023 A 
ATOM     62  N   UNL     1     -47.953  44.115  27.114  1.00  0.00    -0.219 NA
ATOM     63  C   UNL     1     -46.267  42.191  26.190  1.00  0.00     0.131 A 
ATOM     64  H   UNL     1     -47.980  40.905  26.177  1.00  0.00     0.070 H 
ATOM     65  C   UNL     1     -46.657  44.324  26.851  1.00  0.00     0.120 A 
ATOM     66  N   UNL     1     -45.783  43.419  26.400  1.00  0.00    -0.219 NA
ATOM     67  H   UNL     1     -46.280  45.325  27.023  1.00  0.00     0.106 H 
BRANCH  63  68
ATOM     68  N   UNL     1     -45.336  41.275  25.730  1.00  0.00    -0.366 N 
ATOM     69  H   UNL     1     -44.608  41.801  25.254  1.00  0.00     0.162 HD
BRANCH  68  70
ATOM     70  C   UNL     1     -44.850  40.201  26.583  1.00  0.00     0.041 C 
ATOM     71  H   UNL     1     -44.517  39.377  25.939  1.00  0.00     0.054 H 
ATOM     72  H   UNL     1     -45.687  39.809  27.172  1.00  0.00     0.054 H 
BRANCH  70  73
ATOM     73  C   UNL     1     -43.698  40.568  27.495  1.00  0.00    -0.029 A 
ATOM     74  C   UNL     1     -43.614  40.117  28.821  1.00  0.00    -0.057 A 
ATOM     75  C   UNL     1     -42.694  41.429  27.019  1.00  0.00    -0.057 A 
ATOM     76  C   UNL     1     -42.534  40.478  29.630  1.00  0.00    -0.062 A 
ATOM     77  H   UNL     1     -44.371  39.452  29.232  1.00  0.00     0.063 H 
ATOM     78  C   UNL     1     -41.622  41.798  27.833  1.00  0.00    -0.062 A 
ATOM     79  H   UNL     1     -42.738  41.814  26.002  1.00  0.00     0.063 H 
ATOM     80  C   UNL     1     -41.540  41.318  29.136  1.00  0.00    -0.062 A 
ATOM     81  H   UNL     1     -42.461  40.083  30.641  1.00  0.00     0.062 H 
ATOM     82  H   UNL     1     -40.845  42.453  27.447  1.00  0.00     0.062 H 
ATOM     83  H   UNL     1     -40.696  41.585  29.767  1.00  0.00     0.062 H 
ENDBRANCH  70  73
ENDBRANCH  68  70
ENDBRANCH  63  68
ENDBRANCH  50  60
ENDBRANCH   1  44
TORSDOF 13
ENDMDL
MODEL 2
REMARK VINA RESULT:      -9.2      4.100     11.465
REMARK SMILES CC1(C)CCN(Cc2ccc(C(=O)NC[C@@]3(O)CCCN(c4cc(NCc5ccccc5)ncn4)C3)c(O)c2)CC1
REMARK SMILES IDX 15 1 14 4 12 5 13 6 11 8 8 9 9 10 39 11 10 12 37 14 7 17
REMARK SMILES IDX 6 20 2 21 4 22 41 23 5 24 40 27 1 34 3 38 38 42 16 44 18 45
REMARK SMILES IDX 36 46 19 47 21 50 20 53 17 58 22 60 23 61 35 62 24 63 34 65
REMARK SMILES IDX 33 66 25 68 26 70 27 73 28 74 32 75 29 76 31 78 30 80
REMARK H PARENT 15 2 15 3 14 7 9 13 39 15 10 16 7 18 7 19 4 25 4 26 41 28
REMARK H PARENT 41 29 5 30 5 31 40 32 40 33 1 35 1 36 1 37 3 39 3 40 3 41
REMARK H PARENT 38 43 18 48 18 49 36 51 36 52 19 54 19 55 20 56 20 57 17 59
REMARK H PARENT 23 64 34 67 25 69 26 71 26 72 28 77 32 79 29 81 31 82 30 83
REMARK Flexibility Score: inf
ROOT
ATOM      1  C   UNL     1     -50.135  29.694  24.406  1.00  0.00     0.048 C 
ATOM      2  H   UNL     1     -50.675  29.554  25.348  1.00  0.00     0.052 H 
ATOM      3  H   UNL     1     -49.397  28.893  24.322  1.00  0.00     0.052 H 
ENDROOT
BRANCH   1   4
ATOM      4  N   UNL     1     -49.443  30.966  24.543  1.00  0.00    -0.349 N 
ATOM      5  C   UNL     1     -48.438  31.159  25.461  1.00  0.00     0.255 C 
ATOM      6  O   UNL     1     -47.894  30.236  26.061  1.00  0.00    -0.269 OA
ATOM      7  H   UNL     1     -49.954  31.791  24.235  1.00  0.00     0.163 HD
BRANCH   5   8
ATOM      8  C   UNL     1     -48.007  32.572  25.716  1.00  0.00     0.081 A 
ATOM      9  C   UNL     1     -47.381  35.276  26.268  1.00  0.00    -0.030 A 
ATOM     10  C   UNL     1     -48.656  34.772  26.549  1.00  0.00    -0.057 A 
ATOM     11  C   UNL     1     -46.426  34.422  25.694  1.00  0.00    -0.015 A 
ATOM     12  C   UNL     1     -48.962  33.435  26.276  1.00  0.00    -0.045 A 
ATOM     13  H   UNL     1     -49.421  35.410  26.986  1.00  0.00     0.063 H 
ATOM     14  C   UNL     1     -46.734  33.084  25.426  1.00  0.00     0.128 A 
ATOM     15  H   UNL     1     -45.440  34.822  25.471  1.00  0.00     0.067 H 
ATOM     16  H   UNL     1     -49.960  33.065  26.509  1.00  0.00     0.063 H 
BRANCH   9  17
ATOM     17  C   UNL     1     -47.049  36.729  26.543  1.00  0.00     0.023 C 
ATOM     18  H   UNL     1     -46.081  36.914  26.058  1.00  0.00     0.048 H 
ATOM     19  H   UNL     1     -47.775  37.389  26.050  1.00  0.00     0.048 H 
BRANCH  17  20
ATOM     20  N   UNL     1     -46.960  37.045  27.980  1.00  0.00    -0.299 NA
ATOM     21  C   UNL     1     -45.602  37.902  30.481  1.00  0.00    -0.033 C 
ATOM     22  C   UNL     1     -46.575  38.801  29.689  1.00  0.00    -0.035 C 
ATOM     23  C   UNL     1     -45.896  36.428  30.134  1.00  0.00    -0.035 C 
ATOM     24  C   UNL     1     -46.624  38.463  28.195  1.00  0.00    -0.001 C 
ATOM     25  H   UNL     1     -47.588  38.694  30.100  1.00  0.00     0.029 H 
ATOM     26  H   UNL     1     -46.304  39.856  29.813  1.00  0.00     0.029 H 
ATOM     27  C   UNL     1     -45.968  36.172  28.625  1.00  0.00    -0.001 C 
ATOM     28  H   UNL     1     -45.136  35.774  30.576  1.00  0.00     0.029 H 
ATOM     29  H   UNL     1     -46.856  36.132  30.581  1.00  0.00     0.029 H 
ATOM     30  H   UNL     1     -47.387  39.108  27.742  1.00  0.00     0.043 H 
ATOM     31  H   UNL     1     -45.670  38.718  27.718  1.00  0.00     0.043 H 
ATOM     32  H   UNL     1     -46.256  35.123  28.482  1.00  0.00     0.043 H 
ATOM     33  H   UNL     1     -44.978  36.295  28.170  1.00  0.00     0.043 H 
BRANCH  21  34
ATOM     34  C   UNL     1     -44.141  38.258  30.148  1.00  0.00    -0.060 C 
ATOM     35  H   UNL     1     -43.450  37.762  30.841  1.00  0.00     0.024 H 
ATOM     36  H   UNL     1     -43.945  39.333  30.207  1.00  0.00     0.024 H 
ATOM     37  H   UNL     1     -43.881  37.934  29.134  1.00  0.00     0.024 H 
ENDBRANCH  21  34
BRANCH  21  38
ATOM     38  C   UNL     1     -45.816  38.123  31.989  1.00  0.00    -0.060 C 
ATOM     39  H   UNL     1     -44.938  37.804  32.562  1.00  0.00     0.024 H 
ATOM     40  H   UNL     1     -45.994  39.179  32.215  1.00  0.00     0.024 H 
ATOM     41  H   UNL     1     -46.679  37.555  32.353  1.00  0.00     0.024 H 
ENDBRANCH  21  38
ENDBRANCH  17  20
ENDBRANCH   9  17
BRANCH  14  42
ATOM     42  O   UNL     1     -45.765  32.294  24.864  1.00  0.00    -0.507 OA
ATOM     43  H   UNL     1     -45.132  32.862  24.390  1.00  0.00     0.293 HD
ENDBRANCH  14  42
ENDBRANCH   5   8
ENDBRANCH   1   4
BRANCH   1  44
ATOM     44  C   UNL     1     -51.138  29.706  23.228  1.00  0.00     0.099 C 
ATOM     45  C   UNL     1     -51.738  31.106  22.987  1.00  0.00    -0.019 C 
ATOM     46  C   UNL     1     -50.477  29.175  21.928  1.00  0.00     0.050 C 
ATOM     47  C   UNL     1     -50.750  32.066  22.327  1.00  0.00    -0.033 C 
ATOM     48  H   UNL     1     -52.624  31.016  22.343  1.00  0.00     0.030 H 
ATOM     49  H   UNL     1     -52.110  31.536  23.925  1.00  0.00     0.030 H 
ATOM     50  N   UNL     1     -49.573  30.145  21.288  1.00  0.00    -0.353 N 
ATOM     51  H   UNL     1     -51.275  28.951  21.205  1.00  0.00     0.052 H 
ATOM     52  H   UNL     1     -50.015  28.198  22.112  1.00  0.00     0.052 H 
ATOM     53  C   UNL     1     -50.172  31.465  21.044  1.00  0.00     0.019 C 
ATOM     54  H   UNL     1     -49.951  32.318  23.031  1.00  0.00     0.029 H 
ATOM     55  H   UNL     1     -51.262  33.006  22.087  1.00  0.00     0.029 H 
ATOM     56  H   UNL     1     -50.985  31.336  20.317  1.00  0.00     0.049 H 
ATOM     57  H   UNL     1     -49.467  32.158  20.570  1.00  0.00     0.049 H 
BRANCH  44  58
ATOM     58  O   UNL     1     -52.224  28.812  23.577  1.00  0.00    -0.386 OA
ATOM     59  H   UNL     1     -53.035  29.343  23.653  1.00  0.00     0.211 HD
ENDBRANCH  44  58
BRANCH  50  60
ATOM     60  C   UNL     1     -48.239  30.146  21.719  1.00  0.00     0.134 A 
ATOM     61  C   UNL     1     -47.757  29.133  22.532  1.00  0.00     0.023 A 
ATOM     62  N   UNL     1     -47.426  31.140  21.326  1.00  0.00    -0.219 NA
ATOM     63  C   UNL     1     -46.459  29.224  22.997  1.00  0.00     0.131 A 
ATOM     64  H   UNL     1     -48.377  28.290  22.797  1.00  0.00     0.070 H 
ATOM     65  C   UNL     1     -46.176  31.130  21.804  1.00  0.00     0.120 A 
ATOM     66  N   UNL     1     -45.648  30.221  22.628  1.00  0.00    -0.219 NA
ATOM     67  H   UNL     1     -45.530  31.943  21.494  1.00  0.00     0.106 H 
BRANCH  63  68
ATOM     68  N   UNL     1     -45.886  28.301  23.855  1.00  0.00    -0.366 N 
ATOM     69  H   UNL     1     -45.944  28.688  24.793  1.00  0.00     0.162 HD
BRANCH  68  70
ATOM     70  C   UNL     1     -46.206  26.885  23.763  1.00  0.00     0.041 C 
ATOM     71  H   UNL     1     -45.268  26.318  23.801  1.00  0.00     0.054 H 
ATOM     72  H   UNL     1     -46.644  26.684  22.777  1.00  0.00     0.054 H 
BRANCH  70  73
ATOM     73  C   UNL     1     -47.112  26.352  24.853  1.00  0.00    -0.029 A 
ATOM     74  C   UNL     1     -48.430  26.800  25.023  1.00  0.00    -0.057 A 
ATOM     75  C   UNL     1     -46.606  25.406  25.761  1.00  0.00    -0.057 A 
ATOM     76  C   UNL     1     -49.233  26.282  26.042  1.00  0.00    -0.062 A 
ATOM     77  H   UNL     1     -48.861  27.534  24.346  1.00  0.00     0.063 H 
ATOM     78  C   UNL     1     -47.407  24.897  26.786  1.00  0.00    -0.062 A 
ATOM     79  H   UNL     1     -45.582  25.050  25.672  1.00  0.00     0.063 H 
ATOM     80  C   UNL     1     -48.722  25.332  26.922  1.00  0.00    -0.062 A 
ATOM     81  H   UNL     1     -50.268  26.606  26.133  1.00  0.00     0.062 H 
ATOM     82  H   UNL     1     -47.008  24.155  27.473  1.00  0.00     0.062 H 
ATOM     83  H   UNL     1     -49.356  24.924  27.705  1.00  0.00     0.062 H 
ENDBRANCH  70  73
ENDBRANCH  68  70
ENDBRANCH  63  68
ENDBRANCH  50  60
ENDBRANCH   1  44
TORSDOF 13
ENDMDL
MODEL 3
REMARK VINA RESULT:      -9.1      2.521      5.035
REMARK SMILES CC1(C)CCN(Cc2ccc(C(=O)NC[C@@]3(O)CCCN(c4cc(NCc5ccccc5)ncn4)C3)c(O)c2)CC1
REMARK SMILES IDX 15 1 14 4 12 5 13 6 11 8 8 9 9 10 39 11 10 12 37 14 7 17
REMARK SMILES IDX 6 20 2 21 4 22 41 23 5 24 40 27 1 34 3 38 38 42 16 44 18 45
REMARK SMILES IDX 36 46 19 47 21 50 20 53 17 58 22 60 23 61 35 62 24 63 34 65
REMARK SMILES IDX 33 66 25 68 26 70 27 73 28 74 32 75 29 76 31 78 30 80
REMARK H PARENT 15 2 15 3 14 7 9 13 39 15 10 16 7 18 7 19 4 25 4 26 41 28
REMARK H PARENT 41 29 5 30 5 31 40 32 40 33 1 35 1 36 1 37 3 39 3 40 3 41
REMARK H PARENT 38 43 18 48 18 49 36 51 36 52 19 54 19 55 20 56 20 57 17 59
REMARK H PARENT 23 64 34 67 25 69 26 71 26 72 28 77 32 79 29 81 31 82 30 83
REMARK Flexibility Score: inf
ROOT
ATOM      1  C   UNL     1     -47.419  35.968  26.741  1.00  0.00     0.048 C 
ATOM      2  H   UNL     1     -48.464  36.270  26.869  1.00  0.00     0.052 H 
ATOM      3  H   UNL     1     -46.887  36.800  26.272  1.00  0.00     0.052 H 
ENDROOT
BRANCH   1   4
ATOM      4  N   UNL     1     -47.452  34.845  25.818  1.00  0.00    -0.349 N 
ATOM      5  C   UNL     1     -48.345  33.809  25.953  1.00  0.00     0.255 C 
ATOM      6  O   UNL     1     -49.318  33.859  26.702  1.00  0.00    -0.269 OA
ATOM      7  H   UNL     1     -46.585  34.647  25.321  1.00  0.00     0.163 HD
BRANCH   5   8
ATOM      8  C   UNL     1     -48.095  32.579  25.135  1.00  0.00     0.081 A 
ATOM      9  C   UNL     1     -47.823  30.234  23.574  1.00  0.00    -0.030 A 
ATOM     10  C   UNL     1     -49.092  30.735  23.886  1.00  0.00    -0.057 A 
ATOM     11  C   UNL     1     -46.691  30.906  24.062  1.00  0.00    -0.015 A 
ATOM     12  C   UNL     1     -49.223  31.894  24.656  1.00  0.00    -0.045 A 
ATOM     13  H   UNL     1     -49.989  30.233  23.531  1.00  0.00     0.063 H 
ATOM     14  C   UNL     1     -46.825  32.067  24.830  1.00  0.00     0.128 A 
ATOM     15  H   UNL     1     -45.707  30.507  23.823  1.00  0.00     0.067 H 
ATOM     16  H   UNL     1     -50.222  32.267  24.881  1.00  0.00     0.063 H 
BRANCH   9  17
ATOM     17  C   UNL     1     -47.674  28.967  22.757  1.00  0.00     0.023 C 
ATOM     18  H   UNL     1     -48.519  28.959  22.055  1.00  0.00     0.048 H 
ATOM     19  H   UNL     1     -46.763  29.008  22.145  1.00  0.00     0.048 H 
BRANCH  17  20
ATOM     20  N   UNL     1     -47.688  27.739  23.574  1.00  0.00    -0.299 NA
ATOM     21  C   UNL     1     -47.454  26.154  26.076  1.00  0.00    -0.033 C 
ATOM     22  C   UNL     1     -48.802  26.487  25.402  1.00  0.00    -0.035 C 
ATOM     23  C   UNL     1     -46.336  26.245  25.018  1.00  0.00    -0.035 C 
ATOM     24  C   UNL     1     -48.760  27.782  24.583  1.00  0.00    -0.001 C 
ATOM     25  H   UNL     1     -49.089  25.665  24.732  1.00  0.00     0.029 H 
ATOM     26  H   UNL     1     -49.596  26.561  26.155  1.00  0.00     0.029 H 
ATOM     27  C   UNL     1     -46.378  27.547  24.213  1.00  0.00    -0.001 C 
ATOM     28  H   UNL     1     -45.353  26.145  25.493  1.00  0.00     0.029 H 
ATOM     29  H   UNL     1     -46.426  25.402  24.317  1.00  0.00     0.029 H 
ATOM     30  H   UNL     1     -49.737  27.889  24.097  1.00  0.00     0.043 H 
ATOM     31  H   UNL     1     -48.640  28.647  25.248  1.00  0.00     0.043 H 
ATOM     32  H   UNL     1     -45.600  27.485  23.442  1.00  0.00     0.043 H 
ATOM     33  H   UNL     1     -46.123  28.400  24.853  1.00  0.00     0.043 H 
BRANCH  21  34
ATOM     34  C   UNL     1     -47.177  27.119  27.244  1.00  0.00    -0.060 C 
ATOM     35  H   UNL     1     -48.105  27.373  27.770  1.00  0.00     0.024 H 
ATOM     36  H   UNL     1     -46.722  28.059  26.915  1.00  0.00     0.024 H 
ATOM     37  H   UNL     1     -46.497  26.666  27.974  1.00  0.00     0.024 H 
ENDBRANCH  21  34
BRANCH  21  38
ATOM     38  C   UNL     1     -47.507  24.724  26.641  1.00  0.00    -0.060 C 
ATOM     39  H   UNL     1     -47.335  23.983  25.853  1.00  0.00     0.024 H 
ATOM     40  H   UNL     1     -46.744  24.572  27.412  1.00  0.00     0.024 H 
ATOM     41  H   UNL     1     -48.483  24.513  27.093  1.00  0.00     0.024 H 
ENDBRANCH  21  38
ENDBRANCH  17  20
ENDBRANCH   9  17
BRANCH  14  42
ATOM     42  O   UNL     1     -45.687  32.683  25.282  1.00  0.00    -0.507 OA
ATOM     43  H   UNL     1     -45.540  33.493  24.762  1.00  0.00     0.293 HD
ENDBRANCH  14  42
ENDBRANCH   5   8
ENDBRANCH   1   4
BRANCH   1  44
ATOM     44  C   UNL     1     -46.818  35.574  28.111  1.00  0.00     0.099 C 
ATOM     45  C   UNL     1     -45.278  35.506  28.075  1.00  0.00    -0.019 C 
ATOM     46  C   UNL     1     -47.287  36.546  29.226  1.00  0.00     0.050 C 
ATOM     47  C   UNL     1     -44.628  36.887  28.041  1.00  0.00    -0.033 C 
ATOM     48  H   UNL     1     -44.917  34.969  28.963  1.00  0.00     0.030 H 
ATOM     49  H   UNL     1     -44.936  34.909  27.222  1.00  0.00     0.030 H 
ATOM     50  N   UNL     1     -46.601  37.848  29.199  1.00  0.00    -0.353 N 
ATOM     51  H   UNL     1     -47.064  36.083  30.199  1.00  0.00     0.052 H 
ATOM     52  H   UNL     1     -48.380  36.624  29.223  1.00  0.00     0.052 H 
ATOM     53  C   UNL     1     -45.134  37.762  29.190  1.00  0.00     0.019 C 
ATOM     54  H   UNL     1     -44.822  37.366  27.076  1.00  0.00     0.029 H 
ATOM     55  H   UNL     1     -43.540  36.779  28.122  1.00  0.00     0.029 H 
ATOM     56  H   UNL     1     -44.818  37.313  30.141  1.00  0.00     0.049 H 
ATOM     57  H   UNL     1     -44.661  38.752  29.167  1.00  0.00     0.049 H 
BRANCH  44  58
ATOM     58  O   UNL     1     -47.313  34.249  28.433  1.00  0.00    -0.386 OA
ATOM     59  H   UNL     1     -48.145  34.354  28.925  1.00  0.00     0.211 HD
ENDBRANCH  44  58
BRANCH  50  60
ATOM     60  C   UNL     1     -47.163  38.842  28.384  1.00  0.00     0.134 A 
ATOM     61  C   UNL     1     -46.385  39.520  27.458  1.00  0.00     0.023 A 
ATOM     62  N   UNL     1     -48.469  39.125  28.506  1.00  0.00    -0.219 NA
ATOM     63  C   UNL     1     -46.965  40.547  26.740  1.00  0.00     0.131 A 
ATOM     64  H   UNL     1     -45.352  39.253  27.299  1.00  0.00     0.070 H 
ATOM     65  C   UNL     1     -48.950  40.118  27.747  1.00  0.00     0.120 A 
ATOM     66  N   UNL     1     -48.261  40.851  26.868  1.00  0.00    -0.219 NA
ATOM     67  H   UNL     1     -50.002  40.351  27.860  1.00  0.00     0.106 H 
BRANCH  63  68
ATOM     68  N   UNL     1     -46.277  41.327  25.826  1.00  0.00    -0.366 N 
ATOM     69  H   UNL     1     -46.843  41.371  24.983  1.00  0.00     0.162 HD
BRANCH  68  70
ATOM     70  C   UNL     1     -45.675  42.592  26.219  1.00  0.00     0.041 C 
ATOM     71  H   UNL     1     -45.954  42.796  27.260  1.00  0.00     0.054 H 
ATOM     72  H   UNL     1     -46.117  43.398  25.620  1.00  0.00     0.054 H 
BRANCH  70  73
ATOM     73  C   UNL     1     -44.164  42.647  26.128  1.00  0.00    -0.029 A 
ATOM     74  C   UNL     1     -43.494  43.488  25.227  1.00  0.00    -0.057 A 
ATOM     75  C   UNL     1     -43.397  41.794  26.941  1.00  0.00    -0.057 A 
ATOM     76  C   UNL     1     -42.098  43.509  25.175  1.00  0.00    -0.062 A 
ATOM     77  H   UNL     1     -44.047  44.162  24.576  1.00  0.00     0.063 H 
ATOM     78  C   UNL     1     -42.002  41.808  26.879  1.00  0.00    -0.062 A 
ATOM     79  H   UNL     1     -43.884  41.114  27.637  1.00  0.00     0.063 H 
ATOM     80  C   UNL     1     -41.354  42.670  25.999  1.00  0.00    -0.062 A 
ATOM     81  H   UNL     1     -41.592  44.200  24.503  1.00  0.00     0.062 H 
ATOM     82  H   UNL     1     -41.421  41.153  27.523  1.00  0.00     0.062 H 
ATOM     83  H   UNL     1     -40.268  42.700  25.963  1.00  0.00     0.062 H 
ENDBRANCH  70  73
ENDBRANCH  68  70
ENDBRANCH  63  68
ENDBRANCH  50  60
ENDBRANCH   1  44
TORSDOF 13
ENDMDL
MODEL 4
REMARK VINA RESULT:      -9.1      3.149     11.918
REMARK SMILES CC1(C)CCN(Cc2ccc(C(=O)NC[C@@]3(O)CCCN(c4cc(NCc5ccccc5)ncn4)C3)c(O)c2)CC1
REMARK SMILES IDX 15 1 14 4 12 5 13 6 11 8 8 9 9 10 39 11 10 12 37 14 7 17
REMARK SMILES IDX 6 20 2 21 4 22 41 23 5 24 40 27 1 34 3 38 38 42 16 44 18 45
REMARK SMILES IDX 36 46 19 47 21 50 20 53 17 58 22 60 23 61 35 62 24 63 34 65
REMARK SMILES IDX 33 66 25 68 26 70 27 73 28 74 32 75 29 76 31 78 30 80
REMARK H PARENT 15 2 15 3 14 7 9 13 39 15 10 16 7 18 7 19 4 25 4 26 41 28
REMARK H PARENT 41 29 5 30 5 31 40 32 40 33 1 35 1 36 1 37 3 39 3 40 3 41
REMARK H PARENT 38 43 18 48 18 49 36 51 36 52 19 54 19 55 20 56 20 57 17 59
REMARK H PARENT 23 64 34 67 25 69 26 71 26 72 28 77 32 79 29 81 31 82 30 83
REMARK Flexibility Score: inf
ROOT
ATOM      1  C   UNL     1     -47.808  31.249  24.953  1.00  0.00     0.048 C 
ATOM      2  H   UNL     1     -48.892  31.290  24.801  1.00  0.00     0.052 H 
ATOM      3  H   UNL     1     -47.585  30.341  25.520  1.00  0.00     0.052 H 
ENDROOT
BRANCH   1   4
ATOM      4  N   UNL     1     -47.488  32.409  25.769  1.00  0.00    -0.349 N 
ATOM      5  C   UNL     1     -48.411  33.390  26.045  1.00  0.00     0.255 C 
ATOM      6  O   UNL     1     -49.613  33.256  25.831  1.00  0.00    -0.269 OA
ATOM      7  H   UNL     1     -46.505  32.674  25.807  1.00  0.00     0.163 HD
BRANCH   5   8
ATOM      8  C   UNL     1     -47.896  34.667  26.636  1.00  0.00     0.081 A 
ATOM      9  C   UNL     1     -47.115  37.129  27.792  1.00  0.00    -0.030 A 
ATOM     10  C   UNL     1     -48.467  36.774  27.727  1.00  0.00    -0.057 A 
ATOM     11  C   UNL     1     -46.157  36.251  27.260  1.00  0.00    -0.015 A 
ATOM     12  C   UNL     1     -48.850  35.556  27.156  1.00  0.00    -0.045 A 
ATOM     13  H   UNL     1     -49.234  37.436  28.121  1.00  0.00     0.063 H 
ATOM     14  C   UNL     1     -46.543  35.032  26.694  1.00  0.00     0.128 A 
ATOM     15  H   UNL     1     -45.108  36.536  27.308  1.00  0.00     0.067 H 
ATOM     16  H   UNL     1     -49.908  35.300  27.121  1.00  0.00     0.063 H 
BRANCH   9  17
ATOM     17  C   UNL     1     -46.695  38.456  28.390  1.00  0.00     0.023 C 
ATOM     18  H   UNL     1     -47.539  39.141  28.229  1.00  0.00     0.048 H 
ATOM     19  H   UNL     1     -46.572  38.366  29.478  1.00  0.00     0.048 H 
BRANCH  17  20
ATOM     20  N   UNL     1     -45.474  39.012  27.780  1.00  0.00    -0.299 NA
ATOM     21  C   UNL     1     -43.603  41.170  26.957  1.00  0.00    -0.033 C 
ATOM     22  C   UNL     1     -43.347  40.232  28.154  1.00  0.00    -0.035 C 
ATOM     23  C   UNL     1     -44.585  40.479  25.988  1.00  0.00    -0.035 C 
ATOM     24  C   UNL     1     -44.637  39.692  28.782  1.00  0.00    -0.001 C 
ATOM     25  H   UNL     1     -42.740  39.376  27.826  1.00  0.00     0.029 H 
ATOM     26  H   UNL     1     -42.758  40.747  28.923  1.00  0.00     0.029 H 
ATOM     27  C   UNL     1     -45.832  39.933  26.690  1.00  0.00    -0.001 C 
ATOM     28  H   UNL     1     -44.891  41.174  25.197  1.00  0.00     0.029 H 
ATOM     29  H   UNL     1     -44.077  39.644  25.486  1.00  0.00     0.029 H 
ATOM     30  H   UNL     1     -44.344  38.992  29.572  1.00  0.00     0.043 H 
ATOM     31  H   UNL     1     -45.189  40.506  29.270  1.00  0.00     0.043 H 
ATOM     32  H   UNL     1     -46.426  39.397  25.939  1.00  0.00     0.043 H 
ATOM     33  H   UNL     1     -46.455  40.757  27.059  1.00  0.00     0.043 H 
BRANCH  21  34
ATOM     34  C   UNL     1     -44.170  42.519  27.436  1.00  0.00    -0.060 C 
ATOM     35  H   UNL     1     -45.205  42.409  27.781  1.00  0.00     0.024 H 
ATOM     36  H   UNL     1     -44.169  43.280  26.649  1.00  0.00     0.024 H 
ATOM     37  H   UNL     1     -43.584  42.916  28.272  1.00  0.00     0.024 H 
ENDBRANCH  21  34
BRANCH  21  38
ATOM     38  C   UNL     1     -42.275  41.442  26.228  1.00  0.00    -0.060 C 
ATOM     39  H   UNL     1     -42.107  40.711  25.430  1.00  0.00     0.024 H 
ATOM     40  H   UNL     1     -42.267  42.438  25.774  1.00  0.00     0.024 H 
ATOM     41  H   UNL     1     -41.427  41.385  26.920  1.00  0.00     0.024 H 
ENDBRANCH  21  38
ENDBRANCH  17  20
ENDBRANCH   9  17
BRANCH  14  42
ATOM     42  O   UNL     1     -45.567  34.212  26.189  1.00  0.00    -0.507 OA
ATOM     43  H   UNL     1     -44.911  34.756  25.719  1.00  0.00     0.293 HD
ENDBRANCH  14  42
ENDBRANCH   5   8
ENDBRANCH   1   4
BRANCH   1  44
ATOM     44  C   UNL     1     -47.088  31.289  23.584  1.00  0.00     0.099 C 
ATOM     45  C   UNL     1     -46.064  30.146  23.430  1.00  0.00    -0.019 C 
ATOM     46  C   UNL     1     -48.108  31.256  22.415  1.00  0.00     0.050 C 
ATOM     47  C   UNL     1     -46.725  28.791  23.189  1.00  0.00    -0.033 C 
ATOM     48  H   UNL     1     -45.397  30.367  22.585  1.00  0.00     0.030 H 
ATOM     49  H   UNL     1     -45.407  30.093  24.306  1.00  0.00     0.030 H 
ATOM     50  N   UNL     1     -48.686  29.924  22.175  1.00  0.00    -0.353 N 
ATOM     51  H   UNL     1     -47.585  31.552  21.495  1.00  0.00     0.052 H 
ATOM     52  H   UNL     1     -48.860  32.044  22.549  1.00  0.00     0.052 H 
ATOM     53  C   UNL     1     -47.694  28.853  22.006  1.00  0.00     0.019 C 
ATOM     54  H   UNL     1     -47.244  28.464  24.097  1.00  0.00     0.029 H 
ATOM     55  H   UNL     1     -45.952  28.040  22.985  1.00  0.00     0.029 H 
ATOM     56  H   UNL     1     -47.122  29.066  21.093  1.00  0.00     0.049 H 
ATOM     57  H   UNL     1     -48.163  27.877  21.832  1.00  0.00     0.049 H 
BRANCH  44  58
ATOM     58  O   UNL     1     -46.366  32.544  23.514  1.00  0.00    -0.386 OA
ATOM     59  H   UNL     1     -46.992  33.260  23.714  1.00  0.00     0.211 HD
ENDBRANCH  44  58
BRANCH  50  60
ATOM     60  C   UNL     1     -49.832  29.588  22.911  1.00  0.00     0.134 A 
ATOM     61  C   UNL     1     -49.948  28.344  23.510  1.00  0.00     0.023 A 
ATOM     62  N   UNL     1     -50.816  30.492  23.036  1.00  0.00    -0.219 NA
ATOM     63  C   UNL     1     -51.130  28.032  24.152  1.00  0.00     0.131 A 
ATOM     64  H   UNL     1     -49.136  27.634  23.479  1.00  0.00     0.070 H 
ATOM     65  C   UNL     1     -51.913  30.110  23.700  1.00  0.00     0.120 A 
ATOM     66  N   UNL     1     -52.125  28.918  24.265  1.00  0.00    -0.219 NA
ATOM     67  H   UNL     1     -52.710  30.840  23.785  1.00  0.00     0.106 H 
BRANCH  63  68
ATOM     68  N   UNL     1     -51.381  26.804  24.742  1.00  0.00    -0.366 N 
ATOM     69  H   UNL     1     -51.107  26.089  24.074  1.00  0.00     0.162 HD
BRANCH  68  70
ATOM     70  C   UNL     1     -50.988  26.533  26.116  1.00  0.00     0.041 C 
ATOM     71  H   UNL     1     -51.520  25.635  26.454  1.00  0.00     0.054 H 
ATOM     72  H   UNL     1     -51.340  27.354  26.754  1.00  0.00     0.054 H 
BRANCH  70  73
ATOM     73  C   UNL     1     -49.507  26.303  26.334  1.00  0.00    -0.029 A 
ATOM     74  C   UNL     1     -48.899  25.058  26.114  1.00  0.00    -0.057 A 
ATOM     75  C   UNL     1     -48.714  27.357  26.818  1.00  0.00    -0.057 A 
ATOM     76  C   UNL     1     -47.529  24.887  26.327  1.00  0.00    -0.062 A 
ATOM     77  H   UNL     1     -49.475  24.213  25.743  1.00  0.00     0.063 H 
ATOM     78  C   UNL     1     -47.347  27.181  27.042  1.00  0.00    -0.062 A 
ATOM     79  H   UNL     1     -49.157  28.330  27.019  1.00  0.00     0.063 H 
ATOM     80  C   UNL     1     -46.754  25.947  26.790  1.00  0.00    -0.062 A 
ATOM     81  H   UNL     1     -47.063  23.928  26.108  1.00  0.00     0.062 H 
ATOM     82  H   UNL     1     -46.742  28.009  27.403  1.00  0.00     0.062 H 
ATOM     83  H   UNL     1     -45.687  25.811  26.942  1.00  0.00     0.062 H 
ENDBRANCH  70  73
ENDBRANCH  68  70
ENDBRANCH  63  68
ENDBRANCH  50  60
ENDBRANCH   1  44
TORSDOF 13
ENDMDL
MODEL 5
REMARK VINA RESULT:      -8.6      1.816      2.848
REMARK SMILES CC1(C)CCN(Cc2ccc(C(=O)NC[C@@]3(O)CCCN(c4cc(NCc5ccccc5)ncn4)C3)c(O)c2)CC1
REMARK SMILES IDX 15 1 14 4 12 5 13 6 11 8 8 9 9 10 39 11 10 12 37 14 7 17
REMARK SMILES IDX 6 20 2 21 4 22 41 23 5 24 40 27 1 34 3 38 38 42 16 44 18 45
REMARK SMILES IDX 36 46 19 47 21 50 20 53 17 58 22 60 23 61 35 62 24 63 34 65
REMARK SMILES IDX 33 66 25 68 26 70 27 73 28 74 32 75 29 76 31 78 30 80
REMARK H PARENT 15 2 15 3 14 7 9 13 39 15 10 16 7 18 7 19 4 25 4 26 41 28
REMARK H PARENT 41 29 5 30 5 31 40 32 40 33 1 35 1 36 1 37 3 39 3 40 3 41
REMARK H PARENT 38 43 18 48 18 49 36 51 36 52 19 54 19 55 20 56 20 57 17 59
REMARK H PARENT 23 64 34 67 25 69 26 71 26 72 28 77 32 79 29 81 31 82 30 83
REMARK Flexibility Score: inf
ROOT
ATOM      1  C   UNL     1     -47.190  42.155  26.499  1.00  0.00     0.048 C 
ATOM      2  H   UNL     1     -46.552  42.357  25.632  1.00  0.00     0.052 H 
ATOM      3  H   UNL     1     -46.635  42.444  27.395  1.00  0.00     0.052 H 
ENDROOT
BRANCH   1   4
ATOM      4  N   UNL     1     -47.385  40.713  26.505  1.00  0.00    -0.349 N 
ATOM      5  C   UNL     1     -47.700  40.021  27.650  1.00  0.00     0.255 C 
ATOM      6  O   UNL     1     -48.064  40.572  28.686  1.00  0.00    -0.269 OA
ATOM      7  H   UNL     1     -46.921  40.194  25.762  1.00  0.00     0.163 HD
BRANCH   5   8
ATOM      8  C   UNL     1     -47.585  38.528  27.599  1.00  0.00     0.081 A 
ATOM      9  C   UNL     1     -47.178  35.732  27.434  1.00  0.00    -0.030 A 
ATOM     10  C   UNL     1     -46.157  36.619  27.076  1.00  0.00    -0.057 A 
ATOM     11  C   UNL     1     -48.410  36.253  27.860  1.00  0.00    -0.015 A 
ATOM     12  C   UNL     1     -46.360  38.000  27.159  1.00  0.00    -0.045 A 
ATOM     13  H   UNL     1     -45.194  36.247  26.733  1.00  0.00     0.063 H 
ATOM     14  C   UNL     1     -48.609  37.635  27.947  1.00  0.00     0.128 A 
ATOM     15  H   UNL     1     -49.202  35.558  28.130  1.00  0.00     0.067 H 
ATOM     16  H   UNL     1     -45.548  38.670  26.880  1.00  0.00     0.063 H 
BRANCH   9  17
ATOM     17  C   UNL     1     -46.971  34.235  27.326  1.00  0.00     0.023 C 
ATOM     18  H   UNL     1     -45.884  34.078  27.343  1.00  0.00     0.048 H 
ATOM     19  H   UNL     1     -47.372  33.726  28.213  1.00  0.00     0.048 H 
BRANCH  17  20
ATOM     20  N   UNL     1     -47.543  33.653  26.098  1.00  0.00    -0.299 NA
ATOM     21  C   UNL     1     -48.617  31.476  24.383  1.00  0.00    -0.033 C 
ATOM     22  C   UNL     1     -49.502  32.547  25.054  1.00  0.00    -0.035 C 
ATOM     23  C   UNL     1     -47.181  32.027  24.261  1.00  0.00    -0.035 C 
ATOM     24  C   UNL     1     -48.891  33.112  26.341  1.00  0.00    -0.001 C 
ATOM     25  H   UNL     1     -49.663  33.379  24.355  1.00  0.00     0.029 H 
ATOM     26  H   UNL     1     -50.495  32.136  25.275  1.00  0.00     0.029 H 
ATOM     27  C   UNL     1     -46.650  32.609  25.575  1.00  0.00    -0.001 C 
ATOM     28  H   UNL     1     -46.500  31.241  23.912  1.00  0.00     0.029 H 
ATOM     29  H   UNL     1     -47.156  32.818  23.498  1.00  0.00     0.029 H 
ATOM     30  H   UNL     1     -49.561  33.903  26.697  1.00  0.00     0.043 H 
ATOM     31  H   UNL     1     -48.871  32.340  27.121  1.00  0.00     0.043 H 
ATOM     32  H   UNL     1     -45.663  33.041  25.369  1.00  0.00     0.043 H 
ATOM     33  H   UNL     1     -46.500  31.811  26.312  1.00  0.00     0.043 H 
BRANCH  21  34
ATOM     34  C   UNL     1     -48.630  30.170  25.200  1.00  0.00    -0.060 C 
ATOM     35  H   UNL     1     -47.617  29.893  25.512  1.00  0.00     0.024 H 
ATOM     36  H   UNL     1     -49.039  29.326  24.637  1.00  0.00     0.024 H 
ATOM     37  H   UNL     1     -49.236  30.282  26.106  1.00  0.00     0.024 H 
ENDBRANCH  21  34
BRANCH  21  38
ATOM     38  C   UNL     1     -49.165  31.166  22.979  1.00  0.00    -0.060 C 
ATOM     39  H   UNL     1     -50.187  30.775  23.033  1.00  0.00     0.024 H 
ATOM     40  H   UNL     1     -49.186  32.064  22.353  1.00  0.00     0.024 H 
ATOM     41  H   UNL     1     -48.547  30.419  22.469  1.00  0.00     0.024 H 
ENDBRANCH  21  38
ENDBRANCH  17  20
ENDBRANCH   9  17
BRANCH  14  42
ATOM     42  O   UNL     1     -49.832  38.091  28.368  1.00  0.00    -0.507 OA
ATOM     43  H   UNL     1     -50.520  37.737  27.777  1.00  0.00     0.293 HD
ENDBRANCH  14  42
ENDBRANCH   5   8
ENDBRANCH   1   4
BRANCH   1  44
ATOM     44  C   UNL     1     -48.527  42.919  26.352  1.00  0.00     0.099 C 
ATOM     45  C   UNL     1     -48.921  43.659  27.647  1.00  0.00    -0.019 C 
ATOM     46  C   UNL     1     -48.475  43.912  25.161  1.00  0.00     0.050 C 
ATOM     47  C   UNL     1     -48.081  44.912  27.888  1.00  0.00    -0.033 C 
ATOM     48  H   UNL     1     -49.979  43.950  27.592  1.00  0.00     0.030 H 
ATOM     49  H   UNL     1     -48.854  42.989  28.512  1.00  0.00     0.030 H 
ATOM     50  N   UNL     1     -47.704  45.133  25.446  1.00  0.00    -0.353 N 
ATOM     51  H   UNL     1     -49.504  44.226  24.931  1.00  0.00     0.052 H 
ATOM     52  H   UNL     1     -48.155  43.392  24.250  1.00  0.00     0.052 H 
ATOM     53  C   UNL     1     -48.111  45.837  26.670  1.00  0.00     0.019 C 
ATOM     54  H   UNL     1     -47.053  44.628  28.134  1.00  0.00     0.029 H 
ATOM     55  H   UNL     1     -48.473  45.449  28.760  1.00  0.00     0.029 H 
ATOM     56  H   UNL     1     -49.138  46.197  26.525  1.00  0.00     0.049 H 
ATOM     57  H   UNL     1     -47.511  46.739  26.849  1.00  0.00     0.049 H 
BRANCH  44  58
ATOM     58  O   UNL     1     -49.556  41.936  26.072  1.00  0.00    -0.386 OA
ATOM     59  H   UNL     1     -49.515  41.723  25.125  1.00  0.00     0.211 HD
ENDBRANCH  44  58
BRANCH  50  60
ATOM     60  C   UNL     1     -46.324  45.084  25.196  1.00  0.00     0.134 A 
ATOM     61  C   UNL     1     -45.452  44.575  26.145  1.00  0.00     0.023 A 
ATOM     62  N   UNL     1     -45.857  45.529  24.019  1.00  0.00    -0.219 NA
ATOM     63  C   UNL     1     -44.096  44.626  25.885  1.00  0.00     0.131 A 
ATOM     64  H   UNL     1     -45.819  44.148  27.065  1.00  0.00     0.070 H 
ATOM     65  C   UNL     1     -44.531  45.513  23.845  1.00  0.00     0.120 A 
ATOM     66  N   UNL     1     -43.619  45.086  24.724  1.00  0.00    -0.219 NA
ATOM     67  H   UNL     1     -44.159  45.887  22.898  1.00  0.00     0.106 H 
BRANCH  63  68
ATOM     68  N   UNL     1     -43.128  44.196  26.777  1.00  0.00    -0.366 N 
ATOM     69  H   UNL     1     -43.509  44.314  27.712  1.00  0.00     0.162 HD
BRANCH  68  70
ATOM     70  C   UNL     1     -42.410  42.949  26.567  1.00  0.00     0.041 C 
ATOM     71  H   UNL     1     -41.338  43.176  26.515  1.00  0.00     0.054 H 
ATOM     72  H   UNL     1     -42.683  42.543  25.585  1.00  0.00     0.054 H 
BRANCH  70  73
ATOM     73  C   UNL     1     -42.608  41.897  27.639  1.00  0.00    -0.029 A 
ATOM     74  C   UNL     1     -43.690  41.005  27.627  1.00  0.00    -0.057 A 
ATOM     75  C   UNL     1     -41.704  41.835  28.713  1.00  0.00    -0.057 A 
ATOM     76  C   UNL     1     -43.837  40.049  28.635  1.00  0.00    -0.062 A 
ATOM     77  H   UNL     1     -44.417  41.021  26.817  1.00  0.00     0.063 H 
ATOM     78  C   UNL     1     -41.859  40.886  29.725  1.00  0.00    -0.062 A 
ATOM     79  H   UNL     1     -40.864  42.525  28.765  1.00  0.00     0.063 H 
ATOM     80  C   UNL     1     -42.923  39.991  29.683  1.00  0.00    -0.062 A 
ATOM     81  H   UNL     1     -44.657  39.335  28.587  1.00  0.00     0.062 H 
ATOM     82  H   UNL     1     -41.144  40.840  30.543  1.00  0.00     0.062 H 
ATOM     83  H   UNL     1     -43.035  39.236  30.457  1.00  0.00     0.062 H 
ENDBRANCH  70  73
ENDBRANCH  68  70
ENDBRANCH  63  68
ENDBRANCH  50  60
ENDBRANCH   1  44
TORSDOF 13
ENDMDL
MODEL 6
REMARK VINA RESULT:      -8.2      2.488      5.651
REMARK SMILES CC1(C)CCN(Cc2ccc(C(=O)NC[C@@]3(O)CCCN(c4cc(NCc5ccccc5)ncn4)C3)c(O)c2)CC1
REMARK SMILES IDX 15 1 14 4 12 5 13 6 11 8 8 9 9 10 39 11 10 12 37 14 7 17
REMARK SMILES IDX 6 20 2 21 4 22 41 23 5 24 40 27 1 34 3 38 38 42 16 44 18 45
REMARK SMILES IDX 36 46 19 47 21 50 20 53 17 58 22 60 23 61 35 62 24 63 34 65
REMARK SMILES IDX 33 66 25 68 26 70 27 73 28 74 32 75 29 76 31 78 30 80
REMARK H PARENT 15 2 15 3 14 7 9 13 39 15 10 16 7 18 7 19 4 25 4 26 41 28
REMARK H PARENT 41 29 5 30 5 31 40 32 40 33 1 35 1 36 1 37 3 39 3 40 3 41
REMARK H PARENT 38 43 18 48 18 49 36 51 36 52 19 54 19 55 20 56 20 57 17 59
REMARK H PARENT 23 64 34 67 25 69 26 71 26 72 28 77 32 79 29 81 31 82 30 83
REMARK Flexibility Score: inf
ROOT
ATOM      1  C   UNL     1     -42.880  43.246  27.409  1.00  0.00     0.048 C 
ATOM      2  H   UNL     1     -41.903  43.104  27.883  1.00  0.00     0.052 H 
ATOM      3  H   UNL     1     -43.318  44.160  27.816  1.00  0.00     0.052 H 
ENDROOT
BRANCH   1   4
ATOM      4  N   UNL     1     -43.682  42.107  27.829  1.00  0.00    -0.349 N 
ATOM      5  C   UNL     1     -43.140  41.033  28.495  1.00  0.00     0.255 C 
ATOM      6  O   UNL     1     -42.014  41.049  28.985  1.00  0.00    -0.269 OA
ATOM      7  H   UNL     1     -44.537  41.942  27.303  1.00  0.00     0.163 HD
BRANCH   5   8
ATOM      8  C   UNL     1     -43.987  39.803  28.611  1.00  0.00     0.081 A 
ATOM      9  C   UNL     1     -45.681  37.536  28.660  1.00  0.00    -0.030 A 
ATOM     10  C   UNL     1     -45.777  38.471  27.623  1.00  0.00    -0.057 A 
ATOM     11  C   UNL     1     -44.742  37.752  29.681  1.00  0.00    -0.015 A 
ATOM     12  C   UNL     1     -44.939  39.589  27.601  1.00  0.00    -0.045 A 
ATOM     13  H   UNL     1     -46.501  38.338  26.822  1.00  0.00     0.063 H 
ATOM     14  C   UNL     1     -43.901  38.870  29.654  1.00  0.00     0.128 A 
ATOM     15  H   UNL     1     -44.676  37.025  30.488  1.00  0.00     0.067 H 
ATOM     16  H   UNL     1     -45.030  40.300  26.781  1.00  0.00     0.063 H 
BRANCH   9  17
ATOM     17  C   UNL     1     -46.601  36.333  28.701  1.00  0.00     0.023 C 
ATOM     18  H   UNL     1     -46.460  35.878  29.691  1.00  0.00     0.048 H 
ATOM     19  H   UNL     1     -47.651  36.649  28.651  1.00  0.00     0.048 H 
BRANCH  17  20
ATOM     20  N   UNL     1     -46.312  35.342  27.648  1.00  0.00    -0.299 NA
ATOM     21  C   UNL     1     -46.912  33.048  25.855  1.00  0.00    -0.033 C 
ATOM     22  C   UNL     1     -46.875  34.515  25.378  1.00  0.00    -0.035 C 
ATOM     23  C   UNL     1     -46.072  32.926  27.143  1.00  0.00    -0.035 C 
ATOM     24  C   UNL     1     -47.205  35.518  26.490  1.00  0.00    -0.001 C 
ATOM     25  H   UNL     1     -45.874  34.749  24.990  1.00  0.00     0.029 H 
ATOM     26  H   UNL     1     -47.569  34.661  24.542  1.00  0.00     0.029 H 
ATOM     27  C   UNL     1     -46.429  33.981  28.194  1.00  0.00    -0.001 C 
ATOM     28  H   UNL     1     -46.188  31.927  27.580  1.00  0.00     0.029 H 
ATOM     29  H   UNL     1     -45.005  33.032  26.896  1.00  0.00     0.029 H 
ATOM     30  H   UNL     1     -47.086  36.522  26.066  1.00  0.00     0.043 H 
ATOM     31  H   UNL     1     -48.257  35.421  26.786  1.00  0.00     0.043 H 
ATOM     32  H   UNL     1     -45.732  33.862  29.033  1.00  0.00     0.043 H 
ATOM     33  H   UNL     1     -47.436  33.800  28.589  1.00  0.00     0.043 H 
BRANCH  21  34
ATOM     34  C   UNL     1     -48.362  32.596  26.108  1.00  0.00    -0.060 C 
ATOM     35  H   UNL     1     -48.967  32.694  25.198  1.00  0.00     0.024 H 
ATOM     36  H   UNL     1     -48.855  33.179  26.891  1.00  0.00     0.024 H 
ATOM     37  H   UNL     1     -48.396  31.544  26.414  1.00  0.00     0.024 H 
ENDBRANCH  21  34
BRANCH  21  38
ATOM     38  C   UNL     1     -46.312  32.142  24.766  1.00  0.00    -0.060 C 
ATOM     39  H   UNL     1     -45.472  32.635  24.264  1.00  0.00     0.024 H 
ATOM     40  H   UNL     1     -45.941  31.203  25.189  1.00  0.00     0.024 H 
ATOM     41  H   UNL     1     -47.059  31.892  24.004  1.00  0.00     0.024 H 
ENDBRANCH  21  38
ENDBRANCH  17  20
ENDBRANCH   9  17
BRANCH  14  42
ATOM     42  O   UNL     1     -43.002  39.032  30.677  1.00  0.00    -0.507 OA
ATOM     43  H   UNL     1     -43.262  39.808  31.203  1.00  0.00     0.293 HD
ENDBRANCH  14  42
ENDBRANCH   5   8
ENDBRANCH   1   4
BRANCH   1  44
ATOM     44  C   UNL     1     -42.711  43.298  25.873  1.00  0.00     0.099 C 
ATOM     45  C   UNL     1     -43.544  42.215  25.157  1.00  0.00    -0.019 C 
ATOM     46  C   UNL     1     -43.070  44.703  25.319  1.00  0.00     0.050 C 
ATOM     47  C   UNL     1     -45.036  42.538  25.134  1.00  0.00    -0.033 C 
ATOM     48  H   UNL     1     -43.191  42.110  24.121  1.00  0.00     0.030 H 
ATOM     49  H   UNL     1     -43.378  41.232  25.615  1.00  0.00     0.030 H 
ATOM     50  N   UNL     1     -44.517  44.961  25.260  1.00  0.00    -0.353 N 
ATOM     51  H   UNL     1     -42.686  44.774  24.290  1.00  0.00     0.052 H 
ATOM     52  H   UNL     1     -42.507  45.475  25.857  1.00  0.00     0.052 H 
ATOM     53  C   UNL     1     -45.290  43.930  24.552  1.00  0.00     0.019 C 
ATOM     54  H   UNL     1     -45.448  42.460  26.146  1.00  0.00     0.029 H 
ATOM     55  H   UNL     1     -45.560  41.791  24.527  1.00  0.00     0.029 H 
ATOM     56  H   UNL     1     -44.974  43.935  23.501  1.00  0.00     0.049 H 
ATOM     57  H   UNL     1     -46.363  44.156  24.533  1.00  0.00     0.049 H 
BRANCH  44  58
ATOM     58  O   UNL     1     -41.313  43.046  25.583  1.00  0.00    -0.386 OA
ATOM     59  H   UNL     1     -41.269  42.346  24.910  1.00  0.00     0.211 HD
ENDBRANCH  44  58
BRANCH  50  60
ATOM     60  C   UNL     1     -45.114  45.491  26.413  1.00  0.00     0.134 A 
ATOM     61  C   UNL     1     -46.396  45.115  26.783  1.00  0.00     0.023 A 
ATOM     62  N   UNL     1     -44.424  46.365  27.163  1.00  0.00    -0.219 NA
ATOM     63  C   UNL     1     -46.969  45.728  27.880  1.00  0.00     0.131 A 
ATOM     64  H   UNL     1     -46.934  44.360  26.232  1.00  0.00     0.070 H 
ATOM     65  C   UNL     1     -45.051  46.886  28.224  1.00  0.00     0.120 A 
ATOM     66  N   UNL     1     -46.298  46.614  28.622  1.00  0.00    -0.219 NA
ATOM     67  H   UNL     1     -44.494  47.601  28.817  1.00  0.00     0.106 H 
BRANCH  63  68
ATOM     68  N   UNL     1     -48.260  45.472  28.313  1.00  0.00    -0.366 N 
ATOM     69  H   UNL     1     -48.652  46.356  28.624  1.00  0.00     0.162 HD
BRANCH  68  70
ATOM     70  C   UNL     1     -49.167  44.647  27.531  1.00  0.00     0.041 C 
ATOM     71  H   UNL     1     -48.942  44.801  26.469  1.00  0.00     0.054 H 
ATOM     72  H   UNL     1     -50.193  45.007  27.680  1.00  0.00     0.054 H 
BRANCH  70  73
ATOM     73  C   UNL     1     -49.093  43.159  27.807  1.00  0.00    -0.029 A 
ATOM     74  C   UNL     1     -48.617  42.241  26.861  1.00  0.00    -0.057 A 
ATOM     75  C   UNL     1     -49.560  42.667  29.038  1.00  0.00    -0.057 A 
ATOM     76  C   UNL     1     -48.565  40.876  27.155  1.00  0.00    -0.062 A 
ATOM     77  H   UNL     1     -48.250  42.577  25.893  1.00  0.00     0.063 H 
ATOM     78  C   UNL     1     -49.518  41.302  29.326  1.00  0.00    -0.062 A 
ATOM     79  H   UNL     1     -49.955  43.349  29.788  1.00  0.00     0.063 H 
ATOM     80  C   UNL     1     -49.015  40.408  28.386  1.00  0.00    -0.062 A 
ATOM     81  H   UNL     1     -48.150  40.182  26.426  1.00  0.00     0.062 H 
ATOM     82  H   UNL     1     -49.869  40.936  30.288  1.00  0.00     0.062 H 
ATOM     83  H   UNL     1     -48.960  39.346  28.613  1.00  0.00     0.062 H 
ENDBRANCH  70  73
ENDBRANCH  68  70
ENDBRANCH  63  68
ENDBRANCH  50  60
ENDBRANCH   1  44
TORSDOF 13
ENDMDL
MODEL 7
REMARK VINA RESULT:      -8.2      3.213     11.974
REMARK SMILES CC1(C)CCN(Cc2ccc(C(=O)NC[C@@]3(O)CCCN(c4cc(NCc5ccccc5)ncn4)C3)c(O)c2)CC1
REMARK SMILES IDX 15 1 14 4 12 5 13 6 11 8 8 9 9 10 39 11 10 12 37 14 7 17
REMARK SMILES IDX 6 20 2 21 4 22 41 23 5 24 40 27 1 34 3 38 38 42 16 44 18 45
REMARK SMILES IDX 36 46 19 47 21 50 20 53 17 58 22 60 23 61 35 62 24 63 34 65
REMARK SMILES IDX 33 66 25 68 26 70 27 73 28 74 32 75 29 76 31 78 30 80
REMARK H PARENT 15 2 15 3 14 7 9 13 39 15 10 16 7 18 7 19 4 25 4 26 41 28
REMARK H PARENT 41 29 5 30 5 31 40 32 40 33 1 35 1 36 1 37 3 39 3 40 3 41
REMARK H PARENT 38 43 18 48 18 49 36 51 36 52 19 54 19 55 20 56 20 57 17 59
REMARK H PARENT 23 64 34 67 25 69 26 71 26 72 28 77 32 79 29 81 31 82 30 83
REMARK Flexibility Score: inf
ROOT
ATOM      1  C   UNL     1     -47.922  31.105  24.306  1.00  0.00     0.048 C 
ATOM      2  H   UNL     1     -48.963  31.336  24.056  1.00  0.00     0.052 H 
ATOM      3  H   UNL     1     -47.927  30.317  25.063  1.00  0.00     0.052 H 
ENDROOT
BRANCH   1   4
ATOM      4  N   UNL     1     -47.386  32.323  24.892  1.00  0.00    -0.349 N 
ATOM      5  C   UNL     1     -47.226  32.476  26.249  1.00  0.00     0.255 C 
ATOM      6  O   UNL     1     -47.297  31.539  27.040  1.00  0.00    -0.269 OA
ATOM      7  H   UNL     1     -47.494  33.172  24.340  1.00  0.00     0.163 HD
BRANCH   5   8
ATOM      8  C   UNL     1     -46.952  33.860  26.753  1.00  0.00     0.081 A 
ATOM      9  C   UNL     1     -46.540  36.545  27.548  1.00  0.00    -0.030 A 
ATOM     10  C   UNL     1     -47.287  36.252  26.402  1.00  0.00    -0.057 A 
ATOM     11  C   UNL     1     -45.987  35.486  28.286  1.00  0.00    -0.015 A 
ATOM     12  C   UNL     1     -47.490  34.924  26.012  1.00  0.00    -0.045 A 
ATOM     13  H   UNL     1     -47.721  37.049  25.804  1.00  0.00     0.063 H 
ATOM     14  C   UNL     1     -46.195  34.159  27.896  1.00  0.00     0.128 A 
ATOM     15  H   UNL     1     -45.402  35.721  29.172  1.00  0.00     0.067 H 
ATOM     16  H   UNL     1     -48.079  34.722  25.118  1.00  0.00     0.063 H 
BRANCH   9  17
ATOM     17  C   UNL     1     -46.300  37.982  27.965  1.00  0.00     0.023 C 
ATOM     18  H   UNL     1     -46.241  37.973  29.062  1.00  0.00     0.048 H 
ATOM     19  H   UNL     1     -45.323  38.329  27.604  1.00  0.00     0.048 H 
BRANCH  17  20
ATOM     20  N   UNL     1     -47.366  38.903  27.528  1.00  0.00    -0.299 NA
ATOM     21  C   UNL     1     -49.357  41.084  27.855  1.00  0.00    -0.033 C 
ATOM     22  C   UNL     1     -48.018  41.259  27.110  1.00  0.00    -0.035 C 
ATOM     23  C   UNL     1     -49.726  39.585  27.866  1.00  0.00    -0.035 C 
ATOM     24  C   UNL     1     -46.925  40.305  27.606  1.00  0.00    -0.001 C 
ATOM     25  H   UNL     1     -48.170  41.079  26.036  1.00  0.00     0.029 H 
ATOM     26  H   UNL     1     -47.664  42.293  27.200  1.00  0.00     0.029 H 
ATOM     27  C   UNL     1     -48.575  38.690  28.337  1.00  0.00    -0.001 C 
ATOM     28  H   UNL     1     -50.602  39.413  28.502  1.00  0.00     0.029 H 
ATOM     29  H   UNL     1     -50.014  39.272  26.852  1.00  0.00     0.029 H 
ATOM     30  H   UNL     1     -46.045  40.464  26.973  1.00  0.00     0.043 H 
ATOM     31  H   UNL     1     -46.630  40.569  28.630  1.00  0.00     0.043 H 
ATOM     32  H   UNL     1     -48.904  37.649  28.237  1.00  0.00     0.043 H 
ATOM     33  H   UNL     1     -48.372  38.859  29.401  1.00  0.00     0.043 H 
BRANCH  21  34
ATOM     34  C   UNL     1     -49.256  41.629  29.291  1.00  0.00    -0.060 C 
ATOM     35  H   UNL     1     -48.423  41.161  29.830  1.00  0.00     0.024 H 
ATOM     36  H   UNL     1     -50.163  41.448  29.876  1.00  0.00     0.024 H 
ATOM     37  H   UNL     1     -49.080  42.711  29.288  1.00  0.00     0.024 H 
ENDBRANCH  21  34
BRANCH  21  38
ATOM     38  C   UNL     1     -50.456  41.873  27.121  1.00  0.00    -0.060 C 
ATOM     39  H   UNL     1     -50.093  42.252  26.160  1.00  0.00     0.024 H 
ATOM     40  H   UNL     1     -51.331  41.246  26.922  1.00  0.00     0.024 H 
ATOM     41  H   UNL     1     -50.790  42.731  27.716  1.00  0.00     0.024 H 
ENDBRANCH  21  38
ENDBRANCH  17  20
ENDBRANCH   9  17
BRANCH  14  42
ATOM     42  O   UNL     1     -45.632  33.163  28.651  1.00  0.00    -0.507 OA
ATOM     43  H   UNL     1     -45.128  32.571  28.066  1.00  0.00     0.293 HD
ENDBRANCH  14  42
ENDBRANCH   5   8
ENDBRANCH   1   4
BRANCH   1  44
ATOM     44  C   UNL     1     -47.157  30.696  23.025  1.00  0.00     0.099 C 
ATOM     45  C   UNL     1     -46.138  29.569  23.288  1.00  0.00    -0.019 C 
ATOM     46  C   UNL     1     -48.139  30.278  21.898  1.00  0.00     0.050 C 
ATOM     47  C   UNL     1     -46.802  28.208  23.484  1.00  0.00    -0.033 C 
ATOM     48  H   UNL     1     -45.441  29.502  22.441  1.00  0.00     0.030 H 
ATOM     49  H   UNL     1     -45.510  29.808  24.155  1.00  0.00     0.030 H 
ATOM     50  N   UNL     1     -48.719  28.939  22.088  1.00  0.00    -0.353 N 
ATOM     51  H   UNL     1     -47.582  30.258  20.949  1.00  0.00     0.052 H 
ATOM     52  H   UNL     1     -48.888  31.063  21.740  1.00  0.00     0.052 H 
ATOM     53  C   UNL     1     -47.730  27.875  22.313  1.00  0.00     0.019 C 
ATOM     54  H   UNL     1     -47.352  28.195  24.430  1.00  0.00     0.029 H 
ATOM     55  H   UNL     1     -46.028  27.434  23.563  1.00  0.00     0.029 H 
ATOM     56  H   UNL     1     -47.127  27.778  21.401  1.00  0.00     0.049 H 
ATOM     57  H   UNL     1     -48.201  26.894  22.454  1.00  0.00     0.049 H 
BRANCH  44  58
ATOM     58  O   UNL     1     -46.422  31.861  22.571  1.00  0.00    -0.386 OA
ATOM     59  H   UNL     1     -46.871  32.207  21.781  1.00  0.00     0.211 HD
ENDBRANCH  44  58
BRANCH  50  60
ATOM     60  C   UNL     1     -49.891  28.860  22.854  1.00  0.00     0.134 A 
ATOM     61  C   UNL     1     -49.990  27.960  23.905  1.00  0.00     0.023 A 
ATOM     62  N   UNL     1     -50.918  29.674  22.564  1.00  0.00    -0.219 NA
ATOM     63  C   UNL     1     -51.194  27.862  24.574  1.00  0.00     0.131 A 
ATOM     64  H   UNL     1     -49.148  27.351  24.195  1.00  0.00     0.070 H 
ATOM     65  C   UNL     1     -52.035  29.527  23.286  1.00  0.00     0.120 A 
ATOM     66  N   UNL     1     -52.229  28.655  24.279  1.00  0.00    -0.219 NA
ATOM     67  H   UNL     1     -52.865  30.177  23.037  1.00  0.00     0.106 H 
BRANCH  63  68
ATOM     68  N   UNL     1     -51.427  26.966  25.604  1.00  0.00    -0.366 N 
ATOM     69  H   UNL     1     -52.432  26.819  25.650  1.00  0.00     0.162 HD
BRANCH  68  70
ATOM     70  C   UNL     1     -50.630  25.758  25.746  1.00  0.00     0.041 C 
ATOM     71  H   UNL     1     -50.583  25.261  24.770  1.00  0.00     0.054 H 
ATOM     72  H   UNL     1     -51.152  25.064  26.417  1.00  0.00     0.054 H 
BRANCH  70  73
ATOM     73  C   UNL     1     -49.208  25.972  26.224  1.00  0.00    -0.029 A 
ATOM     74  C   UNL     1     -48.791  27.161  26.840  1.00  0.00    -0.057 A 
ATOM     75  C   UNL     1     -48.254  24.964  26.005  1.00  0.00    -0.057 A 
ATOM     76  C   UNL     1     -47.470  27.318  27.266  1.00  0.00    -0.062 A 
ATOM     77  H   UNL     1     -49.496  27.969  27.025  1.00  0.00     0.063 H 
ATOM     78  C   UNL     1     -46.931  25.127  26.422  1.00  0.00    -0.062 A 
ATOM     79  H   UNL     1     -48.537  24.036  25.512  1.00  0.00     0.063 H 
ATOM     80  C   UNL     1     -46.542  26.302  27.057  1.00  0.00    -0.062 A 
ATOM     81  H   UNL     1     -47.174  28.229  27.783  1.00  0.00     0.062 H 
ATOM     82  H   UNL     1     -46.206  24.334  26.259  1.00  0.00     0.062 H 
ATOM     83  H   UNL     1     -45.519  26.426  27.402  1.00  0.00     0.062 H 
ENDBRANCH  70  73
ENDBRANCH  68  70
ENDBRANCH  63  68
ENDBRANCH  50  60
ENDBRANCH   1  44
TORSDOF 13
ENDMDL
