MODEL 1
REMARK VINA RESULT:      -8.4      0.000      0.000
REMARK SMILES CC1(C)CCN(Cc2ccc(N3CC(=O)NC4(CCN(c5ccnc6[nH]ccc56)CC4)C3)cc2)CC1
REMARK SMILES IDX 8 1 9 2 10 3 11 4 33 5 34 6 7 11 6 14 2 15 4 16 36 17 5 18
REMARK SMILES IDX 35 21 1 28 3 32 12 36 13 37 32 38 14 39 17 42 15 45 16 46
REMARK SMILES IDX 18 47 31 48 19 50 30 53 20 56 21 61 22 62 29 63 23 64 25 66
REMARK SMILES IDX 28 67 24 68 26 70 27 71
REMARK H PARENT 9 7 10 8 33 9 34 10 7 12 7 13 4 19 4 20 36 22 36 23 5 24 5 25
REMARK H PARENT 35 26 35 27 1 29 1 30 1 31 3 33 3 34 3 35 13 40 13 41 32 43
REMARK H PARENT 32 44 16 49 18 51 18 52 31 54 31 55 19 57 19 58 30 59 30 60
REMARK H PARENT 22 65 23 69 28 72 26 73 27 74
REMARK Flexibility Score: inf
ROOT
ATOM      1  C   UNL     1     -46.262  34.047  25.957  1.00  0.00    -0.034 A 
ATOM      2  C   UNL     1     -47.197  35.071  25.796  1.00  0.00    -0.056 A 
ATOM      3  C   UNL     1     -47.324  36.081  26.761  1.00  0.00    -0.038 A 
ATOM      4  C   UNL     1     -46.521  36.113  27.911  1.00  0.00     0.037 A 
ATOM      5  C   UNL     1     -45.605  35.060  28.064  1.00  0.00    -0.038 A 
ATOM      6  C   UNL     1     -45.469  34.048  27.107  1.00  0.00    -0.056 A 
ATOM      7  H   UNL     1     -47.834  35.103  24.915  1.00  0.00     0.063 H 
ATOM      8  H   UNL     1     -48.053  36.861  26.562  1.00  0.00     0.064 H 
ATOM      9  H   UNL     1     -44.991  34.996  28.959  1.00  0.00     0.064 H 
ATOM     10  H   UNL     1     -44.739  33.257  27.263  1.00  0.00     0.063 H 
ENDROOT
BRANCH   1  11
ATOM     11  C   UNL     1     -46.115  32.955  24.920  1.00  0.00     0.023 C 
ATOM     12  H   UNL     1     -45.704  33.433  24.021  1.00  0.00     0.048 H 
ATOM     13  H   UNL     1     -45.365  32.218  25.241  1.00  0.00     0.048 H 
BRANCH  11  14
ATOM     14  N   UNL     1     -47.387  32.291  24.596  1.00  0.00    -0.299 NA
ATOM     15  C   UNL     1     -49.656  30.648  24.110  1.00  0.00    -0.033 C 
ATOM     16  C   UNL     1     -48.948  30.513  25.472  1.00  0.00    -0.035 C 
ATOM     17  C   UNL     1     -48.595  30.858  22.998  1.00  0.00    -0.035 C 
ATOM     18  C   UNL     1     -48.016  31.693  25.786  1.00  0.00    -0.001 C 
ATOM     19  H   UNL     1     -48.353  29.590  25.475  1.00  0.00     0.029 H 
ATOM     20  H   UNL     1     -49.681  30.405  26.282  1.00  0.00     0.029 H 
ATOM     21  C   UNL     1     -47.225  31.314  23.524  1.00  0.00    -0.001 C 
ATOM     22  H   UNL     1     -48.439  29.929  22.433  1.00  0.00     0.029 H 
ATOM     23  H   UNL     1     -48.962  31.590  22.267  1.00  0.00     0.029 H 
ATOM     24  H   UNL     1     -47.264  31.332  26.500  1.00  0.00     0.043 H 
ATOM     25  H   UNL     1     -48.593  32.472  26.301  1.00  0.00     0.043 H 
ATOM     26  H   UNL     1     -46.676  31.748  22.679  1.00  0.00     0.043 H 
ATOM     27  H   UNL     1     -46.641  30.449  23.865  1.00  0.00     0.043 H 
BRANCH  15  28
ATOM     28  C   UNL     1     -50.641  31.836  24.135  1.00  0.00    -0.060 C 
ATOM     29  H   UNL     1     -50.139  32.785  24.349  1.00  0.00     0.024 H 
ATOM     30  H   UNL     1     -51.414  31.689  24.899  1.00  0.00     0.024 H 
ATOM     31  H   UNL     1     -51.148  31.945  23.169  1.00  0.00     0.024 H 
ENDBRANCH  15  28
BRANCH  15  32
ATOM     32  C   UNL     1     -50.464  29.370  23.825  1.00  0.00    -0.060 C 
ATOM     33  H   UNL     1     -51.241  29.216  24.582  1.00  0.00     0.024 H 
ATOM     34  H   UNL     1     -49.818  28.485  23.824  1.00  0.00     0.024 H 
ATOM     35  H   UNL     1     -50.957  29.422  22.847  1.00  0.00     0.024 H 
ENDBRANCH  15  32
ENDBRANCH  11  14
ENDBRANCH   1  11
BRANCH   4  36
ATOM     36  N   UNL     1     -46.612  37.109  28.882  1.00  0.00    -0.360 N 
ATOM     37  C   UNL     1     -47.817  37.963  28.969  1.00  0.00     0.097 C 
ATOM     38  C   UNL     1     -45.376  37.833  29.246  1.00  0.00     0.042 C 
ATOM     39  C   UNL     1     -47.660  39.299  28.231  1.00  0.00     0.240 C 
ATOM     40  H   UNL     1     -48.720  37.449  28.625  1.00  0.00     0.060 H 
ATOM     41  H   UNL     1     -47.988  38.208  30.025  1.00  0.00     0.060 H 
ATOM     42  C   UNL     1     -45.161  39.103  28.357  1.00  0.00     0.061 C 
ATOM     43  H   UNL     1     -44.484  37.198  29.226  1.00  0.00     0.052 H 
ATOM     44  H   UNL     1     -45.489  38.148  30.293  1.00  0.00     0.052 H 
ATOM     45  O   UNL     1     -48.612  39.894  27.728  1.00  0.00    -0.273 OA
ATOM     46  N   UNL     1     -46.414  39.882  28.259  1.00  0.00    -0.347 N 
ATOM     47  C   UNL     1     -44.076  39.984  29.034  1.00  0.00    -0.010 C 
ATOM     48  C   UNL     1     -44.690  38.711  26.939  1.00  0.00    -0.010 C 
ATOM     49  H   UNL     1     -46.357  40.747  27.729  1.00  0.00     0.164 HD
ATOM     50  C   UNL     1     -43.260  40.824  28.046  1.00  0.00     0.020 C 
ATOM     51  H   UNL     1     -43.368  39.365  29.600  1.00  0.00     0.031 H 
ATOM     52  H   UNL     1     -44.549  40.650  29.767  1.00  0.00     0.031 H 
ATOM     53  C   UNL     1     -44.370  39.925  26.052  1.00  0.00     0.020 C 
ATOM     54  H   UNL     1     -45.430  38.106  26.411  1.00  0.00     0.031 H 
ATOM     55  H   UNL     1     -43.787  38.091  27.021  1.00  0.00     0.031 H 
ATOM     56  N   UNL     1     -44.080  41.105  26.869  1.00  0.00    -0.371 N 
ATOM     57  H   UNL     1     -42.364  40.268  27.737  1.00  0.00     0.049 H 
ATOM     58  H   UNL     1     -42.891  41.717  28.562  1.00  0.00     0.049 H 
ATOM     59  H   UNL     1     -43.514  39.664  25.420  1.00  0.00     0.049 H 
ATOM     60  H   UNL     1     -45.235  40.125  25.409  1.00  0.00     0.049 H 
BRANCH  56  61
ATOM     61  C   UNL     1     -43.921  42.360  26.257  1.00  0.00     0.049 A 
ATOM     62  C   UNL     1     -42.609  42.827  26.016  1.00  0.00    -0.020 A 
ATOM     63  C   UNL     1     -44.946  43.281  25.893  1.00  0.00     0.042 A 
ATOM     64  C   UNL     1     -42.373  44.066  25.436  1.00  0.00     0.031 A 
ATOM     65  H   UNL     1     -41.751  42.232  26.314  1.00  0.00     0.066 H 
ATOM     66  C   UNL     1     -44.563  44.494  25.315  1.00  0.00     0.139 A 
ATOM     67  C   UNL     1     -46.377  43.326  25.933  1.00  0.00    -0.033 A 
ATOM     68  N   UNL     1     -43.322  44.937  25.054  1.00  0.00    -0.238 NA
ATOM     69  H   UNL     1     -41.353  44.402  25.266  1.00  0.00     0.084 H 
ATOM     70  N   UNL     1     -45.684  45.223  25.032  1.00  0.00    -0.346 N 
ATOM     71  C   UNL     1     -46.799  44.526  25.402  1.00  0.00     0.003 A 
ATOM     72  H   UNL     1     -47.047  42.567  26.307  1.00  0.00     0.065 H 
ATOM     73  H   UNL     1     -45.656  46.141  24.612  1.00  0.00     0.167 HD
ATOM     74  H   UNL     1     -47.789  44.938  25.257  1.00  0.00     0.082 H 
ENDBRANCH  56  61
ENDBRANCH   4  36
TORSDOF 6
ENDMDL
MODEL 2
REMARK VINA RESULT:      -8.3      1.778      2.994
REMARK SMILES CC1(C)CCN(Cc2ccc(N3CC(=O)NC4(CCN(c5ccnc6[nH]ccc56)CC4)C3)cc2)CC1
REMARK SMILES IDX 8 1 9 2 10 3 11 4 33 5 34 6 7 11 6 14 2 15 4 16 36 17 5 18
REMARK SMILES IDX 35 21 1 28 3 32 12 36 13 37 32 38 14 39 17 42 15 45 16 46
REMARK SMILES IDX 18 47 31 48 19 50 30 53 20 56 21 61 22 62 29 63 23 64 25 66
REMARK SMILES IDX 28 67 24 68 26 70 27 71
REMARK H PARENT 9 7 10 8 33 9 34 10 7 12 7 13 4 19 4 20 36 22 36 23 5 24 5 25
REMARK H PARENT 35 26 35 27 1 29 1 30 1 31 3 33 3 34 3 35 13 40 13 41 32 43
REMARK H PARENT 32 44 16 49 18 51 18 52 31 54 31 55 19 57 19 58 30 59 30 60
REMARK H PARENT 22 65 23 69 28 72 26 73 27 74
REMARK Flexibility Score: inf
ROOT
ATOM      1  C   UNL     1     -47.218  33.225  25.140  1.00  0.00    -0.034 A 
ATOM      2  C   UNL     1     -46.427  34.341  25.418  1.00  0.00    -0.056 A 
ATOM      3  C   UNL     1     -46.813  35.263  26.402  1.00  0.00    -0.038 A 
ATOM      4  C   UNL     1     -47.989  35.102  27.149  1.00  0.00     0.037 A 
ATOM      5  C   UNL     1     -48.781  33.985  26.836  1.00  0.00    -0.038 A 
ATOM      6  C   UNL     1     -48.405  33.059  25.856  1.00  0.00    -0.056 A 
ATOM      7  H   UNL     1     -45.497  34.506  24.879  1.00  0.00     0.063 H 
ATOM      8  H   UNL     1     -46.139  36.095  26.586  1.00  0.00     0.064 H 
ATOM      9  H   UNL     1     -49.732  33.832  27.340  1.00  0.00     0.064 H 
ATOM     10  H   UNL     1     -49.047  32.204  25.653  1.00  0.00     0.063 H 
ENDROOT
BRANCH   1  11
ATOM     11  C   UNL     1     -46.810  32.223  24.082  1.00  0.00     0.023 C 
ATOM     12  H   UNL     1     -46.925  32.729  23.114  1.00  0.00     0.048 H 
ATOM     13  H   UNL     1     -45.742  31.981  24.172  1.00  0.00     0.048 H 
BRANCH  11  14
ATOM     14  N   UNL     1     -47.623  30.996  24.104  1.00  0.00    -0.299 NA
ATOM     15  C   UNL     1     -49.119  28.609  23.724  1.00  0.00    -0.033 C 
ATOM     16  C   UNL     1     -47.721  28.692  23.082  1.00  0.00    -0.035 C 
ATOM     17  C   UNL     1     -49.817  29.991  23.616  1.00  0.00    -0.035 C 
ATOM     18  C   UNL     1     -46.855  29.818  23.668  1.00  0.00    -0.001 C 
ATOM     19  H   UNL     1     -47.833  28.866  22.003  1.00  0.00     0.029 H 
ATOM     20  H   UNL     1     -47.189  27.738  23.183  1.00  0.00     0.029 H 
ATOM     21  C   UNL     1     -48.853  31.154  23.335  1.00  0.00    -0.001 C 
ATOM     22  H   UNL     1     -50.566  29.983  22.812  1.00  0.00     0.029 H 
ATOM     23  H   UNL     1     -50.374  30.199  24.538  1.00  0.00     0.029 H 
ATOM     24  H   UNL     1     -46.109  30.084  22.907  1.00  0.00     0.043 H 
ATOM     25  H   UNL     1     -46.302  29.426  24.530  1.00  0.00     0.043 H 
ATOM     26  H   UNL     1     -49.369  32.083  23.609  1.00  0.00     0.043 H 
ATOM     27  H   UNL     1     -48.638  31.220  22.260  1.00  0.00     0.043 H 
BRANCH  15  28
ATOM     28  C   UNL     1     -49.004  28.187  25.203  1.00  0.00    -0.060 C 
ATOM     29  H   UNL     1     -49.870  27.608  25.537  1.00  0.00     0.024 H 
ATOM     30  H   UNL     1     -48.919  29.064  25.856  1.00  0.00     0.024 H 
ATOM     31  H   UNL     1     -48.114  27.567  25.366  1.00  0.00     0.024 H 
ENDBRANCH  15  28
BRANCH  15  32
ATOM     32  C   UNL     1     -49.955  27.545  22.993  1.00  0.00    -0.060 C 
ATOM     33  H   UNL     1     -49.523  26.546  23.122  1.00  0.00     0.024 H 
ATOM     34  H   UNL     1     -50.006  27.751  21.918  1.00  0.00     0.024 H 
ATOM     35  H   UNL     1     -50.982  27.515  23.374  1.00  0.00     0.024 H 
ENDBRANCH  15  32
ENDBRANCH  11  14
ENDBRANCH   1  11
BRANCH   4  36
ATOM     36  N   UNL     1     -48.394  35.991  28.144  1.00  0.00    -0.360 N 
ATOM     37  C   UNL     1     -49.126  37.227  27.791  1.00  0.00     0.097 C 
ATOM     38  C   UNL     1     -47.506  36.171  29.311  1.00  0.00     0.042 C 
ATOM     39  C   UNL     1     -48.210  38.453  27.671  1.00  0.00     0.240 C 
ATOM     40  H   UNL     1     -49.723  37.116  26.880  1.00  0.00     0.060 H 
ATOM     41  H   UNL     1     -49.836  37.448  28.598  1.00  0.00     0.060 H 
ATOM     42  C   UNL     1     -46.472  37.323  29.085  1.00  0.00     0.061 C 
ATOM     43  H   UNL     1     -46.992  35.250  29.606  1.00  0.00     0.052 H 
ATOM     44  H   UNL     1     -48.150  36.434  30.162  1.00  0.00     0.052 H 
ATOM     45  O   UNL     1     -48.459  39.395  26.919  1.00  0.00    -0.273 OA
ATOM     46  N   UNL     1     -47.146  38.522  28.540  1.00  0.00    -0.347 N 
ATOM     47  C   UNL     1     -45.847  37.684  30.461  1.00  0.00    -0.010 C 
ATOM     48  C   UNL     1     -45.353  36.880  28.117  1.00  0.00    -0.010 C 
ATOM     49  H   UNL     1     -46.554  39.335  28.396  1.00  0.00     0.164 HD
ATOM     50  C   UNL     1     -44.415  38.219  30.366  1.00  0.00     0.020 C 
ATOM     51  H   UNL     1     -45.826  36.808  31.122  1.00  0.00     0.031 H 
ATOM     52  H   UNL     1     -46.477  38.428  30.966  1.00  0.00     0.031 H 
ATOM     53  C   UNL     1     -44.256  37.941  27.934  1.00  0.00     0.020 C 
ATOM     54  H   UNL     1     -45.739  36.634  27.124  1.00  0.00     0.031 H 
ATOM     55  H   UNL     1     -44.889  35.962  28.502  1.00  0.00     0.031 H 
ATOM     56  N   UNL     1     -44.234  38.867  29.068  1.00  0.00    -0.371 N 
ATOM     57  H   UNL     1     -43.701  37.390  30.458  1.00  0.00     0.049 H 
ATOM     58  H   UNL     1     -44.224  38.871  31.226  1.00  0.00     0.049 H 
ATOM     59  H   UNL     1     -43.298  37.420  27.833  1.00  0.00     0.049 H 
ATOM     60  H   UNL     1     -44.457  38.495  27.010  1.00  0.00     0.049 H 
BRANCH  56  61
ATOM     61  C   UNL     1     -43.415  40.009  29.026  1.00  0.00     0.049 A 
ATOM     62  C   UNL     1     -42.420  40.157  30.018  1.00  0.00    -0.020 A 
ATOM     63  C   UNL     1     -43.503  41.103  28.117  1.00  0.00     0.042 A 
ATOM     64  C   UNL     1     -41.588  41.268  30.054  1.00  0.00     0.031 A 
ATOM     65  H   UNL     1     -42.309  39.412  30.800  1.00  0.00     0.066 H 
ATOM     66  C   UNL     1     -42.598  42.157  28.269  1.00  0.00     0.139 A 
ATOM     67  C   UNL     1     -44.304  41.464  26.986  1.00  0.00    -0.033 A 
ATOM     68  N   UNL     1     -41.630  42.296  29.190  1.00  0.00    -0.238 NA
ATOM     69  H   UNL     1     -40.834  41.359  30.831  1.00  0.00     0.084 H 
ATOM     70  N   UNL     1     -42.840  43.092  27.303  1.00  0.00    -0.346 N 
ATOM     71  C   UNL     1     -43.876  42.686  26.511  1.00  0.00     0.003 A 
ATOM     72  H   UNL     1     -45.113  40.900  26.549  1.00  0.00     0.065 H 
ATOM     73  H   UNL     1     -42.312  43.948  27.215  1.00  0.00     0.167 HD
ATOM     74  H   UNL     1     -44.219  43.293  25.683  1.00  0.00     0.082 H 
ENDBRANCH  56  61
ENDBRANCH   4  36
TORSDOF 6
ENDMDL
MODEL 3
REMARK VINA RESULT:      -7.9      2.747      5.401
REMARK SMILES CC1(C)CCN(Cc2ccc(N3CC(=O)NC4(CCN(c5ccnc6[nH]ccc56)CC4)C3)cc2)CC1
REMARK SMILES IDX 8 1 9 2 10 3 11 4 33 5 34 6 7 11 6 14 2 15 4 16 36 17 5 18
REMARK SMILES IDX 35 21 1 28 3 32 12 36 13 37 32 38 14 39 17 42 15 45 16 46
REMARK SMILES IDX 18 47 31 48 19 50 30 53 20 56 21 61 22 62 29 63 23 64 25 66
REMARK SMILES IDX 28 67 24 68 26 70 27 71
REMARK H PARENT 9 7 10 8 33 9 34 10 7 12 7 13 4 19 4 20 36 22 36 23 5 24 5 25
REMARK H PARENT 35 26 35 27 1 29 1 30 1 31 3 33 3 34 3 35 13 40 13 41 32 43
REMARK H PARENT 32 44 16 49 18 51 18 52 31 54 31 55 19 57 19 58 30 59 30 60
REMARK H PARENT 22 65 23 69 28 72 26 73 27 74
REMARK Flexibility Score: inf
ROOT
ATOM      1  C   UNL     1     -44.644  38.440  29.514  1.00  0.00    -0.034 A 
ATOM      2  C   UNL     1     -44.968  39.137  28.349  1.00  0.00    -0.056 A 
ATOM      3  C   UNL     1     -44.200  40.236  27.937  1.00  0.00    -0.038 A 
ATOM      4  C   UNL     1     -43.081  40.672  28.661  1.00  0.00     0.037 A 
ATOM      5  C   UNL     1     -42.788  39.972  29.842  1.00  0.00    -0.038 A 
ATOM      6  C   UNL     1     -43.547  38.873  30.262  1.00  0.00    -0.056 A 
ATOM      7  H   UNL     1     -45.816  38.831  27.741  1.00  0.00     0.063 H 
ATOM      8  H   UNL     1     -44.492  40.718  27.007  1.00  0.00     0.064 H 
ATOM      9  H   UNL     1     -41.967  40.293  30.478  1.00  0.00     0.064 H 
ATOM     10  H   UNL     1     -43.277  38.355  31.180  1.00  0.00     0.063 H 
ENDROOT
BRANCH   1  11
ATOM     11  C   UNL     1     -45.464  37.251  29.966  1.00  0.00     0.023 C 
ATOM     12  H   UNL     1     -44.789  36.615  30.554  1.00  0.00     0.048 H 
ATOM     13  H   UNL     1     -46.258  37.571  30.656  1.00  0.00     0.048 H 
BRANCH  11  14
ATOM     14  N   UNL     1     -46.029  36.481  28.847  1.00  0.00    -0.299 NA
ATOM     15  C   UNL     1     -47.448  34.907  26.952  1.00  0.00    -0.033 C 
ATOM     16  C   UNL     1     -48.235  35.977  27.731  1.00  0.00    -0.035 C 
ATOM     17  C   UNL     1     -46.411  34.242  27.895  1.00  0.00    -0.035 C 
ATOM     18  C   UNL     1     -47.329  37.017  28.409  1.00  0.00    -0.001 C 
ATOM     19  H   UNL     1     -48.838  35.484  28.506  1.00  0.00     0.029 H 
ATOM     20  H   UNL     1     -48.947  36.493  27.074  1.00  0.00     0.029 H 
ATOM     21  C   UNL     1     -46.111  35.058  29.162  1.00  0.00    -0.001 C 
ATOM     22  H   UNL     1     -46.762  33.252  28.217  1.00  0.00     0.029 H 
ATOM     23  H   UNL     1     -45.475  34.062  27.352  1.00  0.00     0.029 H 
ATOM     24  H   UNL     1     -47.893  37.440  29.252  1.00  0.00     0.043 H 
ATOM     25  H   UNL     1     -47.146  37.839  27.706  1.00  0.00     0.043 H 
ATOM     26  H   UNL     1     -45.160  34.693  29.571  1.00  0.00     0.043 H 
ATOM     27  H   UNL     1     -46.874  34.869  29.928  1.00  0.00     0.043 H 
BRANCH  15  28
ATOM     28  C   UNL     1     -46.732  35.545  25.743  1.00  0.00    -0.060 C 
ATOM     29  H   UNL     1     -47.333  35.489  24.829  1.00  0.00     0.024 H 
ATOM     30  H   UNL     1     -45.777  35.046  25.544  1.00  0.00     0.024 H 
ATOM     31  H   UNL     1     -46.519  36.604  25.928  1.00  0.00     0.024 H 
ENDBRANCH  15  28
BRANCH  15  32
ATOM     32  C   UNL     1     -48.423  33.844  26.417  1.00  0.00    -0.060 C 
ATOM     33  H   UNL     1     -48.935  34.196  25.514  1.00  0.00     0.024 H 
ATOM     34  H   UNL     1     -49.188  33.598  27.161  1.00  0.00     0.024 H 
ATOM     35  H   UNL     1     -47.898  32.916  26.161  1.00  0.00     0.024 H 
ENDBRANCH  15  32
ENDBRANCH  11  14
ENDBRANCH   1  11
BRANCH   4  36
ATOM     36  N   UNL     1     -42.289  41.752  28.272  1.00  0.00    -0.360 N 
ATOM     37  C   UNL     1     -42.414  43.058  28.955  1.00  0.00     0.097 C 
ATOM     38  C   UNL     1     -41.969  41.890  26.836  1.00  0.00     0.042 C 
ATOM     39  C   UNL     1     -43.344  44.032  28.220  1.00  0.00     0.240 C 
ATOM     40  H   UNL     1     -42.727  42.957  29.999  1.00  0.00     0.060 H 
ATOM     41  H   UNL     1     -41.423  43.530  28.976  1.00  0.00     0.060 H 
ATOM     42  C   UNL     1     -43.034  42.754  26.083  1.00  0.00     0.061 C 
ATOM     43  H   UNL     1     -41.833  40.927  26.331  1.00  0.00     0.052 H 
ATOM     44  H   UNL     1     -40.995  42.395  26.774  1.00  0.00     0.052 H 
ATOM     45  O   UNL     1     -43.994  44.897  28.806  1.00  0.00    -0.273 OA
ATOM     46  N   UNL     1     -43.333  43.986  26.845  1.00  0.00    -0.347 N 
ATOM     47  C   UNL     1     -42.441  43.151  24.703  1.00  0.00    -0.010 C 
ATOM     48  C   UNL     1     -44.340  41.957  25.866  1.00  0.00    -0.010 C 
ATOM     49  H   UNL     1     -43.989  44.627  26.409  1.00  0.00     0.164 HD
ATOM     50  C   UNL     1     -43.497  43.350  23.612  1.00  0.00     0.020 C 
ATOM     51  H   UNL     1     -41.740  42.386  24.344  1.00  0.00     0.031 H 
ATOM     52  H   UNL     1     -41.854  44.073  24.809  1.00  0.00     0.031 H 
ATOM     53  C   UNL     1     -45.388  42.725  25.044  1.00  0.00     0.020 C 
ATOM     54  H   UNL     1     -44.810  41.671  26.810  1.00  0.00     0.031 H 
ATOM     55  H   UNL     1     -44.105  41.020  25.343  1.00  0.00     0.031 H 
ATOM     56  N   UNL     1     -44.753  43.767  24.235  1.00  0.00    -0.371 N 
ATOM     57  H   UNL     1     -43.658  42.407  23.073  1.00  0.00     0.049 H 
ATOM     58  H   UNL     1     -43.108  44.054  22.868  1.00  0.00     0.049 H 
ATOM     59  H   UNL     1     -45.915  42.002  24.412  1.00  0.00     0.049 H 
ATOM     60  H   UNL     1     -46.106  43.181  25.735  1.00  0.00     0.049 H 
BRANCH  56  61
ATOM     61  C   UNL     1     -45.546  44.690  23.533  1.00  0.00     0.049 A 
ATOM     62  C   UNL     1     -45.518  44.661  22.120  1.00  0.00    -0.020 A 
ATOM     63  C   UNL     1     -46.354  45.728  24.080  1.00  0.00     0.042 A 
ATOM     64  C   UNL     1     -46.257  45.556  21.359  1.00  0.00     0.031 A 
ATOM     65  H   UNL     1     -44.883  43.951  21.598  1.00  0.00     0.066 H 
ATOM     66  C   UNL     1     -47.047  46.558  23.194  1.00  0.00     0.139 A 
ATOM     67  C   UNL     1     -46.710  46.202  25.384  1.00  0.00    -0.033 A 
ATOM     68  N   UNL     1     -47.051  46.522  21.852  1.00  0.00    -0.238 NA
ATOM     69  H   UNL     1     -46.213  45.514  20.274  1.00  0.00     0.084 H 
ATOM     70  N   UNL     1     -47.765  47.472  23.912  1.00  0.00    -0.346 N 
ATOM     71  C   UNL     1     -47.572  47.270  25.249  1.00  0.00     0.003 A 
ATOM     72  H   UNL     1     -46.381  45.814  26.336  1.00  0.00     0.065 H 
ATOM     73  H   UNL     1     -48.343  48.181  23.485  1.00  0.00     0.167 HD
ATOM     74  H   UNL     1     -48.059  47.896  25.985  1.00  0.00     0.082 H 
ENDBRANCH  56  61
ENDBRANCH   4  36
TORSDOF 6
ENDMDL
MODEL 4
REMARK VINA RESULT:      -7.7      1.020      2.026
REMARK SMILES CC1(C)CCN(Cc2ccc(N3CC(=O)NC4(CCN(c5ccnc6[nH]ccc56)CC4)C3)cc2)CC1
REMARK SMILES IDX 8 1 9 2 10 3 11 4 33 5 34 6 7 11 6 14 2 15 4 16 36 17 5 18
REMARK SMILES IDX 35 21 1 28 3 32 12 36 13 37 32 38 14 39 17 42 15 45 16 46
REMARK SMILES IDX 18 47 31 48 19 50 30 53 20 56 21 61 22 62 29 63 23 64 25 66
REMARK SMILES IDX 28 67 24 68 26 70 27 71
REMARK H PARENT 9 7 10 8 33 9 34 10 7 12 7 13 4 19 4 20 36 22 36 23 5 24 5 25
REMARK H PARENT 35 26 35 27 1 29 1 30 1 31 3 33 3 34 3 35 13 40 13 41 32 43
REMARK H PARENT 32 44 16 49 18 51 18 52 31 54 31 55 19 57 19 58 30 59 30 60
REMARK H PARENT 22 65 23 69 28 72 26 73 27 74
REMARK Flexibility Score: inf
ROOT
ATOM      1  C   UNL     1     -46.534  33.200  25.764  1.00  0.00    -0.034 A 
ATOM      2  C   UNL     1     -46.001  32.947  27.029  1.00  0.00    -0.056 A 
ATOM      3  C   UNL     1     -46.177  33.864  28.075  1.00  0.00    -0.038 A 
ATOM      4  C   UNL     1     -46.897  35.056  27.903  1.00  0.00     0.037 A 
ATOM      5  C   UNL     1     -47.403  35.301  26.617  1.00  0.00    -0.038 A 
ATOM      6  C   UNL     1     -47.234  34.392  25.566  1.00  0.00    -0.056 A 
ATOM      7  H   UNL     1     -45.448  32.030  27.221  1.00  0.00     0.063 H 
ATOM      8  H   UNL     1     -45.758  33.594  29.041  1.00  0.00     0.064 H 
ATOM      9  H   UNL     1     -47.923  36.232  26.403  1.00  0.00     0.064 H 
ATOM     10  H   UNL     1     -47.652  34.620  24.588  1.00  0.00     0.063 H 
ENDROOT
BRANCH   1  11
ATOM     11  C   UNL     1     -46.352  32.216  24.629  1.00  0.00     0.023 C 
ATOM     12  H   UNL     1     -45.827  32.756  23.831  1.00  0.00     0.048 H 
ATOM     13  H   UNL     1     -45.684  31.397  24.932  1.00  0.00     0.048 H 
BRANCH  11  14
ATOM     14  N   UNL     1     -47.625  31.682  24.118  1.00  0.00    -0.299 NA
ATOM     15  C   UNL     1     -49.931  30.267  23.245  1.00  0.00    -0.033 C 
ATOM     16  C   UNL     1     -49.371  29.939  24.642  1.00  0.00    -0.035 C 
ATOM     17  C   UNL     1     -48.754  30.517  22.265  1.00  0.00    -0.035 C 
ATOM     18  C   UNL     1     -48.404  31.010  25.171  1.00  0.00    -0.001 C 
ATOM     19  H   UNL     1     -48.836  28.980  24.597  1.00  0.00     0.029 H 
ATOM     20  H   UNL     1     -50.185  29.799  25.364  1.00  0.00     0.029 H 
ATOM     21  C   UNL     1     -47.417  30.815  22.962  1.00  0.00    -0.001 C 
ATOM     22  H   UNL     1     -48.599  29.643  21.617  1.00  0.00     0.029 H 
ATOM     23  H   UNL     1     -49.001  31.346  21.590  1.00  0.00     0.029 H 
ATOM     24  H   UNL     1     -47.749  30.523  25.905  1.00  0.00     0.043 H 
ATOM     25  H   UNL     1     -48.980  31.769  25.713  1.00  0.00     0.043 H 
ATOM     26  H   UNL     1     -46.761  31.295  22.225  1.00  0.00     0.043 H 
ATOM     27  H   UNL     1     -46.924  29.879  23.257  1.00  0.00     0.043 H 
BRANCH  15  28
ATOM     28  C   UNL     1     -50.838  31.513  23.312  1.00  0.00    -0.060 C 
ATOM     29  H   UNL     1     -50.296  32.433  23.074  1.00  0.00     0.024 H 
ATOM     30  H   UNL     1     -51.271  31.630  24.312  1.00  0.00     0.024 H 
ATOM     31  H   UNL     1     -51.669  31.431  22.601  1.00  0.00     0.024 H 
ENDBRANCH  15  28
BRANCH  15  32
ATOM     32  C   UNL     1     -50.783  29.087  22.746  1.00  0.00    -0.060 C 
ATOM     33  H   UNL     1     -51.853  29.304  22.841  1.00  0.00     0.024 H 
ATOM     34  H   UNL     1     -50.573  28.177  23.318  1.00  0.00     0.024 H 
ATOM     35  H   UNL     1     -50.580  28.870  21.691  1.00  0.00     0.024 H 
ENDBRANCH  15  32
ENDBRANCH  11  14
ENDBRANCH   1  11
BRANCH   4  36
ATOM     36  N   UNL     1     -47.102  35.982  28.926  1.00  0.00    -0.360 N 
ATOM     37  C   UNL     1     -48.387  36.707  29.033  1.00  0.00     0.097 C 
ATOM     38  C   UNL     1     -45.950  36.802  29.356  1.00  0.00     0.042 C 
ATOM     39  C   UNL     1     -48.350  38.092  28.373  1.00  0.00     0.240 C 
ATOM     40  H   UNL     1     -49.229  36.128  28.641  1.00  0.00     0.060 H 
ATOM     41  H   UNL     1     -48.599  36.874  30.097  1.00  0.00     0.060 H 
ATOM     42  C   UNL     1     -45.847  38.134  28.544  1.00  0.00     0.061 C 
ATOM     43  H   UNL     1     -44.999  36.259  29.320  1.00  0.00     0.052 H 
ATOM     44  H   UNL     1     -46.111  37.043  30.416  1.00  0.00     0.052 H 
ATOM     45  O   UNL     1     -49.349  38.619  27.883  1.00  0.00    -0.273 OA
ATOM     46  N   UNL     1     -47.169  38.792  28.461  1.00  0.00    -0.347 N 
ATOM     47  C   UNL     1     -44.865  39.078  29.291  1.00  0.00    -0.010 C 
ATOM     48  C   UNL     1     -45.316  37.873  27.117  1.00  0.00    -0.010 C 
ATOM     49  H   UNL     1     -47.189  39.687  27.981  1.00  0.00     0.164 HD
ATOM     50  C   UNL     1     -44.120  40.048  28.370  1.00  0.00     0.020 C 
ATOM     51  H   UNL     1     -44.109  38.500  29.839  1.00  0.00     0.031 H 
ATOM     52  H   UNL     1     -45.415  39.651  30.050  1.00  0.00     0.031 H 
ATOM     53  C   UNL     1     -45.103  39.161  26.305  1.00  0.00     0.020 C 
ATOM     54  H   UNL     1     -45.984  37.229  26.539  1.00  0.00     0.031 H 
ATOM     55  H   UNL     1     -44.358  37.340  27.184  1.00  0.00     0.031 H 
ATOM     56  N   UNL     1     -44.945  40.314  27.192  1.00  0.00    -0.371 N 
ATOM     57  H   UNL     1     -43.169  39.602  28.050  1.00  0.00     0.049 H 
ATOM     58  H   UNL     1     -43.850  40.942  28.943  1.00  0.00     0.049 H 
ATOM     59  H   UNL     1     -44.215  39.021  25.679  1.00  0.00     0.049 H 
ATOM     60  H   UNL     1     -45.973  39.311  25.655  1.00  0.00     0.049 H 
BRANCH  56  61
ATOM     61  C   UNL     1     -44.901  41.612  26.654  1.00  0.00     0.049 A 
ATOM     62  C   UNL     1     -46.123  42.273  26.396  1.00  0.00    -0.020 A 
ATOM     63  C   UNL     1     -43.745  42.348  26.265  1.00  0.00     0.042 A 
ATOM     64  C   UNL     1     -46.160  43.546  25.845  1.00  0.00     0.031 A 
ATOM     65  H   UNL     1     -47.068  41.776  26.595  1.00  0.00     0.066 H 
ATOM     66  C   UNL     1     -43.929  43.623  25.723  1.00  0.00     0.139 A 
ATOM     67  C   UNL     1     -42.325  42.156  26.281  1.00  0.00    -0.033 A 
ATOM     68  N   UNL     1     -45.083  44.273  25.500  1.00  0.00    -0.238 NA
ATOM     69  H   UNL     1     -47.114  44.029  25.652  1.00  0.00     0.084 H 
ATOM     70  N   UNL     1     -42.708  44.160  25.428  1.00  0.00    -0.346 N 
ATOM     71  C   UNL     1     -41.719  43.280  25.762  1.00  0.00     0.003 A 
ATOM     72  H   UNL     1     -41.784  41.292  26.635  1.00  0.00     0.065 H 
ATOM     73  H   UNL     1     -42.590  45.077  25.021  1.00  0.00     0.167 HD
ATOM     74  H   UNL     1     -40.676  43.525  25.604  1.00  0.00     0.082 H 
ENDBRANCH  56  61
ENDBRANCH   4  36
TORSDOF 6
ENDMDL
MODEL 5
REMARK VINA RESULT:      -7.5      3.320      5.126
REMARK SMILES CC1(C)CCN(Cc2ccc(N3CC(=O)NC4(CCN(c5ccnc6[nH]ccc56)CC4)C3)cc2)CC1
REMARK SMILES IDX 8 1 9 2 10 3 11 4 33 5 34 6 7 11 6 14 2 15 4 16 36 17 5 18
REMARK SMILES IDX 35 21 1 28 3 32 12 36 13 37 32 38 14 39 17 42 15 45 16 46
REMARK SMILES IDX 18 47 31 48 19 50 30 53 20 56 21 61 22 62 29 63 23 64 25 66
REMARK SMILES IDX 28 67 24 68 26 70 27 71
REMARK H PARENT 9 7 10 8 33 9 34 10 7 12 7 13 4 19 4 20 36 22 36 23 5 24 5 25
REMARK H PARENT 35 26 35 27 1 29 1 30 1 31 3 33 3 34 3 35 13 40 13 41 32 43
REMARK H PARENT 32 44 16 49 18 51 18 52 31 54 31 55 19 57 19 58 30 59 30 60
REMARK H PARENT 22 65 23 69 28 72 26 73 27 74
REMARK Flexibility Score: inf
ROOT
ATOM      1  C   UNL     1     -47.302  33.320  26.652  1.00  0.00    -0.034 A 
ATOM      2  C   UNL     1     -46.426  33.395  27.737  1.00  0.00    -0.056 A 
ATOM      3  C   UNL     1     -45.809  34.608  28.074  1.00  0.00    -0.038 A 
ATOM      4  C   UNL     1     -46.047  35.787  27.352  1.00  0.00     0.037 A 
ATOM      5  C   UNL     1     -46.912  35.683  26.251  1.00  0.00    -0.038 A 
ATOM      6  C   UNL     1     -47.534  34.478  25.906  1.00  0.00    -0.056 A 
ATOM      7  H   UNL     1     -46.219  32.514  28.340  1.00  0.00     0.063 H 
ATOM      8  H   UNL     1     -45.159  34.603  28.945  1.00  0.00     0.064 H 
ATOM      9  H   UNL     1     -47.096  36.547  25.617  1.00  0.00     0.064 H 
ATOM     10  H   UNL     1     -48.203  34.446  25.049  1.00  0.00     0.063 H 
ENDROOT
BRANCH   1  11
ATOM     11  C   UNL     1     -47.976  32.017  26.281  1.00  0.00     0.023 C 
ATOM     12  H   UNL     1     -47.757  31.312  27.095  1.00  0.00     0.048 H 
ATOM     13  H   UNL     1     -49.068  32.137  26.270  1.00  0.00     0.048 H 
BRANCH  11  14
ATOM     14  N   UNL     1     -47.503  31.465  25.002  1.00  0.00    -0.299 NA
ATOM     15  C   UNL     1     -46.623  30.802  22.381  1.00  0.00    -0.033 C 
ATOM     16  C   UNL     1     -45.993  32.032  23.061  1.00  0.00    -0.035 C 
ATOM     17  C   UNL     1     -48.133  30.734  22.735  1.00  0.00    -0.035 C 
ATOM     18  C   UNL     1     -46.226  32.065  24.580  1.00  0.00    -0.001 C 
ATOM     19  H   UNL     1     -46.425  32.943  22.624  1.00  0.00     0.029 H 
ATOM     20  H   UNL     1     -44.916  32.079  22.860  1.00  0.00     0.029 H 
ATOM     21  C   UNL     1     -48.521  31.575  23.961  1.00  0.00    -0.001 C 
ATOM     22  H   UNL     1     -48.743  31.082  21.891  1.00  0.00     0.029 H 
ATOM     23  H   UNL     1     -48.428  29.691  22.905  1.00  0.00     0.029 H 
ATOM     24  H   UNL     1     -46.152  33.114  24.897  1.00  0.00     0.043 H 
ATOM     25  H   UNL     1     -45.410  31.526  25.075  1.00  0.00     0.043 H 
ATOM     26  H   UNL     1     -49.489  31.205  24.321  1.00  0.00     0.043 H 
ATOM     27  H   UNL     1     -48.674  32.624  23.672  1.00  0.00     0.043 H 
BRANCH  15  28
ATOM     28  C   UNL     1     -45.912  29.513  22.842  1.00  0.00    -0.060 C 
ATOM     29  H   UNL     1     -44.839  29.665  22.998  1.00  0.00     0.024 H 
ATOM     30  H   UNL     1     -46.030  28.713  22.102  1.00  0.00     0.024 H 
ATOM     31  H   UNL     1     -46.330  29.152  23.789  1.00  0.00     0.024 H 
ENDBRANCH  15  28
BRANCH  15  32
ATOM     32  C   UNL     1     -46.451  30.917  20.856  1.00  0.00    -0.060 C 
ATOM     33  H   UNL     1     -45.405  30.769  20.564  1.00  0.00     0.024 H 
ATOM     34  H   UNL     1     -46.763  31.904  20.496  1.00  0.00     0.024 H 
ATOM     35  H   UNL     1     -47.053  30.166  20.331  1.00  0.00     0.024 H 
ENDBRANCH  15  32
ENDBRANCH  11  14
ENDBRANCH   1  11
BRANCH   4  36
ATOM     36  N   UNL     1     -45.460  37.012  27.669  1.00  0.00    -0.360 N 
ATOM     37  C   UNL     1     -44.986  37.282  29.044  1.00  0.00     0.097 C 
ATOM     38  C   UNL     1     -45.985  38.222  27.001  1.00  0.00     0.042 C 
ATOM     39  C   UNL     1     -46.013  38.045  29.893  1.00  0.00     0.240 C 
ATOM     40  H   UNL     1     -44.671  36.373  29.565  1.00  0.00     0.060 H 
ATOM     41  H   UNL     1     -44.097  37.923  28.981  1.00  0.00     0.060 H 
ATOM     42  C   UNL     1     -47.146  38.880  27.816  1.00  0.00     0.061 C 
ATOM     43  H   UNL     1     -46.299  38.040  25.967  1.00  0.00     0.052 H 
ATOM     44  H   UNL     1     -45.150  38.934  26.934  1.00  0.00     0.052 H 
ATOM     45  O   UNL     1     -46.086  37.919  31.115  1.00  0.00    -0.273 OA
ATOM     46  N   UNL     1     -46.781  38.984  29.245  1.00  0.00    -0.347 N 
ATOM     47  C   UNL     1     -47.378  40.309  27.253  1.00  0.00    -0.010 C 
ATOM     48  C   UNL     1     -48.450  38.061  27.680  1.00  0.00    -0.010 C 
ATOM     49  H   UNL     1     -47.465  39.436  29.845  1.00  0.00     0.164 HD
ATOM     50  C   UNL     1     -48.821  40.802  27.396  1.00  0.00     0.020 C 
ATOM     51  H   UNL     1     -47.121  40.355  26.187  1.00  0.00     0.031 H 
ATOM     52  H   UNL     1     -46.704  41.014  27.757  1.00  0.00     0.031 H 
ATOM     53  C   UNL     1     -49.651  38.715  28.382  1.00  0.00     0.020 C 
ATOM     54  H   UNL     1     -48.346  37.050  28.082  1.00  0.00     0.031 H 
ATOM     55  H   UNL     1     -48.690  37.944  26.614  1.00  0.00     0.031 H 
ATOM     56  N   UNL     1     -49.433  40.152  28.554  1.00  0.00    -0.371 N 
ATOM     57  H   UNL     1     -49.393  40.546  26.495  1.00  0.00     0.049 H 
ATOM     58  H   UNL     1     -48.817  41.897  27.444  1.00  0.00     0.049 H 
ATOM     59  H   UNL     1     -50.541  38.522  27.775  1.00  0.00     0.049 H 
ATOM     60  H   UNL     1     -49.782  38.242  29.362  1.00  0.00     0.049 H 
BRANCH  56  61
ATOM     61  C   UNL     1     -50.336  40.912  29.318  1.00  0.00     0.049 A 
ATOM     62  C   UNL     1     -51.477  40.266  29.846  1.00  0.00    -0.020 A 
ATOM     63  C   UNL     1     -50.281  42.311  29.584  1.00  0.00     0.042 A 
ATOM     64  C   UNL     1     -52.424  40.955  30.590  1.00  0.00     0.031 A 
ATOM     65  H   UNL     1     -51.652  39.212  29.648  1.00  0.00     0.066 H 
ATOM     66  C   UNL     1     -51.304  42.874  30.351  1.00  0.00     0.139 A 
ATOM     67  C   UNL     1     -49.400  43.400  29.286  1.00  0.00    -0.033 A 
ATOM     68  N   UNL     1     -52.377  42.266  30.882  1.00  0.00    -0.238 NA
ATOM     69  H   UNL     1     -53.294  40.434  30.980  1.00  0.00     0.084 H 
ATOM     70  N   UNL     1     -51.062  44.211  30.500  1.00  0.00    -0.346 N 
ATOM     71  C   UNL     1     -49.905  44.549  29.857  1.00  0.00     0.003 A 
ATOM     72  H   UNL     1     -48.485  43.367  28.715  1.00  0.00     0.065 H 
ATOM     73  H   UNL     1     -51.671  44.830  31.015  1.00  0.00     0.167 HD
ATOM     74  H   UNL     1     -49.541  45.568  29.861  1.00  0.00     0.082 H 
ENDBRANCH  56  61
ENDBRANCH   4  36
TORSDOF 6
ENDMDL
MODEL 6
REMARK VINA RESULT:      -7.4      1.640      2.202
REMARK SMILES CC1(C)CCN(Cc2ccc(N3CC(=O)NC4(CCN(c5ccnc6[nH]ccc56)CC4)C3)cc2)CC1
REMARK SMILES IDX 8 1 9 2 10 3 11 4 33 5 34 6 7 11 6 14 2 15 4 16 36 17 5 18
REMARK SMILES IDX 35 21 1 28 3 32 12 36 13 37 32 38 14 39 17 42 15 45 16 46
REMARK SMILES IDX 18 47 31 48 19 50 30 53 20 56 21 61 22 62 29 63 23 64 25 66
REMARK SMILES IDX 28 67 24 68 26 70 27 71
REMARK H PARENT 9 7 10 8 33 9 34 10 7 12 7 13 4 19 4 20 36 22 36 23 5 24 5 25
REMARK H PARENT 35 26 35 27 1 29 1 30 1 31 3 33 3 34 3 35 13 40 13 41 32 43
REMARK H PARENT 32 44 16 49 18 51 18 52 31 54 31 55 19 57 19 58 30 59 30 60
REMARK H PARENT 22 65 23 69 28 72 26 73 27 74
REMARK Flexibility Score: inf
ROOT
ATOM      1  C   UNL     1     -47.040  33.222  25.358  1.00  0.00    -0.034 A 
ATOM      2  C   UNL     1     -48.319  33.610  25.760  1.00  0.00    -0.056 A 
ATOM      3  C   UNL     1     -48.492  34.492  26.837  1.00  0.00    -0.038 A 
ATOM      4  C   UNL     1     -47.402  35.025  27.542  1.00  0.00     0.037 A 
ATOM      5  C   UNL     1     -46.127  34.602  27.135  1.00  0.00    -0.038 A 
ATOM      6  C   UNL     1     -45.943  33.723  26.062  1.00  0.00    -0.056 A 
ATOM      7  H   UNL     1     -49.198  33.239  25.238  1.00  0.00     0.063 H 
ATOM      8  H   UNL     1     -49.513  34.774  27.081  1.00  0.00     0.064 H 
ATOM      9  H   UNL     1     -45.244  34.934  27.675  1.00  0.00     0.064 H 
ATOM     10  H   UNL     1     -44.935  33.429  25.777  1.00  0.00     0.063 H 
ENDROOT
BRANCH   1  11
ATOM     11  C   UNL     1     -46.842  32.273  24.196  1.00  0.00     0.023 C 
ATOM     12  H   UNL     1     -47.166  32.812  23.296  1.00  0.00     0.048 H 
ATOM     13  H   UNL     1     -45.774  32.057  24.052  1.00  0.00     0.048 H 
BRANCH  11  14
ATOM     14  N   UNL     1     -47.607  31.024  24.333  1.00  0.00    -0.299 NA
ATOM     15  C   UNL     1     -49.076  28.594  24.169  1.00  0.00    -0.033 C 
ATOM     16  C   UNL     1     -47.789  28.716  23.330  1.00  0.00    -0.035 C 
ATOM     17  C   UNL     1     -49.821  29.956  24.168  1.00  0.00    -0.035 C 
ATOM     18  C   UNL     1     -46.878  29.867  23.786  1.00  0.00    -0.001 C 
ATOM     19  H   UNL     1     -48.062  28.885  22.280  1.00  0.00     0.029 H 
ATOM     20  H   UNL     1     -47.222  27.777  23.350  1.00  0.00     0.029 H 
ATOM     21  C   UNL     1     -48.941  31.145  23.752  1.00  0.00    -0.001 C 
ATOM     22  H   UNL     1     -50.678  29.925  23.483  1.00  0.00     0.029 H 
ATOM     23  H   UNL     1     -50.243  30.149  25.162  1.00  0.00     0.029 H 
ATOM     24  H   UNL     1     -46.260  30.153  22.925  1.00  0.00     0.043 H 
ATOM     25  H   UNL     1     -46.195  29.492  24.558  1.00  0.00     0.043 H 
ATOM     26  H   UNL     1     -49.437  32.060  24.101  1.00  0.00     0.043 H 
ATOM     27  H   UNL     1     -48.888  31.216  22.658  1.00  0.00     0.043 H 
BRANCH  15  28
ATOM     28  C   UNL     1     -48.733  28.178  25.615  1.00  0.00    -0.060 C 
ATOM     29  H   UNL     1     -47.731  28.503  25.913  1.00  0.00     0.024 H 
ATOM     30  H   UNL     1     -48.778  27.089  25.732  1.00  0.00     0.024 H 
ATOM     31  H   UNL     1     -49.442  28.616  26.327  1.00  0.00     0.024 H 
ENDBRANCH  15  28
BRANCH  15  32
ATOM     32  C   UNL     1     -49.979  27.506  23.565  1.00  0.00    -0.060 C 
ATOM     33  H   UNL     1     -49.865  27.457  22.477  1.00  0.00     0.024 H 
ATOM     34  H   UNL     1     -51.035  27.701  23.783  1.00  0.00     0.024 H 
ATOM     35  H   UNL     1     -49.734  26.517  23.970  1.00  0.00     0.024 H 
ENDBRANCH  15  32
ENDBRANCH  11  14
ENDBRANCH   1  11
BRANCH   4  36
ATOM     36  N   UNL     1     -47.539  35.914  28.607  1.00  0.00    -0.360 N 
ATOM     37  C   UNL     1     -48.853  36.523  28.911  1.00  0.00     0.097 C 
ATOM     38  C   UNL     1     -46.412  36.825  28.895  1.00  0.00     0.042 C 
ATOM     39  C   UNL     1     -49.027  37.915  28.290  1.00  0.00     0.240 C 
ATOM     40  H   UNL     1     -49.690  35.878  28.625  1.00  0.00     0.060 H 
ATOM     41  H   UNL     1     -48.926  36.655  29.998  1.00  0.00     0.060 H 
ATOM     42  C   UNL     1     -46.537  38.173  28.112  1.00  0.00     0.061 C 
ATOM     43  H   UNL     1     -45.432  36.368  28.713  1.00  0.00     0.052 H 
ATOM     44  H   UNL     1     -46.442  37.037  29.973  1.00  0.00     0.052 H 
ATOM     45  O   UNL     1     -50.125  38.359  27.957  1.00  0.00    -0.273 OA
ATOM     46  N   UNL     1     -47.909  38.714  28.231  1.00  0.00    -0.347 N 
ATOM     47  C   UNL     1     -45.543  39.188  28.740  1.00  0.00    -0.010 C 
ATOM     48  C   UNL     1     -46.192  37.980  26.618  1.00  0.00    -0.010 C 
ATOM     49  H   UNL     1     -48.071  39.611  27.782  1.00  0.00     0.164 HD
ATOM     50  C   UNL     1     -45.020  40.233  27.750  1.00  0.00     0.020 C 
ATOM     51  H   UNL     1     -44.672  38.671  29.162  1.00  0.00     0.031 H 
ATOM     52  H   UNL     1     -46.027  39.700  29.583  1.00  0.00     0.031 H 
ATOM     53  C   UNL     1     -46.205  39.293  25.819  1.00  0.00     0.020 C 
ATOM     54  H   UNL     1     -46.877  37.288  26.122  1.00  0.00     0.031 H 
ATOM     55  H   UNL     1     -45.192  37.532  26.537  1.00  0.00     0.031 H 
ATOM     56  N   UNL     1     -46.021  40.443  26.706  1.00  0.00    -0.371 N 
ATOM     57  H   UNL     1     -44.089  39.876  27.290  1.00  0.00     0.049 H 
ATOM     58  H   UNL     1     -44.748  41.139  28.304  1.00  0.00     0.049 H 
ATOM     59  H   UNL     1     -45.405  39.240  25.073  1.00  0.00     0.049 H 
ATOM     60  H   UNL     1     -47.167  39.376  25.301  1.00  0.00     0.049 H 
BRANCH  56  61
ATOM     61  C   UNL     1     -46.163  41.748  26.202  1.00  0.00     0.049 A 
ATOM     62  C   UNL     1     -45.033  42.370  25.625  1.00  0.00    -0.020 A 
ATOM     63  C   UNL     1     -47.323  42.574  26.254  1.00  0.00     0.042 A 
ATOM     64  C   UNL     1     -45.090  43.664  25.127  1.00  0.00     0.031 A 
ATOM     65  H   UNL     1     -44.078  41.853  25.593  1.00  0.00     0.066 H 
ATOM     66  C   UNL     1     -47.239  43.859  25.711  1.00  0.00     0.139 A 
ATOM     67  C   UNL     1     -48.670  42.460  26.726  1.00  0.00    -0.033 A 
ATOM     68  N   UNL     1     -46.180  44.451  25.135  1.00  0.00    -0.238 NA
ATOM     69  H   UNL     1     -44.204  44.120  24.692  1.00  0.00     0.084 H 
ATOM     70  N   UNL     1     -48.448  44.479  25.851  1.00  0.00    -0.346 N 
ATOM     71  C   UNL     1     -49.333  43.641  26.467  1.00  0.00     0.003 A 
ATOM     72  H   UNL     1     -49.127  41.609  27.207  1.00  0.00     0.065 H 
ATOM     73  H   UNL     1     -48.627  45.421  25.534  1.00  0.00     0.167 HD
ATOM     74  H   UNL     1     -50.350  43.951  26.668  1.00  0.00     0.082 H 
ENDBRANCH  56  61
ENDBRANCH   4  36
TORSDOF 6
ENDMDL
