MODEL 1
REMARK VINA RESULT:      -7.9      0.000      0.000
REMARK SMILES CC(C)Nc1cc(N2CCC3(CC2)CN(c2ccc(CN4CCC(C)(C)CC4)cc2)CC(=O)N3)ncn1
REMARK SMILES IDX 8 1 9 2 10 3 11 4 12 5 13 6 14 7 15 8 31 9 32 10 33 11 34 12
REMARK SMILES IDX 7 26 5 27 6 28 37 29 36 31 35 32 4 34 2 36 1 38 3 42 16 46
REMARK SMILES IDX 17 47 30 48 18 49 29 51 19 53 20 56 21 59 22 60 28 61 23 62
REMARK SMILES IDX 27 65 24 68 25 73 26 77
REMARK H PARENT 9 13 9 14 10 15 10 16 12 17 12 18 13 19 13 20 14 21 14 22
REMARK H PARENT 31 23 31 24 34 25 6 30 36 33 4 35 2 37 1 39 1 40 1 41 3 43
REMARK H PARENT 3 44 3 45 17 50 30 52 18 54 29 55 20 57 20 58 22 63 22 64
REMARK H PARENT 28 66 28 67 23 69 23 70 27 71 27 72 25 74 25 75 25 76 26 78
REMARK H PARENT 26 79 26 80
REMARK Flexibility Score: inf
ROOT
ATOM      1  N   UNL     1     -43.919  43.755  25.137  1.00  0.00    -0.356 N 
ATOM      2  C   UNL     1     -44.501  43.892  26.482  1.00  0.00     0.021 C 
ATOM      3  C   UNL     1     -43.486  43.532  27.566  1.00  0.00    -0.010 C 
ATOM      4  C   UNL     1     -42.512  42.426  27.112  1.00  0.00     0.061 C 
ATOM      5  C   UNL     1     -41.729  42.915  25.871  1.00  0.00    -0.010 C 
ATOM      6  C   UNL     1     -42.474  43.978  25.053  1.00  0.00     0.021 C 
ATOM      7  C   UNL     1     -43.268  41.103  26.766  1.00  0.00     0.042 C 
ATOM      8  N   UNL     1     -43.947  40.598  27.981  1.00  0.00    -0.360 N 
ATOM      9  C   UNL     1     -43.009  40.319  29.100  1.00  0.00     0.097 C 
ATOM     10  C   UNL     1     -41.892  41.362  29.275  1.00  0.00     0.240 C 
ATOM     11  O   UNL     1     -41.231  41.448  30.310  1.00  0.00    -0.273 OA
ATOM     12  N   UNL     1     -41.562  42.158  28.205  1.00  0.00    -0.347 N 
ATOM     13  H   UNL     1     -45.366  43.228  26.578  1.00  0.00     0.049 H 
ATOM     14  H   UNL     1     -44.854  44.917  26.661  1.00  0.00     0.049 H 
ATOM     15  H   UNL     1     -42.908  44.431  27.823  1.00  0.00     0.031 H 
ATOM     16  H   UNL     1     -44.017  43.262  28.487  1.00  0.00     0.031 H 
ATOM     17  H   UNL     1     -40.758  43.338  26.159  1.00  0.00     0.031 H 
ATOM     18  H   UNL     1     -41.489  42.062  25.223  1.00  0.00     0.031 H 
ATOM     19  H   UNL     1     -42.106  43.909  24.022  1.00  0.00     0.049 H 
ATOM     20  H   UNL     1     -42.223  44.980  25.426  1.00  0.00     0.049 H 
ATOM     21  H   UNL     1     -42.553  40.340  26.431  1.00  0.00     0.052 H 
ATOM     22  H   UNL     1     -43.950  41.268  25.928  1.00  0.00     0.052 H 
ATOM     23  H   UNL     1     -43.567  40.303  30.045  1.00  0.00     0.060 H 
ATOM     24  H   UNL     1     -42.509  39.356  28.945  1.00  0.00     0.060 H 
ATOM     25  H   UNL     1     -40.869  42.859  28.440  1.00  0.00     0.164 HD
ENDROOT
BRANCH   1  26
ATOM     26  C   UNL     1     -44.663  44.412  24.135  1.00  0.00     0.134 A 
ATOM     27  C   UNL     1     -44.782  45.553  22.045  1.00  0.00     0.131 A 
ATOM     28  C   UNL     1     -44.024  44.905  23.007  1.00  0.00     0.023 A 
ATOM     29  N   UNL     1     -46.100  45.725  22.198  1.00  0.00    -0.219 NA
ATOM     30  H   UNL     1     -42.953  44.824  22.887  1.00  0.00     0.070 H 
ATOM     31  C   UNL     1     -46.634  45.236  23.322  1.00  0.00     0.120 A 
ATOM     32  N   UNL     1     -45.984  44.585  24.297  1.00  0.00    -0.219 NA
ATOM     33  H   UNL     1     -47.700  45.379  23.459  1.00  0.00     0.106 H 
BRANCH  27  34
ATOM     34  N   UNL     1     -44.113  46.062  20.915  1.00  0.00    -0.368 N 
ATOM     35  H   UNL     1     -44.519  46.967  20.689  1.00  0.00     0.162 HD
BRANCH  34  36
ATOM     36  C   UNL     1     -42.648  46.118  20.990  1.00  0.00     0.022 C 
ATOM     37  H   UNL     1     -42.296  46.002  22.023  1.00  0.00     0.052 H 
BRANCH  36  38
ATOM     38  C   UNL     1     -42.029  45.040  20.098  1.00  0.00    -0.045 C 
ATOM     39  H   UNL     1     -41.762  44.146  20.670  1.00  0.00     0.025 H 
ATOM     40  H   UNL     1     -42.726  44.730  19.311  1.00  0.00     0.025 H 
ATOM     41  H   UNL     1     -41.117  45.410  19.618  1.00  0.00     0.025 H 
ENDBRANCH  36  38
BRANCH  36  42
ATOM     42  C   UNL     1     -42.190  47.499  20.510  1.00  0.00    -0.045 C 
ATOM     43  H   UNL     1     -42.633  47.751  19.540  1.00  0.00     0.025 H 
ATOM     44  H   UNL     1     -41.101  47.536  20.408  1.00  0.00     0.025 H 
ATOM     45  H   UNL     1     -42.488  48.276  21.222  1.00  0.00     0.025 H 
ENDBRANCH  36  42
ENDBRANCH  34  36
ENDBRANCH  27  34
ENDBRANCH   1  26
BRANCH   8  46
ATOM     46  C   UNL     1     -45.019  39.711  27.785  1.00  0.00     0.037 A 
ATOM     47  C   UNL     1     -45.630  39.513  26.536  1.00  0.00    -0.038 A 
ATOM     48  C   UNL     1     -45.501  38.915  28.839  1.00  0.00    -0.038 A 
ATOM     49  C   UNL     1     -46.687  38.609  26.359  1.00  0.00    -0.056 A 
ATOM     50  H   UNL     1     -45.316  40.067  25.657  1.00  0.00     0.064 H 
ATOM     51  C   UNL     1     -46.558  38.008  28.673  1.00  0.00    -0.056 A 
ATOM     52  H   UNL     1     -45.044  38.963  29.822  1.00  0.00     0.064 H 
ATOM     53  C   UNL     1     -47.169  37.852  27.430  1.00  0.00    -0.034 A 
ATOM     54  H   UNL     1     -47.142  38.504  25.376  1.00  0.00     0.063 H 
ATOM     55  H   UNL     1     -46.890  37.426  29.528  1.00  0.00     0.063 H 
BRANCH  53  56
ATOM     56  C   UNL     1     -48.303  36.867  27.236  1.00  0.00     0.023 C 
ATOM     57  H   UNL     1     -49.206  37.370  27.609  1.00  0.00     0.048 H 
ATOM     58  H   UNL     1     -48.474  36.698  26.166  1.00  0.00     0.048 H 
BRANCH  56  59
ATOM     59  N   UNL     1     -48.108  35.601  27.962  1.00  0.00    -0.299 NA
ATOM     60  C   UNL     1     -46.696  35.216  28.097  1.00  0.00    -0.001 C 
ATOM     61  C   UNL     1     -48.889  34.507  27.369  1.00  0.00    -0.001 C 
ATOM     62  C   UNL     1     -46.050  34.730  26.793  1.00  0.00    -0.035 C 
ATOM     63  H   UNL     1     -46.628  34.422  28.851  1.00  0.00     0.043 H 
ATOM     64  H   UNL     1     -46.101  36.038  28.510  1.00  0.00     0.043 H 
ATOM     65  C   UNL     1     -48.338  33.997  26.034  1.00  0.00    -0.035 C 
ATOM     66  H   UNL     1     -49.934  34.818  27.238  1.00  0.00     0.043 H 
ATOM     67  H   UNL     1     -48.933  33.680  28.089  1.00  0.00     0.043 H 
ATOM     68  C   UNL     1     -46.849  33.596  26.112  1.00  0.00    -0.033 C 
ATOM     69  H   UNL     1     -45.027  34.395  27.004  1.00  0.00     0.029 H 
ATOM     70  H   UNL     1     -45.953  35.580  26.105  1.00  0.00     0.029 H 
ATOM     71  H   UNL     1     -48.941  33.142  25.700  1.00  0.00     0.029 H 
ATOM     72  H   UNL     1     -48.472  34.775  25.272  1.00  0.00     0.029 H 
BRANCH  68  73
ATOM     73  C   UNL     1     -46.306  33.377  24.688  1.00  0.00    -0.060 C 
ATOM     74  H   UNL     1     -45.268  33.028  24.711  1.00  0.00     0.024 H 
ATOM     75  H   UNL     1     -46.336  34.306  24.107  1.00  0.00     0.024 H 
ATOM     76  H   UNL     1     -46.896  32.628  24.148  1.00  0.00     0.024 H 
ENDBRANCH  68  73
BRANCH  68  77
ATOM     77  C   UNL     1     -46.684  32.277  26.890  1.00  0.00    -0.060 C 
ATOM     78  H   UNL     1     -47.637  31.764  27.050  1.00  0.00     0.024 H 
ATOM     79  H   UNL     1     -46.026  31.585  26.353  1.00  0.00     0.024 H 
ATOM     80  H   UNL     1     -46.240  32.456  27.876  1.00  0.00     0.024 H 
ENDBRANCH  68  77
ENDBRANCH  56  59
ENDBRANCH  53  56
ENDBRANCH   8  46
TORSDOF 10
ENDMDL
MODEL 2
REMARK VINA RESULT:      -7.9      1.106      2.549
REMARK SMILES CC(C)Nc1cc(N2CCC3(CC2)CN(c2ccc(CN4CCC(C)(C)CC4)cc2)CC(=O)N3)ncn1
REMARK SMILES IDX 8 1 9 2 10 3 11 4 12 5 13 6 14 7 15 8 31 9 32 10 33 11 34 12
REMARK SMILES IDX 7 26 5 27 6 28 37 29 36 31 35 32 4 34 2 36 1 38 3 42 16 46
REMARK SMILES IDX 17 47 30 48 18 49 29 51 19 53 20 56 21 59 22 60 28 61 23 62
REMARK SMILES IDX 27 65 24 68 25 73 26 77
REMARK H PARENT 9 13 9 14 10 15 10 16 12 17 12 18 13 19 13 20 14 21 14 22
REMARK H PARENT 31 23 31 24 34 25 6 30 36 33 4 35 2 37 1 39 1 40 1 41 3 43
REMARK H PARENT 3 44 3 45 17 50 30 52 18 54 29 55 20 57 20 58 22 63 22 64
REMARK H PARENT 28 66 28 67 23 69 23 70 27 71 27 72 25 74 25 75 25 76 26 78
REMARK H PARENT 26 79 26 80
REMARK Flexibility Score: inf
ROOT
ATOM      1  N   UNL     1     -43.775  43.567  25.168  1.00  0.00    -0.356 N 
ATOM      2  C   UNL     1     -44.408  43.741  26.486  1.00  0.00     0.021 C 
ATOM      3  C   UNL     1     -43.432  43.421  27.617  1.00  0.00    -0.010 C 
ATOM      4  C   UNL     1     -42.435  42.307  27.232  1.00  0.00     0.061 C 
ATOM      5  C   UNL     1     -41.610  42.764  26.007  1.00  0.00    -0.010 C 
ATOM      6  C   UNL     1     -42.329  43.796  25.131  1.00  0.00     0.021 C 
ATOM      7  C   UNL     1     -43.172  40.970  26.899  1.00  0.00     0.042 C 
ATOM      8  N   UNL     1     -43.892  40.497  28.103  1.00  0.00    -0.360 N 
ATOM      9  C   UNL     1     -42.995  40.258  29.264  1.00  0.00     0.097 C 
ATOM     10  C   UNL     1     -41.890  41.312  29.448  1.00  0.00     0.240 C 
ATOM     11  O   UNL     1     -41.268  41.434  30.503  1.00  0.00    -0.273 OA
ATOM     12  N   UNL     1     -41.525  42.078  28.368  1.00  0.00    -0.347 N 
ATOM     13  H   UNL     1     -45.272  43.074  26.570  1.00  0.00     0.049 H 
ATOM     14  H   UNL     1     -44.772  44.768  26.620  1.00  0.00     0.049 H 
ATOM     15  H   UNL     1     -42.868  44.330  27.867  1.00  0.00     0.031 H 
ATOM     16  H   UNL     1     -43.995  43.174  28.525  1.00  0.00     0.031 H 
ATOM     17  H   UNL     1     -40.652  43.202  26.317  1.00  0.00     0.031 H 
ATOM     18  H   UNL     1     -41.342  41.893  25.394  1.00  0.00     0.031 H 
ATOM     19  H   UNL     1     -41.923  43.700  24.116  1.00  0.00     0.049 H 
ATOM     20  H   UNL     1     -42.098  44.811  25.482  1.00  0.00     0.049 H 
ATOM     21  H   UNL     1     -42.440  40.201  26.614  1.00  0.00     0.052 H 
ATOM     22  H   UNL     1     -43.823  41.105  26.032  1.00  0.00     0.052 H 
ATOM     23  H   UNL     1     -43.586  40.267  30.187  1.00  0.00     0.060 H 
ATOM     24  H   UNL     1     -42.484  39.293  29.156  1.00  0.00     0.060 H 
ATOM     25  H   UNL     1     -40.845  42.790  28.606  1.00  0.00     0.164 HD
ENDROOT
BRANCH   1  26
ATOM     26  C   UNL     1     -44.486  44.190  24.120  1.00  0.00     0.134 A 
ATOM     27  C   UNL     1     -46.434  45.289  23.295  1.00  0.00     0.131 A 
ATOM     28  C   UNL     1     -45.759  44.692  24.347  1.00  0.00     0.023 A 
ATOM     29  N   UNL     1     -45.889  45.369  22.076  1.00  0.00    -0.219 NA
ATOM     30  H   UNL     1     -46.238  44.591  25.310  1.00  0.00     0.070 H 
ATOM     31  C   UNL     1     -44.666  44.844  21.938  1.00  0.00     0.120 A 
ATOM     32  N   UNL     1     -43.936  44.262  22.898  1.00  0.00    -0.219 NA
ATOM     33  H   UNL     1     -44.222  44.896  20.951  1.00  0.00     0.106 H 
BRANCH  27  34
ATOM     34  N   UNL     1     -47.732  45.777  23.540  1.00  0.00    -0.368 N 
ATOM     35  H   UNL     1     -47.725  46.783  23.388  1.00  0.00     0.162 HD
BRANCH  34  36
ATOM     36  C   UNL     1     -48.827  45.117  22.819  1.00  0.00     0.022 C 
ATOM     37  H   UNL     1     -48.449  44.342  22.140  1.00  0.00     0.052 H 
BRANCH  36  38
ATOM     38  C   UNL     1     -49.824  44.510  23.808  1.00  0.00    -0.045 C 
ATOM     39  H   UNL     1     -50.689  45.162  23.962  1.00  0.00     0.025 H 
ATOM     40  H   UNL     1     -50.202  43.546  23.447  1.00  0.00     0.025 H 
ATOM     41  H   UNL     1     -49.354  44.347  24.782  1.00  0.00     0.025 H 
ENDBRANCH  36  38
BRANCH  36  42
ATOM     42  C   UNL     1     -49.540  46.164  21.957  1.00  0.00    -0.045 C 
ATOM     43  H   UNL     1     -48.868  46.989  21.694  1.00  0.00     0.025 H 
ATOM     44  H   UNL     1     -50.404  46.582  22.483  1.00  0.00     0.025 H 
ATOM     45  H   UNL     1     -49.898  45.719  21.022  1.00  0.00     0.025 H 
ENDBRANCH  36  42
ENDBRANCH  34  36
ENDBRANCH  27  34
ENDBRANCH   1  26
BRANCH   8  46
ATOM     46  C   UNL     1     -44.952  39.597  27.894  1.00  0.00     0.037 A 
ATOM     47  C   UNL     1     -45.524  38.837  28.926  1.00  0.00    -0.038 A 
ATOM     48  C   UNL     1     -45.542  39.458  26.626  1.00  0.00    -0.038 A 
ATOM     49  C   UNL     1     -46.593  37.958  28.699  1.00  0.00    -0.056 A 
ATOM     50  H   UNL     1     -45.150  38.889  29.944  1.00  0.00     0.064 H 
ATOM     51  C   UNL     1     -46.611  38.582  26.388  1.00  0.00    -0.056 A 
ATOM     52  H   UNL     1     -45.199  40.055  25.787  1.00  0.00     0.064 H 
ATOM     53  C   UNL     1     -47.143  37.814  27.423  1.00  0.00    -0.034 A 
ATOM     54  H   UNL     1     -46.991  37.375  29.528  1.00  0.00     0.063 H 
ATOM     55  H   UNL     1     -47.021  38.514  25.384  1.00  0.00     0.063 H 
BRANCH  53  56
ATOM     56  C   UNL     1     -48.304  36.873  27.179  1.00  0.00     0.023 C 
ATOM     57  H   UNL     1     -49.201  37.406  27.524  1.00  0.00     0.048 H 
ATOM     58  H   UNL     1     -48.442  36.720  26.102  1.00  0.00     0.048 H 
BRANCH  56  59
ATOM     59  N   UNL     1     -48.182  35.595  27.899  1.00  0.00    -0.299 NA
ATOM     60  C   UNL     1     -46.790  35.170  28.104  1.00  0.00    -0.001 C 
ATOM     61  C   UNL     1     -48.958  34.529  27.251  1.00  0.00    -0.001 C 
ATOM     62  C   UNL     1     -46.087  34.681  26.831  1.00  0.00    -0.035 C 
ATOM     63  H   UNL     1     -46.783  34.367  28.852  1.00  0.00     0.043 H 
ATOM     64  H   UNL     1     -46.197  35.972  28.559  1.00  0.00     0.043 H 
ATOM     65  C   UNL     1     -48.349  34.018  25.941  1.00  0.00    -0.035 C 
ATOM     66  H   UNL     1     -49.986  34.869  27.068  1.00  0.00     0.043 H 
ATOM     67  H   UNL     1     -49.062  33.695  27.958  1.00  0.00     0.043 H 
ATOM     68  C   UNL     1     -46.878  33.577  26.095  1.00  0.00    -0.033 C 
ATOM     69  H   UNL     1     -45.086  34.317  27.093  1.00  0.00     0.029 H 
ATOM     70  H   UNL     1     -45.931  35.536  26.160  1.00  0.00     0.029 H 
ATOM     71  H   UNL     1     -48.955  33.184  25.565  1.00  0.00     0.029 H 
ATOM     72  H   UNL     1     -48.422  34.808  25.183  1.00  0.00     0.029 H 
BRANCH  68  73
ATOM     73  C   UNL     1     -46.264  33.359  24.700  1.00  0.00    -0.060 C 
ATOM     74  H   UNL     1     -46.898  33.790  23.917  1.00  0.00     0.024 H 
ATOM     75  H   UNL     1     -46.143  32.291  24.484  1.00  0.00     0.024 H 
ATOM     76  H   UNL     1     -45.276  33.827  24.622  1.00  0.00     0.024 H 
ENDBRANCH  68  73
BRANCH  68  77
ATOM     77  C   UNL     1     -46.790  32.246  26.864  1.00  0.00    -0.060 C 
ATOM     78  H   UNL     1     -47.339  31.439  26.370  1.00  0.00     0.024 H 
ATOM     79  H   UNL     1     -45.748  31.918  26.964  1.00  0.00     0.024 H 
ATOM     80  H   UNL     1     -47.200  32.348  27.875  1.00  0.00     0.024 H 
ENDBRANCH  68  77
ENDBRANCH  56  59
ENDBRANCH  53  56
ENDBRANCH   8  46
TORSDOF 10
ENDMDL
MODEL 3
REMARK VINA RESULT:      -7.2      1.747      3.628
REMARK SMILES CC(C)Nc1cc(N2CCC3(CC2)CN(c2ccc(CN4CCC(C)(C)CC4)cc2)CC(=O)N3)ncn1
REMARK SMILES IDX 8 1 9 2 10 3 11 4 12 5 13 6 14 7 15 8 31 9 32 10 33 11 34 12
REMARK SMILES IDX 7 26 5 27 6 28 37 29 36 31 35 32 4 34 2 36 1 38 3 42 16 46
REMARK SMILES IDX 17 47 30 48 18 49 29 51 19 53 20 56 21 59 22 60 28 61 23 62
REMARK SMILES IDX 27 65 24 68 25 73 26 77
REMARK H PARENT 9 13 9 14 10 15 10 16 12 17 12 18 13 19 13 20 14 21 14 22
REMARK H PARENT 31 23 31 24 34 25 6 30 36 33 4 35 2 37 1 39 1 40 1 41 3 43
REMARK H PARENT 3 44 3 45 17 50 30 52 18 54 29 55 20 57 20 58 22 63 22 64
REMARK H PARENT 28 66 28 67 23 69 23 70 27 71 27 72 25 74 25 75 25 76 26 78
REMARK H PARENT 26 79 26 80
REMARK Flexibility Score: inf
ROOT
ATOM      1  N   UNL     1     -43.666  43.437  25.236  1.00  0.00    -0.356 N 
ATOM      2  C   UNL     1     -44.381  43.560  26.516  1.00  0.00     0.021 C 
ATOM      3  C   UNL     1     -43.471  43.221  27.695  1.00  0.00    -0.010 C 
ATOM      4  C   UNL     1     -42.432  42.137  27.340  1.00  0.00     0.061 C 
ATOM      5  C   UNL     1     -41.542  42.645  26.182  1.00  0.00    -0.010 C 
ATOM      6  C   UNL     1     -42.225  43.693  25.295  1.00  0.00     0.021 C 
ATOM      7  C   UNL     1     -43.121  40.798  26.922  1.00  0.00     0.042 C 
ATOM      8  N   UNL     1     -43.905  40.277  28.064  1.00  0.00    -0.360 N 
ATOM      9  C   UNL     1     -43.076  40.016  29.271  1.00  0.00     0.097 C 
ATOM     10  C   UNL     1     -42.005  41.083  29.555  1.00  0.00     0.240 C 
ATOM     11  O   UNL     1     -41.452  41.183  30.650  1.00  0.00    -0.273 OA
ATOM     12  N   UNL     1     -41.589  41.888  28.522  1.00  0.00    -0.347 N 
ATOM     13  H   UNL     1     -45.237  42.876  26.526  1.00  0.00     0.049 H 
ATOM     14  H   UNL     1     -44.773  44.576  26.658  1.00  0.00     0.049 H 
ATOM     15  H   UNL     1     -42.941  44.132  28.008  1.00  0.00     0.031 H 
ATOM     16  H   UNL     1     -44.084  42.937  28.559  1.00  0.00     0.031 H 
ATOM     17  H   UNL     1     -40.613  43.090  26.565  1.00  0.00     0.031 H 
ATOM     18  H   UNL     1     -41.219  41.799  25.562  1.00  0.00     0.031 H 
ATOM     19  H   UNL     1     -41.755  43.634  24.304  1.00  0.00     0.049 H 
ATOM     20  H   UNL     1     -42.035  44.699  25.690  1.00  0.00     0.049 H 
ATOM     21  H   UNL     1     -42.359  40.052  26.660  1.00  0.00     0.052 H 
ATOM     22  H   UNL     1     -43.720  40.949  26.021  1.00  0.00     0.052 H 
ATOM     23  H   UNL     1     -43.724  39.987  30.156  1.00  0.00     0.060 H 
ATOM     24  H   UNL     1     -42.542  39.064  29.166  1.00  0.00     0.060 H 
ATOM     25  H   UNL     1     -40.939  42.604  28.824  1.00  0.00     0.164 HD
ENDROOT
BRANCH   1  26
ATOM     26  C   UNL     1     -44.322  44.080  24.164  1.00  0.00     0.134 A 
ATOM     27  C   UNL     1     -46.252  45.131  23.239  1.00  0.00     0.131 A 
ATOM     28  C   UNL     1     -45.633  44.511  24.311  1.00  0.00     0.023 A 
ATOM     29  N   UNL     1     -45.618  45.297  22.072  1.00  0.00    -0.219 NA
ATOM     30  H   UNL     1     -46.180  44.340  25.227  1.00  0.00     0.070 H 
ATOM     31  C   UNL     1     -44.364  44.837  22.009  1.00  0.00     0.120 A 
ATOM     32  N   UNL     1     -43.683  44.240  22.996  1.00  0.00    -0.219 NA
ATOM     33  H   UNL     1     -43.846  44.960  21.064  1.00  0.00     0.106 H 
BRANCH  27  34
ATOM     34  N   UNL     1     -47.588  45.546  23.401  1.00  0.00    -0.368 N 
ATOM     35  H   UNL     1     -48.121  45.216  22.600  1.00  0.00     0.162 HD
BRANCH  34  36
ATOM     36  C   UNL     1     -48.232  45.198  24.674  1.00  0.00     0.022 C 
ATOM     37  H   UNL     1     -47.572  44.585  25.301  1.00  0.00     0.052 H 
BRANCH  36  38
ATOM     38  C   UNL     1     -48.644  46.466  25.424  1.00  0.00    -0.045 C 
ATOM     39  H   UNL     1     -49.169  46.232  26.355  1.00  0.00     0.025 H 
ATOM     40  H   UNL     1     -47.769  47.073  25.685  1.00  0.00     0.025 H 
ATOM     41  H   UNL     1     -49.313  47.079  24.812  1.00  0.00     0.025 H 
ENDBRANCH  36  38
BRANCH  36  42
ATOM     42  C   UNL     1     -49.478  44.358  24.373  1.00  0.00    -0.045 C 
ATOM     43  H   UNL     1     -50.346  44.715  24.939  1.00  0.00     0.025 H 
ATOM     44  H   UNL     1     -49.312  43.307  24.629  1.00  0.00     0.025 H 
ATOM     45  H   UNL     1     -49.733  44.409  23.309  1.00  0.00     0.025 H 
ENDBRANCH  36  42
ENDBRANCH  34  36
ENDBRANCH  27  34
ENDBRANCH   1  26
BRANCH   8  46
ATOM     46  C   UNL     1     -44.932  39.366  27.763  1.00  0.00     0.037 A 
ATOM     47  C   UNL     1     -45.958  39.644  26.845  1.00  0.00    -0.038 A 
ATOM     48  C   UNL     1     -44.948  38.080  28.333  1.00  0.00    -0.038 A 
ATOM     49  C   UNL     1     -46.963  38.713  26.546  1.00  0.00    -0.056 A 
ATOM     50  H   UNL     1     -46.021  40.603  26.339  1.00  0.00     0.064 H 
ATOM     51  C   UNL     1     -45.949  37.142  28.042  1.00  0.00    -0.056 A 
ATOM     52  H   UNL     1     -44.158  37.764  29.006  1.00  0.00     0.064 H 
ATOM     53  C   UNL     1     -46.975  37.453  27.149  1.00  0.00    -0.034 A 
ATOM     54  H   UNL     1     -47.748  38.983  25.842  1.00  0.00     0.063 H 
ATOM     55  H   UNL     1     -45.910  36.167  28.519  1.00  0.00     0.063 H 
BRANCH  53  56
ATOM     56  C   UNL     1     -48.054  36.444  26.819  1.00  0.00     0.023 C 
ATOM     57  H   UNL     1     -48.684  36.916  26.053  1.00  0.00     0.048 H 
ATOM     58  H   UNL     1     -47.609  35.564  26.339  1.00  0.00     0.048 H 
BRANCH  56  59
ATOM     59  N   UNL     1     -48.881  36.071  27.978  1.00  0.00    -0.299 NA
ATOM     60  C   UNL     1     -50.089  35.317  27.616  1.00  0.00    -0.001 C 
ATOM     61  C   UNL     1     -49.226  37.239  28.799  1.00  0.00    -0.001 C 
ATOM     62  C   UNL     1     -51.176  36.159  26.935  1.00  0.00    -0.035 C 
ATOM     63  H   UNL     1     -50.499  34.867  28.529  1.00  0.00     0.043 H 
ATOM     64  H   UNL     1     -49.842  34.460  26.977  1.00  0.00     0.043 H 
ATOM     65  C   UNL     1     -50.271  38.163  28.165  1.00  0.00    -0.035 C 
ATOM     66  H   UNL     1     -48.322  37.817  29.032  1.00  0.00     0.043 H 
ATOM     67  H   UNL     1     -49.591  36.886  29.772  1.00  0.00     0.043 H 
ATOM     68  C   UNL     1     -51.557  37.417  27.745  1.00  0.00    -0.033 C 
ATOM     69  H   UNL     1     -52.062  35.533  26.771  1.00  0.00     0.029 H 
ATOM     70  H   UNL     1     -50.825  36.452  25.936  1.00  0.00     0.029 H 
ATOM     71  H   UNL     1     -50.516  38.966  28.872  1.00  0.00     0.029 H 
ATOM     72  H   UNL     1     -49.828  38.656  27.291  1.00  0.00     0.029 H 
BRANCH  68  73
ATOM     73  C   UNL     1     -52.418  38.344  26.868  1.00  0.00    -0.060 C 
ATOM     74  H   UNL     1     -52.466  37.979  25.836  1.00  0.00     0.024 H 
ATOM     75  H   UNL     1     -52.009  39.360  26.846  1.00  0.00     0.024 H 
ATOM     76  H   UNL     1     -53.446  38.407  27.245  1.00  0.00     0.024 H 
ENDBRANCH  68  73
BRANCH  68  77
ATOM     77  C   UNL     1     -52.387  37.031  28.984  1.00  0.00    -0.060 C 
ATOM     78  H   UNL     1     -53.458  37.206  28.841  1.00  0.00     0.024 H 
ATOM     79  H   UNL     1     -52.259  35.970  29.226  1.00  0.00     0.024 H 
ATOM     80  H   UNL     1     -52.076  37.609  29.860  1.00  0.00     0.024 H 
ENDBRANCH  68  77
ENDBRANCH  56  59
ENDBRANCH  53  56
ENDBRANCH   8  46
TORSDOF 10
ENDMDL
MODEL 4
REMARK VINA RESULT:      -7.0      4.489      9.034
REMARK SMILES CC(C)Nc1cc(N2CCC3(CC2)CN(c2ccc(CN4CCC(C)(C)CC4)cc2)CC(=O)N3)ncn1
REMARK SMILES IDX 8 1 9 2 10 3 11 4 12 5 13 6 14 7 15 8 31 9 32 10 33 11 34 12
REMARK SMILES IDX 7 26 5 27 6 28 37 29 36 31 35 32 4 34 2 36 1 38 3 42 16 46
REMARK SMILES IDX 17 47 30 48 18 49 29 51 19 53 20 56 21 59 22 60 28 61 23 62
REMARK SMILES IDX 27 65 24 68 25 73 26 77
REMARK H PARENT 9 13 9 14 10 15 10 16 12 17 12 18 13 19 13 20 14 21 14 22
REMARK H PARENT 31 23 31 24 34 25 6 30 36 33 4 35 2 37 1 39 1 40 1 41 3 43
REMARK H PARENT 3 44 3 45 17 50 30 52 18 54 29 55 20 57 20 58 22 63 22 64
REMARK H PARENT 28 66 28 67 23 69 23 70 27 71 27 72 25 74 25 75 25 76 26 78
REMARK H PARENT 26 79 26 80
REMARK Flexibility Score: inf
ROOT
ATOM      1  N   UNL     1     -43.165  42.305  26.562  1.00  0.00    -0.356 N 
ATOM      2  C   UNL     1     -44.205  41.705  25.711  1.00  0.00     0.021 C 
ATOM      3  C   UNL     1     -44.149  42.262  24.290  1.00  0.00    -0.010 C 
ATOM      4  C   UNL     1     -43.693  43.736  24.256  1.00  0.00     0.061 C 
ATOM      5  C   UNL     1     -42.276  43.844  24.866  1.00  0.00    -0.010 C 
ATOM      6  C   UNL     1     -41.949  42.727  25.864  1.00  0.00     0.021 C 
ATOM      7  C   UNL     1     -44.676  44.658  25.049  1.00  0.00     0.042 C 
ATOM      8  N   UNL     1     -46.010  44.611  24.409  1.00  0.00    -0.360 N 
ATOM      9  C   UNL     1     -45.993  45.059  22.991  1.00  0.00     0.097 C 
ATOM     10  C   UNL     1     -44.782  44.568  22.179  1.00  0.00     0.240 C 
ATOM     11  O   UNL     1     -44.766  44.588  20.948  1.00  0.00    -0.273 OA
ATOM     12  N   UNL     1     -43.650  44.183  22.854  1.00  0.00    -0.347 N 
ATOM     13  H   UNL     1     -45.193  41.918  26.133  1.00  0.00     0.049 H 
ATOM     14  H   UNL     1     -44.098  40.613  25.662  1.00  0.00     0.049 H 
ATOM     15  H   UNL     1     -43.445  41.660  23.699  1.00  0.00     0.031 H 
ATOM     16  H   UNL     1     -45.123  42.121  23.804  1.00  0.00     0.031 H 
ATOM     17  H   UNL     1     -41.507  43.824  24.082  1.00  0.00     0.031 H 
ATOM     18  H   UNL     1     -42.157  44.818  25.359  1.00  0.00     0.031 H 
ATOM     19  H   UNL     1     -41.193  43.122  26.555  1.00  0.00     0.049 H 
ATOM     20  H   UNL     1     -41.500  41.875  25.338  1.00  0.00     0.049 H 
ATOM     21  H   UNL     1     -44.318  45.696  25.021  1.00  0.00     0.052 H 
ATOM     22  H   UNL     1     -44.693  44.370  26.103  1.00  0.00     0.052 H 
ATOM     23  H   UNL     1     -46.884  44.675  22.479  1.00  0.00     0.060 H 
ATOM     24  H   UNL     1     -45.974  46.154  22.939  1.00  0.00     0.060 H 
ATOM     25  H   UNL     1     -42.938  43.808  22.238  1.00  0.00     0.164 HD
ENDROOT
BRANCH   1  26
ATOM     26  C   UNL     1     -42.927  41.581  27.750  1.00  0.00     0.134 A 
ATOM     27  C   UNL     1     -43.528  39.869  29.296  1.00  0.00     0.131 A 
ATOM     28  C   UNL     1     -43.784  40.555  28.121  1.00  0.00     0.023 A 
ATOM     29  N   UNL     1     -42.492  40.193  30.078  1.00  0.00    -0.219 NA
ATOM     30  H   UNL     1     -44.656  40.311  27.531  1.00  0.00     0.070 H 
ATOM     31  C   UNL     1     -41.726  41.206  29.657  1.00  0.00     0.120 A 
ATOM     32  N   UNL     1     -41.889  41.914  28.532  1.00  0.00    -0.219 NA
ATOM     33  H   UNL     1     -40.890  41.481  30.290  1.00  0.00     0.106 H 
BRANCH  27  34
ATOM     34  N   UNL     1     -44.419  38.842  29.665  1.00  0.00    -0.368 N 
ATOM     35  H   UNL     1     -44.949  39.159  30.473  1.00  0.00     0.162 HD
BRANCH  34  36
ATOM     36  C   UNL     1     -45.287  38.316  28.605  1.00  0.00     0.022 C 
ATOM     37  H   UNL     1     -45.019  38.732  27.625  1.00  0.00     0.052 H 
BRANCH  36  38
ATOM     38  C   UNL     1     -45.214  36.789  28.567  1.00  0.00    -0.045 C 
ATOM     39  H   UNL     1     -46.017  36.330  29.153  1.00  0.00     0.025 H 
ATOM     40  H   UNL     1     -45.303  36.414  27.540  1.00  0.00     0.025 H 
ATOM     41  H   UNL     1     -44.262  36.436  28.976  1.00  0.00     0.025 H 
ENDBRANCH  36  38
BRANCH  36  42
ATOM     42  C   UNL     1     -46.728  38.749  28.900  1.00  0.00    -0.045 C 
ATOM     43  H   UNL     1     -47.351  37.893  29.183  1.00  0.00     0.025 H 
ATOM     44  H   UNL     1     -47.179  39.226  28.025  1.00  0.00     0.025 H 
ATOM     45  H   UNL     1     -46.756  39.466  29.727  1.00  0.00     0.025 H 
ENDBRANCH  36  42
ENDBRANCH  34  36
ENDBRANCH  27  34
ENDBRANCH   1  26
BRANCH   8  46
ATOM     46  C   UNL     1     -47.107  44.987  25.204  1.00  0.00     0.037 A 
ATOM     47  C   UNL     1     -46.977  45.749  26.376  1.00  0.00    -0.038 A 
ATOM     48  C   UNL     1     -48.420  44.663  24.822  1.00  0.00    -0.038 A 
ATOM     49  C   UNL     1     -48.087  46.128  27.144  1.00  0.00    -0.056 A 
ATOM     50  H   UNL     1     -46.005  46.064  26.743  1.00  0.00     0.064 H 
ATOM     51  C   UNL     1     -49.537  45.037  25.583  1.00  0.00    -0.056 A 
ATOM     52  H   UNL     1     -48.612  44.128  23.898  1.00  0.00     0.064 H 
ATOM     53  C   UNL     1     -49.381  45.767  26.761  1.00  0.00    -0.034 A 
ATOM     54  H   UNL     1     -47.934  46.702  28.056  1.00  0.00     0.063 H 
ATOM     55  H   UNL     1     -50.528  44.751  25.239  1.00  0.00     0.063 H 
BRANCH  53  56
ATOM     56  C   UNL     1     -50.580  46.186  27.584  1.00  0.00     0.023 C 
ATOM     57  H   UNL     1     -50.193  46.862  28.359  1.00  0.00     0.048 H 
ATOM     58  H   UNL     1     -51.262  46.790  26.973  1.00  0.00     0.048 H 
BRANCH  56  59
ATOM     59  N   UNL     1     -51.277  45.055  28.218  1.00  0.00    -0.299 NA
ATOM     60  C   UNL     1     -52.422  45.463  29.045  1.00  0.00    -0.001 C 
ATOM     61  C   UNL     1     -50.356  44.211  28.991  1.00  0.00    -0.001 C 
ATOM     62  C   UNL     1     -52.035  46.145  30.363  1.00  0.00    -0.035 C 
ATOM     63  H   UNL     1     -53.023  44.571  29.262  1.00  0.00     0.043 H 
ATOM     64  H   UNL     1     -53.099  46.119  28.484  1.00  0.00     0.043 H 
ATOM     65  C   UNL     1     -49.879  44.843  30.303  1.00  0.00    -0.035 C 
ATOM     66  H   UNL     1     -49.486  43.943  28.378  1.00  0.00     0.043 H 
ATOM     67  H   UNL     1     -50.853  43.256  29.203  1.00  0.00     0.043 H 
ATOM     68  C   UNL     1     -51.043  45.311  31.203  1.00  0.00    -0.033 C 
ATOM     69  H   UNL     1     -52.945  46.345  30.943  1.00  0.00     0.029 H 
ATOM     70  H   UNL     1     -51.598  47.128  30.141  1.00  0.00     0.029 H 
ATOM     71  H   UNL     1     -49.253  44.121  30.842  1.00  0.00     0.029 H 
ATOM     72  H   UNL     1     -49.226  45.694  30.072  1.00  0.00     0.029 H 
BRANCH  68  73
ATOM     73  C   UNL     1     -50.486  46.182  32.344  1.00  0.00    -0.060 C 
ATOM     74  H   UNL     1     -49.470  46.523  32.120  1.00  0.00     0.024 H 
ATOM     75  H   UNL     1     -50.453  45.624  33.287  1.00  0.00     0.024 H 
ATOM     76  H   UNL     1     -51.107  47.071  32.505  1.00  0.00     0.024 H 
ENDBRANCH  68  73
BRANCH  68  77
ATOM     77  C   UNL     1     -51.757  44.101  31.836  1.00  0.00    -0.060 C 
ATOM     78  H   UNL     1     -52.722  43.891  31.365  1.00  0.00     0.024 H 
ATOM     79  H   UNL     1     -51.146  43.195  31.747  1.00  0.00     0.024 H 
ATOM     80  H   UNL     1     -51.944  44.269  32.902  1.00  0.00     0.024 H 
ENDBRANCH  68  77
ENDBRANCH  56  59
ENDBRANCH  53  56
ENDBRANCH   8  46
TORSDOF 10
ENDMDL
MODEL 5
REMARK VINA RESULT:      -7.0      4.140      6.048
REMARK SMILES CC(C)Nc1cc(N2CCC3(CC2)CN(c2ccc(CN4CCC(C)(C)CC4)cc2)CC(=O)N3)ncn1
REMARK SMILES IDX 8 1 9 2 10 3 11 4 12 5 13 6 14 7 15 8 31 9 32 10 33 11 34 12
REMARK SMILES IDX 7 26 5 27 6 28 37 29 36 31 35 32 4 34 2 36 1 38 3 42 16 46
REMARK SMILES IDX 17 47 30 48 18 49 29 51 19 53 20 56 21 59 22 60 28 61 23 62
REMARK SMILES IDX 27 65 24 68 25 73 26 77
REMARK H PARENT 9 13 9 14 10 15 10 16 12 17 12 18 13 19 13 20 14 21 14 22
REMARK H PARENT 31 23 31 24 34 25 6 30 36 33 4 35 2 37 1 39 1 40 1 41 3 43
REMARK H PARENT 3 44 3 45 17 50 30 52 18 54 29 55 20 57 20 58 22 63 22 64
REMARK H PARENT 28 66 28 67 23 69 23 70 27 71 27 72 25 74 25 75 25 76 26 78
REMARK H PARENT 26 79 26 80
REMARK Flexibility Score: inf
ROOT
ATOM      1  N   UNL     1     -48.785  40.780  27.042  1.00  0.00    -0.356 N 
ATOM      2  C   UNL     1     -48.864  40.047  28.316  1.00  0.00     0.021 C 
ATOM      3  C   UNL     1     -47.477  39.835  28.921  1.00  0.00    -0.010 C 
ATOM      4  C   UNL     1     -46.389  39.658  27.842  1.00  0.00     0.061 C 
ATOM      5  C   UNL     1     -46.334  40.928  26.961  1.00  0.00    -0.010 C 
ATOM      6  C   UNL     1     -47.656  41.704  26.918  1.00  0.00     0.021 C 
ATOM      7  C   UNL     1     -46.669  38.410  26.944  1.00  0.00     0.042 C 
ATOM      8  N   UNL     1     -46.637  37.190  27.783  1.00  0.00    -0.360 N 
ATOM      9  C   UNL     1     -45.334  36.987  28.468  1.00  0.00     0.097 C 
ATOM     10  C   UNL     1     -44.699  38.270  29.032  1.00  0.00     0.240 C 
ATOM     11  O   UNL     1     -43.800  38.243  29.871  1.00  0.00    -0.273 OA
ATOM     12  N   UNL     1     -45.088  39.480  28.510  1.00  0.00    -0.347 N 
ATOM     13  H   UNL     1     -49.327  39.068  28.149  1.00  0.00     0.049 H 
ATOM     14  H   UNL     1     -49.485  40.583  29.046  1.00  0.00     0.049 H 
ATOM     15  H   UNL     1     -47.223  40.706  29.541  1.00  0.00     0.031 H 
ATOM     16  H   UNL     1     -47.509  38.988  29.617  1.00  0.00     0.031 H 
ATOM     17  H   UNL     1     -45.555  41.619  27.311  1.00  0.00     0.031 H 
ATOM     18  H   UNL     1     -46.039  40.659  25.938  1.00  0.00     0.031 H 
ATOM     19  H   UNL     1     -47.678  42.256  25.969  1.00  0.00     0.049 H 
ATOM     20  H   UNL     1     -47.682  42.444  27.729  1.00  0.00     0.049 H 
ATOM     21  H   UNL     1     -45.888  38.319  26.176  1.00  0.00     0.052 H 
ATOM     22  H   UNL     1     -47.611  38.538  26.405  1.00  0.00     0.052 H 
ATOM     23  H   UNL     1     -45.474  36.313  29.322  1.00  0.00     0.060 H 
ATOM     24  H   UNL     1     -44.601  36.562  27.772  1.00  0.00     0.060 H 
ATOM     25  H   UNL     1     -44.671  40.266  28.994  1.00  0.00     0.164 HD
ENDROOT
BRANCH   1  26
ATOM     26  C   UNL     1     -50.022  41.321  26.630  1.00  0.00     0.134 A 
ATOM     27  C   UNL     1     -51.282  42.979  25.470  1.00  0.00     0.131 A 
ATOM     28  C   UNL     1     -50.052  42.468  25.850  1.00  0.00     0.023 A 
ATOM     29  N   UNL     1     -52.425  42.401  25.857  1.00  0.00    -0.219 NA
ATOM     30  H   UNL     1     -49.143  42.980  25.569  1.00  0.00     0.070 H 
ATOM     31  C   UNL     1     -52.307  41.311  26.623  1.00  0.00     0.120 A 
ATOM     32  N   UNL     1     -51.165  40.740  27.026  1.00  0.00    -0.219 NA
ATOM     33  H   UNL     1     -53.228  40.842  26.949  1.00  0.00     0.106 H 
BRANCH  27  34
ATOM     34  N   UNL     1     -51.294  44.154  24.692  1.00  0.00    -0.368 N 
ATOM     35  H   UNL     1     -50.946  44.917  25.267  1.00  0.00     0.162 HD
BRANCH  34  36
ATOM     36  C   UNL     1     -50.612  44.086  23.393  1.00  0.00     0.022 C 
ATOM     37  H   UNL     1     -50.139  43.107  23.241  1.00  0.00     0.052 H 
BRANCH  36  38
ATOM     38  C   UNL     1     -51.598  44.377  22.260  1.00  0.00    -0.045 C 
ATOM     39  H   UNL     1     -51.145  44.214  21.278  1.00  0.00     0.025 H 
ATOM     40  H   UNL     1     -52.479  43.728  22.327  1.00  0.00     0.025 H 
ATOM     41  H   UNL     1     -51.938  45.417  22.300  1.00  0.00     0.025 H 
ENDBRANCH  36  38
BRANCH  36  42
ATOM     42  C   UNL     1     -49.495  45.135  23.377  1.00  0.00    -0.045 C 
ATOM     43  H   UNL     1     -49.479  45.715  24.307  1.00  0.00     0.025 H 
ATOM     44  H   UNL     1     -49.625  45.831  22.542  1.00  0.00     0.025 H 
ATOM     45  H   UNL     1     -48.516  44.657  23.268  1.00  0.00     0.025 H 
ENDBRANCH  36  42
ENDBRANCH  34  36
ENDBRANCH  27  34
ENDBRANCH   1  26
BRANCH   8  46
ATOM     46  C   UNL     1     -47.298  36.057  27.277  1.00  0.00     0.037 A 
ATOM     47  C   UNL     1     -48.689  35.885  27.353  1.00  0.00    -0.038 A 
ATOM     48  C   UNL     1     -46.588  35.049  26.601  1.00  0.00    -0.038 A 
ATOM     49  C   UNL     1     -49.330  34.754  26.826  1.00  0.00    -0.056 A 
ATOM     50  H   UNL     1     -49.326  36.618  27.840  1.00  0.00     0.064 H 
ATOM     51  C   UNL     1     -47.219  33.914  26.071  1.00  0.00    -0.056 A 
ATOM     52  H   UNL     1     -45.518  35.135  26.446  1.00  0.00     0.064 H 
ATOM     53  C   UNL     1     -48.599  33.751  26.186  1.00  0.00    -0.034 A 
ATOM     54  H   UNL     1     -50.409  34.656  26.927  1.00  0.00     0.063 H 
ATOM     55  H   UNL     1     -46.615  33.166  25.564  1.00  0.00     0.063 H 
BRANCH  53  56
ATOM     56  C   UNL     1     -49.292  32.535  25.607  1.00  0.00     0.023 C 
ATOM     57  H   UNL     1     -49.240  31.760  26.383  1.00  0.00     0.048 H 
ATOM     58  H   UNL     1     -50.358  32.745  25.463  1.00  0.00     0.048 H 
BRANCH  56  59
ATOM     59  N   UNL     1     -48.665  32.038  24.371  1.00  0.00    -0.299 NA
ATOM     60  C   UNL     1     -49.635  31.606  23.356  1.00  0.00    -0.001 C 
ATOM     61  C   UNL     1     -47.691  30.972  24.644  1.00  0.00    -0.001 C 
ATOM     62  C   UNL     1     -50.349  30.289  23.689  1.00  0.00    -0.035 C 
ATOM     63  H   UNL     1     -49.107  31.499  22.400  1.00  0.00     0.043 H 
ATOM     64  H   UNL     1     -50.384  32.385  23.169  1.00  0.00     0.043 H 
ATOM     65  C   UNL     1     -48.323  29.633  25.036  1.00  0.00    -0.035 C 
ATOM     66  H   UNL     1     -46.994  31.291  25.430  1.00  0.00     0.043 H 
ATOM     67  H   UNL     1     -47.064  30.836  23.753  1.00  0.00     0.043 H 
ATOM     68  C   UNL     1     -49.369  29.140  24.012  1.00  0.00    -0.033 C 
ATOM     69  H   UNL     1     -50.994  30.009  22.846  1.00  0.00     0.029 H 
ATOM     70  H   UNL     1     -51.022  30.455  24.540  1.00  0.00     0.029 H 
ATOM     71  H   UNL     1     -47.531  28.883  25.155  1.00  0.00     0.029 H 
ATOM     72  H   UNL     1     -48.792  29.735  26.023  1.00  0.00     0.029 H 
BRANCH  68  73
ATOM     73  C   UNL     1     -50.153  27.959  24.615  1.00  0.00    -0.060 C 
ATOM     74  H   UNL     1     -50.144  27.095  23.942  1.00  0.00     0.024 H 
ATOM     75  H   UNL     1     -51.199  28.232  24.798  1.00  0.00     0.024 H 
ATOM     76  H   UNL     1     -49.721  27.641  25.571  1.00  0.00     0.024 H 
ENDBRANCH  68  73
BRANCH  68  77
ATOM     77  C   UNL     1     -48.677  28.643  22.729  1.00  0.00    -0.060 C 
ATOM     78  H   UNL     1     -48.652  27.551  22.663  1.00  0.00     0.024 H 
ATOM     79  H   UNL     1     -49.195  29.012  21.836  1.00  0.00     0.024 H 
ATOM     80  H   UNL     1     -47.642  28.996  22.680  1.00  0.00     0.024 H 
ENDBRANCH  68  77
ENDBRANCH  56  59
ENDBRANCH  53  56
ENDBRANCH   8  46
TORSDOF 10
ENDMDL
MODEL 6
REMARK VINA RESULT:      -6.9      3.793      8.024
REMARK SMILES CC(C)Nc1cc(N2CCC3(CC2)CN(c2ccc(CN4CCC(C)(C)CC4)cc2)CC(=O)N3)ncn1
REMARK SMILES IDX 8 1 9 2 10 3 11 4 12 5 13 6 14 7 15 8 31 9 32 10 33 11 34 12
REMARK SMILES IDX 7 26 5 27 6 28 37 29 36 31 35 32 4 34 2 36 1 38 3 42 16 46
REMARK SMILES IDX 17 47 30 48 18 49 29 51 19 53 20 56 21 59 22 60 28 61 23 62
REMARK SMILES IDX 27 65 24 68 25 73 26 77
REMARK H PARENT 9 13 9 14 10 15 10 16 12 17 12 18 13 19 13 20 14 21 14 22
REMARK H PARENT 31 23 31 24 34 25 6 30 36 33 4 35 2 37 1 39 1 40 1 41 3 43
REMARK H PARENT 3 44 3 45 17 50 30 52 18 54 29 55 20 57 20 58 22 63 22 64
REMARK H PARENT 28 66 28 67 23 69 23 70 27 71 27 72 25 74 25 75 25 76 26 78
REMARK H PARENT 26 79 26 80
REMARK Flexibility Score: inf
ROOT
ATOM      1  N   UNL     1     -43.225  42.221  26.649  1.00  0.00    -0.356 N 
ATOM      2  C   UNL     1     -44.092  41.594  25.639  1.00  0.00     0.021 C 
ATOM      3  C   UNL     1     -43.941  42.274  24.279  1.00  0.00    -0.010 C 
ATOM      4  C   UNL     1     -43.648  43.783  24.408  1.00  0.00     0.061 C 
ATOM      5  C   UNL     1     -42.327  43.980  25.188  1.00  0.00    -0.010 C 
ATOM      6  C   UNL     1     -41.992  42.821  26.134  1.00  0.00     0.021 C 
ATOM      7  C   UNL     1     -44.807  44.531  25.143  1.00  0.00     0.042 C 
ATOM      8  N   UNL     1     -46.049  44.406  24.347  1.00  0.00    -0.360 N 
ATOM      9  C   UNL     1     -45.925  44.973  22.979  1.00  0.00     0.097 C 
ATOM     10  C   UNL     1     -44.585  44.677  22.282  1.00  0.00     0.240 C 
ATOM     11  O   UNL     1     -44.436  44.804  21.067  1.00  0.00    -0.273 OA
ATOM     12  N   UNL     1     -43.499  44.351  23.057  1.00  0.00    -0.347 N 
ATOM     13  H   UNL     1     -45.138  41.670  25.954  1.00  0.00     0.049 H 
ATOM     14  H   UNL     1     -43.862  40.527  25.523  1.00  0.00     0.049 H 
ATOM     15  H   UNL     1     -43.114  41.798  23.734  1.00  0.00     0.031 H 
ATOM     16  H   UNL     1     -44.834  42.078  23.672  1.00  0.00     0.031 H 
ATOM     17  H   UNL     1     -41.479  44.104  24.501  1.00  0.00     0.031 H 
ATOM     18  H   UNL     1     -42.370  44.915  25.762  1.00  0.00     0.031 H 
ATOM     19  H   UNL     1     -41.365  43.228  26.937  1.00  0.00     0.049 H 
ATOM     20  H   UNL     1     -41.397  42.065  25.603  1.00  0.00     0.049 H 
ATOM     21  H   UNL     1     -44.564  45.598  25.235  1.00  0.00     0.052 H 
ATOM     22  H   UNL     1     -44.909  44.154  26.164  1.00  0.00     0.052 H 
ATOM     23  H   UNL     1     -46.706  44.547  22.338  1.00  0.00     0.060 H 
ATOM     24  H   UNL     1     -46.020  46.065  23.010  1.00  0.00     0.060 H 
ATOM     25  H   UNL     1     -42.687  44.103  22.505  1.00  0.00     0.164 HD
ENDROOT
BRANCH   1  26
ATOM     26  C   UNL     1     -43.042  41.426  27.801  1.00  0.00     0.134 A 
ATOM     27  C   UNL     1     -43.736  39.650  29.232  1.00  0.00     0.131 A 
ATOM     28  C   UNL     1     -43.938  40.407  28.090  1.00  0.00     0.023 A 
ATOM     29  N   UNL     1     -42.714  39.898  30.058  1.00  0.00    -0.219 NA
ATOM     30  H   UNL     1     -44.800  40.223  27.464  1.00  0.00     0.070 H 
ATOM     31  C   UNL     1     -41.907  40.909  29.715  1.00  0.00     0.120 A 
ATOM     32  N   UNL     1     -42.017  41.683  28.628  1.00  0.00    -0.219 NA
ATOM     33  H   UNL     1     -41.082  41.123  30.384  1.00  0.00     0.106 H 
BRANCH  27  34
ATOM     34  N   UNL     1     -44.666  38.631  29.518  1.00  0.00    -0.368 N 
ATOM     35  H   UNL     1     -45.276  38.961  30.262  1.00  0.00     0.162 HD
BRANCH  34  36
ATOM     36  C   UNL     1     -45.423  38.097  28.380  1.00  0.00     0.022 C 
ATOM     37  H   UNL     1     -45.090  38.542  27.434  1.00  0.00     0.052 H 
BRANCH  36  38
ATOM     38  C   UNL     1     -45.289  36.574  28.321  1.00  0.00    -0.045 C 
ATOM     39  H   UNL     1     -44.479  36.214  28.963  1.00  0.00     0.025 H 
ATOM     40  H   UNL     1     -46.212  36.082  28.652  1.00  0.00     0.025 H 
ATOM     41  H   UNL     1     -45.075  36.242  27.300  1.00  0.00     0.025 H 
ENDBRANCH  36  38
BRANCH  36  42
ATOM     42  C   UNL     1     -46.899  38.470  28.561  1.00  0.00    -0.045 C 
ATOM     43  H   UNL     1     -47.360  37.893  29.371  1.00  0.00     0.025 H 
ATOM     44  H   UNL     1     -47.465  38.282  27.643  1.00  0.00     0.025 H 
ATOM     45  H   UNL     1     -47.003  39.531  28.810  1.00  0.00     0.025 H 
ENDBRANCH  36  42
ENDBRANCH  34  36
ENDBRANCH  27  34
ENDBRANCH   1  26
BRANCH   8  46
ATOM     46  C   UNL     1     -47.261  44.601  25.032  1.00  0.00     0.037 A 
ATOM     47  C   UNL     1     -48.477  44.859  24.378  1.00  0.00    -0.038 A 
ATOM     48  C   UNL     1     -47.328  44.482  26.431  1.00  0.00    -0.038 A 
ATOM     49  C   UNL     1     -49.678  45.033  25.079  1.00  0.00    -0.056 A 
ATOM     50  H   UNL     1     -48.531  44.951  23.297  1.00  0.00     0.064 H 
ATOM     51  C   UNL     1     -48.525  44.654  27.142  1.00  0.00    -0.056 A 
ATOM     52  H   UNL     1     -46.446  44.224  27.007  1.00  0.00     0.064 H 
ATOM     53  C   UNL     1     -49.713  44.940  26.473  1.00  0.00    -0.034 A 
ATOM     54  H   UNL     1     -50.591  45.251  24.529  1.00  0.00     0.063 H 
ATOM     55  H   UNL     1     -48.511  44.555  28.225  1.00  0.00     0.063 H 
BRANCH  53  56
ATOM     56  C   UNL     1     -51.013  45.116  27.230  1.00  0.00     0.023 C 
ATOM     57  H   UNL     1     -50.732  45.251  28.284  1.00  0.00     0.048 H 
ATOM     58  H   UNL     1     -51.499  46.052  26.928  1.00  0.00     0.048 H 
BRANCH  56  59
ATOM     59  N   UNL     1     -51.923  43.966  27.105  1.00  0.00    -0.299 NA
ATOM     60  C   UNL     1     -52.422  43.471  28.396  1.00  0.00    -0.001 C 
ATOM     61  C   UNL     1     -51.318  42.874  26.330  1.00  0.00    -0.001 C 
ATOM     62  C   UNL     1     -51.372  42.728  29.232  1.00  0.00    -0.035 C 
ATOM     63  H   UNL     1     -53.270  42.803  28.202  1.00  0.00     0.043 H 
ATOM     64  H   UNL     1     -52.848  44.287  28.992  1.00  0.00     0.043 H 
ATOM     65  C   UNL     1     -50.220  42.111  27.078  1.00  0.00    -0.035 C 
ATOM     66  H   UNL     1     -50.914  43.260  25.385  1.00  0.00     0.043 H 
ATOM     67  H   UNL     1     -52.111  42.177  26.032  1.00  0.00     0.043 H 
ATOM     68  C   UNL     1     -50.683  41.585  28.454  1.00  0.00    -0.033 C 
ATOM     69  H   UNL     1     -51.851  42.333  30.137  1.00  0.00     0.029 H 
ATOM     70  H   UNL     1     -50.619  43.447  29.579  1.00  0.00     0.029 H 
ATOM     71  H   UNL     1     -49.873  41.277  26.454  1.00  0.00     0.029 H 
ATOM     72  H   UNL     1     -49.352  42.770  27.208  1.00  0.00     0.029 H 
BRANCH  68  73
ATOM     73  C   UNL     1     -49.460  41.095  29.250  1.00  0.00    -0.060 C 
ATOM     74  H   UNL     1     -49.766  40.577  30.165  1.00  0.00     0.024 H 
ATOM     75  H   UNL     1     -48.815  41.933  29.538  1.00  0.00     0.024 H 
ATOM     76  H   UNL     1     -48.854  40.397  28.660  1.00  0.00     0.024 H 
ENDBRANCH  68  73
BRANCH  68  77
ATOM     77  C   UNL     1     -51.645  40.394  28.282  1.00  0.00    -0.060 C 
ATOM     78  H   UNL     1     -51.214  39.454  28.640  1.00  0.00     0.024 H 
ATOM     79  H   UNL     1     -52.576  40.558  28.835  1.00  0.00     0.024 H 
ATOM     80  H   UNL     1     -51.908  40.251  27.228  1.00  0.00     0.024 H 
ENDBRANCH  68  77
ENDBRANCH  56  59
ENDBRANCH  53  56
ENDBRANCH   8  46
TORSDOF 10
ENDMDL
MODEL 7
REMARK VINA RESULT:      -6.9      4.889      9.442
REMARK SMILES CC(C)Nc1cc(N2CCC3(CC2)CN(c2ccc(CN4CCC(C)(C)CC4)cc2)CC(=O)N3)ncn1
REMARK SMILES IDX 8 1 9 2 10 3 11 4 12 5 13 6 14 7 15 8 31 9 32 10 33 11 34 12
REMARK SMILES IDX 7 26 5 27 6 28 37 29 36 31 35 32 4 34 2 36 1 38 3 42 16 46
REMARK SMILES IDX 17 47 30 48 18 49 29 51 19 53 20 56 21 59 22 60 28 61 23 62
REMARK SMILES IDX 27 65 24 68 25 73 26 77
REMARK H PARENT 9 13 9 14 10 15 10 16 12 17 12 18 13 19 13 20 14 21 14 22
REMARK H PARENT 31 23 31 24 34 25 6 30 36 33 4 35 2 37 1 39 1 40 1 41 3 43
REMARK H PARENT 3 44 3 45 17 50 30 52 18 54 29 55 20 57 20 58 22 63 22 64
REMARK H PARENT 28 66 28 67 23 69 23 70 27 71 27 72 25 74 25 75 25 76 26 78
REMARK H PARENT 26 79 26 80
REMARK Flexibility Score: inf
ROOT
ATOM      1  N   UNL     1     -44.056  40.943  27.585  1.00  0.00    -0.356 N 
ATOM      2  C   UNL     1     -44.850  41.011  26.348  1.00  0.00     0.021 C 
ATOM      3  C   UNL     1     -44.235  41.987  25.346  1.00  0.00    -0.010 C 
ATOM      4  C   UNL     1     -43.538  43.176  26.040  1.00  0.00     0.061 C 
ATOM      5  C   UNL     1     -42.403  42.643  26.945  1.00  0.00    -0.010 C 
ATOM      6  C   UNL     1     -42.624  41.204  27.428  1.00  0.00     0.021 C 
ATOM      7  C   UNL     1     -44.545  44.008  26.899  1.00  0.00     0.042 C 
ATOM      8  N   UNL     1     -45.582  44.582  26.013  1.00  0.00    -0.360 N 
ATOM      9  C   UNL     1     -45.024  45.471  24.960  1.00  0.00     0.097 C 
ATOM     10  C   UNL     1     -43.722  44.962  24.317  1.00  0.00     0.240 C 
ATOM     11  O   UNL     1     -43.301  45.405  23.248  1.00  0.00    -0.273 OA
ATOM     12  N   UNL     1     -42.960  44.051  25.006  1.00  0.00    -0.347 N 
ATOM     13  H   UNL     1     -45.868  41.343  26.581  1.00  0.00     0.049 H 
ATOM     14  H   UNL     1     -44.930  40.025  25.870  1.00  0.00     0.049 H 
ATOM     15  H   UNL     1     -43.495  41.450  24.736  1.00  0.00     0.031 H 
ATOM     16  H   UNL     1     -45.005  42.317  24.638  1.00  0.00     0.031 H 
ATOM     17  H   UNL     1     -41.436  42.673  26.424  1.00  0.00     0.031 H 
ATOM     18  H   UNL     1     -42.280  43.302  27.815  1.00  0.00     0.031 H 
ATOM     19  H   UNL     1     -42.078  41.092  28.373  1.00  0.00     0.049 H 
ATOM     20  H   UNL     1     -42.187  40.498  26.709  1.00  0.00     0.049 H 
ATOM     21  H   UNL     1     -44.019  44.836  27.393  1.00  0.00     0.052 H 
ATOM     22  H   UNL     1     -44.957  43.389  27.700  1.00  0.00     0.052 H 
ATOM     23  H   UNL     1     -45.751  45.570  24.145  1.00  0.00     0.060 H 
ATOM     24  H   UNL     1     -44.794  46.458  25.379  1.00  0.00     0.060 H 
ATOM     25  H   UNL     1     -42.165  43.724  24.471  1.00  0.00     0.164 HD
ENDROOT
BRANCH   1  26
ATOM     26  C   UNL     1     -44.353  39.813  28.379  1.00  0.00     0.134 A 
ATOM     27  C   UNL     1     -45.653  37.863  28.815  1.00  0.00     0.131 A 
ATOM     28  C   UNL     1     -45.381  38.958  28.011  1.00  0.00     0.023 A 
ATOM     29  N   UNL     1     -44.959  37.636  29.936  1.00  0.00    -0.219 NA
ATOM     30  H   UNL     1     -45.988  39.152  27.138  1.00  0.00     0.070 H 
ATOM     31  C   UNL     1     -43.997  38.518  30.227  1.00  0.00     0.120 A 
ATOM     32  N   UNL     1     -43.656  39.593  29.504  1.00  0.00    -0.219 NA
ATOM     33  H   UNL     1     -43.437  38.346  31.139  1.00  0.00     0.106 H 
BRANCH  27  34
ATOM     34  N   UNL     1     -46.712  37.016  28.436  1.00  0.00    -0.368 N 
ATOM     35  H   UNL     1     -47.542  37.588  28.303  1.00  0.00     0.162 HD
BRANCH  34  36
ATOM     36  C   UNL     1     -46.464  36.129  27.292  1.00  0.00     0.022 C 
ATOM     37  H   UNL     1     -46.010  36.674  26.455  1.00  0.00     0.052 H 
BRANCH  36  38
ATOM     38  C   UNL     1     -45.567  34.962  27.710  1.00  0.00    -0.045 C 
ATOM     39  H   UNL     1     -46.007  34.387  28.530  1.00  0.00     0.025 H 
ATOM     40  H   UNL     1     -45.403  34.271  26.875  1.00  0.00     0.025 H 
ATOM     41  H   UNL     1     -44.590  35.325  28.047  1.00  0.00     0.025 H 
ENDBRANCH  36  38
BRANCH  36  42
ATOM     42  C   UNL     1     -47.809  35.585  26.800  1.00  0.00    -0.045 C 
ATOM     43  H   UNL     1     -47.737  35.215  25.771  1.00  0.00     0.025 H 
ATOM     44  H   UNL     1     -48.580  36.361  26.831  1.00  0.00     0.025 H 
ATOM     45  H   UNL     1     -48.144  34.752  27.428  1.00  0.00     0.025 H 
ENDBRANCH  36  42
ENDBRANCH  34  36
ENDBRANCH  27  34
ENDBRANCH   1  26
BRANCH   8  46
ATOM     46  C   UNL     1     -46.793  44.961  26.618  1.00  0.00     0.037 A 
ATOM     47  C   UNL     1     -47.998  44.268  26.419  1.00  0.00    -0.038 A 
ATOM     48  C   UNL     1     -46.844  46.039  27.520  1.00  0.00    -0.038 A 
ATOM     49  C   UNL     1     -49.191  44.652  27.047  1.00  0.00    -0.056 A 
ATOM     50  H   UNL     1     -48.056  43.410  25.755  1.00  0.00     0.064 H 
ATOM     51  C   UNL     1     -48.032  46.432  28.153  1.00  0.00    -0.056 A 
ATOM     52  H   UNL     1     -45.945  46.589  27.775  1.00  0.00     0.064 H 
ATOM     53  C   UNL     1     -49.223  45.746  27.915  1.00  0.00    -0.034 A 
ATOM     54  H   UNL     1     -50.104  44.095  26.846  1.00  0.00     0.063 H 
ATOM     55  H   UNL     1     -48.009  47.277  28.836  1.00  0.00     0.063 H 
BRANCH  53  56
ATOM     56  C   UNL     1     -50.509  46.155  28.603  1.00  0.00     0.023 C 
ATOM     57  H   UNL     1     -50.261  47.040  29.205  1.00  0.00     0.048 H 
ATOM     58  H   UNL     1     -51.240  46.494  27.859  1.00  0.00     0.048 H 
BRANCH  56  59
ATOM     59  N   UNL     1     -51.066  45.106  29.473  1.00  0.00    -0.299 NA
ATOM     60  C   UNL     1     -52.406  45.423  29.987  1.00  0.00    -0.001 C 
ATOM     61  C   UNL     1     -50.154  44.772  30.575  1.00  0.00    -0.001 C 
ATOM     62  C   UNL     1     -52.425  46.519  31.060  1.00  0.00    -0.035 C 
ATOM     63  H   UNL     1     -52.841  44.505  30.400  1.00  0.00     0.043 H 
ATOM     64  H   UNL     1     -53.084  45.704  29.172  1.00  0.00     0.043 H 
ATOM     65  C   UNL     1     -50.075  45.843  31.669  1.00  0.00    -0.035 C 
ATOM     66  H   UNL     1     -49.147  44.574  30.185  1.00  0.00     0.043 H 
ATOM     67  H   UNL     1     -50.475  43.820  31.016  1.00  0.00     0.043 H 
ATOM     68  C   UNL     1     -51.460  46.231  32.231  1.00  0.00    -0.033 C 
ATOM     69  H   UNL     1     -53.449  46.635  31.435  1.00  0.00     0.029 H 
ATOM     70  H   UNL     1     -52.165  47.479  30.593  1.00  0.00     0.029 H 
ATOM     71  H   UNL     1     -49.428  45.482  32.478  1.00  0.00     0.029 H 
ATOM     72  H   UNL     1     -49.579  46.733  31.261  1.00  0.00     0.029 H 
BRANCH  68  73
ATOM     73  C   UNL     1     -51.321  47.495  33.098  1.00  0.00    -0.060 C 
ATOM     74  H   UNL     1     -51.158  48.383  32.477  1.00  0.00     0.024 H 
ATOM     75  H   UNL     1     -50.475  47.409  33.790  1.00  0.00     0.024 H 
ATOM     76  H   UNL     1     -52.223  47.669  33.696  1.00  0.00     0.024 H 
ENDBRANCH  68  73
BRANCH  68  77
ATOM     77  C   UNL     1     -52.016  45.104  33.123  1.00  0.00    -0.060 C 
ATOM     78  H   UNL     1     -53.109  45.047  33.093  1.00  0.00     0.024 H 
ATOM     79  H   UNL     1     -51.630  44.128  32.808  1.00  0.00     0.024 H 
ATOM     80  H   UNL     1     -51.726  45.252  34.169  1.00  0.00     0.024 H 
ENDBRANCH  68  77
ENDBRANCH  56  59
ENDBRANCH  53  56
ENDBRANCH   8  46
TORSDOF 10
ENDMDL
