MODEL 1
REMARK VINA RESULT:     -10.8      0.000      0.000
REMARK SMILES Nc1ncnc2c1c([C@H]1CCCO1)cn2-c1cncc(COc2ccc3ccc(N4CCC4)nc3c2)c1
REMARK SMILES IDX 21 1 20 4 16 5 17 6 37 7 18 8 19 11 15 13 2 14 3 15 7 16
REMARK SMILES IDX 4 17 6 18 8 19 5 20 14 22 1 24 9 27 10 28 13 29 11 31 12 34
REMARK SMILES IDX 22 39 23 40 24 41 36 42 25 43 35 45 26 47 34 49 27 50 29 51
REMARK SMILES IDX 28 52 30 55 31 56 33 57 32 58
REMARK H PARENT 21 2 21 3 17 9 37 10 19 12 4 21 14 23 1 25 1 26 9 30 10 32
REMARK H PARENT 10 33 11 35 11 36 12 37 12 38 24 44 36 46 25 48 27 53 28 54
REMARK H PARENT 31 59 31 60 33 61 33 62 32 63 32 64
REMARK Flexibility Score: inf
ROOT
ATOM      1  C   UNL     1     -46.880  34.628  27.320  1.00  0.00     0.115 C 
ATOM      2  H   UNL     1     -46.650  34.223  28.314  1.00  0.00     0.076 H 
ATOM      3  H   UNL     1     -45.989  34.425  26.713  1.00  0.00     0.076 H 
ENDROOT
BRANCH   1   4
ATOM      4  C   UNL     1     -47.160  36.098  27.480  1.00  0.00     0.010 A 
ATOM      5  C   UNL     1     -46.424  38.414  27.614  1.00  0.00     0.066 A 
ATOM      6  C   UNL     1     -47.756  38.752  27.824  1.00  0.00     0.051 A 
ATOM      7  C   UNL     1     -46.133  37.051  27.452  1.00  0.00    -0.028 A 
ATOM      8  N   UNL     1     -48.772  37.853  27.868  1.00  0.00    -0.262 NA
ATOM      9  H   UNL     1     -48.101  39.774  27.943  1.00  0.00     0.086 H 
ATOM     10  H   UNL     1     -45.116  36.699  27.317  1.00  0.00     0.065 H 
ATOM     11  C   UNL     1     -48.454  36.554  27.690  1.00  0.00     0.034 A 
ATOM     12  H   UNL     1     -49.297  35.869  27.722  1.00  0.00     0.084 H 
BRANCH   5  13
ATOM     13  N   UNL     1     -45.393  39.404  27.547  1.00  0.00    -0.299 N 
ATOM     14  C   UNL     1     -42.519  41.102  28.814  1.00  0.00     0.136 A 
ATOM     15  N   UNL     1     -42.258  40.424  29.945  1.00  0.00    -0.219 NA
ATOM     16  C   UNL     1     -43.606  40.710  28.011  1.00  0.00     0.067 A 
ATOM     17  C   UNL     1     -43.053  39.389  30.258  1.00  0.00     0.120 A 
ATOM     18  C   UNL     1     -44.366  39.636  28.461  1.00  0.00     0.150 A 
ATOM     19  C   UNL     1     -44.167  41.161  26.774  1.00  0.00     0.012 A 
ATOM     20  N   UNL     1     -44.117  38.932  29.583  1.00  0.00    -0.218 NA
ATOM     21  H   UNL     1     -42.804  38.859  31.172  1.00  0.00     0.106 H 
ATOM     22  C   UNL     1     -45.248  40.333  26.526  1.00  0.00     0.018 A 
ATOM     23  H   UNL     1     -45.949  40.366  25.706  1.00  0.00     0.083 H 
BRANCH  14  24
ATOM     24  N   UNL     1     -41.692  42.178  28.516  1.00  0.00    -0.383 N 
ATOM     25  H   UNL     1     -40.703  41.949  28.622  1.00  0.00     0.158 HD
ATOM     26  H   UNL     1     -41.950  42.578  27.623  1.00  0.00     0.158 HD
ENDBRANCH  14  24
BRANCH  19  27
ATOM     27  C   UNL     1     -43.640  42.301  25.940  1.00  0.00     0.085 C 
ATOM     28  C   UNL     1     -44.371  42.567  24.629  1.00  0.00    -0.020 C 
ATOM     29  O   UNL     1     -43.734  43.539  26.684  1.00  0.00    -0.373 OA
ATOM     30  H   UNL     1     -42.580  42.109  25.739  1.00  0.00     0.066 H 
ATOM     31  C   UNL     1     -45.452  43.532  25.047  1.00  0.00    -0.027 C 
ATOM     32  H   UNL     1     -44.749  41.679  24.116  1.00  0.00     0.030 H 
ATOM     33  H   UNL     1     -43.692  43.080  23.937  1.00  0.00     0.030 H 
ATOM     34  C   UNL     1     -44.734  44.372  26.079  1.00  0.00     0.048 C 
ATOM     35  H   UNL     1     -46.283  42.990  25.515  1.00  0.00     0.029 H 
ATOM     36  H   UNL     1     -45.855  44.124  24.222  1.00  0.00     0.029 H 
ATOM     37  H   UNL     1     -45.409  44.756  26.849  1.00  0.00     0.057 H 
ATOM     38  H   UNL     1     -44.222  45.219  25.612  1.00  0.00     0.057 H 
ENDBRANCH  19  27
ENDBRANCH   5  13
ENDBRANCH   1   4
BRANCH   1  39
ATOM     39  O   UNL     1     -48.019  33.912  26.836  1.00  0.00    -0.489 OA
BRANCH  39  40
ATOM     40  C   UNL     1     -47.823  32.811  26.050  1.00  0.00     0.122 A 
ATOM     41  C   UNL     1     -46.923  33.001  25.002  1.00  0.00    -0.019 A 
ATOM     42  C   UNL     1     -48.424  31.560  26.209  1.00  0.00     0.007 A 
ATOM     43  C   UNL     1     -46.629  31.957  24.128  1.00  0.00    -0.049 A 
ATOM     44  H   UNL     1     -46.447  33.969  24.868  1.00  0.00     0.066 H 
ATOM     45  C   UNL     1     -48.146  30.499  25.355  1.00  0.00     0.076 A 
ATOM     46  H   UNL     1     -49.128  31.362  27.008  1.00  0.00     0.069 H 
ATOM     47  C   UNL     1     -47.237  30.705  24.302  1.00  0.00     0.001 A 
ATOM     48  H   UNL     1     -45.924  32.126  23.318  1.00  0.00     0.063 H 
ATOM     49  N   UNL     1     -48.752  29.316  25.567  1.00  0.00    -0.231 NA
ATOM     50  C   UNL     1     -46.973  29.630  23.451  1.00  0.00    -0.049 A 
ATOM     51  C   UNL     1     -48.480  28.277  24.745  1.00  0.00     0.129 A 
ATOM     52  C   UNL     1     -47.602  28.408  23.674  1.00  0.00    -0.019 A 
ATOM     53  H   UNL     1     -46.285  29.733  22.617  1.00  0.00     0.063 H 
ATOM     54  H   UNL     1     -47.409  27.573  23.011  1.00  0.00     0.066 H 
BRANCH  51  55
ATOM     55  N   UNL     1     -49.124  27.048  24.981  1.00  0.00    -0.356 N 
ATOM     56  C   UNL     1     -48.822  26.114  26.027  1.00  0.00     0.021 C 
ATOM     57  C   UNL     1     -50.540  26.905  25.171  1.00  0.00     0.021 C 
ATOM     58  C   UNL     1     -50.228  25.544  25.803  1.00  0.00    -0.018 C 
ATOM     59  H   UNL     1     -48.667  26.594  26.998  1.00  0.00     0.049 H 
ATOM     60  H   UNL     1     -47.996  25.441  25.789  1.00  0.00     0.049 H 
ATOM     61  H   UNL     1     -50.956  27.648  25.861  1.00  0.00     0.049 H 
ATOM     62  H   UNL     1     -51.106  26.880  24.238  1.00  0.00     0.049 H 
ATOM     63  H   UNL     1     -50.269  24.702  25.103  1.00  0.00     0.030 H 
ATOM     64  H   UNL     1     -50.792  25.298  26.705  1.00  0.00     0.030 H 
ENDBRANCH  51  55
ENDBRANCH  39  40
ENDBRANCH   1  39
TORSDOF 7
ENDMDL
MODEL 2
REMARK VINA RESULT:     -10.3      2.378     12.448
REMARK SMILES Nc1ncnc2c1c([C@H]1CCCO1)cn2-c1cncc(COc2ccc3ccc(N4CCC4)nc3c2)c1
REMARK SMILES IDX 21 1 20 4 16 5 17 6 37 7 18 8 19 11 15 13 2 14 3 15 7 16
REMARK SMILES IDX 4 17 6 18 8 19 5 20 14 22 1 24 9 27 10 28 13 29 11 31 12 34
REMARK SMILES IDX 22 39 23 40 24 41 36 42 25 43 35 45 26 47 34 49 27 50 29 51
REMARK SMILES IDX 28 52 30 55 31 56 33 57 32 58
REMARK H PARENT 21 2 21 3 17 9 37 10 19 12 4 21 14 23 1 25 1 26 9 30 10 32
REMARK H PARENT 10 33 11 35 11 36 12 37 12 38 24 44 36 46 25 48 27 53 28 54
REMARK H PARENT 31 59 31 60 33 61 33 62 32 63 32 64
REMARK Flexibility Score: inf
ROOT
ATOM      1  C   UNL     1     -48.821  35.007  27.173  1.00  0.00     0.115 C 
ATOM      2  H   UNL     1     -48.557  34.745  28.206  1.00  0.00     0.076 H 
ATOM      3  H   UNL     1     -49.914  34.935  27.127  1.00  0.00     0.076 H 
ENDROOT
BRANCH   1   4
ATOM      4  C   UNL     1     -48.128  34.028  26.264  1.00  0.00     0.010 A 
ATOM      5  C   UNL     1     -47.996  31.869  25.148  1.00  0.00     0.066 A 
ATOM      6  C   UNL     1     -46.777  32.289  24.629  1.00  0.00     0.051 A 
ATOM      7  C   UNL     1     -48.670  32.764  25.992  1.00  0.00    -0.028 A 
ATOM      8  N   UNL     1     -46.220  33.501  24.881  1.00  0.00    -0.262 NA
ATOM      9  H   UNL     1     -46.178  31.691  23.952  1.00  0.00     0.086 H 
ATOM     10  H   UNL     1     -49.610  32.502  26.465  1.00  0.00     0.065 H 
ATOM     11  C   UNL     1     -46.906  34.341  25.684  1.00  0.00     0.034 A 
ATOM     12  H   UNL     1     -46.431  35.303  25.852  1.00  0.00     0.084 H 
BRANCH   5  13
ATOM     13  N   UNL     1     -48.555  30.591  24.827  1.00  0.00    -0.299 N 
ATOM     14  C   UNL     1     -51.166  28.458  23.654  1.00  0.00     0.136 A 
ATOM     15  N   UNL     1     -52.121  29.337  23.301  1.00  0.00    -0.219 NA
ATOM     16  C   UNL     1     -49.947  28.935  24.168  1.00  0.00     0.067 A 
ATOM     17  C   UNL     1     -51.861  30.645  23.453  1.00  0.00     0.120 A 
ATOM     18  C   UNL     1     -49.814  30.313  24.298  1.00  0.00     0.150 A 
ATOM     19  C   UNL     1     -48.731  28.330  24.622  1.00  0.00     0.012 A 
ATOM     20  N   UNL     1     -50.750  31.215  23.939  1.00  0.00    -0.218 NA
ATOM     21  H   UNL     1     -52.651  31.324  23.147  1.00  0.00     0.106 H 
ATOM     22  C   UNL     1     -47.911  29.374  25.007  1.00  0.00     0.018 A 
ATOM     23  H   UNL     1     -46.919  29.333  25.432  1.00  0.00     0.083 H 
BRANCH  14  24
ATOM     24  N   UNL     1     -51.461  27.109  23.501  1.00  0.00    -0.383 N 
ATOM     25  H   UNL     1     -50.837  26.512  24.045  1.00  0.00     0.158 HD
ATOM     26  H   UNL     1     -52.450  26.950  23.650  1.00  0.00     0.158 HD
ENDBRANCH  14  24
BRANCH  19  27
ATOM     27  C   UNL     1     -48.447  26.849  24.641  1.00  0.00     0.085 C 
ATOM     28  C   UNL     1     -47.083  26.435  25.178  1.00  0.00    -0.020 C 
ATOM     29  O   UNL     1     -49.409  26.174  25.487  1.00  0.00    -0.373 OA
ATOM     30  H   UNL     1     -48.573  26.469  23.620  1.00  0.00     0.066 H 
ATOM     31  C   UNL     1     -47.346  26.280  26.656  1.00  0.00    -0.027 C 
ATOM     32  H   UNL     1     -46.262  27.118  24.948  1.00  0.00     0.030 H 
ATOM     33  H   UNL     1     -46.816  25.453  24.766  1.00  0.00     0.030 H 
ATOM     34  C   UNL     1     -48.739  25.691  26.661  1.00  0.00     0.048 C 
ATOM     35  H   UNL     1     -47.351  27.262  27.144  1.00  0.00     0.029 H 
ATOM     36  H   UNL     1     -46.616  25.649  27.168  1.00  0.00     0.029 H 
ATOM     37  H   UNL     1     -49.309  25.972  27.551  1.00  0.00     0.057 H 
ATOM     38  H   UNL     1     -48.707  24.599  26.599  1.00  0.00     0.057 H 
ENDBRANCH  19  27
ENDBRANCH   5  13
ENDBRANCH   1   4
BRANCH   1  39
ATOM     39  O   UNL     1     -48.374  36.348  26.961  1.00  0.00    -0.489 OA
BRANCH  39  40
ATOM     40  C   UNL     1     -47.376  36.846  27.753  1.00  0.00     0.122 A 
ATOM     41  C   UNL     1     -47.187  36.154  28.948  1.00  0.00    -0.019 A 
ATOM     42  C   UNL     1     -46.560  37.942  27.468  1.00  0.00     0.007 A 
ATOM     43  C   UNL     1     -46.199  36.554  29.845  1.00  0.00    -0.049 A 
ATOM     44  H   UNL     1     -47.814  35.297  29.182  1.00  0.00     0.066 H 
ATOM     45  C   UNL     1     -45.563  38.362  28.341  1.00  0.00     0.076 A 
ATOM     46  H   UNL     1     -46.667  38.511  26.552  1.00  0.00     0.069 H 
ATOM     47  C   UNL     1     -45.384  37.656  29.544  1.00  0.00     0.001 A 
ATOM     48  H   UNL     1     -46.067  36.001  30.771  1.00  0.00     0.063 H 
ATOM     49  N   UNL     1     -44.805  39.421  28.004  1.00  0.00    -0.231 NA
ATOM     50  C   UNL     1     -44.381  38.092  30.412  1.00  0.00    -0.049 A 
ATOM     51  C   UNL     1     -43.827  39.829  28.845  1.00  0.00     0.129 A 
ATOM     52  C   UNL     1     -43.599  39.189  30.059  1.00  0.00    -0.019 A 
ATOM     53  H   UNL     1     -44.202  37.590  31.358  1.00  0.00     0.063 H 
ATOM     54  H   UNL     1     -42.826  39.539  30.733  1.00  0.00     0.066 H 
BRANCH  51  55
ATOM     55  N   UNL     1     -43.046  40.941  28.478  1.00  0.00    -0.356 N 
ATOM     56  C   UNL     1     -41.725  41.247  28.947  1.00  0.00     0.021 C 
ATOM     57  C   UNL     1     -42.714  41.278  27.122  1.00  0.00     0.021 C 
ATOM     58  C   UNL     1     -41.586  42.136  27.706  1.00  0.00    -0.018 C 
ATOM     59  H   UNL     1     -41.065  40.373  28.967  1.00  0.00     0.049 H 
ATOM     60  H   UNL     1     -41.710  41.768  29.906  1.00  0.00     0.049 H 
ATOM     61  H   UNL     1     -42.380  40.415  26.536  1.00  0.00     0.049 H 
ATOM     62  H   UNL     1     -43.506  41.820  26.602  1.00  0.00     0.049 H 
ATOM     63  H   UNL     1     -41.855  43.185  27.868  1.00  0.00     0.030 H 
ATOM     64  H   UNL     1     -40.628  42.080  27.184  1.00  0.00     0.030 H 
ENDBRANCH  51  55
ENDBRANCH  39  40
ENDBRANCH   1  39
TORSDOF 7
ENDMDL
MODEL 3
REMARK VINA RESULT:     -10.2      2.941     11.788
REMARK SMILES Nc1ncnc2c1c([C@H]1CCCO1)cn2-c1cncc(COc2ccc3ccc(N4CCC4)nc3c2)c1
REMARK SMILES IDX 21 1 20 4 16 5 17 6 37 7 18 8 19 11 15 13 2 14 3 15 7 16
REMARK SMILES IDX 4 17 6 18 8 19 5 20 14 22 1 24 9 27 10 28 13 29 11 31 12 34
REMARK SMILES IDX 22 39 23 40 24 41 36 42 25 43 35 45 26 47 34 49 27 50 29 51
REMARK SMILES IDX 28 52 30 55 31 56 33 57 32 58
REMARK H PARENT 21 2 21 3 17 9 37 10 19 12 4 21 14 23 1 25 1 26 9 30 10 32
REMARK H PARENT 10 33 11 35 11 36 12 37 12 38 24 44 36 46 25 48 27 53 28 54
REMARK H PARENT 31 59 31 60 33 61 33 62 32 63 32 64
REMARK Flexibility Score: inf
ROOT
ATOM      1  C   UNL     1     -46.684  36.317  27.188  1.00  0.00     0.115 C 
ATOM      2  H   UNL     1     -47.714  36.672  27.048  1.00  0.00     0.076 H 
ATOM      3  H   UNL     1     -46.103  36.795  26.390  1.00  0.00     0.076 H 
ENDROOT
BRANCH   1   4
ATOM      4  C   UNL     1     -46.702  34.816  27.084  1.00  0.00     0.010 A 
ATOM      5  C   UNL     1     -47.297  32.758  25.926  1.00  0.00     0.066 A 
ATOM      6  C   UNL     1     -46.728  32.075  26.995  1.00  0.00     0.051 A 
ATOM      7  C   UNL     1     -47.287  34.160  25.992  1.00  0.00    -0.028 A 
ATOM      8  N   UNL     1     -46.164  32.679  28.071  1.00  0.00    -0.262 NA
ATOM      9  H   UNL     1     -46.662  30.994  27.044  1.00  0.00     0.086 H 
ATOM     10  H   UNL     1     -47.739  34.769  25.216  1.00  0.00     0.065 H 
ATOM     11  C   UNL     1     -46.158  34.028  28.089  1.00  0.00     0.034 A 
ATOM     12  H   UNL     1     -45.689  34.472  28.962  1.00  0.00     0.084 H 
BRANCH   5  13
ATOM     13  N   UNL     1     -47.854  32.074  24.799  1.00  0.00    -0.299 N 
ATOM     14  C   UNL     1     -47.611  30.188  21.778  1.00  0.00     0.136 A 
ATOM     15  N   UNL     1     -46.285  30.006  21.657  1.00  0.00    -0.219 NA
ATOM     16  C   UNL     1     -48.111  30.901  22.883  1.00  0.00     0.067 A 
ATOM     17  C   UNL     1     -45.488  30.514  22.610  1.00  0.00     0.120 A 
ATOM     18  C   UNL     1     -47.177  31.396  23.787  1.00  0.00     0.150 A 
ATOM     19  C   UNL     1     -49.413  31.272  23.347  1.00  0.00     0.012 A 
ATOM     20  N   UNL     1     -45.844  31.215  23.695  1.00  0.00    -0.218 NA
ATOM     21  H   UNL     1     -44.425  30.336  22.484  1.00  0.00     0.106 H 
ATOM     22  C   UNL     1     -49.210  31.978  24.518  1.00  0.00     0.018 A 
ATOM     23  H   UNL     1     -49.940  32.452  25.157  1.00  0.00     0.083 H 
BRANCH  14  24
ATOM     24  N   UNL     1     -48.416  29.666  20.772  1.00  0.00    -0.383 N 
ATOM     25  H   UNL     1     -48.876  28.800  21.054  1.00  0.00     0.158 HD
ATOM     26  H   UNL     1     -49.031  30.385  20.411  1.00  0.00     0.158 HD
ENDBRANCH  14  24
BRANCH  19  27
ATOM     27  C   UNL     1     -50.713  30.925  22.667  1.00  0.00     0.085 C 
ATOM     28  C   UNL     1     -51.962  30.980  23.538  1.00  0.00    -0.020 C 
ATOM     29  O   UNL     1     -50.965  31.853  21.584  1.00  0.00    -0.373 OA
ATOM     30  H   UNL     1     -50.610  29.923  22.233  1.00  0.00     0.066 H 
ATOM     31  C   UNL     1     -52.405  32.414  23.386  1.00  0.00    -0.027 C 
ATOM     32  H   UNL     1     -51.821  30.672  24.577  1.00  0.00     0.030 H 
ATOM     33  H   UNL     1     -52.732  30.328  23.106  1.00  0.00     0.030 H 
ATOM     34  C   UNL     1     -52.083  32.683  21.933  1.00  0.00     0.048 C 
ATOM     35  H   UNL     1     -51.805  33.066  24.032  1.00  0.00     0.029 H 
ATOM     36  H   UNL     1     -53.458  32.576  23.625  1.00  0.00     0.029 H 
ATOM     37  H   UNL     1     -51.834  33.732  21.748  1.00  0.00     0.057 H 
ATOM     38  H   UNL     1     -52.919  32.404  21.284  1.00  0.00     0.057 H 
ENDBRANCH  19  27
ENDBRANCH   5  13
ENDBRANCH   1   4
BRANCH   1  39
ATOM     39  O   UNL     1     -46.268  36.762  28.481  1.00  0.00    -0.489 OA
BRANCH  39  40
ATOM     40  C   UNL     1     -45.424  37.835  28.571  1.00  0.00     0.122 A 
ATOM     41  C   UNL     1     -44.675  37.883  29.746  1.00  0.00    -0.019 A 
ATOM     42  C   UNL     1     -45.256  38.840  27.617  1.00  0.00     0.007 A 
ATOM     43  C   UNL     1     -43.771  38.921  29.962  1.00  0.00    -0.049 A 
ATOM     44  H   UNL     1     -44.794  37.105  30.496  1.00  0.00     0.066 H 
ATOM     45  C   UNL     1     -44.359  39.885  27.804  1.00  0.00     0.076 A 
ATOM     46  H   UNL     1     -45.813  38.846  26.688  1.00  0.00     0.069 H 
ATOM     47  C   UNL     1     -43.610  39.923  28.994  1.00  0.00     0.001 A 
ATOM     48  H   UNL     1     -43.196  38.941  30.885  1.00  0.00     0.063 H 
ATOM     49  N   UNL     1     -44.237  40.819  26.843  1.00  0.00    -0.231 NA
ATOM     50  C   UNL     1     -42.717  40.983  29.168  1.00  0.00    -0.049 A 
ATOM     51  C   UNL     1     -43.360  41.835  27.014  1.00  0.00     0.129 A 
ATOM     52  C   UNL     1     -42.594  41.946  28.171  1.00  0.00    -0.019 A 
ATOM     53  H   UNL     1     -42.117  41.066  30.069  1.00  0.00     0.063 H 
ATOM     54  H   UNL     1     -41.911  42.777  28.304  1.00  0.00     0.066 H 
BRANCH  51  55
ATOM     55  N   UNL     1     -43.247  42.804  25.999  1.00  0.00    -0.356 N 
ATOM     56  C   UNL     1     -43.793  42.719  24.675  1.00  0.00     0.021 C 
ATOM     57  C   UNL     1     -43.647  44.175  26.148  1.00  0.00     0.021 C 
ATOM     58  C   UNL     1     -43.656  44.245  24.617  1.00  0.00    -0.018 C 
ATOM     59  H   UNL     1     -44.823  42.346  24.660  1.00  0.00     0.049 H 
ATOM     60  H   UNL     1     -43.166  42.161  23.978  1.00  0.00     0.049 H 
ATOM     61  H   UNL     1     -44.630  44.286  26.620  1.00  0.00     0.049 H 
ATOM     62  H   UNL     1     -42.902  44.795  26.650  1.00  0.00     0.049 H 
ATOM     63  H   UNL     1     -42.718  44.599  24.176  1.00  0.00     0.030 H 
ATOM     64  H   UNL     1     -44.496  44.783  24.171  1.00  0.00     0.030 H 
ENDBRANCH  51  55
ENDBRANCH  39  40
ENDBRANCH   1  39
TORSDOF 7
ENDMDL
MODEL 4
REMARK VINA RESULT:      -9.8      1.825      2.884
REMARK SMILES Nc1ncnc2c1c([C@H]1CCCO1)cn2-c1cncc(COc2ccc3ccc(N4CCC4)nc3c2)c1
REMARK SMILES IDX 21 1 20 4 16 5 17 6 37 7 18 8 19 11 15 13 2 14 3 15 7 16
REMARK SMILES IDX 4 17 6 18 8 19 5 20 14 22 1 24 9 27 10 28 13 29 11 31 12 34
REMARK SMILES IDX 22 39 23 40 24 41 36 42 25 43 35 45 26 47 34 49 27 50 29 51
REMARK SMILES IDX 28 52 30 55 31 56 33 57 32 58
REMARK H PARENT 21 2 21 3 17 9 37 10 19 12 4 21 14 23 1 25 1 26 9 30 10 32
REMARK H PARENT 10 33 11 35 11 36 12 37 12 38 24 44 36 46 25 48 27 53 28 54
REMARK H PARENT 31 59 31 60 33 61 33 62 32 63 32 64
REMARK Flexibility Score: inf
ROOT
ATOM      1  C   UNL     1     -47.712  34.772  26.358  1.00  0.00     0.115 C 
ATOM      2  H   UNL     1     -48.398  35.301  25.683  1.00  0.00     0.076 H 
ATOM      3  H   UNL     1     -48.328  34.016  26.860  1.00  0.00     0.076 H 
ENDROOT
BRANCH   1   4
ATOM      4  C   UNL     1     -47.134  35.786  27.307  1.00  0.00     0.010 A 
ATOM      5  C   UNL     1     -46.227  37.994  27.787  1.00  0.00     0.066 A 
ATOM      6  C   UNL     1     -46.047  37.559  29.096  1.00  0.00     0.051 A 
ATOM      7  C   UNL     1     -46.772  37.072  26.881  1.00  0.00    -0.028 A 
ATOM      8  N   UNL     1     -46.376  36.318  29.537  1.00  0.00    -0.262 NA
ATOM      9  H   UNL     1     -45.653  38.188  29.885  1.00  0.00     0.086 H 
ATOM     10  H   UNL     1     -46.915  37.319  25.835  1.00  0.00     0.065 H 
ATOM     11  C   UNL     1     -46.915  35.467  28.640  1.00  0.00     0.034 A 
ATOM     12  H   UNL     1     -47.173  34.488  29.036  1.00  0.00     0.084 H 
BRANCH   5  13
ATOM     13  N   UNL     1     -45.890  39.323  27.378  1.00  0.00    -0.299 N 
ATOM     14  C   UNL     1     -46.699  42.609  26.242  1.00  0.00     0.136 A 
ATOM     15  N   UNL     1     -48.043  42.580  26.210  1.00  0.00    -0.219 NA
ATOM     16  C   UNL     1     -45.996  41.465  26.660  1.00  0.00     0.067 A 
ATOM     17  C   UNL     1     -48.660  41.450  26.588  1.00  0.00     0.120 A 
ATOM     18  C   UNL     1     -46.754  40.349  27.003  1.00  0.00     0.150 A 
ATOM     19  C   UNL     1     -44.615  41.130  26.835  1.00  0.00     0.012 A 
ATOM     20  N   UNL     1     -48.101  40.301  26.992  1.00  0.00    -0.218 NA
ATOM     21  H   UNL     1     -49.745  41.470  26.560  1.00  0.00     0.106 H 
ATOM     22  C   UNL     1     -44.598  39.820  27.279  1.00  0.00     0.018 A 
ATOM     23  H   UNL     1     -43.747  39.193  27.500  1.00  0.00     0.083 H 
BRANCH  14  24
ATOM     24  N   UNL     1     -46.081  43.784  25.833  1.00  0.00    -0.383 N 
ATOM     25  H   UNL     1     -46.499  44.611  26.261  1.00  0.00     0.158 HD
ATOM     26  H   UNL     1     -45.077  43.704  25.938  1.00  0.00     0.158 HD
ENDBRANCH  14  24
BRANCH  19  27
ATOM     27  C   UNL     1     -43.454  42.058  26.586  1.00  0.00     0.085 C 
ATOM     28  C   UNL     1     -43.266  43.184  27.595  1.00  0.00    -0.020 C 
ATOM     29  O   UNL     1     -42.213  41.312  26.613  1.00  0.00    -0.373 OA
ATOM     30  H   UNL     1     -43.569  42.480  25.580  1.00  0.00     0.066 H 
ATOM     31  C   UNL     1     -42.377  42.547  28.634  1.00  0.00    -0.027 C 
ATOM     32  H   UNL     1     -44.188  43.604  28.004  1.00  0.00     0.030 H 
ATOM     33  H   UNL     1     -42.715  44.006  27.120  1.00  0.00     0.030 H 
ATOM     34  C   UNL     1     -41.467  41.693  27.780  1.00  0.00     0.048 C 
ATOM     35  H   UNL     1     -42.971  41.913  29.303  1.00  0.00     0.029 H 
ATOM     36  H   UNL     1     -41.831  43.268  29.246  1.00  0.00     0.029 H 
ATOM     37  H   UNL     1     -41.122  40.797  28.304  1.00  0.00     0.057 H 
ATOM     38  H   UNL     1     -40.593  42.258  27.445  1.00  0.00     0.057 H 
ENDBRANCH  19  27
ENDBRANCH   5  13
ENDBRANCH   1   4
BRANCH   1  39
ATOM     39  O   UNL     1     -46.709  34.170  25.535  1.00  0.00    -0.489 OA
BRANCH  39  40
ATOM     40  C   UNL     1     -46.918  32.907  25.055  1.00  0.00     0.122 A 
ATOM     41  C   UNL     1     -46.166  32.588  23.925  1.00  0.00    -0.019 A 
ATOM     42  C   UNL     1     -47.782  31.949  25.588  1.00  0.00     0.007 A 
ATOM     43  C   UNL     1     -46.279  31.330  23.337  1.00  0.00    -0.049 A 
ATOM     44  H   UNL     1     -45.487  33.323  23.501  1.00  0.00     0.066 H 
ATOM     45  C   UNL     1     -47.912  30.685  25.026  1.00  0.00     0.076 A 
ATOM     46  H   UNL     1     -48.385  32.149  26.465  1.00  0.00     0.069 H 
ATOM     47  C   UNL     1     -47.149  30.376  23.885  1.00  0.00     0.001 A 
ATOM     48  H   UNL     1     -45.684  31.100  22.457  1.00  0.00     0.063 H 
ATOM     49  N   UNL     1     -48.757  29.803  25.591  1.00  0.00    -0.231 NA
ATOM     50  C   UNL     1     -47.295  29.102  23.330  1.00  0.00    -0.049 A 
ATOM     51  C   UNL     1     -48.882  28.568  25.054  1.00  0.00     0.129 A 
ATOM     52  C   UNL     1     -48.170  28.194  23.918  1.00  0.00    -0.019 A 
ATOM     53  H   UNL     1     -46.736  28.811  22.445  1.00  0.00     0.063 H 
ATOM     54  H   UNL     1     -48.295  27.208  23.487  1.00  0.00     0.066 H 
BRANCH  51  55
ATOM     55  N   UNL     1     -49.772  27.660  25.658  1.00  0.00    -0.356 N 
ATOM     56  C   UNL     1     -50.902  27.032  25.036  1.00  0.00     0.021 C 
ATOM     57  C   UNL     1     -49.365  26.442  26.301  1.00  0.00     0.021 C 
ATOM     58  C   UNL     1     -50.819  25.982  26.150  1.00  0.00    -0.018 C 
ATOM     59  H   UNL     1     -50.683  26.657  24.030  1.00  0.00     0.049 H 
ATOM     60  H   UNL     1     -51.801  27.650  25.034  1.00  0.00     0.049 H 
ATOM     61  H   UNL     1     -48.637  25.871  25.714  1.00  0.00     0.049 H 
ATOM     62  H   UNL     1     -49.014  26.586  27.325  1.00  0.00     0.049 H 
ATOM     63  H   UNL     1     -51.452  26.193  27.019  1.00  0.00     0.030 H 
ATOM     64  H   UNL     1     -50.958  24.944  25.839  1.00  0.00     0.030 H 
ENDBRANCH  51  55
ENDBRANCH  39  40
ENDBRANCH   1  39
TORSDOF 7
ENDMDL
MODEL 5
REMARK VINA RESULT:      -9.6      2.360     12.165
REMARK SMILES Nc1ncnc2c1c([C@H]1CCCO1)cn2-c1cncc(COc2ccc3ccc(N4CCC4)nc3c2)c1
REMARK SMILES IDX 21 1 20 4 16 5 17 6 37 7 18 8 19 11 15 13 2 14 3 15 7 16
REMARK SMILES IDX 4 17 6 18 8 19 5 20 14 22 1 24 9 27 10 28 13 29 11 31 12 34
REMARK SMILES IDX 22 39 23 40 24 41 36 42 25 43 35 45 26 47 34 49 27 50 29 51
REMARK SMILES IDX 28 52 30 55 31 56 33 57 32 58
REMARK H PARENT 21 2 21 3 17 9 37 10 19 12 4 21 14 23 1 25 1 26 9 30 10 32
REMARK H PARENT 10 33 11 35 11 36 12 37 12 38 24 44 36 46 25 48 27 53 28 54
REMARK H PARENT 31 59 31 60 33 61 33 62 32 63 32 64
REMARK Flexibility Score: inf
ROOT
ATOM      1  C   UNL     1     -46.629  35.828  27.327  1.00  0.00     0.115 C 
ATOM      2  H   UNL     1     -45.802  35.745  26.610  1.00  0.00     0.076 H 
ATOM      3  H   UNL     1     -46.195  35.564  28.299  1.00  0.00     0.076 H 
ENDROOT
BRANCH   1   4
ATOM      4  C   UNL     1     -47.710  34.878  26.888  1.00  0.00     0.010 A 
ATOM      5  C   UNL     1     -48.443  32.827  25.800  1.00  0.00     0.066 A 
ATOM      6  C   UNL     1     -49.745  33.224  26.087  1.00  0.00     0.051 A 
ATOM      7  C   UNL     1     -47.414  33.690  26.205  1.00  0.00    -0.028 A 
ATOM      8  N   UNL     1     -50.066  34.372  26.736  1.00  0.00    -0.262 NA
ATOM      9  H   UNL     1     -50.618  32.630  25.839  1.00  0.00     0.086 H 
ATOM     10  H   UNL     1     -46.373  33.473  25.992  1.00  0.00     0.065 H 
ATOM     11  C   UNL     1     -49.047  35.165  27.125  1.00  0.00     0.034 A 
ATOM     12  H   UNL     1     -49.346  36.069  27.650  1.00  0.00     0.084 H 
BRANCH   5  13
ATOM     13  N   UNL     1     -48.156  31.592  25.138  1.00  0.00    -0.299 N 
ATOM     14  C   UNL     1     -46.467  29.597  22.706  1.00  0.00     0.136 A 
ATOM     15  N   UNL     1     -45.643  30.487  22.125  1.00  0.00    -0.219 NA
ATOM     16  C   UNL     1     -47.312  30.020  23.749  1.00  0.00     0.067 A 
ATOM     17  C   UNL     1     -45.660  31.751  22.576  1.00  0.00     0.120 A 
ATOM     18  C   UNL     1     -47.250  31.364  24.104  1.00  0.00     0.150 A 
ATOM     19  C   UNL     1     -48.281  29.385  24.590  1.00  0.00     0.012 A 
ATOM     20  N   UNL     1     -46.423  32.270  23.547  1.00  0.00    -0.218 NA
ATOM     21  H   UNL     1     -44.972  32.436  22.090  1.00  0.00     0.106 H 
ATOM     22  C   UNL     1     -48.764  30.377  25.424  1.00  0.00     0.018 A 
ATOM     23  H   UNL     1     -49.529  30.308  26.183  1.00  0.00     0.083 H 
BRANCH  14  24
ATOM     24  N   UNL     1     -46.443  28.298  22.215  1.00  0.00    -0.383 N 
ATOM     25  H   UNL     1     -46.662  27.607  22.934  1.00  0.00     0.158 HD
ATOM     26  H   UNL     1     -47.000  28.235  21.371  1.00  0.00     0.158 HD
ENDBRANCH  14  24
BRANCH  19  27
ATOM     27  C   UNL     1     -48.651  27.924  24.547  1.00  0.00     0.085 C 
ATOM     28  C   UNL     1     -47.673  26.964  25.212  1.00  0.00    -0.020 C 
ATOM     29  O   UNL     1     -49.911  27.716  25.229  1.00  0.00    -0.373 OA
ATOM     30  H   UNL     1     -48.788  27.643  23.496  1.00  0.00     0.066 H 
ATOM     31  C   UNL     1     -48.171  26.923  26.635  1.00  0.00    -0.027 C 
ATOM     32  H   UNL     1     -46.618  27.235  25.123  1.00  0.00     0.030 H 
ATOM     33  H   UNL     1     -47.792  25.966  24.771  1.00  0.00     0.030 H 
ATOM     34  C   UNL     1     -49.669  26.983  26.440  1.00  0.00     0.048 C 
ATOM     35  H   UNL     1     -47.826  27.809  27.182  1.00  0.00     0.029 H 
ATOM     36  H   UNL     1     -47.849  26.037  27.187  1.00  0.00     0.029 H 
ATOM     37  H   UNL     1     -50.180  27.472  27.274  1.00  0.00     0.057 H 
ATOM     38  H   UNL     1     -50.092  25.982  26.311  1.00  0.00     0.057 H 
ENDBRANCH  19  27
ENDBRANCH   5  13
ENDBRANCH   1   4
BRANCH   1  39
ATOM     39  O   UNL     1     -47.064  37.190  27.299  1.00  0.00    -0.489 OA
BRANCH  39  40
ATOM     40  C   UNL     1     -46.138  38.184  27.458  1.00  0.00     0.122 A 
ATOM     41  C   UNL     1     -45.405  38.106  28.640  1.00  0.00    -0.019 A 
ATOM     42  C   UNL     1     -45.876  39.223  26.564  1.00  0.00     0.007 A 
ATOM     43  C   UNL     1     -44.424  39.054  28.924  1.00  0.00    -0.049 A 
ATOM     44  H   UNL     1     -45.597  37.300  29.344  1.00  0.00     0.066 H 
ATOM     45  C   UNL     1     -44.902  40.181  26.818  1.00  0.00     0.076 A 
ATOM     46  H   UNL     1     -46.418  39.326  25.631  1.00  0.00     0.069 H 
ATOM     47  C   UNL     1     -44.169  40.092  28.016  1.00  0.00     0.001 A 
ATOM     48  H   UNL     1     -43.862  38.976  29.852  1.00  0.00     0.063 H 
ATOM     49  N   UNL     1     -44.691  41.154  25.913  1.00  0.00    -0.231 NA
ATOM     50  C   UNL     1     -43.197  41.065  28.258  1.00  0.00    -0.049 A 
ATOM     51  C   UNL     1     -43.739  42.085  26.150  1.00  0.00     0.129 A 
ATOM     52  C   UNL     1     -42.983  42.069  27.318  1.00  0.00    -0.019 A 
ATOM     53  H   UNL     1     -42.605  41.050  29.169  1.00  0.00     0.063 H 
ATOM     54  H   UNL     1     -42.237  42.833  27.505  1.00  0.00     0.066 H 
BRANCH  51  55
ATOM     55  N   UNL     1     -43.534  43.096  25.193  1.00  0.00    -0.356 N 
ATOM     56  C   UNL     1     -42.283  43.713  24.859  1.00  0.00     0.021 C 
ATOM     57  C   UNL     1     -43.926  42.991  23.816  1.00  0.00     0.021 C 
ATOM     58  C   UNL     1     -42.944  44.136  23.542  1.00  0.00    -0.018 C 
ATOM     59  H   UNL     1     -41.464  42.993  24.755  1.00  0.00     0.049 H 
ATOM     60  H   UNL     1     -42.002  44.527  25.530  1.00  0.00     0.049 H 
ATOM     61  H   UNL     1     -43.651  42.031  23.364  1.00  0.00     0.049 H 
ATOM     62  H   UNL     1     -44.980  43.215  23.644  1.00  0.00     0.049 H 
ATOM     63  H   UNL     1     -43.397  45.133  23.562  1.00  0.00     0.030 H 
ATOM     64  H   UNL     1     -42.330  44.031  22.644  1.00  0.00     0.030 H 
ENDBRANCH  51  55
ENDBRANCH  39  40
ENDBRANCH   1  39
TORSDOF 7
ENDMDL
MODEL 6
REMARK VINA RESULT:      -9.3      1.844      2.627
REMARK SMILES Nc1ncnc2c1c([C@H]1CCCO1)cn2-c1cncc(COc2ccc3ccc(N4CCC4)nc3c2)c1
REMARK SMILES IDX 21 1 20 4 16 5 17 6 37 7 18 8 19 11 15 13 2 14 3 15 7 16
REMARK SMILES IDX 4 17 6 18 8 19 5 20 14 22 1 24 9 27 10 28 13 29 11 31 12 34
REMARK SMILES IDX 22 39 23 40 24 41 36 42 25 43 35 45 26 47 34 49 27 50 29 51
REMARK SMILES IDX 28 52 30 55 31 56 33 57 32 58
REMARK H PARENT 21 2 21 3 17 9 37 10 19 12 4 21 14 23 1 25 1 26 9 30 10 32
REMARK H PARENT 10 33 11 35 11 36 12 37 12 38 24 44 36 46 25 48 27 53 28 54
REMARK H PARENT 31 59 31 60 33 61 33 62 32 63 32 64
REMARK Flexibility Score: inf
ROOT
ATOM      1  C   UNL     1     -48.200  36.185  26.982  1.00  0.00     0.115 C 
ATOM      2  H   UNL     1     -48.117  36.165  25.888  1.00  0.00     0.076 H 
ATOM      3  H   UNL     1     -49.208  36.564  27.188  1.00  0.00     0.076 H 
ENDROOT
BRANCH   1   4
ATOM      4  C   UNL     1     -47.115  37.088  27.504  1.00  0.00     0.010 A 
ATOM      5  C   UNL     1     -45.883  39.187  27.481  1.00  0.00     0.066 A 
ATOM      6  C   UNL     1     -45.086  38.650  28.486  1.00  0.00     0.051 A 
ATOM      7  C   UNL     1     -46.908  38.371  26.980  1.00  0.00    -0.028 A 
ATOM      8  N   UNL     1     -45.252  37.408  29.007  1.00  0.00    -0.262 NA
ATOM      9  H   UNL     1     -44.277  39.194  28.961  1.00  0.00     0.086 H 
ATOM     10  H   UNL     1     -47.554  38.700  26.173  1.00  0.00     0.065 H 
ATOM     11  C   UNL     1     -46.261  36.661  28.512  1.00  0.00     0.034 A 
ATOM     12  H   UNL     1     -46.366  35.678  28.963  1.00  0.00     0.084 H 
BRANCH   5  13
ATOM     13  N   UNL     1     -45.684  40.514  26.985  1.00  0.00    -0.299 N 
ATOM     14  C   UNL     1     -43.660  43.334  26.148  1.00  0.00     0.136 A 
ATOM     15  N   UNL     1     -42.421  42.892  26.425  1.00  0.00    -0.219 NA
ATOM     16  C   UNL     1     -44.757  42.476  26.347  1.00  0.00     0.067 A 
ATOM     17  C   UNL     1     -42.285  41.637  26.880  1.00  0.00     0.120 A 
ATOM     18  C   UNL     1     -44.483  41.207  26.847  1.00  0.00     0.150 A 
ATOM     19  C   UNL     1     -46.173  42.579  26.158  1.00  0.00     0.012 A 
ATOM     20  N   UNL     1     -43.249  40.737  27.120  1.00  0.00    -0.218 NA
ATOM     21  H   UNL     1     -41.269  41.313  27.081  1.00  0.00     0.106 H 
ATOM     22  C   UNL     1     -46.695  41.361  26.552  1.00  0.00     0.018 A 
ATOM     23  H   UNL     1     -47.729  41.049  26.587  1.00  0.00     0.083 H 
BRANCH  14  24
ATOM     24  N   UNL     1     -43.778  44.640  25.691  1.00  0.00    -0.383 N 
ATOM     25  H   UNL     1     -43.353  45.314  26.329  1.00  0.00     0.158 HD
ATOM     26  H   UNL     1     -43.470  44.702  24.728  1.00  0.00     0.158 HD
ENDBRANCH  14  24
BRANCH  19  27
ATOM     27  C   UNL     1     -46.896  43.788  25.621  1.00  0.00     0.085 C 
ATOM     28  C   UNL     1     -48.418  43.728  25.652  1.00  0.00    -0.020 C 
ATOM     29  O   UNL     1     -46.546  44.957  26.400  1.00  0.00    -0.373 OA
ATOM     30  H   UNL     1     -46.554  43.955  24.592  1.00  0.00     0.066 H 
ATOM     31  C   UNL     1     -48.740  44.291  27.014  1.00  0.00    -0.027 C 
ATOM     32  H   UNL     1     -48.851  42.741  25.471  1.00  0.00     0.030 H 
ATOM     33  H   UNL     1     -48.821  44.405  24.889  1.00  0.00     0.030 H 
ATOM     34  C   UNL     1     -47.694  45.374  27.155  1.00  0.00     0.048 C 
ATOM     35  H   UNL     1     -48.595  43.525  27.784  1.00  0.00     0.029 H 
ATOM     36  H   UNL     1     -49.761  44.672  27.101  1.00  0.00     0.029 H 
ATOM     37  H   UNL     1     -47.407  45.545  28.196  1.00  0.00     0.057 H 
ATOM     38  H   UNL     1     -48.044  46.320  26.731  1.00  0.00     0.057 H 
ENDBRANCH  19  27
ENDBRANCH   5  13
ENDBRANCH   1   4
BRANCH   1  39
ATOM     39  O   UNL     1     -48.043  34.837  27.432  1.00  0.00    -0.489 OA
BRANCH  39  40
ATOM     40  C   UNL     1     -47.756  33.863  26.516  1.00  0.00     0.122 A 
ATOM     41  C   UNL     1     -46.619  34.109  25.748  1.00  0.00    -0.019 A 
ATOM     42  C   UNL     1     -48.478  32.687  26.303  1.00  0.00     0.007 A 
ATOM     43  C   UNL     1     -46.211  33.192  24.781  1.00  0.00    -0.049 A 
ATOM     44  H   UNL     1     -46.046  35.019  25.906  1.00  0.00     0.066 H 
ATOM     45  C   UNL     1     -48.092  31.753  25.349  1.00  0.00     0.076 A 
ATOM     46  H   UNL     1     -49.367  32.450  26.875  1.00  0.00     0.069 H 
ATOM     47  C   UNL     1     -46.944  32.014  24.580  1.00  0.00     0.001 A 
ATOM     48  H   UNL     1     -45.321  33.402  24.193  1.00  0.00     0.063 H 
ATOM     49  N   UNL     1     -48.826  30.635  25.197  1.00  0.00    -0.231 NA
ATOM     50  C   UNL     1     -46.573  31.067  23.622  1.00  0.00    -0.049 A 
ATOM     51  C   UNL     1     -48.452  29.718  24.276  1.00  0.00     0.129 A 
ATOM     52  C   UNL     1     -47.335  29.912  23.469  1.00  0.00    -0.019 A 
ATOM     53  H   UNL     1     -45.700  31.218  22.995  1.00  0.00     0.063 H 
ATOM     54  H   UNL     1     -47.059  29.178  22.721  1.00  0.00     0.066 H 
BRANCH  51  55
ATOM     55  N   UNL     1     -49.233  28.556  24.129  1.00  0.00    -0.356 N 
ATOM     56  C   UNL     1     -50.664  28.475  24.200  1.00  0.00     0.021 C 
ATOM     57  C   UNL     1     -49.174  27.685  22.989  1.00  0.00     0.021 C 
ATOM     58  C   UNL     1     -50.538  27.151  23.439  1.00  0.00    -0.018 C 
ATOM     59  H   UNL     1     -51.165  29.279  23.651  1.00  0.00     0.049 H 
ATOM     60  H   UNL     1     -51.049  28.401  25.219  1.00  0.00     0.049 H 
ATOM     61  H   UNL     1     -49.184  28.227  22.036  1.00  0.00     0.049 H 
ATOM     62  H   UNL     1     -48.347  26.974  23.025  1.00  0.00     0.049 H 
ATOM     63  H   UNL     1     -50.486  26.264  24.080  1.00  0.00     0.030 H 
ATOM     64  H   UNL     1     -51.270  26.986  22.644  1.00  0.00     0.030 H 
ENDBRANCH  51  55
ENDBRANCH  39  40
ENDBRANCH   1  39
TORSDOF 7
ENDMDL
MODEL 7
REMARK VINA RESULT:      -9.3      2.555      4.531
REMARK SMILES Nc1ncnc2c1c([C@H]1CCCO1)cn2-c1cncc(COc2ccc3ccc(N4CCC4)nc3c2)c1
REMARK SMILES IDX 21 1 20 4 16 5 17 6 37 7 18 8 19 11 15 13 2 14 3 15 7 16
REMARK SMILES IDX 4 17 6 18 8 19 5 20 14 22 1 24 9 27 10 28 13 29 11 31 12 34
REMARK SMILES IDX 22 39 23 40 24 41 36 42 25 43 35 45 26 47 34 49 27 50 29 51
REMARK SMILES IDX 28 52 30 55 31 56 33 57 32 58
REMARK H PARENT 21 2 21 3 17 9 37 10 19 12 4 21 14 23 1 25 1 26 9 30 10 32
REMARK H PARENT 10 33 11 35 11 36 12 37 12 38 24 44 36 46 25 48 27 53 28 54
REMARK H PARENT 31 59 31 60 33 61 33 62 32 63 32 64
REMARK Flexibility Score: inf
ROOT
ATOM      1  C   UNL     1     -45.740  37.346  28.308  1.00  0.00     0.115 C 
ATOM      2  H   UNL     1     -46.421  37.324  29.168  1.00  0.00     0.076 H 
ATOM      3  H   UNL     1     -45.118  36.449  28.410  1.00  0.00     0.076 H 
ENDROOT
BRANCH   1   4
ATOM      4  C   UNL     1     -44.949  38.623  28.385  1.00  0.00     0.010 A 
ATOM      5  C   UNL     1     -44.379  40.840  27.556  1.00  0.00     0.066 A 
ATOM      6  C   UNL     1     -43.433  40.901  28.573  1.00  0.00     0.051 A 
ATOM      7  C   UNL     1     -45.138  39.664  27.465  1.00  0.00    -0.028 A 
ATOM      8  N   UNL     1     -43.217  39.907  29.473  1.00  0.00    -0.262 NA
ATOM      9  H   UNL     1     -42.803  41.765  28.752  1.00  0.00     0.086 H 
ATOM     10  H   UNL     1     -45.873  39.521  26.681  1.00  0.00     0.065 H 
ATOM     11  C   UNL     1     -43.980  38.800  29.363  1.00  0.00     0.034 A 
ATOM     12  H   UNL     1     -43.783  38.034  30.108  1.00  0.00     0.084 H 
BRANCH   5  13
ATOM     13  N   UNL     1     -44.587  41.928  26.650  1.00  0.00    -0.299 N 
ATOM     14  C   UNL     1     -43.460  44.494  24.439  1.00  0.00     0.136 A 
ATOM     15  N   UNL     1     -42.126  44.320  24.451  1.00  0.00    -0.219 NA
ATOM     16  C   UNL     1     -44.272  43.640  25.207  1.00  0.00     0.067 A 
ATOM     17  C   UNL     1     -41.626  43.324  25.198  1.00  0.00     0.120 A 
ATOM     18  C   UNL     1     -43.627  42.662  25.957  1.00  0.00     0.150 A 
ATOM     19  C   UNL     1     -45.680  43.509  25.430  1.00  0.00     0.012 A 
ATOM     20  N   UNL     1     -42.294  42.459  25.973  1.00  0.00    -0.218 NA
ATOM     21  H   UNL     1     -40.548  43.207  25.172  1.00  0.00     0.106 H 
ATOM     22  C   UNL     1     -45.826  42.451  26.308  1.00  0.00     0.018 A 
ATOM     23  H   UNL     1     -46.732  42.055  26.744  1.00  0.00     0.083 H 
BRANCH  14  24
ATOM     24  N   UNL     1     -43.955  45.540  23.670  1.00  0.00    -0.383 N 
ATOM     25  H   UNL     1     -44.304  46.310  24.241  1.00  0.00     0.158 HD
ATOM     26  H   UNL     1     -43.280  45.799  22.960  1.00  0.00     0.158 HD
ENDBRANCH  14  24
BRANCH  19  27
ATOM     27  C   UNL     1     -46.748  44.367  24.798  1.00  0.00     0.085 C 
ATOM     28  C   UNL     1     -48.173  44.130  25.283  1.00  0.00    -0.020 C 
ATOM     29  O   UNL     1     -46.482  45.764  25.071  1.00  0.00    -0.373 OA
ATOM     30  H   UNL     1     -46.698  44.222  23.712  1.00  0.00     0.066 H 
ATOM     31  C   UNL     1     -48.281  45.071  26.456  1.00  0.00    -0.027 C 
ATOM     32  H   UNL     1     -48.417  43.093  25.527  1.00  0.00     0.030 H 
ATOM     33  H   UNL     1     -48.876  44.456  24.506  1.00  0.00     0.030 H 
ATOM     34  C   UNL     1     -47.484  46.261  25.971  1.00  0.00     0.048 C 
ATOM     35  H   UNL     1     -47.802  44.632  27.339  1.00  0.00     0.029 H 
ATOM     36  H   UNL     1     -49.310  45.328  26.720  1.00  0.00     0.029 H 
ATOM     37  H   UNL     1     -47.005  46.806  26.790  1.00  0.00     0.057 H 
ATOM     38  H   UNL     1     -48.115  46.959  25.411  1.00  0.00     0.057 H 
ENDBRANCH  19  27
ENDBRANCH   5  13
ENDBRANCH   1   4
BRANCH   1  39
ATOM     39  O   UNL     1     -46.556  37.287  27.135  1.00  0.00    -0.489 OA
BRANCH  39  40
ATOM     40  C   UNL     1     -47.079  36.083  26.752  1.00  0.00     0.122 A 
ATOM     41  C   UNL     1     -48.376  35.846  27.204  1.00  0.00    -0.019 A 
ATOM     42  C   UNL     1     -46.445  35.115  25.970  1.00  0.00     0.007 A 
ATOM     43  C   UNL     1     -49.028  34.658  26.879  1.00  0.00    -0.049 A 
ATOM     44  H   UNL     1     -48.882  36.592  27.811  1.00  0.00     0.066 H 
ATOM     45  C   UNL     1     -47.072  33.923  25.627  1.00  0.00     0.076 A 
ATOM     46  H   UNL     1     -45.438  35.254  25.594  1.00  0.00     0.069 H 
ATOM     47  C   UNL     1     -48.380  33.696  26.091  1.00  0.00     0.001 A 
ATOM     48  H   UNL     1     -50.040  34.492  27.241  1.00  0.00     0.063 H 
ATOM     49  N   UNL     1     -46.410  33.034  24.865  1.00  0.00    -0.231 NA
ATOM     50  C   UNL     1     -48.994  32.491  25.740  1.00  0.00    -0.049 A 
ATOM     51  C   UNL     1     -47.017  31.875  24.520  1.00  0.00     0.129 A 
ATOM     52  C   UNL     1     -48.305  31.574  24.952  1.00  0.00    -0.019 A 
ATOM     53  H   UNL     1     -50.001  32.259  26.075  1.00  0.00     0.063 H 
ATOM     54  H   UNL     1     -48.772  30.633  24.685  1.00  0.00     0.066 H 
BRANCH  51  55
ATOM     55  N   UNL     1     -46.309  30.956  23.724  1.00  0.00    -0.356 N 
ATOM     56  C   UNL     1     -46.712  29.617  23.403  1.00  0.00     0.021 C 
ATOM     57  C   UNL     1     -45.881  31.220  22.379  1.00  0.00     0.021 C 
ATOM     58  C   UNL     1     -45.740  29.702  22.221  1.00  0.00    -0.018 C 
ATOM     59  H   UNL     1     -47.770  29.543  23.128  1.00  0.00     0.049 H 
ATOM     60  H   UNL     1     -46.458  28.887  24.174  1.00  0.00     0.049 H 
ATOM     61  H   UNL     1     -46.663  31.676  21.762  1.00  0.00     0.049 H 
ATOM     62  H   UNL     1     -44.954  31.794  22.321  1.00  0.00     0.049 H 
ATOM     63  H   UNL     1     -44.736  29.318  22.432  1.00  0.00     0.030 H 
ATOM     64  H   UNL     1     -46.099  29.287  21.277  1.00  0.00     0.030 H 
ENDBRANCH  51  55
ENDBRANCH  39  40
ENDBRANCH   1  39
TORSDOF 7
ENDMDL
