MODEL 1
REMARK VINA RESULT:     -10.6      0.000      0.000
REMARK SMILES Nc1ncnc2c1c([C@@H]1CCCO1)cn2[C@@H]1O[C@H](COc2ccc3ccc(N4CCC4)nc3c2)[C@@H](O)[C@@H]1F
REMARK SMILES IDX 19 1 18 4 16 5 17 6 37 7 35 9 38 10 15 14 2 15 3 16 7 17
REMARK SMILES IDX 4 18 6 19 8 20 5 21 14 23 1 25 9 28 10 29 13 30 11 32 12 35
REMARK SMILES IDX 36 40 20 42 21 43 22 44 34 45 23 46 33 48 24 50 32 52 25 53
REMARK SMILES IDX 27 54 26 55 28 58 29 59 31 60 30 61
REMARK H PARENT 19 2 19 3 16 8 37 11 18 12 35 13 4 22 14 24 1 26 1 27 9 31
REMARK H PARENT 10 33 10 34 11 36 11 37 12 38 12 39 36 41 22 47 34 49 23 51
REMARK H PARENT 25 56 26 57 29 62 29 63 31 64 31 65 30 66 30 67
REMARK Flexibility Score: inf
ROOT
ATOM      1  C   UNL     1     -46.707  35.798  26.456  1.00  0.00     0.117 C 
ATOM      2  H   UNL     1     -45.881  35.521  25.794  1.00  0.00     0.073 H 
ATOM      3  H   UNL     1     -47.151  36.701  26.021  1.00  0.00     0.073 H 
ENDROOT
BRANCH   1   4
ATOM      4  C   UNL     1     -46.250  36.120  27.884  1.00  0.00     0.123 C 
ATOM      5  C   UNL     1     -45.016  37.809  28.928  1.00  0.00     0.169 C 
ATOM      6  O   UNL     1     -44.987  36.815  27.889  1.00  0.00    -0.345 OA
ATOM      7  C   UNL     1     -46.365  37.716  29.626  1.00  0.00     0.173 C 
ATOM      8  H   UNL     1     -44.226  37.541  29.641  1.00  0.00     0.088 H 
ATOM      9  C   UNL     1     -47.246  37.014  28.616  1.00  0.00     0.119 C 
ATOM     10  F   UNL     1     -46.887  38.914  29.975  1.00  0.00    -0.239 F 
ATOM     11  H   UNL     1     -46.284  37.117  30.541  1.00  0.00     0.074 H 
ATOM     12  H   UNL     1     -46.097  35.179  28.428  1.00  0.00     0.067 H 
ATOM     13  H   UNL     1     -47.737  37.727  27.950  1.00  0.00     0.066 H 
BRANCH   5  14
ATOM     14  N   UNL     1     -44.649  39.099  28.365  1.00  0.00    -0.303 N 
ATOM     15  C   UNL     1     -42.743  42.081  28.339  1.00  0.00     0.136 A 
ATOM     16  N   UNL     1     -41.897  41.883  29.366  1.00  0.00    -0.219 NA
ATOM     17  C   UNL     1     -43.684  41.088  28.014  1.00  0.00     0.067 A 
ATOM     18  C   UNL     1     -41.994  40.732  30.051  1.00  0.00     0.120 A 
ATOM     19  C   UNL     1     -43.668  39.947  28.811  1.00  0.00     0.148 A 
ATOM     20  C   UNL     1     -44.719  40.915  27.035  1.00  0.00     0.012 A 
ATOM     21  N   UNL     1     -42.840  39.710  29.844  1.00  0.00    -0.218 NA
ATOM     22  H   UNL     1     -41.299  40.616  30.876  1.00  0.00     0.106 H 
ATOM     23  C   UNL     1     -45.287  39.674  27.289  1.00  0.00     0.015 A 
ATOM     24  H   UNL     1     -46.102  39.165  26.790  1.00  0.00     0.082 H 
BRANCH  15  25
ATOM     25  N   UNL     1     -42.647  43.301  27.677  1.00  0.00    -0.383 N 
ATOM     26  H   UNL     1     -42.239  44.007  28.288  1.00  0.00     0.158 HD
ATOM     27  H   UNL     1     -42.165  43.161  26.796  1.00  0.00     0.158 HD
ENDBRANCH  15  25
BRANCH  20  28
ATOM     28  C   UNL     1     -45.139  41.831  25.929  1.00  0.00     0.085 C 
ATOM     29  C   UNL     1     -44.085  42.003  24.848  1.00  0.00    -0.020 C 
ATOM     30  O   UNL     1     -45.469  43.172  26.358  1.00  0.00    -0.373 OA
ATOM     31  H   UNL     1     -46.058  41.432  25.477  1.00  0.00     0.066 H 
ATOM     32  C   UNL     1     -44.579  43.242  24.145  1.00  0.00    -0.027 C 
ATOM     33  H   UNL     1     -43.097  42.194  25.284  1.00  0.00     0.030 H 
ATOM     34  H   UNL     1     -44.003  41.135  24.187  1.00  0.00     0.030 H 
ATOM     35  C   UNL     1     -45.122  44.073  25.289  1.00  0.00     0.048 C 
ATOM     36  H   UNL     1     -45.391  42.981  23.457  1.00  0.00     0.029 H 
ATOM     37  H   UNL     1     -43.805  43.760  23.572  1.00  0.00     0.029 H 
ATOM     38  H   UNL     1     -44.367  44.770  25.665  1.00  0.00     0.057 H 
ATOM     39  H   UNL     1     -46.007  44.648  24.999  1.00  0.00     0.057 H 
ENDBRANCH  20  28
ENDBRANCH   5  14
BRANCH   9  40
ATOM     40  O   UNL     1     -48.274  36.251  29.246  1.00  0.00    -0.387 OA
ATOM     41  H   UNL     1     -47.937  35.996  30.126  1.00  0.00     0.211 HD
ENDBRANCH   9  40
ENDBRANCH   1   4
BRANCH   1  42
ATOM     42  O   UNL     1     -47.751  34.815  26.447  1.00  0.00    -0.491 OA
BRANCH  42  43
ATOM     43  C   UNL     1     -47.542  33.627  25.801  1.00  0.00     0.121 A 
ATOM     44  C   UNL     1     -46.466  33.633  24.914  1.00  0.00    -0.019 A 
ATOM     45  C   UNL     1     -48.296  32.460  25.940  1.00  0.00     0.007 A 
ATOM     46  C   UNL     1     -46.156  32.493  24.172  1.00  0.00    -0.049 A 
ATOM     47  H   UNL     1     -45.869  34.533  24.796  1.00  0.00     0.066 H 
ATOM     48  C   UNL     1     -48.019  31.315  25.205  1.00  0.00     0.076 A 
ATOM     49  H   UNL     1     -49.147  32.408  26.609  1.00  0.00     0.069 H 
ATOM     50  C   UNL     1     -46.935  31.334  24.310  1.00  0.00     0.001 A 
ATOM     51  H   UNL     1     -45.316  32.520  23.484  1.00  0.00     0.063 H 
ATOM     52  N   UNL     1     -48.800  30.235  25.365  1.00  0.00    -0.231 NA
ATOM     53  C   UNL     1     -46.678  30.172  23.577  1.00  0.00    -0.049 A 
ATOM     54  C   UNL     1     -48.562  29.123  24.636  1.00  0.00     0.129 A 
ATOM     55  C   UNL     1     -47.499  29.059  23.742  1.00  0.00    -0.019 A 
ATOM     56  H   UNL     1     -45.848  30.126  22.877  1.00  0.00     0.063 H 
ATOM     57  H   UNL     1     -47.303  28.153  23.180  1.00  0.00     0.066 H 
BRANCH  54  58
ATOM     58  N   UNL     1     -49.410  28.012  24.808  1.00  0.00    -0.356 N 
ATOM     59  C   UNL     1     -50.830  28.001  24.606  1.00  0.00     0.021 C 
ATOM     60  C   UNL     1     -49.522  27.293  26.049  1.00  0.00     0.021 C 
ATOM     61  C   UNL     1     -50.865  26.776  25.526  1.00  0.00    -0.018 C 
ATOM     62  H   UNL     1     -51.327  28.892  25.002  1.00  0.00     0.049 H 
ATOM     63  H   UNL     1     -51.122  27.822  23.568  1.00  0.00     0.049 H 
ATOM     64  H   UNL     1     -48.742  26.541  26.186  1.00  0.00     0.049 H 
ATOM     65  H   UNL     1     -49.590  27.951  26.922  1.00  0.00     0.049 H 
ATOM     66  H   UNL     1     -50.808  25.815  25.004  1.00  0.00     0.030 H 
ATOM     67  H   UNL     1     -51.681  26.749  26.254  1.00  0.00     0.030 H 
ENDBRANCH  54  58
ENDBRANCH  42  43
ENDBRANCH   1  42
TORSDOF 8
ENDMDL
MODEL 2
REMARK VINA RESULT:     -10.3      1.468      2.208
REMARK SMILES Nc1ncnc2c1c([C@@H]1CCCO1)cn2[C@@H]1O[C@H](COc2ccc3ccc(N4CCC4)nc3c2)[C@@H](O)[C@@H]1F
REMARK SMILES IDX 19 1 18 4 16 5 17 6 37 7 35 9 38 10 15 14 2 15 3 16 7 17
REMARK SMILES IDX 4 18 6 19 8 20 5 21 14 23 1 25 9 28 10 29 13 30 11 32 12 35
REMARK SMILES IDX 36 40 20 42 21 43 22 44 34 45 23 46 33 48 24 50 32 52 25 53
REMARK SMILES IDX 27 54 26 55 28 58 29 59 31 60 30 61
REMARK H PARENT 19 2 19 3 16 8 37 11 18 12 35 13 4 22 14 24 1 26 1 27 9 31
REMARK H PARENT 10 33 10 34 11 36 11 37 12 38 12 39 36 41 22 47 34 49 23 51
REMARK H PARENT 25 56 26 57 29 62 29 63 31 64 31 65 30 66 30 67
REMARK Flexibility Score: inf
ROOT
ATOM      1  C   UNL     1     -45.519  35.479  27.490  1.00  0.00     0.117 C 
ATOM      2  H   UNL     1     -45.296  34.440  27.754  1.00  0.00     0.073 H 
ATOM      3  H   UNL     1     -44.620  35.864  26.997  1.00  0.00     0.073 H 
ENDROOT
BRANCH   1   4
ATOM      4  C   UNL     1     -45.819  36.356  28.713  1.00  0.00     0.123 C 
ATOM      5  C   UNL     1     -45.287  38.521  29.416  1.00  0.00     0.169 C 
ATOM      6  O   UNL     1     -44.734  37.264  28.988  1.00  0.00    -0.345 OA
ATOM      7  C   UNL     1     -46.802  38.384  29.430  1.00  0.00     0.173 C 
ATOM      8  H   UNL     1     -44.934  38.686  30.442  1.00  0.00     0.088 H 
ATOM      9  C   UNL     1     -47.067  37.210  28.512  1.00  0.00     0.119 C 
ATOM     10  F   UNL     1     -47.457  39.488  29.005  1.00  0.00    -0.239 F 
ATOM     11  H   UNL     1     -47.159  38.162  30.443  1.00  0.00     0.074 H 
ATOM     12  H   UNL     1     -45.924  35.711  29.595  1.00  0.00     0.067 H 
ATOM     13  H   UNL     1     -47.192  37.533  27.476  1.00  0.00     0.066 H 
BRANCH   5  14
ATOM     14  N   UNL     1     -44.726  39.590  28.605  1.00  0.00    -0.303 N 
ATOM     15  C   UNL     1     -42.281  42.059  27.928  1.00  0.00     0.136 A 
ATOM     16  N   UNL     1     -41.403  41.867  28.929  1.00  0.00    -0.219 NA
ATOM     17  C   UNL     1     -43.423  41.244  27.842  1.00  0.00     0.067 A 
ATOM     18  C   UNL     1     -41.663  40.896  29.820  1.00  0.00     0.120 A 
ATOM     19  C   UNL     1     -43.561  40.278  28.835  1.00  0.00     0.148 A 
ATOM     20  C   UNL     1     -44.555  41.126  26.967  1.00  0.00     0.012 A 
ATOM     21  N   UNL     1     -42.708  40.054  29.850  1.00  0.00    -0.218 NA
ATOM     22  H   UNL     1     -40.934  40.780  30.615  1.00  0.00     0.106 H 
ATOM     23  C   UNL     1     -45.331  40.093  27.476  1.00  0.00     0.015 A 
ATOM     24  H   UNL     1     -46.271  39.688  27.123  1.00  0.00     0.082 H 
BRANCH  15  25
ATOM     25  N   UNL     1     -42.007  43.100  27.047  1.00  0.00    -0.383 N 
ATOM     26  H   UNL     1     -41.437  42.768  26.270  1.00  0.00     0.158 HD
ATOM     27  H   UNL     1     -42.877  43.547  26.784  1.00  0.00     0.158 HD
ENDBRANCH  15  25
BRANCH  20  28
ATOM     28  C   UNL     1     -44.883  41.906  25.734  1.00  0.00     0.085 C 
ATOM     29  C   UNL     1     -43.859  41.747  24.622  1.00  0.00    -0.020 C 
ATOM     30  O   UNL     1     -45.001  43.332  25.944  1.00  0.00    -0.373 OA
ATOM     31  H   UNL     1     -45.867  41.581  25.367  1.00  0.00     0.066 H 
ATOM     32  C   UNL     1     -44.199  42.918  23.735  1.00  0.00    -0.027 C 
ATOM     33  H   UNL     1     -42.837  41.857  25.005  1.00  0.00     0.030 H 
ATOM     34  H   UNL     1     -43.929  40.783  24.111  1.00  0.00     0.030 H 
ATOM     35  C   UNL     1     -44.572  43.992  24.737  1.00  0.00     0.048 C 
ATOM     36  H   UNL     1     -45.067  42.674  23.111  1.00  0.00     0.029 H 
ATOM     37  H   UNL     1     -43.383  43.219  23.073  1.00  0.00     0.029 H 
ATOM     38  H   UNL     1     -43.711  44.620  24.982  1.00  0.00     0.057 H 
ATOM     39  H   UNL     1     -45.376  44.637  24.371  1.00  0.00     0.057 H 
ENDBRANCH  20  28
ENDBRANCH   5  14
BRANCH   9  40
ATOM     40  O   UNL     1     -48.252  36.505  28.879  1.00  0.00    -0.387 OA
ATOM     41  H   UNL     1     -47.965  35.660  29.275  1.00  0.00     0.211 HD
ENDBRANCH   9  40
ENDBRANCH   1   4
BRANCH   1  42
ATOM     42  O   UNL     1     -46.562  35.568  26.511  1.00  0.00    -0.491 OA
BRANCH  42  43
ATOM     43  C   UNL     1     -47.149  34.420  26.055  1.00  0.00     0.121 A 
ATOM     44  C   UNL     1     -48.485  34.267  26.426  1.00  0.00    -0.019 A 
ATOM     45  C   UNL     1     -46.542  33.421  25.291  1.00  0.00     0.007 A 
ATOM     46  C   UNL     1     -49.197  33.129  26.046  1.00  0.00    -0.049 A 
ATOM     47  H   UNL     1     -48.971  35.036  27.019  1.00  0.00     0.066 H 
ATOM     48  C   UNL     1     -47.222  32.272  24.910  1.00  0.00     0.076 A 
ATOM     49  H   UNL     1     -45.504  33.489  24.986  1.00  0.00     0.069 H 
ATOM     50  C   UNL     1     -48.567  32.126  25.294  1.00  0.00     0.001 A 
ATOM     51  H   UNL     1     -50.236  33.028  26.349  1.00  0.00     0.063 H 
ATOM     52  N   UNL     1     -46.572  31.337  24.199  1.00  0.00    -0.231 NA
ATOM     53  C   UNL     1     -49.231  30.959  24.905  1.00  0.00    -0.049 A 
ATOM     54  C   UNL     1     -47.212  30.200  23.847  1.00  0.00     0.129 A 
ATOM     55  C   UNL     1     -48.546  29.990  24.176  1.00  0.00    -0.019 A 
ATOM     56  H   UNL     1     -50.273  30.796  25.165  1.00  0.00     0.063 H 
ATOM     57  H   UNL     1     -49.056  29.084  23.866  1.00  0.00     0.066 H 
BRANCH  54  58
ATOM     58  N   UNL     1     -46.499  29.226  23.121  1.00  0.00    -0.356 N 
ATOM     59  C   UNL     1     -46.063  27.956  23.625  1.00  0.00     0.021 C 
ATOM     60  C   UNL     1     -45.227  29.483  22.499  1.00  0.00     0.021 C 
ATOM     61  C   UNL     1     -45.020  27.965  22.502  1.00  0.00    -0.018 C 
ATOM     62  H   UNL     1     -45.653  28.013  24.638  1.00  0.00     0.049 H 
ATOM     63  H   UNL     1     -46.824  27.174  23.558  1.00  0.00     0.049 H 
ATOM     64  H   UNL     1     -45.312  29.952  21.516  1.00  0.00     0.049 H 
ATOM     65  H   UNL     1     -44.540  30.042  23.142  1.00  0.00     0.049 H 
ATOM     66  H   UNL     1     -45.340  27.464  21.582  1.00  0.00     0.030 H 
ATOM     67  H   UNL     1     -44.019  27.622  22.776  1.00  0.00     0.030 H 
ENDBRANCH  54  58
ENDBRANCH  42  43
ENDBRANCH   1  42
TORSDOF 8
ENDMDL
MODEL 3
REMARK VINA RESULT:      -9.5      1.888      2.689
REMARK SMILES Nc1ncnc2c1c([C@@H]1CCCO1)cn2[C@@H]1O[C@H](COc2ccc3ccc(N4CCC4)nc3c2)[C@@H](O)[C@@H]1F
REMARK SMILES IDX 19 1 18 4 16 5 17 6 37 7 35 9 38 10 15 14 2 15 3 16 7 17
REMARK SMILES IDX 4 18 6 19 8 20 5 21 14 23 1 25 9 28 10 29 13 30 11 32 12 35
REMARK SMILES IDX 36 40 20 42 21 43 22 44 34 45 23 46 33 48 24 50 32 52 25 53
REMARK SMILES IDX 27 54 26 55 28 58 29 59 31 60 30 61
REMARK H PARENT 19 2 19 3 16 8 37 11 18 12 35 13 4 22 14 24 1 26 1 27 9 31
REMARK H PARENT 10 33 10 34 11 36 11 37 12 38 12 39 36 41 22 47 34 49 23 51
REMARK H PARENT 25 56 26 57 29 62 29 63 31 64 31 65 30 66 30 67
REMARK Flexibility Score: inf
ROOT
ATOM      1  C   UNL     1     -47.854  35.344  28.040  1.00  0.00     0.117 C 
ATOM      2  H   UNL     1     -48.604  35.982  28.517  1.00  0.00     0.073 H 
ATOM      3  H   UNL     1     -48.016  34.337  28.443  1.00  0.00     0.073 H 
ENDROOT
BRANCH   1   4
ATOM      4  C   UNL     1     -46.415  35.770  28.358  1.00  0.00     0.123 C 
ATOM      5  C   UNL     1     -45.088  37.660  27.993  1.00  0.00     0.169 C 
ATOM      6  O   UNL     1     -45.894  36.657  27.349  1.00  0.00    -0.345 OA
ATOM      7  C   UNL     1     -45.089  37.370  29.487  1.00  0.00     0.173 C 
ATOM      8  H   UNL     1     -44.068  37.539  27.607  1.00  0.00     0.088 H 
ATOM      9  C   UNL     1     -46.319  36.512  29.687  1.00  0.00     0.119 C 
ATOM     10  F   UNL     1     -45.140  38.477  30.261  1.00  0.00    -0.239 F 
ATOM     11  H   UNL     1     -44.188  36.815  29.771  1.00  0.00     0.074 H 
ATOM     12  H   UNL     1     -45.774  34.880  28.360  1.00  0.00     0.067 H 
ATOM     13  H   UNL     1     -47.202  37.121  29.893  1.00  0.00     0.066 H 
BRANCH   5  14
ATOM     14  N   UNL     1     -45.540  38.977  27.574  1.00  0.00    -0.303 N 
ATOM     15  C   UNL     1     -48.061  41.405  27.043  1.00  0.00     0.136 A 
ATOM     16  N   UNL     1     -49.155  40.782  27.518  1.00  0.00    -0.219 NA
ATOM     17  C   UNL     1     -46.818  40.749  27.084  1.00  0.00     0.067 A 
ATOM     18  C   UNL     1     -49.012  39.542  28.012  1.00  0.00     0.120 A 
ATOM     19  C   UNL     1     -46.821  39.466  27.624  1.00  0.00     0.148 A 
ATOM     20  C   UNL     1     -45.468  41.050  26.697  1.00  0.00     0.012 A 
ATOM     21  N   UNL     1     -47.890  38.811  28.110  1.00  0.00    -0.218 NA
ATOM     22  H   UNL     1     -49.919  39.073  28.377  1.00  0.00     0.106 H 
ATOM     23  C   UNL     1     -44.715  39.930  27.019  1.00  0.00     0.015 A 
ATOM     24  H   UNL     1     -43.658  39.737  26.885  1.00  0.00     0.082 H 
BRANCH  15  25
ATOM     25  N   UNL     1     -48.249  42.671  26.498  1.00  0.00    -0.383 N 
ATOM     26  H   UNL     1     -47.480  42.908  25.874  1.00  0.00     0.158 HD
ATOM     27  H   UNL     1     -49.172  42.717  26.082  1.00  0.00     0.158 HD
ENDBRANCH  15  25
BRANCH  20  28
ATOM     28  C   UNL     1     -44.915  42.300  26.089  1.00  0.00     0.085 C 
ATOM     29  C   UNL     1     -43.401  42.293  25.953  1.00  0.00    -0.020 C 
ATOM     30  O   UNL     1     -45.227  43.508  26.820  1.00  0.00    -0.373 OA
ATOM     31  H   UNL     1     -45.366  42.433  25.095  1.00  0.00     0.066 H 
ATOM     32  C   UNL     1     -43.114  43.757  25.739  1.00  0.00    -0.027 C 
ATOM     33  H   UNL     1     -42.921  41.953  26.879  1.00  0.00     0.030 H 
ATOM     34  H   UNL     1     -43.048  41.658  25.135  1.00  0.00     0.030 H 
ATOM     35  C   UNL     1     -44.131  44.426  26.641  1.00  0.00     0.048 C 
ATOM     36  H   UNL     1     -43.310  44.026  24.694  1.00  0.00     0.029 H 
ATOM     37  H   UNL     1     -42.085  44.042  25.972  1.00  0.00     0.029 H 
ATOM     38  H   UNL     1     -43.705  44.641  27.626  1.00  0.00     0.057 H 
ATOM     39  H   UNL     1     -44.508  45.361  26.217  1.00  0.00     0.057 H 
ENDBRANCH  20  28
ENDBRANCH   5  14
BRANCH   9  40
ATOM     40  O   UNL     1     -46.166  35.610  30.783  1.00  0.00    -0.387 OA
ATOM     41  H   UNL     1     -46.664  34.803  30.555  1.00  0.00     0.211 HD
ENDBRANCH   9  40
ENDBRANCH   1   4
BRANCH   1  42
ATOM     42  O   UNL     1     -48.070  35.231  26.627  1.00  0.00    -0.491 OA
BRANCH  42  43
ATOM     43  C   UNL     1     -47.812  34.040  26.006  1.00  0.00     0.121 A 
ATOM     44  C   UNL     1     -46.627  34.018  25.270  1.00  0.00    -0.019 A 
ATOM     45  C   UNL     1     -48.611  32.896  26.032  1.00  0.00     0.007 A 
ATOM     46  C   UNL     1     -46.253  32.872  24.568  1.00  0.00    -0.049 A 
ATOM     47  H   UNL     1     -45.993  34.900  25.242  1.00  0.00     0.066 H 
ATOM     48  C   UNL     1     -48.272  31.747  25.331  1.00  0.00     0.076 A 
ATOM     49  H   UNL     1     -49.546  32.867  26.580  1.00  0.00     0.069 H 
ATOM     50  C   UNL     1     -47.077  31.737  24.590  1.00  0.00     0.001 A 
ATOM     51  H   UNL     1     -45.328  32.876  23.999  1.00  0.00     0.063 H 
ATOM     52  N   UNL     1     -49.099  30.689  25.376  1.00  0.00    -0.231 NA
ATOM     53  C   UNL     1     -46.758  30.571  23.888  1.00  0.00    -0.049 A 
ATOM     54  C   UNL     1     -48.797  29.574  24.675  1.00  0.00     0.129 A 
ATOM     55  C   UNL     1     -47.626  29.483  23.932  1.00  0.00    -0.019 A 
ATOM     56  H   UNL     1     -45.843  30.503  23.305  1.00  0.00     0.063 H 
ATOM     57  H   UNL     1     -47.383  28.573  23.394  1.00  0.00     0.066 H 
BRANCH  54  58
ATOM     58  N   UNL     1     -49.693  28.489  24.723  1.00  0.00    -0.356 N 
ATOM     59  C   UNL     1     -49.649  27.406  25.663  1.00  0.00     0.021 C 
ATOM     60  C   UNL     1     -49.908  27.596  23.615  1.00  0.00     0.021 C 
ATOM     61  C   UNL     1     -50.456  26.599  24.640  1.00  0.00    -0.018 C 
ATOM     62  H   UNL     1     -48.634  27.037  25.847  1.00  0.00     0.049 H 
ATOM     63  H   UNL     1     -50.160  27.622  26.604  1.00  0.00     0.049 H 
ATOM     64  H   UNL     1     -50.627  27.977  22.887  1.00  0.00     0.049 H 
ATOM     65  H   UNL     1     -48.978  27.289  23.125  1.00  0.00     0.049 H 
ATOM     66  H   UNL     1     -51.541  26.645  24.780  1.00  0.00     0.030 H 
ATOM     67  H   UNL     1     -50.149  25.559  24.502  1.00  0.00     0.030 H 
ENDBRANCH  54  58
ENDBRANCH  42  43
ENDBRANCH   1  42
TORSDOF 8
ENDMDL
MODEL 4
REMARK VINA RESULT:      -9.5      2.932     11.557
REMARK SMILES Nc1ncnc2c1c([C@@H]1CCCO1)cn2[C@@H]1O[C@H](COc2ccc3ccc(N4CCC4)nc3c2)[C@@H](O)[C@@H]1F
REMARK SMILES IDX 19 1 18 4 16 5 17 6 37 7 35 9 38 10 15 14 2 15 3 16 7 17
REMARK SMILES IDX 4 18 6 19 8 20 5 21 14 23 1 25 9 28 10 29 13 30 11 32 12 35
REMARK SMILES IDX 36 40 20 42 21 43 22 44 34 45 23 46 33 48 24 50 32 52 25 53
REMARK SMILES IDX 27 54 26 55 28 58 29 59 31 60 30 61
REMARK H PARENT 19 2 19 3 16 8 37 11 18 12 35 13 4 22 14 24 1 26 1 27 9 31
REMARK H PARENT 10 33 10 34 11 36 11 37 12 38 12 39 36 41 22 47 34 49 23 51
REMARK H PARENT 25 56 26 57 29 62 29 63 31 64 31 65 30 66 30 67
REMARK Flexibility Score: inf
ROOT
ATOM      1  C   UNL     1     -48.821  34.906  26.594  1.00  0.00     0.117 C 
ATOM      2  H   UNL     1     -49.836  34.652  26.270  1.00  0.00     0.073 H 
ATOM      3  H   UNL     1     -48.401  35.533  25.799  1.00  0.00     0.073 H 
ENDROOT
BRANCH   1   4
ATOM      4  C   UNL     1     -47.923  33.675  26.770  1.00  0.00     0.123 C 
ATOM      5  C   UNL     1     -47.879  31.480  25.965  1.00  0.00     0.169 C 
ATOM      6  O   UNL     1     -48.678  32.452  26.662  1.00  0.00    -0.345 OA
ATOM      7  C   UNL     1     -46.541  32.126  25.637  1.00  0.00     0.173 C 
ATOM      8  H   UNL     1     -47.713  30.651  26.664  1.00  0.00     0.088 H 
ATOM      9  C   UNL     1     -46.828  33.610  25.710  1.00  0.00     0.119 C 
ATOM     10  F   UNL     1     -46.050  31.787  24.424  1.00  0.00    -0.239 F 
ATOM     11  H   UNL     1     -45.787  31.848  26.383  1.00  0.00     0.074 H 
ATOM     12  H   UNL     1     -47.490  33.693  27.778  1.00  0.00     0.067 H 
ATOM     13  H   UNL     1     -47.155  34.001  24.744  1.00  0.00     0.066 H 
BRANCH   5  14
ATOM     14  N   UNL     1     -48.645  30.942  24.852  1.00  0.00    -0.303 N 
ATOM     15  C   UNL     1     -50.049  28.260  23.019  1.00  0.00     0.136 A 
ATOM     16  N   UNL     1     -49.735  27.200  23.786  1.00  0.00    -0.219 NA
ATOM     17  C   UNL     1     -49.660  29.549  23.424  1.00  0.00     0.067 A 
ATOM     18  C   UNL     1     -49.047  27.422  24.918  1.00  0.00     0.120 A 
ATOM     19  C   UNL     1     -48.952  29.626  24.620  1.00  0.00     0.148 A 
ATOM     20  C   UNL     1     -49.792  30.885  22.915  1.00  0.00     0.012 A 
ATOM     21  N   UNL     1     -48.620  28.593  25.415  1.00  0.00    -0.218 NA
ATOM     22  H   UNL     1     -48.808  26.540  25.502  1.00  0.00     0.106 H 
ATOM     23  C   UNL     1     -49.152  31.711  23.828  1.00  0.00     0.015 A 
ATOM     24  H   UNL     1     -49.013  32.785  23.820  1.00  0.00     0.082 H 
BRANCH  15  25
ATOM     25  N   UNL     1     -50.724  27.994  21.832  1.00  0.00    -0.383 N 
ATOM     26  H   UNL     1     -51.529  28.611  21.733  1.00  0.00     0.158 HD
ATOM     27  H   UNL     1     -50.063  28.021  21.063  1.00  0.00     0.158 HD
ENDBRANCH  15  25
BRANCH  20  28
ATOM     28  C   UNL     1     -50.482  31.362  21.676  1.00  0.00     0.085 C 
ATOM     29  C   UNL     1     -51.997  31.265  21.746  1.00  0.00    -0.020 C 
ATOM     30  O   UNL     1     -50.109  30.649  20.474  1.00  0.00    -0.373 OA
ATOM     31  H   UNL     1     -50.195  32.408  21.499  1.00  0.00     0.066 H 
ATOM     32  C   UNL     1     -52.371  31.387  20.291  1.00  0.00    -0.027 C 
ATOM     33  H   UNL     1     -52.315  30.288  22.130  1.00  0.00     0.030 H 
ATOM     34  H   UNL     1     -52.446  32.040  22.375  1.00  0.00     0.030 H 
ATOM     35  C   UNL     1     -51.255  30.630  19.601  1.00  0.00     0.048 C 
ATOM     36  H   UNL     1     -52.349  32.440  19.988  1.00  0.00     0.029 H 
ATOM     37  H   UNL     1     -53.362  30.990  20.058  1.00  0.00     0.029 H 
ATOM     38  H   UNL     1     -51.533  29.585  19.430  1.00  0.00     0.057 H 
ATOM     39  H   UNL     1     -50.985  31.077  18.640  1.00  0.00     0.057 H 
ENDBRANCH  20  28
ENDBRANCH   5  14
BRANCH   9  40
ATOM     40  O   UNL     1     -45.676  34.356  26.097  1.00  0.00    -0.387 OA
ATOM     41  H   UNL     1     -45.137  34.481  25.293  1.00  0.00     0.211 HD
ENDBRANCH   9  40
ENDBRANCH   1   4
BRANCH   1  42
ATOM     42  O   UNL     1     -48.825  35.727  27.769  1.00  0.00    -0.491 OA
BRANCH  42  43
ATOM     43  C   UNL     1     -47.748  36.529  28.026  1.00  0.00     0.121 A 
ATOM     44  C   UNL     1     -47.094  36.250  29.227  1.00  0.00    -0.019 A 
ATOM     45  C   UNL     1     -47.276  37.572  27.227  1.00  0.00     0.007 A 
ATOM     46  C   UNL     1     -45.993  37.008  29.623  1.00  0.00    -0.049 A 
ATOM     47  H   UNL     1     -47.449  35.441  29.859  1.00  0.00     0.066 H 
ATOM     48  C   UNL     1     -46.190  38.352  27.603  1.00  0.00     0.076 A 
ATOM     49  H   UNL     1     -47.755  37.834  26.291  1.00  0.00     0.069 H 
ATOM     50  C   UNL     1     -45.542  38.065  28.817  1.00  0.00     0.001 A 
ATOM     51  H   UNL     1     -45.499  36.777  30.563  1.00  0.00     0.063 H 
ATOM     52  N   UNL     1     -45.803  39.357  26.802  1.00  0.00    -0.231 NA
ATOM     53  C   UNL     1     -44.454  38.866  29.178  1.00  0.00    -0.049 A 
ATOM     54  C   UNL     1     -44.767  40.144  27.168  1.00  0.00     0.129 A 
ATOM     55  C   UNL     1     -44.066  39.912  28.346  1.00  0.00    -0.019 A 
ATOM     56  H   UNL     1     -43.910  38.685  30.100  1.00  0.00     0.063 H 
ATOM     57  H   UNL     1     -43.221  40.536  28.617  1.00  0.00     0.066 H 
BRANCH  54  58
ATOM     58  N   UNL     1     -44.397  41.205  26.319  1.00  0.00    -0.356 N 
ATOM     59  C   UNL     1     -43.390  42.188  26.597  1.00  0.00     0.021 C 
ATOM     60  C   UNL     1     -45.325  42.200  25.853  1.00  0.00     0.021 C 
ATOM     61  C   UNL     1     -44.104  43.081  25.575  1.00  0.00    -0.018 C 
ATOM     62  H   UNL     1     -43.418  42.553  27.629  1.00  0.00     0.049 H 
ATOM     63  H   UNL     1     -42.381  41.870  26.324  1.00  0.00     0.049 H 
ATOM     64  H   UNL     1     -45.895  41.884  24.977  1.00  0.00     0.049 H 
ATOM     65  H   UNL     1     -45.990  42.570  26.641  1.00  0.00     0.049 H 
ATOM     66  H   UNL     1     -43.713  43.004  24.555  1.00  0.00     0.030 H 
ATOM     67  H   UNL     1     -44.204  44.134  25.849  1.00  0.00     0.030 H 
ENDBRANCH  54  58
ENDBRANCH  42  43
ENDBRANCH   1  42
TORSDOF 8
ENDMDL
MODEL 5
REMARK VINA RESULT:      -9.3      2.947     11.951
REMARK SMILES Nc1ncnc2c1c([C@@H]1CCCO1)cn2[C@@H]1O[C@H](COc2ccc3ccc(N4CCC4)nc3c2)[C@@H](O)[C@@H]1F
REMARK SMILES IDX 19 1 18 4 16 5 17 6 37 7 35 9 38 10 15 14 2 15 3 16 7 17
REMARK SMILES IDX 4 18 6 19 8 20 5 21 14 23 1 25 9 28 10 29 13 30 11 32 12 35
REMARK SMILES IDX 36 40 20 42 21 43 22 44 34 45 23 46 33 48 24 50 32 52 25 53
REMARK SMILES IDX 27 54 26 55 28 58 29 59 31 60 30 61
REMARK H PARENT 19 2 19 3 16 8 37 11 18 12 35 13 4 22 14 24 1 26 1 27 9 31
REMARK H PARENT 10 33 10 34 11 36 11 37 12 38 12 39 36 41 22 47 34 49 23 51
REMARK H PARENT 25 56 26 57 29 62 29 63 31 64 31 65 30 66 30 67
REMARK Flexibility Score: inf
ROOT
ATOM      1  C   UNL     1     -46.489  33.367  26.696  1.00  0.00     0.117 C 
ATOM      2  H   UNL     1     -45.534  33.778  26.351  1.00  0.00     0.073 H 
ATOM      3  H   UNL     1     -46.258  32.379  27.109  1.00  0.00     0.073 H 
ENDROOT
BRANCH   1   4
ATOM      4  C   UNL     1     -47.511  33.198  25.566  1.00  0.00     0.123 C 
ATOM      5  C   UNL     1     -48.044  31.550  23.995  1.00  0.00     0.169 C 
ATOM      6  O   UNL     1     -46.986  32.386  24.498  1.00  0.00    -0.345 OA
ATOM      7  C   UNL     1     -49.307  31.874  24.781  1.00  0.00     0.173 C 
ATOM      8  H   UNL     1     -48.195  31.831  22.946  1.00  0.00     0.088 H 
ATOM      9  C   UNL     1     -48.789  32.518  26.048  1.00  0.00     0.119 C 
ATOM     10  F   UNL     1     -50.071  30.794  25.063  1.00  0.00    -0.239 F 
ATOM     11  H   UNL     1     -49.934  32.581  24.224  1.00  0.00     0.074 H 
ATOM     12  H   UNL     1     -47.732  34.183  25.136  1.00  0.00     0.067 H 
ATOM     13  H   UNL     1     -48.601  31.774  26.826  1.00  0.00     0.066 H 
BRANCH   5  14
ATOM     14  N   UNL     1     -47.600  30.165  23.998  1.00  0.00    -0.303 N 
ATOM     15  C   UNL     1     -45.381  27.583  23.031  1.00  0.00     0.136 A 
ATOM     16  N   UNL     1     -44.450  28.259  22.334  1.00  0.00    -0.219 NA
ATOM     17  C   UNL     1     -46.460  28.279  23.602  1.00  0.00     0.067 A 
ATOM     18  C   UNL     1     -44.598  29.587  22.205  1.00  0.00     0.120 A 
ATOM     19  C   UNL     1     -46.483  29.655  23.388  1.00  0.00     0.148 A 
ATOM     20  C   UNL     1     -47.616  27.947  24.387  1.00  0.00     0.012 A 
ATOM     21  N   UNL     1     -45.574  30.366  22.699  1.00  0.00    -0.218 NA
ATOM     22  H   UNL     1     -43.830  30.092  21.630  1.00  0.00     0.106 H 
ATOM     23  C   UNL     1     -48.289  29.141  24.608  1.00  0.00     0.015 A 
ATOM     24  H   UNL     1     -49.209  29.333  25.145  1.00  0.00     0.082 H 
BRANCH  15  25
ATOM     25  N   UNL     1     -45.223  26.203  23.110  1.00  0.00    -0.383 N 
ATOM     26  H   UNL     1     -44.520  25.964  23.808  1.00  0.00     0.158 HD
ATOM     27  H   UNL     1     -46.131  25.774  23.247  1.00  0.00     0.158 HD
ENDBRANCH  15  25
BRANCH  20  28
ATOM     28  C   UNL     1     -48.053  26.616  24.911  1.00  0.00     0.085 C 
ATOM     29  C   UNL     1     -49.557  26.499  25.100  1.00  0.00    -0.020 C 
ATOM     30  O   UNL     1     -47.478  26.260  26.189  1.00  0.00    -0.373 OA
ATOM     31  H   UNL     1     -47.716  25.838  24.210  1.00  0.00     0.066 H 
ATOM     32  C   UNL     1     -49.651  25.292  25.998  1.00  0.00    -0.027 C 
ATOM     33  H   UNL     1     -49.960  27.378  25.618  1.00  0.00     0.030 H 
ATOM     34  H   UNL     1     -50.099  26.381  24.158  1.00  0.00     0.030 H 
ATOM     35  C   UNL     1     -48.442  25.456  26.896  1.00  0.00     0.048 C 
ATOM     36  H   UNL     1     -49.551  24.376  25.403  1.00  0.00     0.029 H 
ATOM     37  H   UNL     1     -50.590  25.230  26.554  1.00  0.00     0.029 H 
ATOM     38  H   UNL     1     -48.705  25.977  27.822  1.00  0.00     0.057 H 
ATOM     39  H   UNL     1     -47.989  24.495  27.159  1.00  0.00     0.057 H 
ENDBRANCH  20  28
ENDBRANCH   5  14
BRANCH   9  40
ATOM     40  O   UNL     1     -49.717  33.460  26.584  1.00  0.00    -0.387 OA
ATOM     41  H   UNL     1     -49.884  34.120  25.884  1.00  0.00     0.211 HD
ENDBRANCH   9  40
ENDBRANCH   1   4
BRANCH   1  42
ATOM     42  O   UNL     1     -47.031  34.122  27.788  1.00  0.00    -0.491 OA
BRANCH  42  43
ATOM     43  C   UNL     1     -47.000  35.488  27.735  1.00  0.00     0.121 A 
ATOM     44  C   UNL     1     -48.248  36.087  27.559  1.00  0.00    -0.019 A 
ATOM     45  C   UNL     1     -45.869  36.300  27.824  1.00  0.00     0.007 A 
ATOM     46  C   UNL     1     -48.358  37.474  27.465  1.00  0.00    -0.049 A 
ATOM     47  H   UNL     1     -49.138  35.468  27.490  1.00  0.00     0.066 H 
ATOM     48  C   UNL     1     -45.946  37.682  27.721  1.00  0.00     0.076 A 
ATOM     49  H   UNL     1     -44.877  35.883  27.951  1.00  0.00     0.069 H 
ATOM     50  C   UNL     1     -47.208  38.276  27.538  1.00  0.00     0.001 A 
ATOM     51  H   UNL     1     -49.338  37.921  27.325  1.00  0.00     0.063 H 
ATOM     52  N   UNL     1     -44.816  38.405  27.787  1.00  0.00    -0.231 NA
ATOM     53  C   UNL     1     -47.262  39.668  27.431  1.00  0.00    -0.049 A 
ATOM     54  C   UNL     1     -44.872  39.748  27.658  1.00  0.00     0.129 A 
ATOM     55  C   UNL     1     -46.084  40.408  27.492  1.00  0.00    -0.019 A 
ATOM     56  H   UNL     1     -48.211  40.181  27.299  1.00  0.00     0.063 H 
ATOM     57  H   UNL     1     -46.119  41.490  27.414  1.00  0.00     0.066 H 
BRANCH  54  58
ATOM     58  N   UNL     1     -43.669  40.479  27.710  1.00  0.00    -0.356 N 
ATOM     59  C   UNL     1     -42.903  40.751  28.892  1.00  0.00     0.021 C 
ATOM     60  C   UNL     1     -43.552  41.837  27.249  1.00  0.00     0.021 C 
ATOM     61  C   UNL     1     -42.298  41.932  28.124  1.00  0.00    -0.018 C 
ATOM     62  H   UNL     1     -43.523  41.027  29.751  1.00  0.00     0.049 H 
ATOM     63  H   UNL     1     -42.207  39.952  29.156  1.00  0.00     0.049 H 
ATOM     64  H   UNL     1     -43.391  41.917  26.172  1.00  0.00     0.049 H 
ATOM     65  H   UNL     1     -44.385  42.472  27.569  1.00  0.00     0.049 H 
ATOM     66  H   UNL     1     -41.364  41.701  27.601  1.00  0.00     0.030 H 
ATOM     67  H   UNL     1     -42.182  42.860  28.689  1.00  0.00     0.030 H 
ENDBRANCH  54  58
ENDBRANCH  42  43
ENDBRANCH   1  42
TORSDOF 8
ENDMDL
MODEL 6
REMARK VINA RESULT:      -9.2      2.396      3.002
REMARK SMILES Nc1ncnc2c1c([C@@H]1CCCO1)cn2[C@@H]1O[C@H](COc2ccc3ccc(N4CCC4)nc3c2)[C@@H](O)[C@@H]1F
REMARK SMILES IDX 19 1 18 4 16 5 17 6 37 7 35 9 38 10 15 14 2 15 3 16 7 17
REMARK SMILES IDX 4 18 6 19 8 20 5 21 14 23 1 25 9 28 10 29 13 30 11 32 12 35
REMARK SMILES IDX 36 40 20 42 21 43 22 44 34 45 23 46 33 48 24 50 32 52 25 53
REMARK SMILES IDX 27 54 26 55 28 58 29 59 31 60 30 61
REMARK H PARENT 19 2 19 3 16 8 37 11 18 12 35 13 4 22 14 24 1 26 1 27 9 31
REMARK H PARENT 10 33 10 34 11 36 11 37 12 38 12 39 36 41 22 47 34 49 23 51
REMARK H PARENT 25 56 26 57 29 62 29 63 31 64 31 65 30 66 30 67
REMARK Flexibility Score: inf
ROOT
ATOM      1  C   UNL     1     -47.756  35.203  27.951  1.00  0.00     0.117 C 
ATOM      2  H   UNL     1     -48.600  35.675  28.463  1.00  0.00     0.073 H 
ATOM      3  H   UNL     1     -47.715  34.174  28.325  1.00  0.00     0.073 H 
ENDROOT
BRANCH   1   4
ATOM      4  C   UNL     1     -46.415  35.885  28.252  1.00  0.00     0.123 C 
ATOM      5  C   UNL     1     -45.492  38.013  27.957  1.00  0.00     0.169 C 
ATOM      6  O   UNL     1     -46.114  36.906  27.280  1.00  0.00    -0.345 OA
ATOM      7  C   UNL     1     -45.380  37.655  29.432  1.00  0.00     0.173 C 
ATOM      8  H   UNL     1     -44.484  38.112  27.537  1.00  0.00     0.088 H 
ATOM      9  C   UNL     1     -46.413  36.565  29.618  1.00  0.00     0.119 C 
ATOM     10  F   UNL     1     -45.614  38.691  30.269  1.00  0.00    -0.239 F 
ATOM     11  H   UNL     1     -44.378  37.272  29.659  1.00  0.00     0.074 H 
ATOM     12  H   UNL     1     -45.614  35.138  28.186  1.00  0.00     0.067 H 
ATOM     13  H   UNL     1     -47.388  36.979  29.882  1.00  0.00     0.066 H 
BRANCH   5  14
ATOM     14  N   UNL     1     -46.206  39.237  27.625  1.00  0.00    -0.303 N 
ATOM     15  C   UNL     1     -46.439  42.404  26.064  1.00  0.00     0.136 A 
ATOM     16  N   UNL     1     -45.265  42.483  25.411  1.00  0.00    -0.219 NA
ATOM     17  C   UNL     1     -46.736  41.257  26.820  1.00  0.00     0.067 A 
ATOM     18  C   UNL     1     -44.413  41.451  25.517  1.00  0.00     0.120 A 
ATOM     19  C   UNL     1     -45.758  40.266  26.837  1.00  0.00     0.148 A 
ATOM     20  C   UNL     1     -47.829  40.797  27.630  1.00  0.00     0.012 A 
ATOM     21  N   UNL     1     -44.575  40.306  26.200  1.00  0.00    -0.218 NA
ATOM     22  H   UNL     1     -43.475  41.558  24.982  1.00  0.00     0.106 H 
ATOM     23  C   UNL     1     -47.458  39.547  28.105  1.00  0.00     0.015 A 
ATOM     24  H   UNL     1     -47.989  38.863  28.755  1.00  0.00     0.082 H 
BRANCH  15  25
ATOM     25  N   UNL     1     -47.281  43.508  25.971  1.00  0.00    -0.383 N 
ATOM     26  H   UNL     1     -48.251  43.209  25.878  1.00  0.00     0.158 HD
ATOM     27  H   UNL     1     -47.094  44.132  26.747  1.00  0.00     0.158 HD
ENDBRANCH  15  25
BRANCH  20  28
ATOM     28  C   UNL     1     -49.134  41.466  27.925  1.00  0.00     0.085 C 
ATOM     29  C   UNL     1     -50.069  41.532  26.728  1.00  0.00    -0.020 C 
ATOM     30  O   UNL     1     -49.014  42.829  28.392  1.00  0.00    -0.373 OA
ATOM     31  H   UNL     1     -49.629  40.918  28.739  1.00  0.00     0.066 H 
ATOM     32  C   UNL     1     -51.053  42.582  27.177  1.00  0.00    -0.027 C 
ATOM     33  H   UNL     1     -49.541  41.879  25.831  1.00  0.00     0.030 H 
ATOM     34  H   UNL     1     -50.538  40.571  26.497  1.00  0.00     0.030 H 
ATOM     35  C   UNL     1     -50.173  43.554  27.936  1.00  0.00     0.048 C 
ATOM     36  H   UNL     1     -51.788  42.137  27.858  1.00  0.00     0.029 H 
ATOM     37  H   UNL     1     -51.598  43.054  26.355  1.00  0.00     0.029 H 
ATOM     38  H   UNL     1     -49.831  44.366  27.289  1.00  0.00     0.057 H 
ATOM     39  H   UNL     1     -50.687  43.992  28.797  1.00  0.00     0.057 H 
ENDBRANCH  20  28
ENDBRANCH   5  14
BRANCH   9  40
ATOM     40  O   UNL     1     -46.047  35.657  30.657  1.00  0.00    -0.387 OA
ATOM     41  H   UNL     1     -45.565  34.922  30.232  1.00  0.00     0.211 HD
ENDBRANCH   9  40
ENDBRANCH   1   4
BRANCH   1  42
ATOM     42  O   UNL     1     -47.983  35.090  26.540  1.00  0.00    -0.491 OA
BRANCH  42  43
ATOM     43  C   UNL     1     -47.744  33.895  25.920  1.00  0.00     0.121 A 
ATOM     44  C   UNL     1     -46.599  33.877  25.123  1.00  0.00    -0.019 A 
ATOM     45  C   UNL     1     -48.527  32.742  26.002  1.00  0.00     0.007 A 
ATOM     46  C   UNL     1     -46.249  32.727  24.415  1.00  0.00    -0.049 A 
ATOM     47  H   UNL     1     -45.978  34.766  25.051  1.00  0.00     0.066 H 
ATOM     48  C   UNL     1     -48.211  31.588  25.298  1.00  0.00     0.076 A 
ATOM     49  H   UNL     1     -49.431  32.709  26.599  1.00  0.00     0.069 H 
ATOM     50  C   UNL     1     -47.058  31.582  24.494  1.00  0.00     0.001 A 
ATOM     51  H   UNL     1     -45.355  32.734  23.798  1.00  0.00     0.063 H 
ATOM     52  N   UNL     1     -49.022  30.522  25.398  1.00  0.00    -0.231 NA
ATOM     53  C   UNL     1     -46.762  30.411  23.790  1.00  0.00    -0.049 A 
ATOM     54  C   UNL     1     -48.744  29.401  24.696  1.00  0.00     0.129 A 
ATOM     55  C   UNL     1     -47.613  29.314  23.893  1.00  0.00    -0.019 A 
ATOM     56  H   UNL     1     -45.878  30.347  23.161  1.00  0.00     0.063 H 
ATOM     57  H   UNL     1     -47.388  28.401  23.353  1.00  0.00     0.066 H 
BRANCH  54  58
ATOM     58  N   UNL     1     -49.623  28.306  24.804  1.00  0.00    -0.356 N 
ATOM     59  C   UNL     1     -49.595  27.306  25.832  1.00  0.00     0.021 C 
ATOM     60  C   UNL     1     -49.784  27.321  23.767  1.00  0.00     0.021 C 
ATOM     61  C   UNL     1     -50.351  26.402  24.852  1.00  0.00    -0.018 C 
ATOM     62  H   UNL     1     -48.582  26.974  26.080  1.00  0.00     0.049 H 
ATOM     63  H   UNL     1     -50.142  27.590  26.733  1.00  0.00     0.049 H 
ATOM     64  H   UNL     1     -50.483  27.626  22.985  1.00  0.00     0.049 H 
ATOM     65  H   UNL     1     -48.832  26.992  23.336  1.00  0.00     0.049 H 
ATOM     66  H   UNL     1     -51.442  26.439  24.951  1.00  0.00     0.030 H 
ATOM     67  H   UNL     1     -50.022  25.360  24.813  1.00  0.00     0.030 H 
ENDBRANCH  54  58
ENDBRANCH  42  43
ENDBRANCH   1  42
TORSDOF 8
ENDMDL
MODEL 7
REMARK VINA RESULT:      -8.7      3.557      6.681
REMARK SMILES Nc1ncnc2c1c([C@@H]1CCCO1)cn2[C@@H]1O[C@H](COc2ccc3ccc(N4CCC4)nc3c2)[C@@H](O)[C@@H]1F
REMARK SMILES IDX 19 1 18 4 16 5 17 6 37 7 35 9 38 10 15 14 2 15 3 16 7 17
REMARK SMILES IDX 4 18 6 19 8 20 5 21 14 23 1 25 9 28 10 29 13 30 11 32 12 35
REMARK SMILES IDX 36 40 20 42 21 43 22 44 34 45 23 46 33 48 24 50 32 52 25 53
REMARK SMILES IDX 27 54 26 55 28 58 29 59 31 60 30 61
REMARK H PARENT 19 2 19 3 16 8 37 11 18 12 35 13 4 22 14 24 1 26 1 27 9 31
REMARK H PARENT 10 33 10 34 11 36 11 37 12 38 12 39 36 41 22 47 34 49 23 51
REMARK H PARENT 25 56 26 57 29 62 29 63 31 64 31 65 30 66 30 67
REMARK Flexibility Score: inf
ROOT
ATOM      1  C   UNL     1     -44.070  40.210  27.816  1.00  0.00     0.117 C 
ATOM      2  H   UNL     1     -43.641  40.173  28.822  1.00  0.00     0.073 H 
ATOM      3  H   UNL     1     -43.962  39.200  27.406  1.00  0.00     0.073 H 
ENDROOT
BRANCH   1   4
ATOM      4  C   UNL     1     -43.343  41.193  26.890  1.00  0.00     0.123 C 
ATOM      5  C   UNL     1     -43.957  42.835  25.343  1.00  0.00     0.169 C 
ATOM      6  O   UNL     1     -44.101  41.446  25.691  1.00  0.00    -0.345 OA
ATOM      7  C   UNL     1     -43.040  43.480  26.371  1.00  0.00     0.173 C 
ATOM      8  H   UNL     1     -43.469  42.863  24.361  1.00  0.00     0.088 H 
ATOM      9  C   UNL     1     -43.112  42.545  27.558  1.00  0.00     0.119 C 
ATOM     10  F   UNL     1     -43.403  44.735  26.721  1.00  0.00    -0.239 F 
ATOM     11  H   UNL     1     -42.013  43.532  25.990  1.00  0.00     0.074 H 
ATOM     12  H   UNL     1     -42.392  40.745  26.575  1.00  0.00     0.067 H 
ATOM     13  H   UNL     1     -43.923  42.821  28.236  1.00  0.00     0.066 H 
BRANCH   5  14
ATOM     14  N   UNL     1     -45.277  43.423  25.171  1.00  0.00    -0.303 N 
ATOM     15  C   UNL     1     -47.491  45.796  23.757  1.00  0.00     0.136 A 
ATOM     16  N   UNL     1     -46.684  46.467  22.916  1.00  0.00    -0.219 NA
ATOM     17  C   UNL     1     -46.969  44.737  24.522  1.00  0.00     0.067 A 
ATOM     18  C   UNL     1     -45.394  46.097  22.847  1.00  0.00     0.120 A 
ATOM     19  C   UNL     1     -45.615  44.466  24.346  1.00  0.00     0.148 A 
ATOM     20  C   UNL     1     -47.471  43.808  25.493  1.00  0.00     0.012 A 
ATOM     21  N   UNL     1     -44.776  45.111  23.516  1.00  0.00    -0.218 NA
ATOM     22  H   UNL     1     -44.777  46.669  22.163  1.00  0.00     0.106 H 
ATOM     23  C   UNL     1     -46.393  43.016  25.865  1.00  0.00     0.015 A 
ATOM     24  H   UNL     1     -46.338  42.203  26.577  1.00  0.00     0.082 H 
BRANCH  15  25
ATOM     25  N   UNL     1     -48.809  46.230  23.839  1.00  0.00    -0.383 N 
ATOM     26  H   UNL     1     -49.441  45.528  23.456  1.00  0.00     0.158 HD
ATOM     27  H   UNL     1     -49.006  46.513  24.792  1.00  0.00     0.158 HD
ENDBRANCH  15  25
BRANCH  20  28
ATOM     28  C   UNL     1     -48.861  43.653  26.025  1.00  0.00     0.085 C 
ATOM     29  C   UNL     1     -49.034  42.451  26.939  1.00  0.00    -0.020 C 
ATOM     30  O   UNL     1     -49.877  43.508  25.006  1.00  0.00    -0.373 OA
ATOM     31  H   UNL     1     -49.126  44.567  26.577  1.00  0.00     0.066 H 
ATOM     32  C   UNL     1     -50.535  42.307  26.960  1.00  0.00    -0.027 C 
ATOM     33  H   UNL     1     -48.582  41.552  26.502  1.00  0.00     0.030 H 
ATOM     34  H   UNL     1     -48.600  42.602  27.932  1.00  0.00     0.030 H 
ATOM     35  C   UNL     1     -50.920  42.670  25.541  1.00  0.00     0.048 C 
ATOM     36  H   UNL     1     -50.969  43.032  27.660  1.00  0.00     0.029 H 
ATOM     37  H   UNL     1     -50.876  41.311  27.253  1.00  0.00     0.029 H 
ATOM     38  H   UNL     1     -50.993  41.778  24.911  1.00  0.00     0.057 H 
ATOM     39  H   UNL     1     -51.873  43.204  25.494  1.00  0.00     0.057 H 
ENDBRANCH  20  28
ENDBRANCH   5  14
BRANCH   9  40
ATOM     40  O   UNL     1     -41.906  42.556  28.319  1.00  0.00    -0.387 OA
ATOM     41  H   UNL     1     -41.685  41.625  28.512  1.00  0.00     0.211 HD
ENDBRANCH   9  40
ENDBRANCH   1   4
BRANCH   1  42
ATOM     42  O   UNL     1     -45.481  40.462  27.847  1.00  0.00    -0.491 OA
BRANCH  42  43
ATOM     43  C   UNL     1     -46.349  39.413  27.725  1.00  0.00     0.121 A 
ATOM     44  C   UNL     1     -47.549  39.572  28.418  1.00  0.00    -0.019 A 
ATOM     45  C   UNL     1     -46.138  38.236  27.005  1.00  0.00     0.007 A 
ATOM     46  C   UNL     1     -48.516  38.567  28.397  1.00  0.00    -0.049 A 
ATOM     47  H   UNL     1     -47.730  40.484  28.982  1.00  0.00     0.066 H 
ATOM     48  C   UNL     1     -47.075  37.212  26.977  1.00  0.00     0.076 A 
ATOM     49  H   UNL     1     -45.218  38.060  26.458  1.00  0.00     0.069 H 
ATOM     50  C   UNL     1     -48.279  37.381  27.684  1.00  0.00     0.001 A 
ATOM     51  H   UNL     1     -49.443  38.709  28.946  1.00  0.00     0.063 H 
ATOM     52  N   UNL     1     -46.798  36.094  26.288  1.00  0.00    -0.231 NA
ATOM     53  C   UNL     1     -49.207  36.336  27.646  1.00  0.00    -0.049 A 
ATOM     54  C   UNL     1     -47.688  35.077  26.276  1.00  0.00     0.129 A 
ATOM     55  C   UNL     1     -48.907  35.177  26.937  1.00  0.00    -0.019 A 
ATOM     56  H   UNL     1     -50.158  36.416  28.166  1.00  0.00     0.063 H 
ATOM     57  H   UNL     1     -49.623  34.363  26.900  1.00  0.00     0.066 H 
BRANCH  54  58
ATOM     58  N   UNL     1     -47.361  33.908  25.563  1.00  0.00    -0.356 N 
ATOM     59  C   UNL     1     -48.035  32.645  25.669  1.00  0.00     0.021 C 
ATOM     60  C   UNL     1     -46.064  33.287  25.620  1.00  0.00     0.021 C 
ATOM     61  C   UNL     1     -46.750  32.012  25.122  1.00  0.00    -0.018 C 
ATOM     62  H   UNL     1     -48.282  32.375  26.701  1.00  0.00     0.049 H 
ATOM     63  H   UNL     1     -48.914  32.563  25.025  1.00  0.00     0.049 H 
ATOM     64  H   UNL     1     -45.339  33.737  24.939  1.00  0.00     0.049 H 
ATOM     65  H   UNL     1     -45.662  33.226  26.637  1.00  0.00     0.049 H 
ATOM     66  H   UNL     1     -46.735  31.886  24.034  1.00  0.00     0.030 H 
ATOM     67  H   UNL     1     -46.434  31.083  25.603  1.00  0.00     0.030 H 
ENDBRANCH  54  58
ENDBRANCH  42  43
ENDBRANCH   1  42
TORSDOF 8
ENDMDL
