MODEL 1
REMARK VINA RESULT:     -10.6      0.000      0.000
REMARK SMILES CN1CCN(c2ccc3ccc(OCc4cncc(-n5cc(-c6ccn(C)n6)c6c(N)ncnc65)c4)cc3n2)CC1
REMARK SMILES IDX 14 1 13 4 12 5 6 6 7 7 39 8 8 9 38 11 9 12 37 14 10 15 11 17
REMARK SMILES IDX 5 20 2 21 3 22 41 23 4 24 40 27 1 34 15 38 16 39 36 40 17 41
REMARK SMILES IDX 19 43 18 45 20 47 21 48 35 49 22 50 29 52 34 53 30 54 33 55
REMARK SMILES IDX 32 56 23 58 24 59 28 60 25 61 26 63 27 65 31 69
REMARK H PARENT 14 2 14 3 7 10 8 13 37 16 10 18 11 19 3 25 3 26 41 28 41 29
REMARK H PARENT 4 30 4 31 40 32 40 33 1 35 1 36 1 37 16 42 36 44 18 46 21 51
REMARK H PARENT 33 57 24 62 25 64 27 66 27 67 27 68 31 70 31 71
REMARK Flexibility Score: inf
ROOT
ATOM      1  C   UNL     1     -49.245  35.445  26.984  1.00  0.00     0.115 C 
ATOM      2  H   UNL     1     -50.269  35.050  26.996  1.00  0.00     0.076 H 
ATOM      3  H   UNL     1     -49.281  36.371  26.399  1.00  0.00     0.076 H 
ENDROOT
BRANCH   1   4
ATOM      4  O   UNL     1     -48.828  35.817  28.300  1.00  0.00    -0.489 OA
BRANCH   4   5
ATOM      5  C   UNL     1     -47.712  36.598  28.436  1.00  0.00     0.122 A 
ATOM      6  C   UNL     1     -45.629  40.569  26.784  1.00  0.00     0.129 A 
ATOM      7  C   UNL     1     -44.523  40.364  27.605  1.00  0.00    -0.019 A 
ATOM      8  N   UNL     1     -46.652  39.685  26.784  1.00  0.00    -0.231 NA
ATOM      9  C   UNL     1     -44.479  39.261  28.453  1.00  0.00    -0.049 A 
ATOM     10  H   UNL     1     -43.678  41.044  27.576  1.00  0.00     0.066 H 
ATOM     11  C   UNL     1     -46.621  38.615  27.601  1.00  0.00     0.076 A 
ATOM     12  C   UNL     1     -45.544  38.361  28.467  1.00  0.00     0.001 A 
ATOM     13  H   UNL     1     -43.610  39.109  29.087  1.00  0.00     0.063 H 
ATOM     14  C   UNL     1     -47.683  37.721  27.601  1.00  0.00     0.007 A 
ATOM     15  C   UNL     1     -45.554  37.231  29.300  1.00  0.00    -0.049 A 
ATOM     16  H   UNL     1     -48.518  37.910  26.930  1.00  0.00     0.069 H 
ATOM     17  C   UNL     1     -46.638  36.351  29.283  1.00  0.00    -0.019 A 
ATOM     18  H   UNL     1     -44.717  37.027  29.962  1.00  0.00     0.063 H 
ATOM     19  H   UNL     1     -46.596  35.479  29.928  1.00  0.00     0.066 H 
BRANCH   6  20
ATOM     20  N   UNL     1     -45.682  41.658  25.918  1.00  0.00    -0.354 N 
ATOM     21  N   UNL     1     -45.462  44.466  24.904  1.00  0.00    -0.303 NA
ATOM     22  C   UNL     1     -46.734  43.731  25.100  1.00  0.00     0.016 C 
ATOM     23  C   UNL     1     -44.313  43.700  25.427  1.00  0.00     0.016 C 
ATOM     24  C   UNL     1     -46.694  42.680  26.232  1.00  0.00     0.032 C 
ATOM     25  H   UNL     1     -47.018  43.206  24.177  1.00  0.00     0.045 H 
ATOM     26  H   UNL     1     -47.525  44.459  25.310  1.00  0.00     0.045 H 
ATOM     27  C   UNL     1     -44.424  42.158  25.336  1.00  0.00     0.032 C 
ATOM     28  H   UNL     1     -44.210  43.966  26.487  1.00  0.00     0.045 H 
ATOM     29  H   UNL     1     -43.376  44.029  24.958  1.00  0.00     0.045 H 
ATOM     30  H   UNL     1     -46.474  43.170  27.190  1.00  0.00     0.051 H 
ATOM     31  H   UNL     1     -47.689  42.221  26.303  1.00  0.00     0.051 H 
ATOM     32  H   UNL     1     -44.382  41.849  24.285  1.00  0.00     0.051 H 
ATOM     33  H   UNL     1     -43.544  41.739  25.838  1.00  0.00     0.051 H 
BRANCH  21  34
ATOM     34  C   UNL     1     -45.285  44.824  23.501  1.00  0.00    -0.013 C 
ATOM     35  H   UNL     1     -45.867  45.709  23.220  1.00  0.00     0.039 H 
ATOM     36  H   UNL     1     -45.586  43.994  22.852  1.00  0.00     0.039 H 
ATOM     37  H   UNL     1     -44.229  45.021  23.285  1.00  0.00     0.039 H 
ENDBRANCH  21  34
ENDBRANCH   6  20
ENDBRANCH   4   5
ENDBRANCH   1   4
BRANCH   1  38
ATOM     38  C   UNL     1     -48.286  34.510  26.293  1.00  0.00     0.010 A 
ATOM     39  C   UNL     1     -46.975  34.907  26.068  1.00  0.00     0.034 A 
ATOM     40  C   UNL     1     -48.641  33.210  25.907  1.00  0.00    -0.028 A 
ATOM     41  N   UNL     1     -46.045  34.131  25.479  1.00  0.00    -0.262 NA
ATOM     42  H   UNL     1     -46.621  35.892  26.360  1.00  0.00     0.084 H 
ATOM     43  C   UNL     1     -47.705  32.365  25.290  1.00  0.00     0.066 A 
ATOM     44  H   UNL     1     -49.657  32.884  26.111  1.00  0.00     0.065 H 
ATOM     45  C   UNL     1     -46.429  32.882  25.102  1.00  0.00     0.051 A 
ATOM     46  H   UNL     1     -45.625  32.334  24.623  1.00  0.00     0.086 H 
BRANCH  43  47
ATOM     47  N   UNL     1     -48.061  31.041  24.876  1.00  0.00    -0.299 N 
ATOM     48  C   UNL     1     -48.225  29.963  25.725  1.00  0.00     0.021 A 
ATOM     49  C   UNL     1     -48.311  30.580  23.579  1.00  0.00     0.150 A 
ATOM     50  C   UNL     1     -48.548  28.841  24.993  1.00  0.00     0.033 A 
ATOM     51  H   UNL     1     -48.110  30.047  26.797  1.00  0.00     0.083 H 
ATOM     52  C   UNL     1     -48.646  29.225  23.633  1.00  0.00     0.071 A 
ATOM     53  N   UNL     1     -48.239  31.310  22.448  1.00  0.00    -0.218 NA
ATOM     54  C   UNL     1     -48.987  28.612  22.414  1.00  0.00     0.137 A 
ATOM     55  C   UNL     1     -48.548  30.609  21.352  1.00  0.00     0.120 A 
ATOM     56  N   UNL     1     -48.924  29.325  21.276  1.00  0.00    -0.219 NA
ATOM     57  H   UNL     1     -48.497  31.146  20.409  1.00  0.00     0.106 H 
BRANCH  50  58
ATOM     58  C   UNL     1     -48.760  27.511  25.556  1.00  0.00     0.095 A 
ATOM     59  C   UNL     1     -50.007  26.868  25.692  1.00  0.00    -0.016 A 
ATOM     60  N   UNL     1     -47.747  26.730  25.947  1.00  0.00    -0.173 NA
ATOM     61  C   UNL     1     -49.710  25.634  26.224  1.00  0.00     0.025 A 
ATOM     62  H   UNL     1     -50.986  27.245  25.434  1.00  0.00     0.066 H 
ATOM     63  N   UNL     1     -48.353  25.599  26.352  1.00  0.00    -0.275 N 
ATOM     64  H   UNL     1     -50.336  24.797  26.501  1.00  0.00     0.084 H 
BRANCH  63  65
ATOM     65  C   UNL     1     -47.553  24.506  26.848  1.00  0.00     0.030 C 
ATOM     66  H   UNL     1     -47.998  23.558  26.535  1.00  0.00     0.048 H 
ATOM     67  H   UNL     1     -47.528  24.564  27.938  1.00  0.00     0.048 H 
ATOM     68  H   UNL     1     -46.547  24.599  26.434  1.00  0.00     0.048 H 
ENDBRANCH  63  65
ENDBRANCH  50  58
BRANCH  54  69
ATOM     69  N   UNL     1     -49.433  27.302  22.286  1.00  0.00    -0.383 N 
ATOM     70  H   UNL     1     -50.328  27.219  21.817  1.00  0.00     0.158 HD
ATOM     71  H   UNL     1     -48.692  26.727  21.899  1.00  0.00     0.158 HD
ENDBRANCH  54  69
ENDBRANCH  43  47
ENDBRANCH   1  38
TORSDOF 9
ENDMDL
MODEL 2
REMARK VINA RESULT:     -10.5      1.870      2.853
REMARK SMILES CN1CCN(c2ccc3ccc(OCc4cncc(-n5cc(-c6ccn(C)n6)c6c(N)ncnc65)c4)cc3n2)CC1
REMARK SMILES IDX 14 1 13 4 12 5 6 6 7 7 39 8 8 9 38 11 9 12 37 14 10 15 11 17
REMARK SMILES IDX 5 20 2 21 3 22 41 23 4 24 40 27 1 34 15 38 16 39 36 40 17 41
REMARK SMILES IDX 19 43 18 45 20 47 21 48 35 49 22 50 29 52 34 53 30 54 33 55
REMARK SMILES IDX 32 56 23 58 24 59 28 60 25 61 26 63 27 65 31 69
REMARK H PARENT 14 2 14 3 7 10 8 13 37 16 10 18 11 19 3 25 3 26 41 28 41 29
REMARK H PARENT 4 30 4 31 40 32 40 33 1 35 1 36 1 37 16 42 36 44 18 46 21 51
REMARK H PARENT 33 57 24 62 25 64 27 66 27 67 27 68 31 70 31 71
REMARK Flexibility Score: inf
ROOT
ATOM      1  C   UNL     1     -45.505  36.066  28.236  1.00  0.00     0.115 C 
ATOM      2  H   UNL     1     -44.818  36.398  27.446  1.00  0.00     0.076 H 
ATOM      3  H   UNL     1     -44.978  35.279  28.788  1.00  0.00     0.076 H 
ENDROOT
BRANCH   1   4
ATOM      4  O   UNL     1     -45.753  37.118  29.171  1.00  0.00    -0.489 OA
BRANCH   4   5
ATOM      5  C   UNL     1     -44.862  38.156  29.238  1.00  0.00     0.122 A 
ATOM      6  C   UNL     1     -43.389  42.055  26.900  1.00  0.00     0.129 A 
ATOM      7  C   UNL     1     -42.423  42.307  27.871  1.00  0.00    -0.019 A 
ATOM      8  N   UNL     1     -44.192  40.971  27.001  1.00  0.00    -0.231 NA
ATOM      9  C   UNL     1     -42.301  41.458  28.969  1.00  0.00    -0.049 A 
ATOM     10  H   UNL     1     -41.744  43.147  27.773  1.00  0.00     0.066 H 
ATOM     11  C   UNL     1     -44.082  40.145  28.059  1.00  0.00     0.076 A 
ATOM     12  C   UNL     1     -43.143  40.353  29.081  1.00  0.00     0.001 A 
ATOM     13  H   UNL     1     -41.542  41.663  29.719  1.00  0.00     0.063 H 
ATOM     14  C   UNL     1     -44.921  39.043  28.157  1.00  0.00     0.007 A 
ATOM     15  C   UNL     1     -43.064  39.464  30.165  1.00  0.00    -0.049 A 
ATOM     16  H   UNL     1     -45.648  38.874  27.366  1.00  0.00     0.069 H 
ATOM     17  C   UNL     1     -43.923  38.366  30.241  1.00  0.00    -0.019 A 
ATOM     18  H   UNL     1     -42.330  39.617  30.952  1.00  0.00     0.063 H 
ATOM     19  H   UNL     1     -43.815  37.692  31.085  1.00  0.00     0.066 H 
BRANCH   6  20
ATOM     20  N   UNL     1     -43.514  42.883  25.788  1.00  0.00    -0.354 N 
ATOM     21  N   UNL     1     -44.737  44.719  23.766  1.00  0.00    -0.303 NA
ATOM     22  C   UNL     1     -44.294  43.332  23.494  1.00  0.00     0.016 C 
ATOM     23  C   UNL     1     -44.653  45.039  25.205  1.00  0.00     0.016 C 
ATOM     24  C   UNL     1     -44.385  42.385  24.711  1.00  0.00     0.032 C 
ATOM     25  H   UNL     1     -43.249  43.324  23.152  1.00  0.00     0.045 H 
ATOM     26  H   UNL     1     -44.901  42.929  22.675  1.00  0.00     0.045 H 
ATOM     27  C   UNL     1     -43.516  44.342  25.992  1.00  0.00     0.032 C 
ATOM     28  H   UNL     1     -45.607  44.731  25.654  1.00  0.00     0.045 H 
ATOM     29  H   UNL     1     -44.599  46.123  25.364  1.00  0.00     0.045 H 
ATOM     30  H   UNL     1     -45.427  42.312  25.050  1.00  0.00     0.051 H 
ATOM     31  H   UNL     1     -44.060  41.386  24.389  1.00  0.00     0.051 H 
ATOM     32  H   UNL     1     -42.548  44.738  25.664  1.00  0.00     0.051 H 
ATOM     33  H   UNL     1     -43.641  44.609  27.048  1.00  0.00     0.051 H 
BRANCH  21  34
ATOM     34  C   UNL     1     -43.984  45.669  22.952  1.00  0.00    -0.013 C 
ATOM     35  H   UNL     1     -42.903  45.503  23.014  1.00  0.00     0.039 H 
ATOM     36  H   UNL     1     -44.194  46.696  23.268  1.00  0.00     0.039 H 
ATOM     37  H   UNL     1     -44.286  45.598  21.901  1.00  0.00     0.039 H 
ENDBRANCH  21  34
ENDBRANCH   6  20
ENDBRANCH   4   5
ENDBRANCH   1   4
BRANCH   1  38
ATOM     38  C   UNL     1     -46.763  35.457  27.671  1.00  0.00     0.010 A 
ATOM     39  C   UNL     1     -47.971  36.130  27.790  1.00  0.00     0.034 A 
ATOM     40  C   UNL     1     -46.767  34.244  26.967  1.00  0.00    -0.028 A 
ATOM     41  N   UNL     1     -49.138  35.673  27.297  1.00  0.00    -0.262 NA
ATOM     42  H   UNL     1     -48.041  37.086  28.302  1.00  0.00     0.084 H 
ATOM     43  C   UNL     1     -47.960  33.730  26.436  1.00  0.00     0.066 A 
ATOM     44  H   UNL     1     -45.818  33.730  26.844  1.00  0.00     0.065 H 
ATOM     45  C   UNL     1     -49.108  34.487  26.634  1.00  0.00     0.051 A 
ATOM     46  H   UNL     1     -50.091  34.187  26.288  1.00  0.00     0.086 H 
BRANCH  43  47
ATOM     47  N   UNL     1     -47.980  32.483  25.730  1.00  0.00    -0.299 N 
ATOM     48  C   UNL     1     -48.786  31.406  26.048  1.00  0.00     0.021 A 
ATOM     49  C   UNL     1     -47.224  32.110  24.613  1.00  0.00     0.150 A 
ATOM     50  C   UNL     1     -48.537  30.368  25.177  1.00  0.00     0.033 A 
ATOM     51  H   UNL     1     -49.492  31.432  26.867  1.00  0.00     0.083 H 
ATOM     52  C   UNL     1     -47.577  30.812  24.236  1.00  0.00     0.071 A 
ATOM     53  N   UNL     1     -46.296  32.866  23.993  1.00  0.00    -0.218 NA
ATOM     54  C   UNL     1     -46.949  30.299  23.087  1.00  0.00     0.137 A 
ATOM     55  C   UNL     1     -45.742  32.256  22.940  1.00  0.00     0.120 A 
ATOM     56  N   UNL     1     -46.023  31.039  22.454  1.00  0.00    -0.219 NA
ATOM     57  H   UNL     1     -44.979  32.817  22.408  1.00  0.00     0.106 H 
BRANCH  50  58
ATOM     58  C   UNL     1     -49.180  29.058  25.236  1.00  0.00     0.095 A 
ATOM     59  C   UNL     1     -48.750  27.969  26.022  1.00  0.00    -0.016 A 
ATOM     60  N   UNL     1     -50.310  28.785  24.575  1.00  0.00    -0.173 NA
ATOM     61  C   UNL     1     -49.677  26.979  25.788  1.00  0.00     0.025 A 
ATOM     62  H   UNL     1     -47.890  27.913  26.675  1.00  0.00     0.066 H 
ATOM     63  N   UNL     1     -50.587  27.516  24.925  1.00  0.00    -0.275 N 
ATOM     64  H   UNL     1     -49.767  25.970  26.165  1.00  0.00     0.084 H 
BRANCH  63  65
ATOM     65  C   UNL     1     -51.764  26.875  24.392  1.00  0.00     0.030 C 
ATOM     66  H   UNL     1     -52.503  27.635  24.127  1.00  0.00     0.048 H 
ATOM     67  H   UNL     1     -52.171  26.210  25.157  1.00  0.00     0.048 H 
ATOM     68  H   UNL     1     -51.476  26.309  23.504  1.00  0.00     0.048 H 
ENDBRANCH  63  65
ENDBRANCH  50  58
BRANCH  54  69
ATOM     69  N   UNL     1     -47.240  29.068  22.511  1.00  0.00    -0.383 N 
ATOM     70  H   UNL     1     -46.977  28.276  23.086  1.00  0.00     0.158 HD
ATOM     71  H   UNL     1     -48.201  29.062  22.187  1.00  0.00     0.158 HD
ENDBRANCH  54  69
ENDBRANCH  43  47
ENDBRANCH   1  38
TORSDOF 9
ENDMDL
MODEL 3
REMARK VINA RESULT:     -10.1      1.776      2.296
REMARK SMILES CN1CCN(c2ccc3ccc(OCc4cncc(-n5cc(-c6ccn(C)n6)c6c(N)ncnc65)c4)cc3n2)CC1
REMARK SMILES IDX 14 1 13 4 12 5 6 6 7 7 39 8 8 9 38 11 9 12 37 14 10 15 11 17
REMARK SMILES IDX 5 20 2 21 3 22 41 23 4 24 40 27 1 34 15 38 16 39 36 40 17 41
REMARK SMILES IDX 19 43 18 45 20 47 21 48 35 49 22 50 29 52 34 53 30 54 33 55
REMARK SMILES IDX 32 56 23 58 24 59 28 60 25 61 26 63 27 65 31 69
REMARK H PARENT 14 2 14 3 7 10 8 13 37 16 10 18 11 19 3 25 3 26 41 28 41 29
REMARK H PARENT 4 30 4 31 40 32 40 33 1 35 1 36 1 37 16 42 36 44 18 46 21 51
REMARK H PARENT 33 57 24 62 25 64 27 66 27 67 27 68 31 70 31 71
REMARK Flexibility Score: inf
ROOT
ATOM      1  C   UNL     1     -46.805  35.742  27.044  1.00  0.00     0.115 C 
ATOM      2  H   UNL     1     -46.559  36.436  26.229  1.00  0.00     0.076 H 
ATOM      3  H   UNL     1     -45.930  35.094  27.169  1.00  0.00     0.076 H 
ENDROOT
BRANCH   1   4
ATOM      4  O   UNL     1     -46.966  36.444  28.279  1.00  0.00    -0.489 OA
BRANCH   4   5
ATOM      5  C   UNL     1     -45.997  37.334  28.655  1.00  0.00     0.122 A 
ATOM      6  C   UNL     1     -43.795  41.353  27.298  1.00  0.00     0.129 A 
ATOM      7  C   UNL     1     -42.971  41.314  28.420  1.00  0.00    -0.019 A 
ATOM      8  N   UNL     1     -44.709  40.378  27.088  1.00  0.00    -0.231 NA
ATOM      9  C   UNL     1     -43.105  40.284  29.348  1.00  0.00    -0.049 A 
ATOM     10  H   UNL     1     -42.204  42.066  28.570  1.00  0.00     0.066 H 
ATOM     11  C   UNL     1     -44.848  39.379  27.980  1.00  0.00     0.076 A 
ATOM     12  C   UNL     1     -44.062  39.292  29.140  1.00  0.00     0.001 A 
ATOM     13  H   UNL     1     -42.455  40.262  30.218  1.00  0.00     0.063 H 
ATOM     14  C   UNL     1     -45.798  38.391  27.760  1.00  0.00     0.007 A 
ATOM     15  C   UNL     1     -44.241  38.229  30.041  1.00  0.00    -0.049 A 
ATOM     16  H   UNL     1     -46.407  38.451  26.860  1.00  0.00     0.069 H 
ATOM     17  C   UNL     1     -45.208  37.252  29.797  1.00  0.00    -0.019 A 
ATOM     18  H   UNL     1     -43.626  38.154  30.934  1.00  0.00     0.063 H 
ATOM     19  H   UNL     1     -45.300  36.438  30.508  1.00  0.00     0.066 H 
BRANCH   6  20
ATOM     20  N   UNL     1     -43.663  42.366  26.352  1.00  0.00    -0.354 N 
ATOM     21  N   UNL     1     -42.997  43.755  23.786  1.00  0.00    -0.303 NA
ATOM     22  C   UNL     1     -42.306  43.980  25.077  1.00  0.00     0.016 C 
ATOM     23  C   UNL     1     -43.956  42.636  23.877  1.00  0.00     0.016 C 
ATOM     24  C   UNL     1     -42.283  42.748  26.010  1.00  0.00     0.032 C 
ATOM     25  H   UNL     1     -42.786  44.799  25.631  1.00  0.00     0.045 H 
ATOM     26  H   UNL     1     -41.277  44.295  24.868  1.00  0.00     0.045 H 
ATOM     27  C   UNL     1     -44.640  42.435  25.252  1.00  0.00     0.032 C 
ATOM     28  H   UNL     1     -43.396  41.720  23.645  1.00  0.00     0.045 H 
ATOM     29  H   UNL     1     -44.721  42.710  23.093  1.00  0.00     0.045 H 
ATOM     30  H   UNL     1     -41.755  41.919  25.521  1.00  0.00     0.051 H 
ATOM     31  H   UNL     1     -41.727  43.020  26.917  1.00  0.00     0.051 H 
ATOM     32  H   UNL     1     -45.322  43.272  25.447  1.00  0.00     0.051 H 
ATOM     33  H   UNL     1     -45.247  41.524  25.183  1.00  0.00     0.051 H 
BRANCH  21  34
ATOM     34  C   UNL     1     -43.636  44.984  23.324  1.00  0.00    -0.013 C 
ATOM     35  H   UNL     1     -44.651  44.810  22.950  1.00  0.00     0.039 H 
ATOM     36  H   UNL     1     -43.048  45.445  22.523  1.00  0.00     0.039 H 
ATOM     37  H   UNL     1     -43.687  45.719  24.136  1.00  0.00     0.039 H 
ENDBRANCH  21  34
ENDBRANCH   6  20
ENDBRANCH   4   5
ENDBRANCH   1   4
BRANCH   1  38
ATOM     38  C   UNL     1     -47.976  34.858  26.699  1.00  0.00     0.010 A 
ATOM     39  C   UNL     1     -49.265  35.263  27.017  1.00  0.00     0.034 A 
ATOM     40  C   UNL     1     -47.833  33.647  26.008  1.00  0.00    -0.028 A 
ATOM     41  N   UNL     1     -50.370  34.550  26.727  1.00  0.00    -0.262 NA
ATOM     42  H   UNL     1     -49.456  36.201  27.532  1.00  0.00     0.084 H 
ATOM     43  C   UNL     1     -48.957  32.870  25.684  1.00  0.00     0.066 A 
ATOM     44  H   UNL     1     -46.829  33.342  25.728  1.00  0.00     0.065 H 
ATOM     45  C   UNL     1     -50.193  33.372  26.071  1.00  0.00     0.051 A 
ATOM     46  H   UNL     1     -51.131  32.857  25.894  1.00  0.00     0.086 H 
BRANCH  43  47
ATOM     47  N   UNL     1     -48.822  31.622  24.994  1.00  0.00    -0.299 N 
ATOM     48  C   UNL     1     -48.134  30.523  25.473  1.00  0.00     0.021 A 
ATOM     49  C   UNL     1     -49.339  31.266  23.744  1.00  0.00     0.150 A 
ATOM     50  C   UNL     1     -48.190  29.502  24.549  1.00  0.00     0.033 A 
ATOM     51  H   UNL     1     -47.648  30.519  26.439  1.00  0.00     0.083 H 
ATOM     52  C   UNL     1     -48.985  29.944  23.463  1.00  0.00     0.071 A 
ATOM     53  N   UNL     1     -50.060  32.059  22.927  1.00  0.00    -0.218 NA
ATOM     54  C   UNL     1     -49.477  29.403  22.262  1.00  0.00     0.137 A 
ATOM     55  C   UNL     1     -50.437  31.446  21.800  1.00  0.00     0.120 A 
ATOM     56  N   UNL     1     -50.200  30.178  21.435  1.00  0.00    -0.219 NA
ATOM     57  H   UNL     1     -51.013  32.043  21.098  1.00  0.00     0.106 H 
BRANCH  50  58
ATOM     58  C   UNL     1     -47.543  28.203  24.703  1.00  0.00     0.095 A 
ATOM     59  C   UNL     1     -47.940  27.191  25.602  1.00  0.00    -0.016 A 
ATOM     60  N   UNL     1     -46.520  27.816  23.933  1.00  0.00    -0.173 NA
ATOM     61  C   UNL     1     -47.075  26.148  25.361  1.00  0.00     0.025 A 
ATOM     62  H   UNL     1     -48.747  27.213  26.320  1.00  0.00     0.066 H 
ATOM     63  N   UNL     1     -46.254  26.568  24.357  1.00  0.00    -0.275 N 
ATOM     64  H   UNL     1     -46.988  25.165  25.803  1.00  0.00     0.084 H 
BRANCH  63  65
ATOM     65  C   UNL     1     -45.187  25.822  23.735  1.00  0.00     0.030 C 
ATOM     66  H   UNL     1     -45.184  24.799  24.122  1.00  0.00     0.048 H 
ATOM     67  H   UNL     1     -44.240  26.312  23.973  1.00  0.00     0.048 H 
ATOM     68  H   UNL     1     -45.356  25.811  22.657  1.00  0.00     0.048 H 
ENDBRANCH  63  65
ENDBRANCH  50  58
BRANCH  54  69
ATOM     69  N   UNL     1     -49.305  28.083  21.861  1.00  0.00    -0.383 N 
ATOM     70  H   UNL     1     -50.149  27.653  21.500  1.00  0.00     0.158 HD
ATOM     71  H   UNL     1     -48.495  28.015  21.253  1.00  0.00     0.158 HD
ENDBRANCH  54  69
ENDBRANCH  43  47
ENDBRANCH   1  38
TORSDOF 9
ENDMDL
MODEL 4
REMARK VINA RESULT:      -9.8      1.346      2.003
REMARK SMILES CN1CCN(c2ccc3ccc(OCc4cncc(-n5cc(-c6ccn(C)n6)c6c(N)ncnc65)c4)cc3n2)CC1
REMARK SMILES IDX 14 1 13 4 12 5 6 6 7 7 39 8 8 9 38 11 9 12 37 14 10 15 11 17
REMARK SMILES IDX 5 20 2 21 3 22 41 23 4 24 40 27 1 34 15 38 16 39 36 40 17 41
REMARK SMILES IDX 19 43 18 45 20 47 21 48 35 49 22 50 29 52 34 53 30 54 33 55
REMARK SMILES IDX 32 56 23 58 24 59 28 60 25 61 26 63 27 65 31 69
REMARK H PARENT 14 2 14 3 7 10 8 13 37 16 10 18 11 19 3 25 3 26 41 28 41 29
REMARK H PARENT 4 30 4 31 40 32 40 33 1 35 1 36 1 37 16 42 36 44 18 46 21 51
REMARK H PARENT 33 57 24 62 25 64 27 66 27 67 27 68 31 70 31 71
REMARK Flexibility Score: inf
ROOT
ATOM      1  C   UNL     1     -49.227  35.626  27.411  1.00  0.00     0.115 C 
ATOM      2  H   UNL     1     -49.939  35.099  28.060  1.00  0.00     0.076 H 
ATOM      3  H   UNL     1     -49.830  36.211  26.708  1.00  0.00     0.076 H 
ENDROOT
BRANCH   1   4
ATOM      4  O   UNL     1     -48.456  36.568  28.161  1.00  0.00    -0.489 OA
BRANCH   4   5
ATOM      5  C   UNL     1     -48.665  37.903  27.944  1.00  0.00     0.122 A 
ATOM      6  C   UNL     1     -46.568  41.852  26.256  1.00  0.00     0.129 A 
ATOM      7  C   UNL     1     -47.693  42.614  26.562  1.00  0.00    -0.019 A 
ATOM      8  N   UNL     1     -46.540  40.531  26.543  1.00  0.00    -0.231 NA
ATOM      9  C   UNL     1     -48.808  42.011  27.138  1.00  0.00    -0.049 A 
ATOM     10  H   UNL     1     -47.704  43.683  26.378  1.00  0.00     0.066 H 
ATOM     11  C   UNL     1     -47.614  39.937  27.099  1.00  0.00     0.076 A 
ATOM     12  C   UNL     1     -48.785  40.644  27.414  1.00  0.00     0.001 A 
ATOM     13  H   UNL     1     -49.679  42.616  27.375  1.00  0.00     0.063 H 
ATOM     14  C   UNL     1     -47.577  38.577  27.377  1.00  0.00     0.007 A 
ATOM     15  C   UNL     1     -49.880  39.983  27.995  1.00  0.00    -0.049 A 
ATOM     16  H   UNL     1     -46.671  38.025  27.140  1.00  0.00     0.069 H 
ATOM     17  C   UNL     1     -49.817  38.613  28.259  1.00  0.00    -0.019 A 
ATOM     18  H   UNL     1     -50.783  40.531  28.249  1.00  0.00     0.063 H 
ATOM     19  H   UNL     1     -50.677  38.146  28.728  1.00  0.00     0.066 H 
BRANCH   6  20
ATOM     20  N   UNL     1     -45.438  42.442  25.696  1.00  0.00    -0.354 N 
ATOM     21  N   UNL     1     -42.793  43.826  25.485  1.00  0.00    -0.303 NA
ATOM     22  C   UNL     1     -44.094  44.419  25.097  1.00  0.00     0.016 C 
ATOM     23  C   UNL     1     -42.973  42.518  26.146  1.00  0.00     0.016 C 
ATOM     24  C   UNL     1     -45.300  43.892  25.907  1.00  0.00     0.032 C 
ATOM     25  H   UNL     1     -44.304  44.222  24.036  1.00  0.00     0.045 H 
ATOM     26  H   UNL     1     -44.027  45.506  25.214  1.00  0.00     0.045 H 
ATOM     27  C   UNL     1     -44.181  41.674  25.668  1.00  0.00     0.032 C 
ATOM     28  H   UNL     1     -43.109  42.720  27.217  1.00  0.00     0.045 H 
ATOM     29  H   UNL     1     -42.057  41.916  26.082  1.00  0.00     0.045 H 
ATOM     30  H   UNL     1     -45.164  44.123  26.972  1.00  0.00     0.051 H 
ATOM     31  H   UNL     1     -46.199  44.416  25.556  1.00  0.00     0.051 H 
ATOM     32  H   UNL     1     -44.006  41.334  24.641  1.00  0.00     0.051 H 
ATOM     33  H   UNL     1     -44.229  40.785  26.308  1.00  0.00     0.051 H 
BRANCH  21  34
ATOM     34  C   UNL     1     -41.905  43.735  24.330  1.00  0.00    -0.013 C 
ATOM     35  H   UNL     1     -42.384  43.248  23.474  1.00  0.00     0.039 H 
ATOM     36  H   UNL     1     -41.001  43.171  24.585  1.00  0.00     0.039 H 
ATOM     37  H   UNL     1     -41.573  44.733  24.021  1.00  0.00     0.039 H 
ENDBRANCH  21  34
ENDBRANCH   6  20
ENDBRANCH   4   5
ENDBRANCH   1   4
BRANCH   1  38
ATOM     38  C   UNL     1     -48.386  34.673  26.601  1.00  0.00     0.010 A 
ATOM     39  C   UNL     1     -47.085  35.016  26.261  1.00  0.00     0.034 A 
ATOM     40  C   UNL     1     -48.841  33.405  26.212  1.00  0.00    -0.028 A 
ATOM     41  N   UNL     1     -46.256  34.218  25.561  1.00  0.00    -0.262 NA
ATOM     42  H   UNL     1     -46.656  35.972  26.548  1.00  0.00     0.084 H 
ATOM     43  C   UNL     1     -48.012  32.540  25.482  1.00  0.00     0.066 A 
ATOM     44  H   UNL     1     -49.848  33.119  26.505  1.00  0.00     0.065 H 
ATOM     45  C   UNL     1     -46.735  33.003  25.186  1.00  0.00     0.051 A 
ATOM     46  H   UNL     1     -46.010  32.435  24.613  1.00  0.00     0.086 H 
BRANCH  43  47
ATOM     47  N   UNL     1     -48.472  31.249  25.063  1.00  0.00    -0.299 N 
ATOM     48  C   UNL     1     -48.429  30.104  25.837  1.00  0.00     0.021 A 
ATOM     49  C   UNL     1     -49.041  30.891  23.837  1.00  0.00     0.150 A 
ATOM     50  C   UNL     1     -48.934  29.041  25.120  1.00  0.00     0.033 A 
ATOM     51  H   UNL     1     -48.050  30.103  26.850  1.00  0.00     0.083 H 
ATOM     52  C   UNL     1     -49.364  29.532  23.863  1.00  0.00     0.071 A 
ATOM     53  N   UNL     1     -49.246  31.709  22.786  1.00  0.00    -0.218 NA
ATOM     54  C   UNL     1     -50.003  29.015  22.722  1.00  0.00     0.137 A 
ATOM     55  C   UNL     1     -49.825  31.096  21.748  1.00  0.00     0.120 A 
ATOM     56  N   UNL     1     -50.219  29.818  21.665  1.00  0.00    -0.219 NA
ATOM     57  H   UNL     1     -50.005  31.707  20.868  1.00  0.00     0.106 H 
BRANCH  50  58
ATOM     58  C   UNL     1     -49.010  27.668  25.609  1.00  0.00     0.095 A 
ATOM     59  C   UNL     1     -50.198  26.936  25.813  1.00  0.00    -0.016 A 
ATOM     60  N   UNL     1     -47.920  26.934  25.855  1.00  0.00    -0.173 NA
ATOM     61  C   UNL     1     -49.778  25.694  26.232  1.00  0.00     0.025 A 
ATOM     62  H   UNL     1     -51.218  27.262  25.670  1.00  0.00     0.066 H 
ATOM     63  N   UNL     1     -48.415  25.742  26.235  1.00  0.00    -0.275 N 
ATOM     64  H   UNL     1     -50.324  24.802  26.507  1.00  0.00     0.084 H 
BRANCH  63  65
ATOM     65  C   UNL     1     -47.507  24.676  26.583  1.00  0.00     0.030 C 
ATOM     66  H   UNL     1     -47.944  24.072  27.382  1.00  0.00     0.048 H 
ATOM     67  H   UNL     1     -46.568  25.120  26.921  1.00  0.00     0.048 H 
ATOM     68  H   UNL     1     -47.344  24.059  25.696  1.00  0.00     0.048 H 
ENDBRANCH  63  65
ENDBRANCH  50  58
BRANCH  54  69
ATOM     69  N   UNL     1     -50.478  27.714  22.603  1.00  0.00    -0.383 N 
ATOM     70  H   UNL     1     -50.691  27.443  21.650  1.00  0.00     0.158 HD
ATOM     71  H   UNL     1     -49.863  27.080  23.102  1.00  0.00     0.158 HD
ENDBRANCH  54  69
ENDBRANCH  43  47
ENDBRANCH   1  38
TORSDOF 9
ENDMDL
MODEL 5
REMARK VINA RESULT:      -9.4      1.954     12.645
REMARK SMILES CN1CCN(c2ccc3ccc(OCc4cncc(-n5cc(-c6ccn(C)n6)c6c(N)ncnc65)c4)cc3n2)CC1
REMARK SMILES IDX 14 1 13 4 12 5 6 6 7 7 39 8 8 9 38 11 9 12 37 14 10 15 11 17
REMARK SMILES IDX 5 20 2 21 3 22 41 23 4 24 40 27 1 34 15 38 16 39 36 40 17 41
REMARK SMILES IDX 19 43 18 45 20 47 21 48 35 49 22 50 29 52 34 53 30 54 33 55
REMARK SMILES IDX 32 56 23 58 24 59 28 60 25 61 26 63 27 65 31 69
REMARK H PARENT 14 2 14 3 7 10 8 13 37 16 10 18 11 19 3 25 3 26 41 28 41 29
REMARK H PARENT 4 30 4 31 40 32 40 33 1 35 1 36 1 37 16 42 36 44 18 46 21 51
REMARK H PARENT 33 57 24 62 25 64 27 66 27 67 27 68 31 70 31 71
REMARK Flexibility Score: inf
ROOT
ATOM      1  C   UNL     1     -46.776  35.089  29.082  1.00  0.00     0.115 C 
ATOM      2  H   UNL     1     -47.648  34.447  29.260  1.00  0.00     0.076 H 
ATOM      3  H   UNL     1     -46.303  35.240  30.060  1.00  0.00     0.076 H 
ENDROOT
BRANCH   1   4
ATOM      4  O   UNL     1     -45.810  34.421  28.267  1.00  0.00    -0.489 OA
BRANCH   4   5
ATOM      5  C   UNL     1     -46.224  33.861  27.089  1.00  0.00     0.122 A 
ATOM      6  C   UNL     1     -48.600  30.128  25.284  1.00  0.00     0.129 A 
ATOM      7  C   UNL     1     -48.368  30.573  23.984  1.00  0.00    -0.019 A 
ATOM      8  N   UNL     1     -48.111  30.819  26.339  1.00  0.00    -0.231 NA
ATOM      9  C   UNL     1     -47.656  31.750  23.767  1.00  0.00    -0.049 A 
ATOM     10  H   UNL     1     -48.716  29.999  23.132  1.00  0.00     0.066 H 
ATOM     11  C   UNL     1     -47.423  31.959  26.140  1.00  0.00     0.076 A 
ATOM     12  C   UNL     1     -47.171  32.471  24.857  1.00  0.00     0.001 A 
ATOM     13  H   UNL     1     -47.479  32.086  22.749  1.00  0.00     0.063 H 
ATOM     14  C   UNL     1     -46.937  32.665  27.232  1.00  0.00     0.007 A 
ATOM     15  C   UNL     1     -46.446  33.664  24.698  1.00  0.00    -0.049 A 
ATOM     16  H   UNL     1     -47.124  32.271  28.228  1.00  0.00     0.069 H 
ATOM     17  C   UNL     1     -45.973  34.357  25.814  1.00  0.00    -0.019 A 
ATOM     18  H   UNL     1     -46.241  34.056  23.705  1.00  0.00     0.063 H 
ATOM     19  H   UNL     1     -45.400  35.262  25.646  1.00  0.00     0.066 H 
BRANCH   6  20
ATOM     20  N   UNL     1     -49.295  28.945  25.518  1.00  0.00    -0.354 N 
ATOM     21  N   UNL     1     -50.140  26.082  25.299  1.00  0.00    -0.303 NA
ATOM     22  C   UNL     1     -50.959  27.243  24.879  1.00  0.00     0.016 C 
ATOM     23  C   UNL     1     -48.779  26.498  25.692  1.00  0.00     0.016 C 
ATOM     24  C   UNL     1     -50.138  28.465  24.411  1.00  0.00     0.032 C 
ATOM     25  H   UNL     1     -51.599  27.579  25.708  1.00  0.00     0.045 H 
ATOM     26  H   UNL     1     -51.625  26.922  24.070  1.00  0.00     0.045 H 
ATOM     27  C   UNL     1     -48.654  27.901  26.337  1.00  0.00     0.032 C 
ATOM     28  H   UNL     1     -48.170  26.496  24.777  1.00  0.00     0.045 H 
ATOM     29  H   UNL     1     -48.313  25.750  26.347  1.00  0.00     0.045 H 
ATOM     30  H   UNL     1     -49.526  28.193  23.540  1.00  0.00     0.051 H 
ATOM     31  H   UNL     1     -50.843  29.249  24.102  1.00  0.00     0.051 H 
ATOM     32  H   UNL     1     -49.131  27.893  27.324  1.00  0.00     0.051 H 
ATOM     33  H   UNL     1     -47.586  28.095  26.488  1.00  0.00     0.051 H 
BRANCH  21  34
ATOM     34  C   UNL     1     -50.809  25.336  26.360  1.00  0.00    -0.013 C 
ATOM     35  H   UNL     1     -50.279  24.412  26.617  1.00  0.00     0.039 H 
ATOM     36  H   UNL     1     -51.830  25.077  26.061  1.00  0.00     0.039 H 
ATOM     37  H   UNL     1     -50.895  25.950  27.265  1.00  0.00     0.039 H 
ENDBRANCH  21  34
ENDBRANCH   6  20
ENDBRANCH   4   5
ENDBRANCH   1   4
BRANCH   1  38
ATOM     38  C   UNL     1     -47.169  36.445  28.557  1.00  0.00     0.010 A 
ATOM     39  C   UNL     1     -48.512  36.770  28.420  1.00  0.00     0.034 A 
ATOM     40  C   UNL     1     -46.230  37.439  28.246  1.00  0.00    -0.028 A 
ATOM     41  N   UNL     1     -48.955  37.964  27.980  1.00  0.00    -0.262 NA
ATOM     42  H   UNL     1     -49.297  36.059  28.663  1.00  0.00     0.084 H 
ATOM     43  C   UNL     1     -46.646  38.698  27.785  1.00  0.00     0.066 A 
ATOM     44  H   UNL     1     -45.180  37.200  28.383  1.00  0.00     0.065 H 
ATOM     45  C   UNL     1     -48.017  38.898  27.672  1.00  0.00     0.051 A 
ATOM     46  H   UNL     1     -48.460  39.820  27.312  1.00  0.00     0.086 H 
BRANCH  43  47
ATOM     47  N   UNL     1     -45.696  39.715  27.447  1.00  0.00    -0.299 N 
ATOM     48  C   UNL     1     -45.800  40.568  26.364  1.00  0.00     0.021 A 
ATOM     49  C   UNL     1     -44.514  40.049  28.117  1.00  0.00     0.150 A 
ATOM     50  C   UNL     1     -44.708  41.407  26.327  1.00  0.00     0.033 A 
ATOM     51  H   UNL     1     -46.639  40.539  25.683  1.00  0.00     0.083 H 
ATOM     52  C   UNL     1     -43.901  41.117  27.456  1.00  0.00     0.071 A 
ATOM     53  N   UNL     1     -44.026  39.446  29.218  1.00  0.00    -0.218 NA
ATOM     54  C   UNL     1     -42.723  41.622  28.033  1.00  0.00     0.137 A 
ATOM     55  C   UNL     1     -42.883  39.988  29.651  1.00  0.00     0.120 A 
ATOM     56  N   UNL     1     -42.222  41.034  29.134  1.00  0.00    -0.219 NA
ATOM     57  H   UNL     1     -42.439  39.533  30.532  1.00  0.00     0.106 H 
BRANCH  50  58
ATOM     58  C   UNL     1     -44.464  42.414  25.300  1.00  0.00     0.095 A 
ATOM     59  C   UNL     1     -45.378  43.409  24.895  1.00  0.00    -0.016 A 
ATOM     60  N   UNL     1     -43.289  42.528  24.673  1.00  0.00    -0.173 NA
ATOM     61  C   UNL     1     -44.702  44.142  23.946  1.00  0.00     0.025 A 
ATOM     62  H   UNL     1     -46.386  43.575  25.247  1.00  0.00     0.066 H 
ATOM     63  N   UNL     1     -43.462  43.582  23.855  1.00  0.00    -0.275 N 
ATOM     64  H   UNL     1     -44.991  45.001  23.356  1.00  0.00     0.084 H 
BRANCH  63  65
ATOM     65  C   UNL     1     -42.375  44.007  23.007  1.00  0.00     0.030 C 
ATOM     66  H   UNL     1     -41.624  44.524  23.610  1.00  0.00     0.048 H 
ATOM     67  H   UNL     1     -42.774  44.684  22.249  1.00  0.00     0.048 H 
ATOM     68  H   UNL     1     -41.935  43.123  22.541  1.00  0.00     0.048 H 
ENDBRANCH  63  65
ENDBRANCH  50  58
BRANCH  54  69
ATOM     69  N   UNL     1     -42.028  42.733  27.570  1.00  0.00    -0.383 N 
ATOM     70  H   UNL     1     -42.520  43.608  27.708  1.00  0.00     0.158 HD
ATOM     71  H   UNL     1     -41.079  42.713  27.926  1.00  0.00     0.158 HD
ENDBRANCH  54  69
ENDBRANCH  43  47
ENDBRANCH   1  38
TORSDOF 9
ENDMDL
MODEL 6
REMARK VINA RESULT:      -9.3      1.771      2.800
REMARK SMILES CN1CCN(c2ccc3ccc(OCc4cncc(-n5cc(-c6ccn(C)n6)c6c(N)ncnc65)c4)cc3n2)CC1
REMARK SMILES IDX 14 1 13 4 12 5 6 6 7 7 39 8 8 9 38 11 9 12 37 14 10 15 11 17
REMARK SMILES IDX 5 20 2 21 3 22 41 23 4 24 40 27 1 34 15 38 16 39 36 40 17 41
REMARK SMILES IDX 19 43 18 45 20 47 21 48 35 49 22 50 29 52 34 53 30 54 33 55
REMARK SMILES IDX 32 56 23 58 24 59 28 60 25 61 26 63 27 65 31 69
REMARK H PARENT 14 2 14 3 7 10 8 13 37 16 10 18 11 19 3 25 3 26 41 28 41 29
REMARK H PARENT 4 30 4 31 40 32 40 33 1 35 1 36 1 37 16 42 36 44 18 46 21 51
REMARK H PARENT 33 57 24 62 25 64 27 66 27 67 27 68 31 70 31 71
REMARK Flexibility Score: inf
ROOT
ATOM      1  C   UNL     1     -46.816  36.607  26.315  1.00  0.00     0.115 C 
ATOM      2  H   UNL     1     -47.767  36.822  25.809  1.00  0.00     0.076 H 
ATOM      3  H   UNL     1     -46.026  36.839  25.591  1.00  0.00     0.076 H 
ENDROOT
BRANCH   1   4
ATOM      4  O   UNL     1     -46.618  37.490  27.422  1.00  0.00    -0.489 OA
BRANCH   4   5
ATOM      5  C   UNL     1     -47.248  38.705  27.410  1.00  0.00     0.122 A 
ATOM      6  C   UNL     1     -46.842  43.179  25.780  1.00  0.00     0.129 A 
ATOM      7  C   UNL     1     -48.031  43.545  26.405  1.00  0.00    -0.019 A 
ATOM      8  N   UNL     1     -46.367  41.918  25.900  1.00  0.00    -0.231 NA
ATOM      9  C   UNL     1     -48.755  42.603  27.133  1.00  0.00    -0.049 A 
ATOM     10  H   UNL     1     -48.393  44.566  26.353  1.00  0.00     0.066 H 
ATOM     11  C   UNL     1     -47.060  40.999  26.600  1.00  0.00     0.076 A 
ATOM     12  C   UNL     1     -48.274  41.298  27.238  1.00  0.00     0.001 A 
ATOM     13  H   UNL     1     -49.680  42.900  27.619  1.00  0.00     0.063 H 
ATOM     14  C   UNL     1     -46.569  39.705  26.705  1.00  0.00     0.007 A 
ATOM     15  C   UNL     1     -48.961  40.308  27.959  1.00  0.00    -0.049 A 
ATOM     16  H   UNL     1     -45.626  39.468  26.217  1.00  0.00     0.069 H 
ATOM     17  C   UNL     1     -48.446  39.012  28.045  1.00  0.00    -0.019 A 
ATOM     18  H   UNL     1     -49.895  40.540  28.463  1.00  0.00     0.063 H 
ATOM     19  H   UNL     1     -48.997  38.283  28.629  1.00  0.00     0.066 H 
BRANCH   6  20
ATOM     20  N   UNL     1     -46.098  44.111  25.063  1.00  0.00    -0.354 N 
ATOM     21  N   UNL     1     -44.780  45.494  22.758  1.00  0.00    -0.303 NA
ATOM     22  C   UNL     1     -44.063  44.796  23.851  1.00  0.00     0.016 C 
ATOM     23  C   UNL     1     -46.239  45.287  22.853  1.00  0.00     0.016 C 
ATOM     24  C   UNL     1     -44.844  43.615  24.471  1.00  0.00     0.032 C 
ATOM     25  H   UNL     1     -43.831  45.497  24.666  1.00  0.00     0.045 H 
ATOM     26  H   UNL     1     -43.107  44.432  23.460  1.00  0.00     0.045 H 
ATOM     27  C   UNL     1     -46.814  45.136  24.283  1.00  0.00     0.032 C 
ATOM     28  H   UNL     1     -46.465  44.364  22.303  1.00  0.00     0.045 H 
ATOM     29  H   UNL     1     -46.783  46.078  22.320  1.00  0.00     0.045 H 
ATOM     30  H   UNL     1     -45.045  42.856  23.704  1.00  0.00     0.051 H 
ATOM     31  H   UNL     1     -44.212  43.160  25.245  1.00  0.00     0.051 H 
ATOM     32  H   UNL     1     -46.734  46.093  24.813  1.00  0.00     0.051 H 
ATOM     33  H   UNL     1     -47.881  44.904  24.181  1.00  0.00     0.051 H 
BRANCH  21  34
ATOM     34  C   UNL     1     -44.431  46.911  22.737  1.00  0.00    -0.013 C 
ATOM     35  H   UNL     1     -43.503  47.103  22.187  1.00  0.00     0.039 H 
ATOM     36  H   UNL     1     -44.312  47.292  23.757  1.00  0.00     0.039 H 
ATOM     37  H   UNL     1     -45.234  47.498  22.277  1.00  0.00     0.039 H 
ENDBRANCH  21  34
ENDBRANCH   6  20
ENDBRANCH   4   5
ENDBRANCH   1   4
BRANCH   1  38
ATOM     38  C   UNL     1     -46.684  35.151  26.677  1.00  0.00     0.010 A 
ATOM     39  C   UNL     1     -46.122  34.789  27.893  1.00  0.00     0.034 A 
ATOM     40  C   UNL     1     -47.163  34.120  25.855  1.00  0.00    -0.028 A 
ATOM     41  N   UNL     1     -45.985  33.514  28.308  1.00  0.00    -0.262 NA
ATOM     42  H   UNL     1     -45.750  35.534  28.592  1.00  0.00     0.084 H 
ATOM     43  C   UNL     1     -47.042  32.778  26.248  1.00  0.00     0.066 A 
ATOM     44  H   UNL     1     -47.633  34.400  24.918  1.00  0.00     0.065 H 
ATOM     45  C   UNL     1     -46.445  32.540  27.480  1.00  0.00     0.051 A 
ATOM     46  H   UNL     1     -46.279  31.547  27.884  1.00  0.00     0.086 H 
BRANCH  43  47
ATOM     47  N   UNL     1     -47.511  31.715  25.409  1.00  0.00    -0.299 N 
ATOM     48  C   UNL     1     -48.464  30.781  25.772  1.00  0.00     0.021 A 
ATOM     49  C   UNL     1     -47.123  31.413  24.100  1.00  0.00     0.150 A 
ATOM     50  C   UNL     1     -48.663  29.895  24.736  1.00  0.00     0.033 A 
ATOM     51  H   UNL     1     -48.951  30.796  26.738  1.00  0.00     0.083 H 
ATOM     52  C   UNL     1     -47.848  30.306  23.652  1.00  0.00     0.071 A 
ATOM     53  N   UNL     1     -46.196  32.068  23.374  1.00  0.00    -0.218 NA
ATOM     54  C   UNL     1     -47.623  29.900  22.325  1.00  0.00     0.137 A 
ATOM     55  C   UNL     1     -46.043  31.568  22.143  1.00  0.00     0.120 A 
ATOM     56  N   UNL     1     -46.704  30.544  21.585  1.00  0.00    -0.219 NA
ATOM     57  H   UNL     1     -45.299  32.053  21.517  1.00  0.00     0.106 H 
BRANCH  50  58
ATOM     58  C   UNL     1     -49.572  28.754  24.778  1.00  0.00     0.095 A 
ATOM     59  C   UNL     1     -50.737  28.606  23.998  1.00  0.00    -0.016 A 
ATOM     60  N   UNL     1     -49.340  27.681  25.542  1.00  0.00    -0.173 NA
ATOM     61  C   UNL     1     -51.238  27.371  24.345  1.00  0.00     0.025 A 
ATOM     62  H   UNL     1     -51.153  29.296  23.277  1.00  0.00     0.066 H 
ATOM     63  N   UNL     1     -50.368  26.860  25.262  1.00  0.00    -0.275 N 
ATOM     64  H   UNL     1     -52.111  26.827  24.012  1.00  0.00     0.084 H 
BRANCH  63  65
ATOM     65  C   UNL     1     -50.447  25.576  25.915  1.00  0.00     0.030 C 
ATOM     66  H   UNL     1     -51.262  24.995  25.477  1.00  0.00     0.048 H 
ATOM     67  H   UNL     1     -50.637  25.741  26.978  1.00  0.00     0.048 H 
ATOM     68  H   UNL     1     -49.498  25.056  25.770  1.00  0.00     0.048 H 
ENDBRANCH  63  65
ENDBRANCH  50  58
BRANCH  54  69
ATOM     69  N   UNL     1     -48.316  28.882  21.681  1.00  0.00    -0.383 N 
ATOM     70  H   UNL     1     -47.743  28.333  21.051  1.00  0.00     0.158 HD
ATOM     71  H   UNL     1     -48.841  28.344  22.362  1.00  0.00     0.158 HD
ENDBRANCH  54  69
ENDBRANCH  43  47
ENDBRANCH   1  38
TORSDOF 9
ENDMDL
MODEL 7
REMARK VINA RESULT:      -9.2      2.363     12.992
REMARK SMILES CN1CCN(c2ccc3ccc(OCc4cncc(-n5cc(-c6ccn(C)n6)c6c(N)ncnc65)c4)cc3n2)CC1
REMARK SMILES IDX 14 1 13 4 12 5 6 6 7 7 39 8 8 9 38 11 9 12 37 14 10 15 11 17
REMARK SMILES IDX 5 20 2 21 3 22 41 23 4 24 40 27 1 34 15 38 16 39 36 40 17 41
REMARK SMILES IDX 19 43 18 45 20 47 21 48 35 49 22 50 29 52 34 53 30 54 33 55
REMARK SMILES IDX 32 56 23 58 24 59 28 60 25 61 26 63 27 65 31 69
REMARK H PARENT 14 2 14 3 7 10 8 13 37 16 10 18 11 19 3 25 3 26 41 28 41 29
REMARK H PARENT 4 30 4 31 40 32 40 33 1 35 1 36 1 37 16 42 36 44 18 46 21 51
REMARK H PARENT 33 57 24 62 25 64 27 66 27 67 27 68 31 70 31 71
REMARK Flexibility Score: inf
ROOT
ATOM      1  C   UNL     1     -44.931  38.994  28.649  1.00  0.00     0.115 C 
ATOM      2  H   UNL     1     -45.907  39.216  29.101  1.00  0.00     0.076 H 
ATOM      3  H   UNL     1     -44.356  38.456  29.411  1.00  0.00     0.076 H 
ENDROOT
BRANCH   1   4
ATOM      4  O   UNL     1     -45.075  38.096  27.545  1.00  0.00    -0.489 OA
BRANCH   4   5
ATOM      5  C   UNL     1     -46.227  37.365  27.443  1.00  0.00     0.122 A 
ATOM      6  C   UNL     1     -47.939  33.150  25.982  1.00  0.00     0.129 A 
ATOM      7  C   UNL     1     -49.235  33.525  26.325  1.00  0.00    -0.019 A 
ATOM      8  N   UNL     1     -46.910  34.010  26.158  1.00  0.00    -0.231 NA
ATOM      9  C   UNL     1     -49.474  34.780  26.880  1.00  0.00    -0.049 A 
ATOM     10  H   UNL     1     -50.072  32.858  26.143  1.00  0.00     0.066 H 
ATOM     11  C   UNL     1     -47.130  35.225  26.694  1.00  0.00     0.076 A 
ATOM     12  C   UNL     1     -48.409  35.657  27.079  1.00  0.00     0.001 A 
ATOM     13  H   UNL     1     -50.490  35.063  27.141  1.00  0.00     0.063 H 
ATOM     14  C   UNL     1     -46.064  36.095  26.881  1.00  0.00     0.007 A 
ATOM     15  C   UNL     1     -48.591  36.935  27.633  1.00  0.00    -0.049 A 
ATOM     16  H   UNL     1     -45.071  35.767  26.580  1.00  0.00     0.069 H 
ATOM     17  C   UNL     1     -47.500  37.788  27.814  1.00  0.00    -0.019 A 
ATOM     18  H   UNL     1     -49.582  37.275  27.921  1.00  0.00     0.063 H 
ATOM     19  H   UNL     1     -47.687  38.774  28.226  1.00  0.00     0.066 H 
BRANCH   6  20
ATOM     20  N   UNL     1     -47.685  31.906  25.411  1.00  0.00    -0.354 N 
ATOM     21  N   UNL     1     -47.606  29.692  23.398  1.00  0.00    -0.303 NA
ATOM     22  C   UNL     1     -48.417  29.683  24.639  1.00  0.00     0.016 C 
ATOM     23  C   UNL     1     -46.959  31.003  23.188  1.00  0.00     0.016 C 
ATOM     24  C   UNL     1     -48.868  31.082  25.114  1.00  0.00     0.032 C 
ATOM     25  H   UNL     1     -47.850  29.226  25.462  1.00  0.00     0.045 H 
ATOM     26  H   UNL     1     -49.299  29.055  24.470  1.00  0.00     0.045 H 
ATOM     27  C   UNL     1     -46.560  31.778  24.468  1.00  0.00     0.032 C 
ATOM     28  H   UNL     1     -47.674  31.623  22.630  1.00  0.00     0.045 H 
ATOM     29  H   UNL     1     -46.087  30.909  22.528  1.00  0.00     0.045 H 
ATOM     30  H   UNL     1     -49.493  31.555  24.344  1.00  0.00     0.051 H 
ATOM     31  H   UNL     1     -49.479  30.952  26.017  1.00  0.00     0.051 H 
ATOM     32  H   UNL     1     -45.742  31.254  24.973  1.00  0.00     0.051 H 
ATOM     33  H   UNL     1     -46.179  32.756  24.149  1.00  0.00     0.051 H 
BRANCH  21  34
ATOM     34  C   UNL     1     -46.636  28.601  23.409  1.00  0.00    -0.013 C 
ATOM     35  H   UNL     1     -45.603  28.964  23.459  1.00  0.00     0.039 H 
ATOM     36  H   UNL     1     -46.742  27.984  22.511  1.00  0.00     0.039 H 
ATOM     37  H   UNL     1     -46.812  27.940  24.266  1.00  0.00     0.039 H 
ENDBRANCH  21  34
ENDBRANCH   6  20
ENDBRANCH   4   5
ENDBRANCH   1   4
BRANCH   1  38
ATOM     38  C   UNL     1     -44.168  40.248  28.307  1.00  0.00     0.010 A 
ATOM     39  C   UNL     1     -42.978  40.532  28.962  1.00  0.00     0.034 A 
ATOM     40  C   UNL     1     -44.578  41.133  27.300  1.00  0.00    -0.028 A 
ATOM     41  N   UNL     1     -42.220  41.616  28.706  1.00  0.00    -0.262 NA
ATOM     42  H   UNL     1     -42.586  39.880  29.738  1.00  0.00     0.084 H 
ATOM     43  C   UNL     1     -43.819  42.275  26.999  1.00  0.00     0.066 A 
ATOM     44  H   UNL     1     -45.491  40.896  26.763  1.00  0.00     0.065 H 
ATOM     45  C   UNL     1     -42.655  42.461  27.735  1.00  0.00     0.051 A 
ATOM     46  H   UNL     1     -41.996  43.312  27.608  1.00  0.00     0.086 H 
BRANCH  43  47
ATOM     47  N   UNL     1     -44.236  43.196  25.984  1.00  0.00    -0.299 N 
ATOM     48  C   UNL     1     -45.440  43.875  25.978  1.00  0.00     0.021 A 
ATOM     49  C   UNL     1     -43.540  43.590  24.836  1.00  0.00     0.150 A 
ATOM     50  C   UNL     1     -45.523  44.661  24.850  1.00  0.00     0.033 A 
ATOM     51  H   UNL     1     -46.169  43.769  26.769  1.00  0.00     0.083 H 
ATOM     52  C   UNL     1     -44.308  44.523  24.135  1.00  0.00     0.071 A 
ATOM     53  N   UNL     1     -42.327  43.147  24.451  1.00  0.00    -0.218 NA
ATOM     54  C   UNL     1     -43.729  45.071  22.977  1.00  0.00     0.137 A 
ATOM     55  C   UNL     1     -41.899  43.712  23.317  1.00  0.00     0.120 A 
ATOM     56  N   UNL     1     -42.518  44.643  22.578  1.00  0.00    -0.219 NA
ATOM     57  H   UNL     1     -40.929  43.384  22.954  1.00  0.00     0.106 H 
BRANCH  50  58
ATOM     58  C   UNL     1     -46.671  45.490  24.494  1.00  0.00     0.095 A 
ATOM     59  C   UNL     1     -46.748  46.890  24.641  1.00  0.00    -0.016 A 
ATOM     60  N   UNL     1     -47.767  44.985  23.917  1.00  0.00    -0.173 NA
ATOM     61  C   UNL     1     -47.984  47.229  24.139  1.00  0.00     0.025 A 
ATOM     62  H   UNL     1     -46.005  47.562  25.048  1.00  0.00     0.066 H 
ATOM     63  N   UNL     1     -48.548  46.062  23.717  1.00  0.00    -0.275 N 
ATOM     64  H   UNL     1     -48.486  48.181  24.040  1.00  0.00     0.084 H 
BRANCH  63  65
ATOM     65  C   UNL     1     -49.840  45.894  23.096  1.00  0.00     0.030 C 
ATOM     66  H   UNL     1     -50.503  46.704  23.412  1.00  0.00     0.048 H 
ATOM     67  H   UNL     1     -50.251  44.932  23.411  1.00  0.00     0.048 H 
ATOM     68  H   UNL     1     -49.708  45.922  22.013  1.00  0.00     0.048 H 
ENDBRANCH  63  65
ENDBRANCH  50  58
BRANCH  54  69
ATOM     69  N   UNL     1     -44.303  46.074  22.205  1.00  0.00    -0.383 N 
ATOM     70  H   UNL     1     -44.360  45.848  21.218  1.00  0.00     0.158 HD
ATOM     71  H   UNL     1     -45.176  46.372  22.628  1.00  0.00     0.158 HD
ENDBRANCH  54  69
ENDBRANCH  43  47
ENDBRANCH   1  38
TORSDOF 9
ENDMDL
