MODEL 1
REMARK VINA RESULT:     -10.7      0.000      0.000
REMARK SMILES CC1(C)CCN(Cc2cc3ccc(CNC(=O)c4cc(=O)n5ccccc5n4)cc3[nH]2)C1
REMARK SMILES IDX 8 1 9 2 10 3 11 4 12 5 13 6 29 7 30 8 31 9 7 15 6 18 2 19
REMARK SMILES IDX 4 20 32 21 5 22 1 29 3 33 14 37 15 40 16 41 17 43 18 44
REMARK SMILES IDX 19 45 28 46 20 47 27 49 21 50 22 51 26 52 23 53 25 54 24 56
REMARK H PARENT 9 10 11 11 12 12 29 13 31 14 7 16 7 17 4 23 4 24 32 25 32 26
REMARK H PARENT 5 27 5 28 1 30 1 31 1 32 3 34 3 35 3 36 14 38 14 39 15 42
REMARK H PARENT 19 48 26 55 23 57 25 58 24 59
REMARK Flexibility Score: inf
ROOT
ATOM      1  C   UNL     1     -48.272  31.307  24.122  1.00  0.00     0.030 A 
ATOM      2  C   UNL     1     -47.001  31.840  24.220  1.00  0.00    -0.032 A 
ATOM      3  C   UNL     1     -47.047  32.936  25.124  1.00  0.00    -0.000 A 
ATOM      4  C   UNL     1     -46.093  33.850  25.607  1.00  0.00    -0.052 A 
ATOM      5  C   UNL     1     -46.487  34.838  26.520  1.00  0.00    -0.057 A 
ATOM      6  C   UNL     1     -47.815  34.933  26.953  1.00  0.00    -0.027 A 
ATOM      7  C   UNL     1     -48.774  34.019  26.484  1.00  0.00    -0.033 A 
ATOM      8  C   UNL     1     -48.361  33.040  25.573  1.00  0.00     0.046 A 
ATOM      9  N   UNL     1     -49.078  32.036  24.966  1.00  0.00    -0.357 N 
ATOM     10  H   UNL     1     -46.128  31.481  23.691  1.00  0.00     0.065 H 
ATOM     11  H   UNL     1     -45.060  33.791  25.277  1.00  0.00     0.063 H 
ATOM     12  H   UNL     1     -45.738  35.535  26.890  1.00  0.00     0.063 H 
ATOM     13  H   UNL     1     -49.805  34.071  26.825  1.00  0.00     0.065 H 
ATOM     14  H   UNL     1     -50.065  31.871  25.112  1.00  0.00     0.166 HD
ENDROOT
BRANCH   1  15
ATOM     15  C   UNL     1     -48.792  30.147  23.340  1.00  0.00     0.039 C 
ATOM     16  H   UNL     1     -48.388  30.181  22.320  1.00  0.00     0.050 H 
ATOM     17  H   UNL     1     -49.878  30.260  23.220  1.00  0.00     0.050 H 
BRANCH  15  18
ATOM     18  N   UNL     1     -48.519  28.833  23.909  1.00  0.00    -0.297 NA
ATOM     19  C   UNL     1     -48.323  27.247  25.594  1.00  0.00    -0.021 C 
ATOM     20  C   UNL     1     -47.083  27.128  24.684  1.00  0.00    -0.034 C 
ATOM     21  C   UNL     1     -48.805  28.682  25.332  1.00  0.00     0.004 C 
ATOM     22  C   UNL     1     -47.181  28.298  23.701  1.00  0.00    -0.001 C 
ATOM     23  H   UNL     1     -47.060  26.170  24.152  1.00  0.00     0.029 H 
ATOM     24  H   UNL     1     -46.151  27.207  25.255  1.00  0.00     0.029 H 
ATOM     25  H   UNL     1     -49.870  28.805  25.553  1.00  0.00     0.044 H 
ATOM     26  H   UNL     1     -48.236  29.392  25.943  1.00  0.00     0.044 H 
ATOM     27  H   UNL     1     -47.039  27.961  22.669  1.00  0.00     0.043 H 
ATOM     28  H   UNL     1     -46.392  29.020  23.937  1.00  0.00     0.043 H 
BRANCH  19  29
ATOM     29  C   UNL     1     -49.390  26.219  25.173  1.00  0.00    -0.059 C 
ATOM     30  H   UNL     1     -49.352  25.312  25.785  1.00  0.00     0.024 H 
ATOM     31  H   UNL     1     -50.398  26.639  25.270  1.00  0.00     0.024 H 
ATOM     32  H   UNL     1     -49.254  25.920  24.127  1.00  0.00     0.024 H 
ENDBRANCH  19  29
BRANCH  19  33
ATOM     33  C   UNL     1     -47.974  27.032  27.069  1.00  0.00    -0.059 C 
ATOM     34  H   UNL     1     -48.414  26.102  27.446  1.00  0.00     0.024 H 
ATOM     35  H   UNL     1     -46.890  26.971  27.217  1.00  0.00     0.024 H 
ATOM     36  H   UNL     1     -48.347  27.858  27.685  1.00  0.00     0.024 H 
ENDBRANCH  19  33
ENDBRANCH  15  18
ENDBRANCH   1  15
BRANCH   6  37
ATOM     37  C   UNL     1     -48.219  35.988  27.954  1.00  0.00     0.043 C 
ATOM     38  H   UNL     1     -48.255  35.560  28.963  1.00  0.00     0.054 H 
ATOM     39  H   UNL     1     -49.221  36.368  27.728  1.00  0.00     0.054 H 
BRANCH  37  40
ATOM     40  N   UNL     1     -47.314  37.109  27.912  1.00  0.00    -0.347 N 
ATOM     41  C   UNL     1     -46.415  37.374  28.914  1.00  0.00     0.270 C 
ATOM     42  H   UNL     1     -47.152  37.582  27.030  1.00  0.00     0.164 HD
ATOM     43  O   UNL     1     -46.381  36.792  29.991  1.00  0.00    -0.268 OA
BRANCH  41  44
ATOM     44  C   UNL     1     -45.442  38.467  28.536  1.00  0.00     0.136 A 
ATOM     45  C   UNL     1     -45.639  39.055  27.355  1.00  0.00     0.035 A 
ATOM     46  N   UNL     1     -44.435  38.791  29.418  1.00  0.00    -0.225 NA
ATOM     47  C   UNL     1     -44.722  40.127  26.951  1.00  0.00     0.258 A 
ATOM     48  H   UNL     1     -46.436  38.793  26.671  1.00  0.00     0.071 H 
ATOM     49  C   UNL     1     -43.628  39.742  29.057  1.00  0.00     0.140 A 
ATOM     50  O   UNL     1     -44.894  40.673  25.862  1.00  0.00    -0.269 OA
ATOM     51  N   UNL     1     -43.718  40.437  27.857  1.00  0.00    -0.268 N 
ATOM     52  C   UNL     1     -42.524  40.129  29.980  1.00  0.00    -0.019 A 
ATOM     53  C   UNL     1     -42.811  41.444  27.544  1.00  0.00     0.014 A 
ATOM     54  C   UNL     1     -41.676  41.104  29.636  1.00  0.00    -0.057 A 
ATOM     55  H   UNL     1     -42.447  39.595  30.920  1.00  0.00     0.066 H 
ATOM     56  C   UNL     1     -41.821  41.786  28.378  1.00  0.00    -0.045 A 
ATOM     57  H   UNL     1     -42.939  41.946  26.588  1.00  0.00     0.082 H 
ATOM     58  H   UNL     1     -40.866  41.402  30.296  1.00  0.00     0.062 H 
ATOM     59  H   UNL     1     -41.119  42.575  28.124  1.00  0.00     0.064 H 
ENDBRANCH  41  44
ENDBRANCH  37  40
ENDBRANCH   6  37
TORSDOF 7
ENDMDL
MODEL 2
REMARK VINA RESULT:     -10.3      2.188      3.667
REMARK SMILES CC1(C)CCN(Cc2cc3ccc(CNC(=O)c4cc(=O)n5ccccc5n4)cc3[nH]2)C1
REMARK SMILES IDX 8 1 9 2 10 3 11 4 12 5 13 6 29 7 30 8 31 9 7 15 6 18 2 19
REMARK SMILES IDX 4 20 32 21 5 22 1 29 3 33 14 37 15 40 16 41 17 43 18 44
REMARK SMILES IDX 19 45 28 46 20 47 27 49 21 50 22 51 26 52 23 53 25 54 24 56
REMARK H PARENT 9 10 11 11 12 12 29 13 31 14 7 16 7 17 4 23 4 24 32 25 32 26
REMARK H PARENT 5 27 5 28 1 30 1 31 1 32 3 34 3 35 3 36 14 38 14 39 15 42
REMARK H PARENT 19 48 26 55 23 57 25 58 24 59
REMARK Flexibility Score: inf
ROOT
ATOM      1  C   UNL     1     -46.722  32.740  25.195  1.00  0.00     0.030 A 
ATOM      2  C   UNL     1     -47.912  33.370  25.505  1.00  0.00    -0.032 A 
ATOM      3  C   UNL     1     -47.634  34.415  26.428  1.00  0.00    -0.000 A 
ATOM      4  C   UNL     1     -48.423  35.373  27.092  1.00  0.00    -0.052 A 
ATOM      5  C   UNL     1     -47.809  36.286  27.961  1.00  0.00    -0.057 A 
ATOM      6  C   UNL     1     -46.427  36.256  28.183  1.00  0.00    -0.027 A 
ATOM      7  C   UNL     1     -45.629  35.309  27.517  1.00  0.00    -0.033 A 
ATOM      8  C   UNL     1     -46.260  34.406  26.653  1.00  0.00     0.046 A 
ATOM      9  N   UNL     1     -45.730  33.396  25.886  1.00  0.00    -0.357 N 
ATOM     10  H   UNL     1     -48.884  33.104  25.110  1.00  0.00     0.065 H 
ATOM     11  H   UNL     1     -49.496  35.406  26.932  1.00  0.00     0.063 H 
ATOM     12  H   UNL     1     -48.430  37.024  28.464  1.00  0.00     0.063 H 
ATOM     13  H   UNL     1     -44.553  35.285  27.667  1.00  0.00     0.065 H 
ATOM     14  H   UNL     1     -44.747  33.163  25.851  1.00  0.00     0.166 HD
ENDROOT
BRANCH   1  15
ATOM     15  C   UNL     1     -46.424  31.603  24.275  1.00  0.00     0.039 C 
ATOM     16  H   UNL     1     -46.271  30.688  24.861  1.00  0.00     0.050 H 
ATOM     17  H   UNL     1     -45.460  31.790  23.782  1.00  0.00     0.050 H 
BRANCH  15  18
ATOM     18  N   UNL     1     -47.429  31.343  23.252  1.00  0.00    -0.297 NA
ATOM     19  C   UNL     1     -49.318  30.351  22.333  1.00  0.00    -0.021 C 
ATOM     20  C   UNL     1     -48.203  30.329  21.267  1.00  0.00    -0.034 C 
ATOM     21  C   UNL     1     -48.532  30.474  23.648  1.00  0.00     0.004 C 
ATOM     22  C   UNL     1     -46.944  30.835  21.976  1.00  0.00    -0.001 C 
ATOM     23  H   UNL     1     -48.450  30.963  20.407  1.00  0.00     0.029 H 
ATOM     24  H   UNL     1     -48.027  29.316  20.886  1.00  0.00     0.029 H 
ATOM     25  H   UNL     1     -49.135  30.913  24.448  1.00  0.00     0.044 H 
ATOM     26  H   UNL     1     -48.181  29.488  23.975  1.00  0.00     0.044 H 
ATOM     27  H   UNL     1     -46.449  31.618  21.393  1.00  0.00     0.043 H 
ATOM     28  H   UNL     1     -46.246  29.998  22.088  1.00  0.00     0.043 H 
BRANCH  19  29
ATOM     29  C   UNL     1     -50.231  31.574  22.120  1.00  0.00    -0.059 C 
ATOM     30  H   UNL     1     -51.287  31.327  22.271  1.00  0.00     0.024 H 
ATOM     31  H   UNL     1     -49.977  32.378  22.818  1.00  0.00     0.024 H 
ATOM     32  H   UNL     1     -50.124  31.969  21.103  1.00  0.00     0.024 H 
ENDBRANCH  19  29
BRANCH  19  33
ATOM     33  C   UNL     1     -50.167  29.079  22.303  1.00  0.00    -0.059 C 
ATOM     34  H   UNL     1     -49.616  28.248  21.847  1.00  0.00     0.024 H 
ATOM     35  H   UNL     1     -50.458  28.770  23.313  1.00  0.00     0.024 H 
ATOM     36  H   UNL     1     -51.086  29.233  21.726  1.00  0.00     0.024 H 
ENDBRANCH  19  33
ENDBRANCH  15  18
ENDBRANCH   1  15
BRANCH   6  37
ATOM     37  C   UNL     1     -45.779  37.260  29.104  1.00  0.00     0.043 C 
ATOM     38  H   UNL     1     -45.090  36.755  29.791  1.00  0.00     0.054 H 
ATOM     39  H   UNL     1     -46.535  37.765  29.715  1.00  0.00     0.054 H 
BRANCH  37  40
ATOM     40  N   UNL     1     -45.088  38.276  28.350  1.00  0.00    -0.347 N 
ATOM     41  C   UNL     1     -45.639  39.503  28.081  1.00  0.00     0.270 C 
ATOM     42  H   UNL     1     -44.086  38.198  28.216  1.00  0.00     0.164 HD
ATOM     43  O   UNL     1     -46.802  39.811  28.316  1.00  0.00    -0.268 OA
BRANCH  41  44
ATOM     44  C   UNL     1     -44.642  40.458  27.468  1.00  0.00     0.136 A 
ATOM     45  C   UNL     1     -43.507  40.645  28.144  1.00  0.00     0.035 A 
ATOM     46  N   UNL     1     -44.952  41.061  26.270  1.00  0.00    -0.225 NA
ATOM     47  C   UNL     1     -42.505  41.559  27.582  1.00  0.00     0.258 A 
ATOM     48  H   UNL     1     -43.274  40.163  29.085  1.00  0.00     0.071 H 
ATOM     49  C   UNL     1     -44.062  41.867  25.776  1.00  0.00     0.140 A 
ATOM     50  O   UNL     1     -41.457  41.740  28.200  1.00  0.00    -0.269 OA
ATOM     51  N   UNL     1     -42.840  42.152  26.373  1.00  0.00    -0.268 N 
ATOM     52  C   UNL     1     -44.352  42.540  24.478  1.00  0.00    -0.019 A 
ATOM     53  C   UNL     1     -41.940  43.030  25.777  1.00  0.00     0.014 A 
ATOM     54  C   UNL     1     -43.455  43.377  23.943  1.00  0.00    -0.057 A 
ATOM     55  H   UNL     1     -45.301  42.322  24.002  1.00  0.00     0.066 H 
ATOM     56  C   UNL     1     -42.208  43.632  24.612  1.00  0.00    -0.045 A 
ATOM     57  H   UNL     1     -41.003  43.208  26.301  1.00  0.00     0.082 H 
ATOM     58  H   UNL     1     -43.647  43.876  22.998  1.00  0.00     0.062 H 
ATOM     59  H   UNL     1     -41.497  44.315  24.156  1.00  0.00     0.064 H 
ENDBRANCH  41  44
ENDBRANCH  37  40
ENDBRANCH   6  37
TORSDOF 7
ENDMDL
MODEL 3
REMARK VINA RESULT:     -10.0      1.871      2.863
REMARK SMILES CC1(C)CCN(Cc2cc3ccc(CNC(=O)c4cc(=O)n5ccccc5n4)cc3[nH]2)C1
REMARK SMILES IDX 8 1 9 2 10 3 11 4 12 5 13 6 29 7 30 8 31 9 7 15 6 18 2 19
REMARK SMILES IDX 4 20 32 21 5 22 1 29 3 33 14 37 15 40 16 41 17 43 18 44
REMARK SMILES IDX 19 45 28 46 20 47 27 49 21 50 22 51 26 52 23 53 25 54 24 56
REMARK H PARENT 9 10 11 11 12 12 29 13 31 14 7 16 7 17 4 23 4 24 32 25 32 26
REMARK H PARENT 5 27 5 28 1 30 1 31 1 32 3 34 3 35 3 36 14 38 14 39 15 42
REMARK H PARENT 19 48 26 55 23 57 25 58 24 59
REMARK Flexibility Score: inf
ROOT
ATOM      1  C   UNL     1     -47.767  30.564  24.287  1.00  0.00     0.030 A 
ATOM      2  C   UNL     1     -46.676  31.406  24.184  1.00  0.00    -0.032 A 
ATOM      3  C   UNL     1     -46.962  32.593  24.913  1.00  0.00    -0.000 A 
ATOM      4  C   UNL     1     -46.257  33.785  25.161  1.00  0.00    -0.052 A 
ATOM      5  C   UNL     1     -46.849  34.783  25.947  1.00  0.00    -0.057 A 
ATOM      6  C   UNL     1     -48.131  34.615  26.483  1.00  0.00    -0.027 A 
ATOM      7  C   UNL     1     -48.840  33.424  26.249  1.00  0.00    -0.033 A 
ATOM      8  C   UNL     1     -48.232  32.439  25.461  1.00  0.00     0.046 A 
ATOM      9  N   UNL     1     -48.690  31.200  25.082  1.00  0.00    -0.357 N 
ATOM     10  H   UNL     1     -45.768  31.192  23.636  1.00  0.00     0.065 H 
ATOM     11  H   UNL     1     -45.263  33.931  24.749  1.00  0.00     0.063 H 
ATOM     12  H   UNL     1     -46.291  35.697  26.136  1.00  0.00     0.063 H 
ATOM     13  H   UNL     1     -49.830  33.274  26.673  1.00  0.00     0.065 H 
ATOM     14  H   UNL     1     -49.591  30.821  25.343  1.00  0.00     0.166 HD
ENDROOT
BRANCH   1  15
ATOM     15  C   UNL     1     -48.004  29.194  23.741  1.00  0.00     0.039 C 
ATOM     16  H   UNL     1     -48.408  28.550  24.533  1.00  0.00     0.050 H 
ATOM     17  H   UNL     1     -47.036  28.747  23.477  1.00  0.00     0.050 H 
BRANCH  15  18
ATOM     18  N   UNL     1     -48.885  29.123  22.583  1.00  0.00    -0.297 NA
ATOM     19  C   UNL     1     -50.103  28.083  20.901  1.00  0.00    -0.021 C 
ATOM     20  C   UNL     1     -49.347  29.272  20.274  1.00  0.00    -0.034 C 
ATOM     21  C   UNL     1     -49.282  27.783  22.164  1.00  0.00     0.004 C 
ATOM     22  C   UNL     1     -48.437  29.812  21.380  1.00  0.00    -0.001 C 
ATOM     23  H   UNL     1     -50.034  30.049  19.918  1.00  0.00     0.029 H 
ATOM     24  H   UNL     1     -48.737  28.959  19.418  1.00  0.00     0.029 H 
ATOM     25  H   UNL     1     -49.876  27.273  22.929  1.00  0.00     0.044 H 
ATOM     26  H   UNL     1     -48.417  27.156  21.917  1.00  0.00     0.044 H 
ATOM     27  H   UNL     1     -48.534  30.898  21.479  1.00  0.00     0.043 H 
ATOM     28  H   UNL     1     -47.397  29.583  21.120  1.00  0.00     0.043 H 
BRANCH  19  29
ATOM     29  C   UNL     1     -51.541  28.501  21.263  1.00  0.00    -0.059 C 
ATOM     30  H   UNL     1     -52.287  27.858  20.784  1.00  0.00     0.024 H 
ATOM     31  H   UNL     1     -51.704  28.445  22.345  1.00  0.00     0.024 H 
ATOM     32  H   UNL     1     -51.740  29.532  20.948  1.00  0.00     0.024 H 
ENDBRANCH  19  29
BRANCH  19  33
ATOM     33  C   UNL     1     -50.152  26.875  19.963  1.00  0.00    -0.059 C 
ATOM     34  H   UNL     1     -51.182  26.531  19.817  1.00  0.00     0.024 H 
ATOM     35  H   UNL     1     -49.741  27.119  18.977  1.00  0.00     0.024 H 
ATOM     36  H   UNL     1     -49.569  26.040  20.367  1.00  0.00     0.024 H 
ENDBRANCH  19  33
ENDBRANCH  15  18
ENDBRANCH   1  15
BRANCH   6  37
ATOM     37  C   UNL     1     -48.746  35.690  27.347  1.00  0.00     0.043 C 
ATOM     38  H   UNL     1     -49.088  35.263  28.297  1.00  0.00     0.054 H 
ATOM     39  H   UNL     1     -49.622  36.125  26.852  1.00  0.00     0.054 H 
BRANCH  37  40
ATOM     40  N   UNL     1     -47.809  36.759  27.580  1.00  0.00    -0.347 N 
ATOM     41  C   UNL     1     -46.956  36.777  28.655  1.00  0.00     0.270 C 
ATOM     42  H   UNL     1     -47.586  37.397  26.823  1.00  0.00     0.164 HD
ATOM     43  O   UNL     1     -46.996  35.985  29.588  1.00  0.00    -0.268 OA
BRANCH  41  44
ATOM     44  C   UNL     1     -45.934  37.885  28.558  1.00  0.00     0.136 A 
ATOM     45  C   UNL     1     -45.083  38.000  29.578  1.00  0.00     0.035 A 
ATOM     46  N   UNL     1     -45.936  38.692  27.442  1.00  0.00    -0.225 NA
ATOM     47  C   UNL     1     -44.068  39.059  29.522  1.00  0.00     0.258 A 
ATOM     48  H   UNL     1     -45.090  37.358  30.450  1.00  0.00     0.071 H 
ATOM     49  C   UNL     1     -45.035  39.626  27.396  1.00  0.00     0.140 A 
ATOM     50  O   UNL     1     -43.280  39.173  30.461  1.00  0.00    -0.269 OA
ATOM     51  N   UNL     1     -44.089  39.856  28.387  1.00  0.00    -0.268 N 
ATOM     52  C   UNL     1     -44.996  40.522  26.205  1.00  0.00    -0.019 A 
ATOM     53  C   UNL     1     -43.155  40.880  28.262  1.00  0.00     0.014 A 
ATOM     54  C   UNL     1     -44.080  41.493  26.129  1.00  0.00    -0.057 A 
ATOM     55  H   UNL     1     -45.728  40.349  25.425  1.00  0.00     0.066 H 
ATOM     56  C   UNL     1     -43.128  41.681  27.189  1.00  0.00    -0.045 A 
ATOM     57  H   UNL     1     -42.445  41.004  29.076  1.00  0.00     0.082 H 
ATOM     58  H   UNL     1     -44.035  42.155  25.269  1.00  0.00     0.062 H 
ATOM     59  H   UNL     1     -42.394  42.478  27.102  1.00  0.00     0.064 H 
ENDBRANCH  41  44
ENDBRANCH  37  40
ENDBRANCH   6  37
TORSDOF 7
ENDMDL
MODEL 4
REMARK VINA RESULT:      -9.8      2.130      3.348
REMARK SMILES CC1(C)CCN(Cc2cc3ccc(CNC(=O)c4cc(=O)n5ccccc5n4)cc3[nH]2)C1
REMARK SMILES IDX 8 1 9 2 10 3 11 4 12 5 13 6 29 7 30 8 31 9 7 15 6 18 2 19
REMARK SMILES IDX 4 20 32 21 5 22 1 29 3 33 14 37 15 40 16 41 17 43 18 44
REMARK SMILES IDX 19 45 28 46 20 47 27 49 21 50 22 51 26 52 23 53 25 54 24 56
REMARK H PARENT 9 10 11 11 12 12 29 13 31 14 7 16 7 17 4 23 4 24 32 25 32 26
REMARK H PARENT 5 27 5 28 1 30 1 31 1 32 3 34 3 35 3 36 14 38 14 39 15 42
REMARK H PARENT 19 48 26 55 23 57 25 58 24 59
REMARK Flexibility Score: inf
ROOT
ATOM      1  C   UNL     1     -48.089  31.823  25.950  1.00  0.00     0.030 A 
ATOM      2  C   UNL     1     -48.895  32.945  25.920  1.00  0.00    -0.032 A 
ATOM      3  C   UNL     1     -48.192  34.014  26.539  1.00  0.00    -0.000 A 
ATOM      4  C   UNL     1     -48.493  35.362  26.804  1.00  0.00    -0.052 A 
ATOM      5  C   UNL     1     -47.542  36.165  27.450  1.00  0.00    -0.057 A 
ATOM      6  C   UNL     1     -46.303  35.645  27.842  1.00  0.00    -0.027 A 
ATOM      7  C   UNL     1     -45.989  34.301  27.573  1.00  0.00    -0.033 A 
ATOM      8  C   UNL     1     -46.951  33.516  26.926  1.00  0.00     0.046 A 
ATOM      9  N   UNL     1     -46.907  32.195  26.546  1.00  0.00    -0.357 N 
ATOM     10  H   UNL     1     -49.891  32.990  25.498  1.00  0.00     0.065 H 
ATOM     11  H   UNL     1     -49.451  35.779  26.509  1.00  0.00     0.063 H 
ATOM     12  H   UNL     1     -47.786  37.207  27.644  1.00  0.00     0.063 H 
ATOM     13  H   UNL     1     -45.024  33.888  27.856  1.00  0.00     0.065 H 
ATOM     14  H   UNL     1     -46.116  31.584  26.701  1.00  0.00     0.166 HD
ENDROOT
BRANCH   1  15
ATOM     15  C   UNL     1     -48.310  30.441  25.430  1.00  0.00     0.039 C 
ATOM     16  H   UNL     1     -49.388  30.239  25.376  1.00  0.00     0.050 H 
ATOM     17  H   UNL     1     -47.923  29.722  26.164  1.00  0.00     0.050 H 
BRANCH  15  18
ATOM     18  N   UNL     1     -47.713  30.154  24.133  1.00  0.00    -0.297 NA
ATOM     19  C   UNL     1     -46.389  30.558  22.267  1.00  0.00    -0.021 C 
ATOM     20  C   UNL     1     -47.750  30.024  21.777  1.00  0.00    -0.034 C 
ATOM     21  C   UNL     1     -46.721  31.115  23.660  1.00  0.00     0.004 C 
ATOM     22  C   UNL     1     -48.633  29.937  23.025  1.00  0.00    -0.001 C 
ATOM     23  H   UNL     1     -47.653  29.043  21.297  1.00  0.00     0.029 H 
ATOM     24  H   UNL     1     -48.213  30.699  21.048  1.00  0.00     0.029 H 
ATOM     25  H   UNL     1     -45.841  31.150  24.310  1.00  0.00     0.044 H 
ATOM     26  H   UNL     1     -47.136  32.127  23.577  1.00  0.00     0.044 H 
ATOM     27  H   UNL     1     -49.124  28.961  23.096  1.00  0.00     0.043 H 
ATOM     28  H   UNL     1     -49.409  30.707  22.958  1.00  0.00     0.043 H 
BRANCH  19  29
ATOM     29  C   UNL     1     -45.370  29.407  22.361  1.00  0.00    -0.059 C 
ATOM     30  H   UNL     1     -44.732  29.350  21.472  1.00  0.00     0.024 H 
ATOM     31  H   UNL     1     -44.714  29.534  23.229  1.00  0.00     0.024 H 
ATOM     32  H   UNL     1     -45.879  28.442  22.466  1.00  0.00     0.024 H 
ENDBRANCH  19  29
BRANCH  19  33
ATOM     33  C   UNL     1     -45.834  31.646  21.345  1.00  0.00    -0.059 C 
ATOM     34  H   UNL     1     -44.937  31.299  20.821  1.00  0.00     0.024 H 
ATOM     35  H   UNL     1     -46.569  31.939  20.588  1.00  0.00     0.024 H 
ATOM     36  H   UNL     1     -45.568  32.545  21.913  1.00  0.00     0.024 H 
ENDBRANCH  19  33
ENDBRANCH  15  18
ENDBRANCH   1  15
BRANCH   6  37
ATOM     37  C   UNL     1     -45.282  36.527  28.516  1.00  0.00     0.043 C 
ATOM     38  H   UNL     1     -44.287  36.070  28.457  1.00  0.00     0.054 H 
ATOM     39  H   UNL     1     -45.521  36.648  29.578  1.00  0.00     0.054 H 
BRANCH  37  40
ATOM     40  N   UNL     1     -45.270  37.842  27.927  1.00  0.00    -0.347 N 
ATOM     41  C   UNL     1     -44.668  38.919  28.527  1.00  0.00     0.270 C 
ATOM     42  H   UNL     1     -45.491  37.946  26.942  1.00  0.00     0.164 HD
ATOM     43  O   UNL     1     -44.213  38.917  29.665  1.00  0.00    -0.268 OA
BRANCH  41  44
ATOM     44  C   UNL     1     -44.607  40.123  27.617  1.00  0.00     0.136 A 
ATOM     45  C   UNL     1     -45.764  40.534  27.096  1.00  0.00     0.035 A 
ATOM     46  N   UNL     1     -43.386  40.719  27.388  1.00  0.00    -0.225 NA
ATOM     47  C   UNL     1     -45.753  41.705  26.212  1.00  0.00     0.258 A 
ATOM     48  H   UNL     1     -46.718  40.057  27.286  1.00  0.00     0.071 H 
ATOM     49  C   UNL     1     -43.382  41.756  26.607  1.00  0.00     0.140 A 
ATOM     50  O   UNL     1     -46.815  42.088  25.725  1.00  0.00    -0.269 OA
ATOM     51  N   UNL     1     -44.512  42.288  25.999  1.00  0.00    -0.268 N 
ATOM     52  C   UNL     1     -42.084  42.436  26.332  1.00  0.00    -0.019 A 
ATOM     53  C   UNL     1     -44.422  43.404  25.173  1.00  0.00     0.014 A 
ATOM     54  C   UNL     1     -42.047  43.507  25.531  1.00  0.00    -0.057 A 
ATOM     55  H   UNL     1     -41.197  42.030  26.804  1.00  0.00     0.066 H 
ATOM     56  C   UNL     1     -43.252  44.009  24.930  1.00  0.00    -0.045 A 
ATOM     57  H   UNL     1     -45.346  43.767  24.729  1.00  0.00     0.082 H 
ATOM     58  H   UNL     1     -41.112  44.017  25.320  1.00  0.00     0.062 H 
ATOM     59  H   UNL     1     -43.194  44.880  24.284  1.00  0.00     0.064 H 
ENDBRANCH  41  44
ENDBRANCH  37  40
ENDBRANCH   6  37
TORSDOF 7
ENDMDL
MODEL 5
REMARK VINA RESULT:      -9.6      1.917      3.256
REMARK SMILES CC1(C)CCN(Cc2cc3ccc(CNC(=O)c4cc(=O)n5ccccc5n4)cc3[nH]2)C1
REMARK SMILES IDX 8 1 9 2 10 3 11 4 12 5 13 6 29 7 30 8 31 9 7 15 6 18 2 19
REMARK SMILES IDX 4 20 32 21 5 22 1 29 3 33 14 37 15 40 16 41 17 43 18 44
REMARK SMILES IDX 19 45 28 46 20 47 27 49 21 50 22 51 26 52 23 53 25 54 24 56
REMARK H PARENT 9 10 11 11 12 12 29 13 31 14 7 16 7 17 4 23 4 24 32 25 32 26
REMARK H PARENT 5 27 5 28 1 30 1 31 1 32 3 34 3 35 3 36 14 38 14 39 15 42
REMARK H PARENT 19 48 26 55 23 57 25 58 24 59
REMARK Flexibility Score: inf
ROOT
ATOM      1  C   UNL     1     -46.787  32.895  25.425  1.00  0.00     0.030 A 
ATOM      2  C   UNL     1     -47.960  33.612  25.549  1.00  0.00    -0.032 A 
ATOM      3  C   UNL     1     -47.801  34.543  26.612  1.00  0.00    -0.000 A 
ATOM      4  C   UNL     1     -48.633  35.515  27.197  1.00  0.00    -0.052 A 
ATOM      5  C   UNL     1     -48.146  36.286  28.262  1.00  0.00    -0.057 A 
ATOM      6  C   UNL     1     -46.849  36.099  28.756  1.00  0.00    -0.027 A 
ATOM      7  C   UNL     1     -46.007  35.137  28.172  1.00  0.00    -0.033 A 
ATOM      8  C   UNL     1     -46.511  34.378  27.109  1.00  0.00     0.046 A 
ATOM      9  N   UNL     1     -45.914  33.387  26.366  1.00  0.00    -0.357 N 
ATOM     10  H   UNL     1     -48.846  33.479  24.940  1.00  0.00     0.065 H 
ATOM     11  H   UNL     1     -49.642  35.669  26.827  1.00  0.00     0.063 H 
ATOM     12  H   UNL     1     -48.797  37.038  28.702  1.00  0.00     0.063 H 
ATOM     13  H   UNL     1     -44.992  34.993  28.534  1.00  0.00     0.065 H 
ATOM     14  H   UNL     1     -44.967  33.060  26.508  1.00  0.00     0.166 HD
ENDROOT
BRANCH   1  15
ATOM     15  C   UNL     1     -46.393  31.815  24.471  1.00  0.00     0.039 C 
ATOM     16  H   UNL     1     -45.441  31.372  24.791  1.00  0.00     0.050 H 
ATOM     17  H   UNL     1     -46.182  32.267  23.493  1.00  0.00     0.050 H 
BRANCH  15  18
ATOM     18  N   UNL     1     -47.370  30.748  24.293  1.00  0.00    -0.297 NA
ATOM     19  C   UNL     1     -49.099  29.604  23.246  1.00  0.00    -0.021 C 
ATOM     20  C   UNL     1     -49.413  29.661  24.755  1.00  0.00    -0.034 C 
ATOM     21  C   UNL     1     -48.135  30.784  23.051  1.00  0.00     0.004 C 
ATOM     22  C   UNL     1     -48.338  30.564  25.366  1.00  0.00    -0.001 C 
ATOM     23  H   UNL     1     -49.393  28.665  25.212  1.00  0.00     0.029 H 
ATOM     24  H   UNL     1     -50.404  30.089  24.947  1.00  0.00     0.029 H 
ATOM     25  H   UNL     1     -47.498  30.654  22.171  1.00  0.00     0.044 H 
ATOM     26  H   UNL     1     -48.696  31.720  22.941  1.00  0.00     0.044 H 
ATOM     27  H   UNL     1     -47.880  30.098  26.244  1.00  0.00     0.043 H 
ATOM     28  H   UNL     1     -48.807  31.502  25.681  1.00  0.00     0.043 H 
BRANCH  19  29
ATOM     29  C   UNL     1     -48.414  28.269  22.897  1.00  0.00    -0.059 C 
ATOM     30  H   UNL     1     -47.322  28.356  22.893  1.00  0.00     0.024 H 
ATOM     31  H   UNL     1     -48.680  27.491  23.622  1.00  0.00     0.024 H 
ATOM     32  H   UNL     1     -48.722  27.918  21.905  1.00  0.00     0.024 H 
ENDBRANCH  19  29
BRANCH  19  33
ATOM     33  C   UNL     1     -50.359  29.760  22.391  1.00  0.00    -0.059 C 
ATOM     34  H   UNL     1     -50.308  29.131  21.496  1.00  0.00     0.024 H 
ATOM     35  H   UNL     1     -51.256  29.472  22.949  1.00  0.00     0.024 H 
ATOM     36  H   UNL     1     -50.488  30.799  22.069  1.00  0.00     0.024 H 
ENDBRANCH  19  33
ENDBRANCH  15  18
ENDBRANCH   1  15
BRANCH   6  37
ATOM     37  C   UNL     1     -46.331  36.953  29.887  1.00  0.00     0.043 C 
ATOM     38  H   UNL     1     -45.646  36.373  30.517  1.00  0.00     0.054 H 
ATOM     39  H   UNL     1     -47.157  37.284  30.527  1.00  0.00     0.054 H 
BRANCH  37  40
ATOM     40  N   UNL     1     -45.678  38.134  29.382  1.00  0.00    -0.347 N 
ATOM     41  C   UNL     1     -44.456  38.558  29.839  1.00  0.00     0.270 C 
ATOM     42  H   UNL     1     -45.992  38.538  28.506  1.00  0.00     0.164 HD
ATOM     43  O   UNL     1     -43.867  38.079  30.801  1.00  0.00    -0.268 OA
BRANCH  41  44
ATOM     44  C   UNL     1     -43.893  39.687  29.007  1.00  0.00     0.136 A 
ATOM     45  C   UNL     1     -42.812  40.301  29.492  1.00  0.00     0.035 A 
ATOM     46  N   UNL     1     -44.511  40.005  27.819  1.00  0.00    -0.225 NA
ATOM     47  C   UNL     1     -42.228  41.398  28.712  1.00  0.00     0.258 A 
ATOM     48  H   UNL     1     -42.334  40.039  30.427  1.00  0.00     0.071 H 
ATOM     49  C   UNL     1     -43.989  40.975  27.132  1.00  0.00     0.140 A 
ATOM     50  O   UNL     1     -41.233  41.972  29.154  1.00  0.00    -0.269 OA
ATOM     51  N   UNL     1     -42.867  41.698  27.518  1.00  0.00    -0.268 N 
ATOM     52  C   UNL     1     -44.622  41.353  25.836  1.00  0.00    -0.019 A 
ATOM     53  C   UNL     1     -42.369  42.726  26.724  1.00  0.00     0.014 A 
ATOM     54  C   UNL     1     -44.108  42.349  25.106  1.00  0.00    -0.057 A 
ATOM     55  H   UNL     1     -45.496  40.794  25.524  1.00  0.00     0.066 H 
ATOM     56  C   UNL     1     -42.944  43.061  25.561  1.00  0.00    -0.045 A 
ATOM     57  H   UNL     1     -41.489  43.250  27.088  1.00  0.00     0.082 H 
ATOM     58  H   UNL     1     -44.553  42.638  24.159  1.00  0.00     0.062 H 
ATOM     59  H   UNL     1     -42.546  43.865  24.949  1.00  0.00     0.064 H 
ENDBRANCH  41  44
ENDBRANCH  37  40
ENDBRANCH   6  37
TORSDOF 7
ENDMDL
MODEL 6
REMARK VINA RESULT:      -9.5      2.054      2.997
REMARK SMILES CC1(C)CCN(Cc2cc3ccc(CNC(=O)c4cc(=O)n5ccccc5n4)cc3[nH]2)C1
REMARK SMILES IDX 8 1 9 2 10 3 11 4 12 5 13 6 29 7 30 8 31 9 7 15 6 18 2 19
REMARK SMILES IDX 4 20 32 21 5 22 1 29 3 33 14 37 15 40 16 41 17 43 18 44
REMARK SMILES IDX 19 45 28 46 20 47 27 49 21 50 22 51 26 52 23 53 25 54 24 56
REMARK H PARENT 9 10 11 11 12 12 29 13 31 14 7 16 7 17 4 23 4 24 32 25 32 26
REMARK H PARENT 5 27 5 28 1 30 1 31 1 32 3 34 3 35 3 36 14 38 14 39 15 42
REMARK H PARENT 19 48 26 55 23 57 25 58 24 59
REMARK Flexibility Score: inf
ROOT
ATOM      1  C   UNL     1     -49.039  31.542  24.558  1.00  0.00     0.030 A 
ATOM      2  C   UNL     1     -47.684  31.808  24.497  1.00  0.00    -0.032 A 
ATOM      3  C   UNL     1     -47.414  32.926  25.332  1.00  0.00    -0.000 A 
ATOM      4  C   UNL     1     -46.250  33.645  25.662  1.00  0.00    -0.052 A 
ATOM      5  C   UNL     1     -46.339  34.729  26.547  1.00  0.00    -0.057 A 
ATOM      6  C   UNL     1     -47.567  35.111  27.101  1.00  0.00    -0.027 A 
ATOM      7  C   UNL     1     -48.734  34.393  26.785  1.00  0.00    -0.033 A 
ATOM      8  C   UNL     1     -48.624  33.313  25.900  1.00  0.00     0.046 A 
ATOM      9  N   UNL     1     -49.587  32.453  25.429  1.00  0.00    -0.357 N 
ATOM     10  H   UNL     1     -46.962  31.256  23.909  1.00  0.00     0.065 H 
ATOM     11  H   UNL     1     -45.291  33.363  25.238  1.00  0.00     0.063 H 
ATOM     12  H   UNL     1     -45.431  35.273  26.798  1.00  0.00     0.063 H 
ATOM     13  H   UNL     1     -49.691  34.668  27.221  1.00  0.00     0.065 H 
ATOM     14  H   UNL     1     -50.566  32.499  25.681  1.00  0.00     0.166 HD
ENDROOT
BRANCH   1  15
ATOM     15  C   UNL     1     -49.860  30.480  23.904  1.00  0.00     0.039 C 
ATOM     16  H   UNL     1     -50.892  30.535  24.275  1.00  0.00     0.050 H 
ATOM     17  H   UNL     1     -49.492  29.498  24.229  1.00  0.00     0.050 H 
BRANCH  15  18
ATOM     18  N   UNL     1     -49.884  30.512  22.447  1.00  0.00    -0.297 NA
ATOM     19  C   UNL     1     -48.995  30.729  20.312  1.00  0.00    -0.021 C 
ATOM     20  C   UNL     1     -50.302  31.546  20.368  1.00  0.00    -0.034 C 
ATOM     21  C   UNL     1     -48.587  30.635  21.790  1.00  0.00     0.004 C 
ATOM     22  C   UNL     1     -50.751  31.508  21.831  1.00  0.00    -0.001 C 
ATOM     23  H   UNL     1     -51.072  31.126  19.710  1.00  0.00     0.029 H 
ATOM     24  H   UNL     1     -50.143  32.587  20.061  1.00  0.00     0.029 H 
ATOM     25  H   UNL     1     -47.944  29.770  21.985  1.00  0.00     0.044 H 
ATOM     26  H   UNL     1     -48.055  31.543  22.097  1.00  0.00     0.044 H 
ATOM     27  H   UNL     1     -51.806  31.228  21.915  1.00  0.00     0.043 H 
ATOM     28  H   UNL     1     -50.625  32.507  22.262  1.00  0.00     0.043 H 
BRANCH  19  29
ATOM     29  C   UNL     1     -49.269  29.331  19.725  1.00  0.00    -0.059 C 
ATOM     30  H   UNL     1     -49.271  29.340  18.630  1.00  0.00     0.024 H 
ATOM     31  H   UNL     1     -48.505  28.615  20.046  1.00  0.00     0.024 H 
ATOM     32  H   UNL     1     -50.242  28.951  20.056  1.00  0.00     0.024 H 
ENDBRANCH  19  29
BRANCH  19  33
ATOM     33  C   UNL     1     -47.919  31.424  19.475  1.00  0.00    -0.059 C 
ATOM     34  H   UNL     1     -47.131  31.840  20.113  1.00  0.00     0.024 H 
ATOM     35  H   UNL     1     -47.446  30.725  18.777  1.00  0.00     0.024 H 
ATOM     36  H   UNL     1     -48.347  32.242  18.886  1.00  0.00     0.024 H 
ENDBRANCH  19  33
ENDBRANCH  15  18
ENDBRANCH   1  15
BRANCH   6  37
ATOM     37  C   UNL     1     -47.643  36.265  28.070  1.00  0.00     0.043 C 
ATOM     38  H   UNL     1     -47.526  35.906  29.098  1.00  0.00     0.054 H 
ATOM     39  H   UNL     1     -48.620  36.756  28.006  1.00  0.00     0.054 H 
BRANCH  37  40
ATOM     40  N   UNL     1     -46.644  37.258  27.764  1.00  0.00    -0.347 N 
ATOM     41  C   UNL     1     -46.932  38.596  27.670  1.00  0.00     0.270 C 
ATOM     42  H   UNL     1     -45.662  37.019  27.856  1.00  0.00     0.164 HD
ATOM     43  O   UNL     1     -48.063  39.067  27.690  1.00  0.00    -0.268 OA
BRANCH  41  44
ATOM     44  C   UNL     1     -45.688  39.444  27.555  1.00  0.00     0.136 A 
ATOM     45  C   UNL     1     -45.543  40.138  26.425  1.00  0.00     0.035 A 
ATOM     46  N   UNL     1     -44.796  39.458  28.605  1.00  0.00    -0.225 NA
ATOM     47  C   UNL     1     -44.352  40.982  26.274  1.00  0.00     0.258 A 
ATOM     48  H   UNL     1     -46.252  40.121  25.607  1.00  0.00     0.071 H 
ATOM     49  C   UNL     1     -43.745  40.208  28.467  1.00  0.00     0.140 A 
ATOM     50  O   UNL     1     -44.209  41.622  25.233  1.00  0.00    -0.269 OA
ATOM     51  N   UNL     1     -43.471  40.980  27.345  1.00  0.00    -0.268 N 
ATOM     52  C   UNL     1     -42.753  40.257  29.580  1.00  0.00    -0.019 A 
ATOM     53  C   UNL     1     -42.319  41.758  27.276  1.00  0.00     0.014 A 
ATOM     54  C   UNL     1     -41.660  41.019  29.467  1.00  0.00    -0.057 A 
ATOM     55  H   UNL     1     -42.960  39.660  30.460  1.00  0.00     0.066 H 
ATOM     56  C   UNL     1     -41.432  41.796  28.279  1.00  0.00    -0.045 A 
ATOM     57  H   UNL     1     -42.167  42.336  26.368  1.00  0.00     0.082 H 
ATOM     58  H   UNL     1     -40.927  41.070  30.266  1.00  0.00     0.062 H 
ATOM     59  H   UNL     1     -40.537  42.407  28.213  1.00  0.00     0.064 H 
ENDBRANCH  41  44
ENDBRANCH  37  40
ENDBRANCH   6  37
TORSDOF 7
ENDMDL
MODEL 7
REMARK VINA RESULT:      -9.3      1.593      2.358
REMARK SMILES CC1(C)CCN(Cc2cc3ccc(CNC(=O)c4cc(=O)n5ccccc5n4)cc3[nH]2)C1
REMARK SMILES IDX 8 1 9 2 10 3 11 4 12 5 13 6 29 7 30 8 31 9 7 15 6 18 2 19
REMARK SMILES IDX 4 20 32 21 5 22 1 29 3 33 14 37 15 40 16 41 17 43 18 44
REMARK SMILES IDX 19 45 28 46 20 47 27 49 21 50 22 51 26 52 23 53 25 54 24 56
REMARK H PARENT 9 10 11 11 12 12 29 13 31 14 7 16 7 17 4 23 4 24 32 25 32 26
REMARK H PARENT 5 27 5 28 1 30 1 31 1 32 3 34 3 35 3 36 14 38 14 39 15 42
REMARK H PARENT 19 48 26 55 23 57 25 58 24 59
REMARK Flexibility Score: inf
ROOT
ATOM      1  C   UNL     1     -48.032  31.295  24.691  1.00  0.00     0.030 A 
ATOM      2  C   UNL     1     -48.985  32.211  25.093  1.00  0.00    -0.032 A 
ATOM      3  C   UNL     1     -48.341  33.208  25.874  1.00  0.00    -0.000 A 
ATOM      4  C   UNL     1     -48.781  34.364  26.545  1.00  0.00    -0.052 A 
ATOM      5  C   UNL     1     -47.853  35.150  27.242  1.00  0.00    -0.057 A 
ATOM      6  C   UNL     1     -46.498  34.799  27.287  1.00  0.00    -0.027 A 
ATOM      7  C   UNL     1     -46.047  33.651  26.612  1.00  0.00    -0.033 A 
ATOM      8  C   UNL     1     -46.989  32.880  25.921  1.00  0.00     0.046 A 
ATOM      9  N   UNL     1     -46.826  31.730  25.186  1.00  0.00    -0.357 N 
ATOM     10  H   UNL     1     -50.040  32.165  24.853  1.00  0.00     0.065 H 
ATOM     11  H   UNL     1     -49.829  34.647  26.523  1.00  0.00     0.063 H 
ATOM     12  H   UNL     1     -48.205  36.044  27.752  1.00  0.00     0.063 H 
ATOM     13  H   UNL     1     -44.995  33.377  26.624  1.00  0.00     0.065 H 
ATOM     14  H   UNL     1     -45.938  31.264  25.047  1.00  0.00     0.166 HD
ENDROOT
BRANCH   1  15
ATOM     15  C   UNL     1     -48.144  30.069  23.846  1.00  0.00     0.039 C 
ATOM     16  H   UNL     1     -47.215  29.930  23.277  1.00  0.00     0.050 H 
ATOM     17  H   UNL     1     -48.921  30.232  23.088  1.00  0.00     0.050 H 
BRANCH  15  18
ATOM     18  N   UNL     1     -48.442  28.836  24.564  1.00  0.00    -0.297 NA
ATOM     19  C   UNL     1     -47.977  26.781  25.541  1.00  0.00    -0.021 C 
ATOM     20  C   UNL     1     -49.270  26.632  24.713  1.00  0.00    -0.034 C 
ATOM     21  C   UNL     1     -47.296  27.997  24.895  1.00  0.00     0.004 C 
ATOM     22  C   UNL     1     -49.435  27.956  23.962  1.00  0.00    -0.001 C 
ATOM     23  H   UNL     1     -50.140  26.433  25.351  1.00  0.00     0.029 H 
ATOM     24  H   UNL     1     -49.198  25.808  23.993  1.00  0.00     0.029 H 
ATOM     25  H   UNL     1     -46.606  28.495  25.583  1.00  0.00     0.044 H 
ATOM     26  H   UNL     1     -46.738  27.691  24.001  1.00  0.00     0.044 H 
ATOM     27  H   UNL     1     -50.448  28.354  24.077  1.00  0.00     0.043 H 
ATOM     28  H   UNL     1     -49.255  27.777  22.897  1.00  0.00     0.043 H 
BRANCH  19  29
ATOM     29  C   UNL     1     -48.321  27.059  27.016  1.00  0.00    -0.059 C 
ATOM     30  H   UNL     1     -47.609  27.749  27.480  1.00  0.00     0.024 H 
ATOM     31  H   UNL     1     -49.318  27.504  27.109  1.00  0.00     0.024 H 
ATOM     32  H   UNL     1     -48.315  26.132  27.601  1.00  0.00     0.024 H 
ENDBRANCH  19  29
BRANCH  19  33
ATOM     33  C   UNL     1     -47.096  25.533  25.458  1.00  0.00    -0.059 C 
ATOM     34  H   UNL     1     -46.577  25.353  26.406  1.00  0.00     0.024 H 
ATOM     35  H   UNL     1     -47.690  24.641  25.230  1.00  0.00     0.024 H 
ATOM     36  H   UNL     1     -46.340  25.637  24.671  1.00  0.00     0.024 H 
ENDBRANCH  19  33
ENDBRANCH  15  18
ENDBRANCH   1  15
BRANCH   6  37
ATOM     37  C   UNL     1     -45.507  35.668  28.022  1.00  0.00     0.043 C 
ATOM     38  H   UNL     1     -44.486  35.312  27.845  1.00  0.00     0.054 H 
ATOM     39  H   UNL     1     -45.684  35.621  29.102  1.00  0.00     0.054 H 
BRANCH  37  40
ATOM     40  N   UNL     1     -45.639  37.047  27.624  1.00  0.00    -0.347 N 
ATOM     41  C   UNL     1     -45.168  38.087  28.386  1.00  0.00     0.270 C 
ATOM     42  H   UNL     1     -45.860  37.265  26.659  1.00  0.00     0.164 HD
ATOM     43  O   UNL     1     -44.727  37.972  29.523  1.00  0.00    -0.268 OA
BRANCH  41  44
ATOM     44  C   UNL     1     -45.234  39.407  27.656  1.00  0.00     0.136 A 
ATOM     45  C   UNL     1     -46.436  39.783  27.216  1.00  0.00     0.035 A 
ATOM     46  N   UNL     1     -44.076  40.136  27.497  1.00  0.00    -0.225 NA
ATOM     47  C   UNL     1     -46.549  41.064  26.508  1.00  0.00     0.258 A 
ATOM     48  H   UNL     1     -47.340  39.202  27.348  1.00  0.00     0.071 H 
ATOM     49  C   UNL     1     -44.182  41.269  26.873  1.00  0.00     0.140 A 
ATOM     50  O   UNL     1     -47.653  41.416  26.095  1.00  0.00    -0.269 OA
ATOM     51  N   UNL     1     -45.369  41.780  26.363  1.00  0.00    -0.268 N 
ATOM     52  C   UNL     1     -42.955  42.094  26.680  1.00  0.00    -0.019 A 
ATOM     53  C   UNL     1     -45.397  43.004  25.704  1.00  0.00     0.014 A 
ATOM     54  C   UNL     1     -43.031  43.266  26.039  1.00  0.00    -0.057 A 
ATOM     55  H   UNL     1     -42.024  41.706  27.076  1.00  0.00     0.066 H 
ATOM     56  C   UNL     1     -44.291  43.739  25.534  1.00  0.00    -0.045 A 
ATOM     57  H   UNL     1     -46.361  43.342  25.330  1.00  0.00     0.082 H 
ATOM     58  H   UNL     1     -42.149  43.881  25.891  1.00  0.00     0.062 H 
ATOM     59  H   UNL     1     -44.325  44.694  25.018  1.00  0.00     0.064 H 
ENDBRANCH  41  44
ENDBRANCH  37  40
ENDBRANCH   6  37
TORSDOF 7
ENDMDL
