MODEL 1
REMARK VINA RESULT:     -11.4      0.000      0.000
REMARK SMILES Cn1ccc(-c2cn(-c3cncc(COc4ccc5ccc(C6CCOCC6)nc5c4)c3)c3ncnc(N)c23)n1
REMARK SMILES IDX 9 1 10 2 11 3 12 4 13 5 32 6 8 10 6 11 7 12 39 13 33 15
REMARK SMILES IDX 37 16 34 17 36 18 35 19 5 21 2 22 3 23 40 24 4 25 1 28 38 32
REMARK SMILES IDX 14 35 15 38 16 39 17 40 31 41 18 42 30 44 19 46 29 48 20 49
REMARK SMILES IDX 22 50 21 51 23 54 24 55 28 56 25 58 27 61 26 64
REMARK H PARENT 10 7 12 8 32 9 7 14 35 20 3 26 4 27 1 29 1 30 1 31 38 33 38 34
REMARK H PARENT 14 36 14 37 17 43 31 45 18 47 20 52 21 53 23 57 24 59 24 60
REMARK H PARENT 28 62 28 63 25 65 25 66 27 67 27 68
REMARK Flexibility Score: inf
ROOT
ATOM      1  C   UNL     1     -45.855  38.180  28.112  1.00  0.00     0.066 A 
ATOM      2  C   UNL     1     -45.607  37.641  29.373  1.00  0.00     0.051 A 
ATOM      3  N   UNL     1     -46.183  36.510  29.854  1.00  0.00    -0.262 NA
ATOM      4  C   UNL     1     -47.050  35.875  29.041  1.00  0.00     0.034 A 
ATOM      5  C   UNL     1     -47.363  36.302  27.758  1.00  0.00     0.010 A 
ATOM      6  C   UNL     1     -46.761  37.485  27.303  1.00  0.00    -0.028 A 
ATOM      7  H   UNL     1     -44.940  38.100  30.094  1.00  0.00     0.086 H 
ATOM      8  H   UNL     1     -47.496  34.980  29.467  1.00  0.00     0.084 H 
ATOM      9  H   UNL     1     -47.007  37.819  26.301  1.00  0.00     0.065 H 
ENDROOT
BRANCH   1  10
ATOM     10  N   UNL     1     -45.204  39.383  27.686  1.00  0.00    -0.299 N 
ATOM     11  C   UNL     1     -44.743  41.231  26.466  1.00  0.00     0.033 A 
ATOM     12  C   UNL     1     -45.561  40.125  26.571  1.00  0.00     0.021 A 
ATOM     13  C   UNL     1     -43.807  41.172  27.536  1.00  0.00     0.071 A 
ATOM     14  H   UNL     1     -46.399  39.848  25.951  1.00  0.00     0.083 H 
ATOM     15  C   UNL     1     -44.121  40.035  28.282  1.00  0.00     0.150 A 
ATOM     16  C   UNL     1     -42.712  41.936  27.982  1.00  0.00     0.137 A 
ATOM     17  N   UNL     1     -43.459  39.632  29.386  1.00  0.00    -0.218 NA
ATOM     18  N   UNL     1     -42.061  41.567  29.100  1.00  0.00    -0.219 NA
ATOM     19  C   UNL     1     -42.460  40.453  29.728  1.00  0.00     0.120 A 
ATOM     20  H   UNL     1     -41.903  40.183  30.619  1.00  0.00     0.106 H 
BRANCH  11  21
ATOM     21  C   UNL     1     -44.842  42.278  25.444  1.00  0.00     0.095 A 
ATOM     22  N   UNL     1     -45.484  43.976  24.359  1.00  0.00    -0.275 N 
ATOM     23  C   UNL     1     -44.470  43.460  23.610  1.00  0.00     0.025 A 
ATOM     24  N   UNL     1     -45.739  43.272  25.479  1.00  0.00    -0.173 NA
ATOM     25  C   UNL     1     -44.030  42.347  24.289  1.00  0.00    -0.016 A 
ATOM     26  H   UNL     1     -44.150  43.913  22.682  1.00  0.00     0.084 H 
ATOM     27  H   UNL     1     -43.228  41.688  23.991  1.00  0.00     0.066 H 
BRANCH  22  28
ATOM     28  C   UNL     1     -46.268  45.152  24.067  1.00  0.00     0.030 C 
ATOM     29  H   UNL     1     -46.841  44.966  23.156  1.00  0.00     0.048 H 
ATOM     30  H   UNL     1     -46.936  45.339  24.912  1.00  0.00     0.048 H 
ATOM     31  H   UNL     1     -45.602  46.007  23.922  1.00  0.00     0.048 H 
ENDBRANCH  22  28
ENDBRANCH  11  21
BRANCH  16  32
ATOM     32  N   UNL     1     -42.239  43.071  27.339  1.00  0.00    -0.383 N 
ATOM     33  H   UNL     1     -42.445  43.066  26.336  1.00  0.00     0.158 HD
ATOM     34  H   UNL     1     -42.479  43.909  27.849  1.00  0.00     0.158 HD
ENDBRANCH  16  32
ENDBRANCH   1  10
BRANCH   5  35
ATOM     35  C   UNL     1     -48.363  35.535  26.930  1.00  0.00     0.115 C 
ATOM     36  H   UNL     1     -49.387  35.901  27.072  1.00  0.00     0.076 H 
ATOM     37  H   UNL     1     -48.120  35.714  25.876  1.00  0.00     0.076 H 
BRANCH  35  38
ATOM     38  O   UNL     1     -48.298  34.120  27.124  1.00  0.00    -0.489 OA
BRANCH  38  39
ATOM     39  C   UNL     1     -47.732  33.346  26.150  1.00  0.00     0.122 A 
ATOM     40  C   UNL     1     -46.656  33.696  25.341  1.00  0.00    -0.019 A 
ATOM     41  C   UNL     1     -48.342  32.098  25.974  1.00  0.00     0.006 A 
ATOM     42  C   UNL     1     -46.195  32.798  24.375  1.00  0.00    -0.049 A 
ATOM     43  H   UNL     1     -46.160  34.656  25.418  1.00  0.00     0.066 H 
ATOM     44  C   UNL     1     -47.903  31.187  25.024  1.00  0.00     0.074 A 
ATOM     45  H   UNL     1     -49.189  31.827  26.600  1.00  0.00     0.069 H 
ATOM     46  C   UNL     1     -46.812  31.546  24.215  1.00  0.00     0.000 A 
ATOM     47  H   UNL     1     -45.355  33.082  23.745  1.00  0.00     0.063 H 
ATOM     48  N   UNL     1     -48.525  29.998  24.903  1.00  0.00    -0.252 NA
ATOM     49  C   UNL     1     -46.374  30.625  23.260  1.00  0.00    -0.051 A 
ATOM     50  C   UNL     1     -48.096  29.115  23.966  1.00  0.00     0.044 A 
ATOM     51  C   UNL     1     -47.019  29.398  23.135  1.00  0.00    -0.040 A 
ATOM     52  H   UNL     1     -45.532  30.850  22.611  1.00  0.00     0.063 H 
ATOM     53  H   UNL     1     -46.667  28.683  22.397  1.00  0.00     0.064 H 
BRANCH  50  54
ATOM     54  C   UNL     1     -48.852  27.797  23.924  1.00  0.00     0.006 C 
ATOM     55  C   UNL     1     -49.931  27.620  25.008  1.00  0.00    -0.021 C 
ATOM     56  C   UNL     1     -49.434  27.548  22.529  1.00  0.00    -0.021 C 
ATOM     57  H   UNL     1     -48.098  27.018  24.108  1.00  0.00     0.037 H 
ATOM     58  C   UNL     1     -51.346  27.706  24.446  1.00  0.00     0.047 C 
ATOM     59  H   UNL     1     -49.804  28.355  25.812  1.00  0.00     0.030 H 
ATOM     60  H   UNL     1     -49.818  26.639  25.488  1.00  0.00     0.030 H 
ATOM     61  C   UNL     1     -50.689  28.377  22.262  1.00  0.00     0.047 C 
ATOM     62  H   UNL     1     -48.697  27.715  21.736  1.00  0.00     0.030 H 
ATOM     63  H   UNL     1     -49.708  26.487  22.463  1.00  0.00     0.030 H 
ATOM     64  O   UNL     1     -51.419  28.712  23.445  1.00  0.00    -0.381 OA
ATOM     65  H   UNL     1     -51.671  26.745  24.026  1.00  0.00     0.057 H 
ATOM     66  H   UNL     1     -52.050  27.962  25.244  1.00  0.00     0.057 H 
ATOM     67  H   UNL     1     -50.421  29.321  21.775  1.00  0.00     0.057 H 
ATOM     68  H   UNL     1     -51.357  27.844  21.578  1.00  0.00     0.057 H 
ENDBRANCH  50  54
ENDBRANCH  38  39
ENDBRANCH  35  38
ENDBRANCH   5  35
TORSDOF 8
ENDMDL
MODEL 2
REMARK VINA RESULT:     -11.2      2.601     12.559
REMARK SMILES Cn1ccc(-c2cn(-c3cncc(COc4ccc5ccc(C6CCOCC6)nc5c4)c3)c3ncnc(N)c23)n1
REMARK SMILES IDX 9 1 10 2 11 3 12 4 13 5 32 6 8 10 6 11 7 12 39 13 33 15
REMARK SMILES IDX 37 16 34 17 36 18 35 19 5 21 2 22 3 23 40 24 4 25 1 28 38 32
REMARK SMILES IDX 14 35 15 38 16 39 17 40 31 41 18 42 30 44 19 46 29 48 20 49
REMARK SMILES IDX 22 50 21 51 23 54 24 55 28 56 25 58 27 61 26 64
REMARK H PARENT 10 7 12 8 32 9 7 14 35 20 3 26 4 27 1 29 1 30 1 31 38 33 38 34
REMARK H PARENT 14 36 14 37 17 43 31 45 18 47 20 52 21 53 23 57 24 59 24 60
REMARK H PARENT 28 62 28 63 25 65 25 66 27 67 27 68
REMARK Flexibility Score: inf
ROOT
ATOM      1  C   UNL     1     -47.651  32.147  25.306  1.00  0.00     0.066 A 
ATOM      2  C   UNL     1     -46.300  32.465  25.188  1.00  0.00     0.051 A 
ATOM      3  N   UNL     1     -45.746  33.637  25.586  1.00  0.00    -0.262 NA
ATOM      4  C   UNL     1     -46.575  34.546  26.136  1.00  0.00     0.034 A 
ATOM      5  C   UNL     1     -47.935  34.339  26.326  1.00  0.00     0.010 A 
ATOM      6  C   UNL     1     -48.473  33.121  25.885  1.00  0.00    -0.028 A 
ATOM      7  H   UNL     1     -45.571  31.798  24.739  1.00  0.00     0.086 H 
ATOM      8  H   UNL     1     -46.094  35.475  26.433  1.00  0.00     0.084 H 
ATOM      9  H   UNL     1     -49.536  32.960  26.033  1.00  0.00     0.065 H 
ENDROOT
BRANCH   1  10
ATOM     10  N   UNL     1     -48.152  30.883  24.854  1.00  0.00    -0.299 N 
ATOM     11  C   UNL     1     -49.042  28.805  24.921  1.00  0.00     0.033 A 
ATOM     12  C   UNL     1     -48.616  29.873  25.682  1.00  0.00     0.021 A 
ATOM     13  C   UNL     1     -48.809  29.134  23.556  1.00  0.00     0.071 A 
ATOM     14  H   UNL     1     -48.657  29.993  26.754  1.00  0.00     0.083 H 
ATOM     15  C   UNL     1     -48.276  30.424  23.541  1.00  0.00     0.150 A 
ATOM     16  C   UNL     1     -48.974  28.505  22.308  1.00  0.00     0.137 A 
ATOM     17  N   UNL     1     -47.920  31.096  22.426  1.00  0.00    -0.218 NA
ATOM     18  N   UNL     1     -48.656  29.174  21.185  1.00  0.00    -0.219 NA
ATOM     19  C   UNL     1     -48.151  30.409  21.302  1.00  0.00     0.120 A 
ATOM     20  H   UNL     1     -47.897  30.909  20.374  1.00  0.00     0.106 H 
BRANCH  11  21
ATOM     21  C   UNL     1     -49.643  27.569  25.434  1.00  0.00     0.095 A 
ATOM     22  N   UNL     1     -51.032  26.185  26.226  1.00  0.00    -0.275 N 
ATOM     23  C   UNL     1     -49.871  25.479  26.125  1.00  0.00     0.025 A 
ATOM     24  N   UNL     1     -50.920  27.464  25.820  1.00  0.00    -0.173 NA
ATOM     25  C   UNL     1     -48.941  26.354  25.614  1.00  0.00    -0.016 A 
ATOM     26  H   UNL     1     -49.801  24.439  26.415  1.00  0.00     0.084 H 
ATOM     27  H   UNL     1     -47.906  26.138  25.395  1.00  0.00     0.066 H 
BRANCH  22  28
ATOM     28  C   UNL     1     -52.303  25.702  26.709  1.00  0.00     0.030 C 
ATOM     29  H   UNL     1     -53.085  26.375  26.352  1.00  0.00     0.048 H 
ATOM     30  H   UNL     1     -52.457  24.691  26.320  1.00  0.00     0.048 H 
ATOM     31  H   UNL     1     -52.294  25.683  27.802  1.00  0.00     0.048 H 
ENDBRANCH  22  28
ENDBRANCH  11  21
BRANCH  16  32
ATOM     32  N   UNL     1     -49.452  27.213  22.143  1.00  0.00    -0.383 N 
ATOM     33  H   UNL     1     -50.197  27.158  21.443  1.00  0.00     0.158 HD
ATOM     34  H   UNL     1     -48.696  26.549  22.056  1.00  0.00     0.158 HD
ENDBRANCH  16  32
ENDBRANCH   1  10
BRANCH   5  35
ATOM     35  C   UNL     1     -48.786  35.426  26.933  1.00  0.00     0.115 C 
ATOM     36  H   UNL     1     -48.794  36.336  26.322  1.00  0.00     0.076 H 
ATOM     37  H   UNL     1     -49.820  35.061  26.947  1.00  0.00     0.076 H 
BRANCH  35  38
ATOM     38  O   UNL     1     -48.446  35.726  28.288  1.00  0.00    -0.489 OA
BRANCH  38  39
ATOM     39  C   UNL     1     -47.358  36.516  28.535  1.00  0.00     0.122 A 
ATOM     40  C   UNL     1     -46.458  36.374  29.586  1.00  0.00    -0.019 A 
ATOM     41  C   UNL     1     -47.188  37.569  27.627  1.00  0.00     0.006 A 
ATOM     42  C   UNL     1     -45.395  37.272  29.714  1.00  0.00    -0.049 A 
ATOM     43  H   UNL     1     -46.553  35.592  30.330  1.00  0.00     0.066 H 
ATOM     44  C   UNL     1     -46.140  38.474  27.730  1.00  0.00     0.074 A 
ATOM     45  H   UNL     1     -47.896  37.687  26.810  1.00  0.00     0.069 H 
ATOM     46  C   UNL     1     -45.232  38.318  28.791  1.00  0.00     0.000 A 
ATOM     47  H   UNL     1     -44.698  37.153  30.541  1.00  0.00     0.063 H 
ATOM     48  N   UNL     1     -46.023  39.463  26.824  1.00  0.00    -0.252 NA
ATOM     49  C   UNL     1     -44.180  39.232  28.890  1.00  0.00    -0.051 A 
ATOM     50  C   UNL     1     -45.001  40.350  26.936  1.00  0.00     0.044 A 
ATOM     51  C   UNL     1     -44.060  40.255  27.955  1.00  0.00    -0.040 A 
ATOM     52  H   UNL     1     -43.447  39.155  29.689  1.00  0.00     0.063 H 
ATOM     53  H   UNL     1     -43.235  40.956  28.033  1.00  0.00     0.064 H 
BRANCH  50  54
ATOM     54  C   UNL     1     -44.947  41.415  25.854  1.00  0.00     0.006 C 
ATOM     55  C   UNL     1     -46.109  42.426  25.863  1.00  0.00    -0.021 C 
ATOM     56  C   UNL     1     -43.596  42.137  25.867  1.00  0.00    -0.021 C 
ATOM     57  H   UNL     1     -45.019  40.871  24.901  1.00  0.00     0.037 H 
ATOM     58  C   UNL     1     -45.678  43.809  26.341  1.00  0.00     0.047 C 
ATOM     59  H   UNL     1     -46.940  42.062  26.479  1.00  0.00     0.030 H 
ATOM     60  H   UNL     1     -46.518  42.531  24.851  1.00  0.00     0.030 H 
ATOM     61  C   UNL     1     -43.489  43.157  26.999  1.00  0.00     0.047 C 
ATOM     62  H   UNL     1     -42.753  41.438  25.909  1.00  0.00     0.030 H 
ATOM     63  H   UNL     1     -43.491  42.674  24.915  1.00  0.00     0.030 H 
ATOM     64  O   UNL     1     -44.748  43.695  27.410  1.00  0.00    -0.381 OA
ATOM     65  H   UNL     1     -45.231  44.394  25.527  1.00  0.00     0.057 H 
ATOM     66  H   UNL     1     -46.548  44.368  26.699  1.00  0.00     0.057 H 
ATOM     67  H   UNL     1     -43.037  42.694  27.883  1.00  0.00     0.057 H 
ATOM     68  H   UNL     1     -42.835  43.984  26.704  1.00  0.00     0.057 H 
ENDBRANCH  50  54
ENDBRANCH  38  39
ENDBRANCH  35  38
ENDBRANCH   5  35
TORSDOF 8
ENDMDL
MODEL 3
REMARK VINA RESULT:     -10.8      2.619     12.413
REMARK SMILES Cn1ccc(-c2cn(-c3cncc(COc4ccc5ccc(C6CCOCC6)nc5c4)c3)c3ncnc(N)c23)n1
REMARK SMILES IDX 9 1 10 2 11 3 12 4 13 5 32 6 8 10 6 11 7 12 39 13 33 15
REMARK SMILES IDX 37 16 34 17 36 18 35 19 5 21 2 22 3 23 40 24 4 25 1 28 38 32
REMARK SMILES IDX 14 35 15 38 16 39 17 40 31 41 18 42 30 44 19 46 29 48 20 49
REMARK SMILES IDX 22 50 21 51 23 54 24 55 28 56 25 58 27 61 26 64
REMARK H PARENT 10 7 12 8 32 9 7 14 35 20 3 26 4 27 1 29 1 30 1 31 38 33 38 34
REMARK H PARENT 14 36 14 37 17 43 31 45 18 47 20 52 21 53 23 57 24 59 24 60
REMARK H PARENT 28 62 28 63 25 65 25 66 27 67 27 68
REMARK Flexibility Score: inf
ROOT
ATOM      1  C   UNL     1     -48.033  33.358  26.194  1.00  0.00     0.066 A 
ATOM      2  C   UNL     1     -49.254  33.980  26.448  1.00  0.00     0.051 A 
ATOM      3  N   UNL     1     -49.393  35.183  27.060  1.00  0.00    -0.262 NA
ATOM      4  C   UNL     1     -48.261  35.808  27.439  1.00  0.00     0.034 A 
ATOM      5  C   UNL     1     -46.987  35.300  27.224  1.00  0.00     0.010 A 
ATOM      6  C   UNL     1     -46.885  34.046  26.603  1.00  0.00    -0.028 A 
ATOM      7  H   UNL     1     -50.210  33.536  26.194  1.00  0.00     0.086 H 
ATOM      8  H   UNL     1     -48.416  36.763  27.934  1.00  0.00     0.084 H 
ATOM      9  H   UNL     1     -45.889  33.648  26.436  1.00  0.00     0.065 H 
ENDROOT
BRANCH   1  10
ATOM     10  N   UNL     1     -47.979  32.082  25.544  1.00  0.00    -0.299 N 
ATOM     11  C   UNL     1     -48.407  29.907  25.095  1.00  0.00     0.033 A 
ATOM     12  C   UNL     1     -48.668  30.953  25.956  1.00  0.00     0.021 A 
ATOM     13  C   UNL     1     -47.489  30.380  24.116  1.00  0.00     0.071 A 
ATOM     14  H   UNL     1     -49.334  30.975  26.805  1.00  0.00     0.083 H 
ATOM     15  C   UNL     1     -47.254  31.726  24.404  1.00  0.00     0.150 A 
ATOM     16  C   UNL     1     -46.808  29.844  23.007  1.00  0.00     0.137 A 
ATOM     17  N   UNL     1     -46.434  32.531  23.698  1.00  0.00    -0.218 NA
ATOM     18  N   UNL     1     -46.013  30.643  22.272  1.00  0.00    -0.219 NA
ATOM     19  C   UNL     1     -45.868  31.919  22.652  1.00  0.00     0.120 A 
ATOM     20  H   UNL     1     -45.211  32.526  22.040  1.00  0.00     0.106 H 
BRANCH  11  21
ATOM     21  C   UNL     1     -48.990  28.564  25.174  1.00  0.00     0.095 A 
ATOM     22  N   UNL     1     -49.304  26.533  25.673  1.00  0.00    -0.275 N 
ATOM     23  C   UNL     1     -50.321  26.832  24.816  1.00  0.00     0.025 A 
ATOM     24  N   UNL     1     -48.473  27.567  25.903  1.00  0.00    -0.173 NA
ATOM     25  C   UNL     1     -50.143  28.151  24.468  1.00  0.00    -0.016 A 
ATOM     26  H   UNL     1     -51.068  26.104  24.532  1.00  0.00     0.084 H 
ATOM     27  H   UNL     1     -50.768  28.730  23.804  1.00  0.00     0.066 H 
BRANCH  22  28
ATOM     28  C   UNL     1     -49.057  25.266  26.319  1.00  0.00     0.030 C 
ATOM     29  H   UNL     1     -48.855  25.453  27.376  1.00  0.00     0.048 H 
ATOM     30  H   UNL     1     -49.946  24.641  26.201  1.00  0.00     0.048 H 
ATOM     31  H   UNL     1     -48.195  24.782  25.852  1.00  0.00     0.048 H 
ENDBRANCH  22  28
ENDBRANCH  11  21
BRANCH  16  32
ATOM     32  N   UNL     1     -46.896  28.520  22.604  1.00  0.00    -0.383 N 
ATOM     33  H   UNL     1     -46.802  27.866  23.386  1.00  0.00     0.158 HD
ATOM     34  H   UNL     1     -47.678  28.375  21.982  1.00  0.00     0.158 HD
ENDBRANCH  16  32
ENDBRANCH   1  10
BRANCH   5  35
ATOM     35  C   UNL     1     -45.778  36.064  27.703  1.00  0.00     0.115 C 
ATOM     36  H   UNL     1     -45.035  35.411  28.176  1.00  0.00     0.076 H 
ATOM     37  H   UNL     1     -45.289  36.489  26.818  1.00  0.00     0.076 H 
BRANCH  35  38
ATOM     38  O   UNL     1     -46.102  37.166  28.554  1.00  0.00    -0.489 OA
BRANCH  38  39
ATOM     39  C   UNL     1     -45.155  38.126  28.778  1.00  0.00     0.122 A 
ATOM     40  C   UNL     1     -44.361  38.252  29.913  1.00  0.00    -0.019 A 
ATOM     41  C   UNL     1     -45.023  39.063  27.744  1.00  0.00     0.006 A 
ATOM     42  C   UNL     1     -43.440  39.298  30.002  1.00  0.00    -0.049 A 
ATOM     43  H   UNL     1     -44.436  37.570  30.752  1.00  0.00     0.066 H 
ATOM     44  C   UNL     1     -44.115  40.111  27.807  1.00  0.00     0.074 A 
ATOM     45  H   UNL     1     -45.650  38.971  26.860  1.00  0.00     0.069 H 
ATOM     46  C   UNL     1     -43.313  40.226  28.955  1.00  0.00     0.000 A 
ATOM     47  H   UNL     1     -42.826  39.389  30.895  1.00  0.00     0.063 H 
ATOM     48  N   UNL     1     -44.028  40.978  26.780  1.00  0.00    -0.252 NA
ATOM     49  C   UNL     1     -42.401  41.283  29.012  1.00  0.00    -0.051 A 
ATOM     50  C   UNL     1     -43.144  42.006  26.851  1.00  0.00     0.044 A 
ATOM     51  C   UNL     1     -42.313  42.180  27.951  1.00  0.00    -0.040 A 
ATOM     52  H   UNL     1     -41.754  41.417  29.875  1.00  0.00     0.063 H 
ATOM     53  H   UNL     1     -41.596  42.994  27.999  1.00  0.00     0.064 H 
BRANCH  50  54
ATOM     54  C   UNL     1     -43.110  42.916  25.635  1.00  0.00     0.006 C 
ATOM     55  C   UNL     1     -44.164  42.613  24.554  1.00  0.00    -0.021 C 
ATOM     56  C   UNL     1     -43.166  44.388  26.054  1.00  0.00    -0.021 C 
ATOM     57  H   UNL     1     -42.130  42.746  25.166  1.00  0.00     0.037 H 
ATOM     58  C   UNL     1     -45.269  43.664  24.503  1.00  0.00     0.047 C 
ATOM     59  H   UNL     1     -44.602  41.619  24.701  1.00  0.00     0.030 H 
ATOM     60  H   UNL     1     -43.685  42.580  23.567  1.00  0.00     0.030 H 
ATOM     61  C   UNL     1     -44.573  44.830  26.453  1.00  0.00     0.047 C 
ATOM     62  H   UNL     1     -42.457  44.618  26.857  1.00  0.00     0.030 H 
ATOM     63  H   UNL     1     -42.851  44.996  25.195  1.00  0.00     0.030 H 
ATOM     64  O   UNL     1     -45.613  44.083  25.817  1.00  0.00    -0.381 OA
ATOM     65  H   UNL     1     -44.969  44.534  23.905  1.00  0.00     0.057 H 
ATOM     66  H   UNL     1     -46.163  43.243  24.030  1.00  0.00     0.057 H 
ATOM     67  H   UNL     1     -44.713  44.712  27.533  1.00  0.00     0.057 H 
ATOM     68  H   UNL     1     -44.715  45.891  26.227  1.00  0.00     0.057 H 
ENDBRANCH  50  54
ENDBRANCH  38  39
ENDBRANCH  35  38
ENDBRANCH   5  35
TORSDOF 8
ENDMDL
MODEL 4
REMARK VINA RESULT:     -10.8      1.611      2.537
REMARK SMILES Cn1ccc(-c2cn(-c3cncc(COc4ccc5ccc(C6CCOCC6)nc5c4)c3)c3ncnc(N)c23)n1
REMARK SMILES IDX 9 1 10 2 11 3 12 4 13 5 32 6 8 10 6 11 7 12 39 13 33 15
REMARK SMILES IDX 37 16 34 17 36 18 35 19 5 21 2 22 3 23 40 24 4 25 1 28 38 32
REMARK SMILES IDX 14 35 15 38 16 39 17 40 31 41 18 42 30 44 19 46 29 48 20 49
REMARK SMILES IDX 22 50 21 51 23 54 24 55 28 56 25 58 27 61 26 64
REMARK H PARENT 10 7 12 8 32 9 7 14 35 20 3 26 4 27 1 29 1 30 1 31 38 33 38 34
REMARK H PARENT 14 36 14 37 17 43 31 45 18 47 20 52 21 53 23 57 24 59 24 60
REMARK H PARENT 28 62 28 63 25 65 25 66 27 67 27 68
REMARK Flexibility Score: inf
ROOT
ATOM      1  C   UNL     1     -46.386  38.262  27.552  1.00  0.00     0.066 A 
ATOM      2  C   UNL     1     -45.733  37.818  28.699  1.00  0.00     0.051 A 
ATOM      3  N   UNL     1     -45.898  36.591  29.253  1.00  0.00    -0.262 NA
ATOM      4  C   UNL     1     -46.756  35.755  28.635  1.00  0.00     0.034 A 
ATOM      5  C   UNL     1     -47.449  36.074  27.476  1.00  0.00     0.010 A 
ATOM      6  C   UNL     1     -47.264  37.359  26.943  1.00  0.00    -0.028 A 
ATOM      7  H   UNL     1     -45.044  38.435  29.266  1.00  0.00     0.086 H 
ATOM      8  H   UNL     1     -46.867  34.786  29.116  1.00  0.00     0.084 H 
ATOM      9  H   UNL     1     -47.808  37.609  26.038  1.00  0.00     0.065 H 
ENDROOT
BRANCH   1  10
ATOM     10  N   UNL     1     -46.153  39.579  27.036  1.00  0.00    -0.299 N 
ATOM     11  C   UNL     1     -45.056  41.359  26.173  1.00  0.00     0.033 A 
ATOM     12  C   UNL     1     -44.920  40.067  26.635  1.00  0.00     0.021 A 
ATOM     13  C   UNL     1     -46.425  41.720  26.316  1.00  0.00     0.071 A 
ATOM     14  H   UNL     1     -44.033  39.452  26.661  1.00  0.00     0.083 H 
ATOM     15  C   UNL     1     -47.082  40.603  26.835  1.00  0.00     0.150 A 
ATOM     16  C   UNL     1     -47.214  42.862  26.080  1.00  0.00     0.137 A 
ATOM     17  N   UNL     1     -48.401  40.547  27.113  1.00  0.00    -0.218 NA
ATOM     18  N   UNL     1     -48.536  42.812  26.320  1.00  0.00    -0.219 NA
ATOM     19  C   UNL     1     -49.049  41.679  26.818  1.00  0.00     0.120 A 
ATOM     20  H   UNL     1     -50.117  41.683  27.009  1.00  0.00     0.106 H 
BRANCH  11  21
ATOM     21  C   UNL     1     -43.984  42.192  25.619  1.00  0.00     0.095 A 
ATOM     22  N   UNL     1     -42.805  43.324  24.277  1.00  0.00    -0.275 N 
ATOM     23  C   UNL     1     -42.103  43.346  25.445  1.00  0.00     0.025 A 
ATOM     24  N   UNL     1     -43.952  42.621  24.352  1.00  0.00    -0.173 NA
ATOM     25  C   UNL     1     -42.844  42.612  26.342  1.00  0.00    -0.016 A 
ATOM     26  H   UNL     1     -41.161  43.867  25.542  1.00  0.00     0.084 H 
ATOM     27  H   UNL     1     -42.595  42.419  27.375  1.00  0.00     0.066 H 
BRANCH  22  28
ATOM     28  C   UNL     1     -42.440  43.957  23.033  1.00  0.00     0.030 C 
ATOM     29  H   UNL     1     -42.764  44.999  23.069  1.00  0.00     0.048 H 
ATOM     30  H   UNL     1     -41.354  43.894  22.920  1.00  0.00     0.048 H 
ATOM     31  H   UNL     1     -42.931  43.440  22.204  1.00  0.00     0.048 H 
ENDBRANCH  22  28
ENDBRANCH  11  21
BRANCH  16  32
ATOM     32  N   UNL     1     -46.717  44.068  25.606  1.00  0.00    -0.383 N 
ATOM     33  H   UNL     1     -47.183  44.371  24.746  1.00  0.00     0.158 HD
ATOM     34  H   UNL     1     -46.640  44.751  26.346  1.00  0.00     0.158 HD
ENDBRANCH  16  32
ENDBRANCH   1  10
BRANCH   5  35
ATOM     35  C   UNL     1     -48.404  35.078  26.868  1.00  0.00     0.115 C 
ATOM     36  H   UNL     1     -49.445  35.275  27.152  1.00  0.00     0.076 H 
ATOM     37  H   UNL     1     -48.357  35.202  25.780  1.00  0.00     0.076 H 
BRANCH  35  38
ATOM     38  O   UNL     1     -48.054  33.718  27.135  1.00  0.00    -0.489 OA
BRANCH  38  39
ATOM     39  C   UNL     1     -47.610  32.937  26.104  1.00  0.00     0.122 A 
ATOM     40  C   UNL     1     -46.544  33.220  25.256  1.00  0.00    -0.019 A 
ATOM     41  C   UNL     1     -48.344  31.760  25.911  1.00  0.00     0.006 A 
ATOM     42  C   UNL     1     -46.216  32.325  24.235  1.00  0.00    -0.049 A 
ATOM     43  H   UNL     1     -45.956  34.126  25.346  1.00  0.00     0.066 H 
ATOM     44  C   UNL     1     -48.038  30.854  24.905  1.00  0.00     0.074 A 
ATOM     45  H   UNL     1     -49.183  31.542  26.567  1.00  0.00     0.069 H 
ATOM     46  C   UNL     1     -46.956  31.145  24.057  1.00  0.00     0.000 A 
ATOM     47  H   UNL     1     -45.382  32.557  23.576  1.00  0.00     0.063 H 
ATOM     48  N   UNL     1     -48.774  29.734  24.770  1.00  0.00    -0.252 NA
ATOM     49  C   UNL     1     -46.652  30.229  23.047  1.00  0.00    -0.051 A 
ATOM     50  C   UNL     1     -48.475  28.857  23.779  1.00  0.00     0.044 A 
ATOM     51  C   UNL     1     -47.415  29.074  22.906  1.00  0.00    -0.040 A 
ATOM     52  H   UNL     1     -45.823  30.403  22.366  1.00  0.00     0.063 H 
ATOM     53  H   UNL     1     -47.167  28.362  22.125  1.00  0.00     0.064 H 
BRANCH  50  54
ATOM     54  C   UNL     1     -49.354  27.618  23.723  1.00  0.00     0.006 C 
ATOM     55  C   UNL     1     -50.501  27.576  24.750  1.00  0.00    -0.021 C 
ATOM     56  C   UNL     1     -49.883  27.389  22.304  1.00  0.00    -0.021 C 
ATOM     57  H   UNL     1     -48.691  26.775  23.966  1.00  0.00     0.037 H 
ATOM     58  C   UNL     1     -51.869  27.784  24.108  1.00  0.00     0.047 C 
ATOM     59  H   UNL     1     -50.345  28.317  25.543  1.00  0.00     0.030 H 
ATOM     60  H   UNL     1     -50.511  26.602  25.256  1.00  0.00     0.030 H 
ATOM     61  C   UNL     1     -51.034  28.329  21.950  1.00  0.00     0.047 C 
ATOM     62  H   UNL     1     -49.092  27.462  21.549  1.00  0.00     0.030 H 
ATOM     63  H   UNL     1     -50.257  26.358  22.246  1.00  0.00     0.030 H 
ATOM     64  O   UNL     1     -51.789  28.765  23.083  1.00  0.00    -0.381 OA
ATOM     65  H   UNL     1     -52.264  26.848  23.692  1.00  0.00     0.057 H 
ATOM     66  H   UNL     1     -52.585  28.129  24.861  1.00  0.00     0.057 H 
ATOM     67  H   UNL     1     -50.649  29.228  21.459  1.00  0.00     0.057 H 
ATOM     68  H   UNL     1     -51.714  27.845  21.242  1.00  0.00     0.057 H 
ENDBRANCH  50  54
ENDBRANCH  38  39
ENDBRANCH  35  38
ENDBRANCH   5  35
TORSDOF 8
ENDMDL
MODEL 5
REMARK VINA RESULT:     -10.5      1.697      2.242
REMARK SMILES Cn1ccc(-c2cn(-c3cncc(COc4ccc5ccc(C6CCOCC6)nc5c4)c3)c3ncnc(N)c23)n1
REMARK SMILES IDX 9 1 10 2 11 3 12 4 13 5 32 6 8 10 6 11 7 12 39 13 33 15
REMARK SMILES IDX 37 16 34 17 36 18 35 19 5 21 2 22 3 23 40 24 4 25 1 28 38 32
REMARK SMILES IDX 14 35 15 38 16 39 17 40 31 41 18 42 30 44 19 46 29 48 20 49
REMARK SMILES IDX 22 50 21 51 23 54 24 55 28 56 25 58 27 61 26 64
REMARK H PARENT 10 7 12 8 32 9 7 14 35 20 3 26 4 27 1 29 1 30 1 31 38 33 38 34
REMARK H PARENT 14 36 14 37 17 43 31 45 18 47 20 52 21 53 23 57 24 59 24 60
REMARK H PARENT 28 62 28 63 25 65 25 66 27 67 27 68
REMARK Flexibility Score: inf
ROOT
ATOM      1  C   UNL     1     -46.480  37.875  27.544  1.00  0.00     0.066 A 
ATOM      2  C   UNL     1     -47.782  37.989  28.028  1.00  0.00     0.051 A 
ATOM      3  N   UNL     1     -48.685  36.977  28.053  1.00  0.00    -0.262 NA
ATOM      4  C   UNL     1     -48.276  35.784  27.576  1.00  0.00     0.034 A 
ATOM      5  C   UNL     1     -47.000  35.542  27.086  1.00  0.00     0.010 A 
ATOM      6  C   UNL     1     -46.100  36.619  27.061  1.00  0.00    -0.028 A 
ATOM      7  H   UNL     1     -48.194  38.916  28.410  1.00  0.00     0.086 H 
ATOM      8  H   UNL     1     -49.032  35.003  27.604  1.00  0.00     0.084 H 
ATOM      9  H   UNL     1     -45.103  36.429  26.677  1.00  0.00     0.065 H 
ENDROOT
BRANCH   1  10
ATOM     10  N   UNL     1     -45.592  39.000  27.553  1.00  0.00    -0.299 N 
ATOM     11  C   UNL     1     -44.624  40.947  26.929  1.00  0.00     0.033 A 
ATOM     12  C   UNL     1     -45.589  40.015  26.608  1.00  0.00     0.021 A 
ATOM     13  C   UNL     1     -43.964  40.491  28.105  1.00  0.00     0.071 A 
ATOM     14  H   UNL     1     -46.299  40.034  25.797  1.00  0.00     0.083 H 
ATOM     15  C   UNL     1     -44.589  39.300  28.478  1.00  0.00     0.150 A 
ATOM     16  C   UNL     1     -42.901  40.928  28.917  1.00  0.00     0.137 A 
ATOM     17  N   UNL     1     -44.248  38.557  29.551  1.00  0.00    -0.218 NA
ATOM     18  N   UNL     1     -42.571  40.216  30.010  1.00  0.00    -0.219 NA
ATOM     19  C   UNL     1     -43.247  39.088  30.262  1.00  0.00     0.120 A 
ATOM     20  H   UNL     1     -42.943  38.537  31.146  1.00  0.00     0.106 H 
BRANCH  11  21
ATOM     21  C   UNL     1     -44.350  42.187  26.195  1.00  0.00     0.095 A 
ATOM     22  N   UNL     1     -44.015  44.226  25.744  1.00  0.00    -0.275 N 
ATOM     23  C   UNL     1     -43.971  43.600  24.535  1.00  0.00     0.025 A 
ATOM     24  N   UNL     1     -44.253  43.390  26.774  1.00  0.00    -0.173 NA
ATOM     25  C   UNL     1     -44.190  42.267  24.793  1.00  0.00    -0.016 A 
ATOM     26  H   UNL     1     -43.791  44.137  23.614  1.00  0.00     0.084 H 
ATOM     27  H   UNL     1     -44.219  41.468  24.067  1.00  0.00     0.066 H 
BRANCH  22  28
ATOM     28  C   UNL     1     -43.839  45.635  26.000  1.00  0.00     0.030 C 
ATOM     29  H   UNL     1     -44.468  46.193  25.303  1.00  0.00     0.048 H 
ATOM     30  H   UNL     1     -44.135  45.837  27.033  1.00  0.00     0.048 H 
ATOM     31  H   UNL     1     -42.789  45.903  25.854  1.00  0.00     0.048 H 
ENDBRANCH  22  28
ENDBRANCH  11  21
BRANCH  16  32
ATOM     32  N   UNL     1     -42.148  42.066  28.670  1.00  0.00    -0.383 N 
ATOM     33  H   UNL     1     -41.719  42.057  27.740  1.00  0.00     0.158 HD
ATOM     34  H   UNL     1     -42.648  42.903  28.932  1.00  0.00     0.158 HD
ENDBRANCH  16  32
ENDBRANCH   1  10
BRANCH   5  35
ATOM     35  C   UNL     1     -46.642  34.178  26.553  1.00  0.00     0.115 C 
ATOM     36  H   UNL     1     -45.683  33.818  26.947  1.00  0.00     0.076 H 
ATOM     37  H   UNL     1     -47.401  33.475  26.917  1.00  0.00     0.076 H 
BRANCH  35  38
ATOM     38  O   UNL     1     -46.667  34.098  25.127  1.00  0.00    -0.489 OA
BRANCH  38  39
ATOM     39  C   UNL     1     -46.688  32.866  24.535  1.00  0.00     0.122 A 
ATOM     40  C   UNL     1     -46.014  32.498  23.375  1.00  0.00    -0.019 A 
ATOM     41  C   UNL     1     -47.494  31.924  25.186  1.00  0.00     0.006 A 
ATOM     42  C   UNL     1     -46.142  31.196  22.884  1.00  0.00    -0.049 A 
ATOM     43  H   UNL     1     -45.394  33.191  22.819  1.00  0.00     0.066 H 
ATOM     44  C   UNL     1     -47.638  30.624  24.719  1.00  0.00     0.074 A 
ATOM     45  H   UNL     1     -48.029  32.213  26.087  1.00  0.00     0.069 H 
ATOM     46  C   UNL     1     -46.949  30.260  23.550  1.00  0.00     0.000 A 
ATOM     47  H   UNL     1     -45.613  30.919  21.974  1.00  0.00     0.063 H 
ATOM     48  N   UNL     1     -48.422  29.759  25.390  1.00  0.00    -0.252 NA
ATOM     49  C   UNL     1     -47.097  28.950  23.086  1.00  0.00    -0.051 A 
ATOM     50  C   UNL     1     -48.565  28.492  24.923  1.00  0.00     0.044 A 
ATOM     51  C   UNL     1     -47.910  28.057  23.778  1.00  0.00    -0.040 A 
ATOM     52  H   UNL     1     -46.583  28.614  22.188  1.00  0.00     0.063 H 
ATOM     53  H   UNL     1     -48.013  27.039  23.416  1.00  0.00     0.064 H 
BRANCH  50  54
ATOM     54  C   UNL     1     -49.456  27.591  25.761  1.00  0.00     0.006 C 
ATOM     55  C   UNL     1     -49.954  26.315  25.057  1.00  0.00    -0.021 C 
ATOM     56  C   UNL     1     -48.786  27.251  27.096  1.00  0.00    -0.021 C 
ATOM     57  H   UNL     1     -50.352  28.188  25.987  1.00  0.00     0.037 H 
ATOM     58  C   UNL     1     -49.280  25.053  25.587  1.00  0.00     0.047 C 
ATOM     59  H   UNL     1     -49.813  26.385  23.972  1.00  0.00     0.030 H 
ATOM     60  H   UNL     1     -51.036  26.206  25.206  1.00  0.00     0.030 H 
ATOM     61  C   UNL     1     -47.699  26.188  26.951  1.00  0.00     0.047 C 
ATOM     62  H   UNL     1     -48.381  28.139  27.595  1.00  0.00     0.030 H 
ATOM     63  H   UNL     1     -49.558  26.857  27.770  1.00  0.00     0.030 H 
ATOM     64  O   UNL     1     -47.905  25.301  25.849  1.00  0.00    -0.381 OA
ATOM     65  H   UNL     1     -49.768  24.689  26.500  1.00  0.00     0.057 H 
ATOM     66  H   UNL     1     -49.350  24.252  24.843  1.00  0.00     0.057 H 
ATOM     67  H   UNL     1     -46.724  26.664  26.798  1.00  0.00     0.057 H 
ATOM     68  H   UNL     1     -47.623  25.596  27.869  1.00  0.00     0.057 H 
ENDBRANCH  50  54
ENDBRANCH  38  39
ENDBRANCH  35  38
ENDBRANCH   5  35
TORSDOF 8
ENDMDL
MODEL 6
REMARK VINA RESULT:     -10.5      2.130      3.275
REMARK SMILES Cn1ccc(-c2cn(-c3cncc(COc4ccc5ccc(C6CCOCC6)nc5c4)c3)c3ncnc(N)c23)n1
REMARK SMILES IDX 9 1 10 2 11 3 12 4 13 5 32 6 8 10 6 11 7 12 39 13 33 15
REMARK SMILES IDX 37 16 34 17 36 18 35 19 5 21 2 22 3 23 40 24 4 25 1 28 38 32
REMARK SMILES IDX 14 35 15 38 16 39 17 40 31 41 18 42 30 44 19 46 29 48 20 49
REMARK SMILES IDX 22 50 21 51 23 54 24 55 28 56 25 58 27 61 26 64
REMARK H PARENT 10 7 12 8 32 9 7 14 35 20 3 26 4 27 1 29 1 30 1 31 38 33 38 34
REMARK H PARENT 14 36 14 37 17 43 31 45 18 47 20 52 21 53 23 57 24 59 24 60
REMARK H PARENT 28 62 28 63 25 65 25 66 27 67 27 68
REMARK Flexibility Score: inf
ROOT
ATOM      1  C   UNL     1     -45.721  38.429  28.306  1.00  0.00     0.066 A 
ATOM      2  C   UNL     1     -45.986  38.426  29.674  1.00  0.00     0.051 A 
ATOM      3  N   UNL     1     -46.095  37.307  30.434  1.00  0.00    -0.262 NA
ATOM      4  C   UNL     1     -45.930  36.126  29.806  1.00  0.00     0.034 A 
ATOM      5  C   UNL     1     -45.644  36.001  28.454  1.00  0.00     0.010 A 
ATOM      6  C   UNL     1     -45.555  37.180  27.698  1.00  0.00    -0.028 A 
ATOM      7  H   UNL     1     -46.151  39.330  30.248  1.00  0.00     0.086 H 
ATOM      8  H   UNL     1     -46.035  35.255  30.448  1.00  0.00     0.084 H 
ATOM      9  H   UNL     1     -45.333  37.082  26.640  1.00  0.00     0.065 H 
ENDROOT
BRANCH   1  10
ATOM     10  N   UNL     1     -45.626  39.661  27.578  1.00  0.00    -0.299 N 
ATOM     11  C   UNL     1     -44.715  41.388  26.437  1.00  0.00     0.033 A 
ATOM     12  C   UNL     1     -44.445  40.215  27.110  1.00  0.00     0.021 A 
ATOM     13  C   UNL     1     -46.120  41.607  26.509  1.00  0.00     0.071 A 
ATOM     14  H   UNL     1     -43.496  39.720  27.244  1.00  0.00     0.083 H 
ATOM     15  C   UNL     1     -46.659  40.522  27.202  1.00  0.00     0.150 A 
ATOM     16  C   UNL     1     -47.025  42.595  26.079  1.00  0.00     0.137 A 
ATOM     17  N   UNL     1     -47.970  40.361  27.477  1.00  0.00    -0.218 NA
ATOM     18  N   UNL     1     -48.340  42.432  26.316  1.00  0.00    -0.219 NA
ATOM     19  C   UNL     1     -48.734  41.346  26.993  1.00  0.00     0.120 A 
ATOM     20  H   UNL     1     -49.800  41.258  27.173  1.00  0.00     0.106 H 
BRANCH  11  21
ATOM     21  C   UNL     1     -43.729  42.236  25.758  1.00  0.00     0.095 A 
ATOM     22  N   UNL     1     -42.740  43.387  24.286  1.00  0.00    -0.275 N 
ATOM     23  C   UNL     1     -41.900  43.414  25.358  1.00  0.00     0.025 A 
ATOM     24  N   UNL     1     -43.860  42.669  24.498  1.00  0.00    -0.173 NA
ATOM     25  C   UNL     1     -42.514  42.668  26.337  1.00  0.00    -0.016 A 
ATOM     26  H   UNL     1     -40.959  43.947  25.340  1.00  0.00     0.084 H 
ATOM     27  H   UNL     1     -42.137  42.475  27.330  1.00  0.00     0.066 H 
BRANCH  22  28
ATOM     28  C   UNL     1     -42.539  44.028  23.009  1.00  0.00     0.030 C 
ATOM     29  H   UNL     1     -43.461  44.544  22.734  1.00  0.00     0.048 H 
ATOM     30  H   UNL     1     -41.714  44.738  23.106  1.00  0.00     0.048 H 
ATOM     31  H   UNL     1     -42.295  43.273  22.257  1.00  0.00     0.048 H 
ENDBRANCH  22  28
ENDBRANCH  11  21
BRANCH  16  32
ATOM     32  N   UNL     1     -46.656  43.754  25.413  1.00  0.00    -0.383 N 
ATOM     33  H   UNL     1     -47.463  44.326  25.147  1.00  0.00     0.158 HD
ATOM     34  H   UNL     1     -45.900  44.227  25.888  1.00  0.00     0.158 HD
ENDBRANCH  16  32
ENDBRANCH   1  10
BRANCH   5  35
ATOM     35  C   UNL     1     -45.496  34.633  27.836  1.00  0.00     0.115 C 
ATOM     36  H   UNL     1     -44.504  34.202  28.017  1.00  0.00     0.076 H 
ATOM     37  H   UNL     1     -46.211  33.970  28.337  1.00  0.00     0.076 H 
BRANCH  35  38
ATOM     38  O   UNL     1     -45.819  34.599  26.444  1.00  0.00    -0.489 OA
BRANCH  38  39
ATOM     39  C   UNL     1     -46.917  33.891  26.040  1.00  0.00     0.122 A 
ATOM     40  C   UNL     1     -48.181  33.930  26.618  1.00  0.00    -0.019 A 
ATOM     41  C   UNL     1     -46.691  33.046  24.946  1.00  0.00     0.006 A 
ATOM     42  C   UNL     1     -49.206  33.137  26.097  1.00  0.00    -0.049 A 
ATOM     43  H   UNL     1     -48.407  34.549  27.479  1.00  0.00     0.066 H 
ATOM     44  C   UNL     1     -47.692  32.248  24.408  1.00  0.00     0.074 A 
ATOM     45  H   UNL     1     -45.701  33.007  24.499  1.00  0.00     0.069 H 
ATOM     46  C   UNL     1     -48.967  32.298  24.996  1.00  0.00     0.000 A 
ATOM     47  H   UNL     1     -50.190  33.172  26.559  1.00  0.00     0.063 H 
ATOM     48  N   UNL     1     -47.418  31.459  23.352  1.00  0.00    -0.252 NA
ATOM     49  C   UNL     1     -49.971  31.494  24.449  1.00  0.00    -0.051 A 
ATOM     50  C   UNL     1     -48.399  30.675  22.836  1.00  0.00     0.044 A 
ATOM     51  C   UNL     1     -49.687  30.676  23.360  1.00  0.00    -0.040 A 
ATOM     52  H   UNL     1     -50.976  31.497  24.863  1.00  0.00     0.063 H 
ATOM     53  H   UNL     1     -50.474  30.061  22.935  1.00  0.00     0.064 H 
BRANCH  50  54
ATOM     54  C   UNL     1     -47.994  29.836  21.636  1.00  0.00     0.006 C 
ATOM     55  C   UNL     1     -49.056  28.838  21.138  1.00  0.00    -0.021 C 
ATOM     56  C   UNL     1     -47.501  30.726  20.491  1.00  0.00    -0.021 C 
ATOM     57  H   UNL     1     -47.138  29.233  21.973  1.00  0.00     0.037 H 
ATOM     58  C   UNL     1     -49.681  29.263  19.813  1.00  0.00     0.047 C 
ATOM     59  H   UNL     1     -49.840  28.692  21.890  1.00  0.00     0.030 H 
ATOM     60  H   UNL     1     -48.600  27.851  20.993  1.00  0.00     0.030 H 
ATOM     61  C   UNL     1     -48.648  31.402  19.741  1.00  0.00     0.047 C 
ATOM     62  H   UNL     1     -46.779  31.477  20.830  1.00  0.00     0.030 H 
ATOM     63  H   UNL     1     -46.959  30.091  19.779  1.00  0.00     0.030 H 
ATOM     64  O   UNL     1     -49.875  30.671  19.787  1.00  0.00    -0.381 OA
ATOM     65  H   UNL     1     -49.060  28.962  18.960  1.00  0.00     0.057 H 
ATOM     66  H   UNL     1     -50.655  28.779  19.688  1.00  0.00     0.057 H 
ATOM     67  H   UNL     1     -48.849  32.389  20.171  1.00  0.00     0.057 H 
ATOM     68  H   UNL     1     -48.374  31.561  18.693  1.00  0.00     0.057 H 
ENDBRANCH  50  54
ENDBRANCH  38  39
ENDBRANCH  35  38
ENDBRANCH   5  35
TORSDOF 8
ENDMDL
MODEL 7
REMARK VINA RESULT:     -10.5      1.544      2.234
REMARK SMILES Cn1ccc(-c2cn(-c3cncc(COc4ccc5ccc(C6CCOCC6)nc5c4)c3)c3ncnc(N)c23)n1
REMARK SMILES IDX 9 1 10 2 11 3 12 4 13 5 32 6 8 10 6 11 7 12 39 13 33 15
REMARK SMILES IDX 37 16 34 17 36 18 35 19 5 21 2 22 3 23 40 24 4 25 1 28 38 32
REMARK SMILES IDX 14 35 15 38 16 39 17 40 31 41 18 42 30 44 19 46 29 48 20 49
REMARK SMILES IDX 22 50 21 51 23 54 24 55 28 56 25 58 27 61 26 64
REMARK H PARENT 10 7 12 8 32 9 7 14 35 20 3 26 4 27 1 29 1 30 1 31 38 33 38 34
REMARK H PARENT 14 36 14 37 17 43 31 45 18 47 20 52 21 53 23 57 24 59 24 60
REMARK H PARENT 28 62 28 63 25 65 25 66 27 67 27 68
REMARK Flexibility Score: inf
ROOT
ATOM      1  C   UNL     1     -45.899  38.757  27.852  1.00  0.00     0.066 A 
ATOM      2  C   UNL     1     -47.158  38.895  28.433  1.00  0.00     0.051 A 
ATOM      3  N   UNL     1     -47.915  37.863  28.885  1.00  0.00    -0.262 NA
ATOM      4  C   UNL     1     -47.396  36.626  28.757  1.00  0.00     0.034 A 
ATOM      5  C   UNL     1     -46.146  36.363  28.214  1.00  0.00     0.010 A 
ATOM      6  C   UNL     1     -45.401  37.454  27.743  1.00  0.00    -0.028 A 
ATOM      7  H   UNL     1     -47.654  39.852  28.554  1.00  0.00     0.086 H 
ATOM      8  H   UNL     1     -48.037  35.828  29.121  1.00  0.00     0.084 H 
ATOM      9  H   UNL     1     -44.424  37.248  27.317  1.00  0.00     0.065 H 
ENDROOT
BRANCH   1  10
ATOM     10  N   UNL     1     -45.169  39.904  27.399  1.00  0.00    -0.299 N 
ATOM     11  C   UNL     1     -44.590  41.693  26.142  1.00  0.00     0.033 A 
ATOM     12  C   UNL     1     -45.483  40.650  26.274  1.00  0.00     0.021 A 
ATOM     13  C   UNL     1     -43.651  41.588  27.206  1.00  0.00     0.071 A 
ATOM     14  H   UNL     1     -46.344  40.421  25.666  1.00  0.00     0.083 H 
ATOM     15  C   UNL     1     -44.038  40.489  27.975  1.00  0.00     0.150 A 
ATOM     16  C   UNL     1     -42.502  42.281  27.630  1.00  0.00     0.137 A 
ATOM     17  N   UNL     1     -43.396  40.059  29.081  1.00  0.00    -0.218 NA
ATOM     18  N   UNL     1     -41.869  41.886  28.750  1.00  0.00    -0.219 NA
ATOM     19  C   UNL     1     -42.339  40.814  29.401  1.00  0.00     0.120 A 
ATOM     20  H   UNL     1     -41.794  40.522  30.292  1.00  0.00     0.106 H 
BRANCH  11  21
ATOM     21  C   UNL     1     -44.625  42.727  25.102  1.00  0.00     0.095 A 
ATOM     22  N   UNL     1     -44.061  43.995  23.506  1.00  0.00    -0.275 N 
ATOM     23  C   UNL     1     -45.317  44.406  23.838  1.00  0.00     0.025 A 
ATOM     24  N   UNL     1     -43.610  42.978  24.266  1.00  0.00    -0.173 NA
ATOM     25  C   UNL     1     -45.714  43.601  24.880  1.00  0.00    -0.016 A 
ATOM     26  H   UNL     1     -45.815  45.214  23.320  1.00  0.00     0.084 H 
ATOM     27  H   UNL     1     -46.661  43.638  25.397  1.00  0.00     0.066 H 
BRANCH  22  28
ATOM     28  C   UNL     1     -43.219  44.531  22.465  1.00  0.00     0.030 C 
ATOM     29  H   UNL     1     -43.264  43.859  21.605  1.00  0.00     0.048 H 
ATOM     30  H   UNL     1     -43.591  45.524  22.198  1.00  0.00     0.048 H 
ATOM     31  H   UNL     1     -42.191  44.604  22.830  1.00  0.00     0.048 H 
ENDBRANCH  22  28
ENDBRANCH  11  21
BRANCH  16  32
ATOM     32  N   UNL     1     -41.956  43.368  26.963  1.00  0.00    -0.383 N 
ATOM     33  H   UNL     1     -42.368  43.504  26.035  1.00  0.00     0.158 HD
ATOM     34  H   UNL     1     -41.907  44.180  27.562  1.00  0.00     0.158 HD
ENDBRANCH  16  32
ENDBRANCH   1  10
BRANCH   5  35
ATOM     35  C   UNL     1     -45.659  34.941  28.094  1.00  0.00     0.115 C 
ATOM     36  H   UNL     1     -44.673  34.800  28.555  1.00  0.00     0.076 H 
ATOM     37  H   UNL     1     -46.352  34.309  28.663  1.00  0.00     0.076 H 
BRANCH  35  38
ATOM     38  O   UNL     1     -45.669  34.446  26.754  1.00  0.00    -0.489 OA
BRANCH  38  39
ATOM     39  C   UNL     1     -46.789  33.813  26.292  1.00  0.00     0.122 A 
ATOM     40  C   UNL     1     -48.104  34.229  26.475  1.00  0.00    -0.019 A 
ATOM     41  C   UNL     1     -46.539  32.626  25.592  1.00  0.00     0.006 A 
ATOM     42  C   UNL     1     -49.150  33.467  25.951  1.00  0.00    -0.049 A 
ATOM     43  H   UNL     1     -48.357  35.127  27.026  1.00  0.00     0.066 H 
ATOM     44  C   UNL     1     -47.560  31.851  25.061  1.00  0.00     0.074 A 
ATOM     45  H   UNL     1     -45.512  32.295  25.457  1.00  0.00     0.069 H 
ATOM     46  C   UNL     1     -48.884  32.282  25.245  1.00  0.00     0.000 A 
ATOM     47  H   UNL     1     -50.175  33.800  26.101  1.00  0.00     0.063 H 
ATOM     48  N   UNL     1     -47.259  30.722  24.392  1.00  0.00    -0.252 NA
ATOM     49  C   UNL     1     -49.908  31.498  24.707  1.00  0.00    -0.051 A 
ATOM     50  C   UNL     1     -48.263  29.963  23.882  1.00  0.00     0.044 A 
ATOM     51  C   UNL     1     -49.596  30.330  24.018  1.00  0.00    -0.040 A 
ATOM     52  H   UNL     1     -50.950  31.787  24.817  1.00  0.00     0.063 H 
ATOM     53  H   UNL     1     -50.396  29.730  23.595  1.00  0.00     0.064 H 
BRANCH  50  54
ATOM     54  C   UNL     1     -47.817  28.721  23.129  1.00  0.00     0.006 C 
ATOM     55  C   UNL     1     -46.351  28.305  23.350  1.00  0.00    -0.021 C 
ATOM     56  C   UNL     1     -48.764  27.548  23.404  1.00  0.00    -0.021 C 
ATOM     57  H   UNL     1     -47.909  28.972  22.063  1.00  0.00     0.037 H 
ATOM     58  C   UNL     1     -46.221  27.046  24.203  1.00  0.00     0.047 C 
ATOM     59  H   UNL     1     -45.775  29.121  23.802  1.00  0.00     0.030 H 
ATOM     60  H   UNL     1     -45.871  28.108  22.383  1.00  0.00     0.030 H 
ATOM     61  C   UNL     1     -48.525  26.912  24.773  1.00  0.00     0.047 C 
ATOM     62  H   UNL     1     -49.817  27.832  23.300  1.00  0.00     0.030 H 
ATOM     63  H   UNL     1     -48.584  26.782  22.639  1.00  0.00     0.030 H 
ATOM     64  O   UNL     1     -47.184  27.057  25.248  1.00  0.00    -0.381 OA
ATOM     65  H   UNL     1     -46.343  26.138  23.599  1.00  0.00     0.057 H 
ATOM     66  H   UNL     1     -45.224  27.002  24.653  1.00  0.00     0.057 H 
ATOM     67  H   UNL     1     -49.179  27.371  25.522  1.00  0.00     0.057 H 
ATOM     68  H   UNL     1     -48.773  25.847  24.744  1.00  0.00     0.057 H 
ENDBRANCH  50  54
ENDBRANCH  38  39
ENDBRANCH  35  38
ENDBRANCH   5  35
TORSDOF 8
ENDMDL
