MODEL 1
REMARK VINA RESULT:     -11.6      0.000      0.000
REMARK SMILES O=C(NCc1ccc2cc(CN3CC[C@]4(CCO4)C3)[nH]c2c1)c1cc(=O)n2ccccc2n1
REMARK SMILES IDX 5 1 6 2 7 3 8 4 9 5 10 6 20 7 21 8 22 9 4 15 3 18 1 19 2 20
REMARK SMILES IDX 23 22 24 23 33 24 25 25 32 27 26 28 27 29 31 30 28 31 30 32
REMARK SMILES IDX 29 34 11 38 12 41 13 42 19 43 14 44 15 47 16 52 18 53 17 54
REMARK H PARENT 6 10 7 11 9 12 20 13 22 14 4 16 4 17 3 21 24 26 31 33 28 35
REMARK H PARENT 30 36 29 37 11 39 11 40 13 45 13 46 19 48 19 49 14 50 14 51
REMARK H PARENT 16 55 16 56 17 57 17 58
REMARK Flexibility Score: inf
ROOT
ATOM      1  C   UNL     1     -47.943  35.145  26.708  1.00  0.00    -0.027 A 
ATOM      2  C   UNL     1     -46.689  35.094  26.087  1.00  0.00    -0.057 A 
ATOM      3  C   UNL     1     -46.302  33.982  25.327  1.00  0.00    -0.052 A 
ATOM      4  C   UNL     1     -47.193  32.905  25.177  1.00  0.00    -0.000 A 
ATOM      5  C   UNL     1     -47.132  31.652  24.510  1.00  0.00    -0.032 A 
ATOM      6  C   UNL     1     -48.327  30.988  24.718  1.00  0.00     0.030 A 
ATOM      7  N   UNL     1     -49.115  31.819  25.481  1.00  0.00    -0.357 N 
ATOM      8  C   UNL     1     -48.444  32.982  25.784  1.00  0.00     0.046 A 
ATOM      9  C   UNL     1     -48.847  34.079  26.553  1.00  0.00    -0.033 A 
ATOM     10  H   UNL     1     -45.996  35.926  26.192  1.00  0.00     0.063 H 
ATOM     11  H   UNL     1     -45.321  33.954  24.860  1.00  0.00     0.063 H 
ATOM     12  H   UNL     1     -46.297  31.273  23.937  1.00  0.00     0.065 H 
ATOM     13  H   UNL     1     -50.022  31.575  25.859  1.00  0.00     0.166 HD
ATOM     14  H   UNL     1     -49.831  34.104  27.014  1.00  0.00     0.065 H 
ENDROOT
BRANCH   1  15
ATOM     15  C   UNL     1     -48.347  36.362  27.497  1.00  0.00     0.043 C 
ATOM     16  H   UNL     1     -49.267  36.803  27.094  1.00  0.00     0.054 H 
ATOM     17  H   UNL     1     -48.555  36.100  28.542  1.00  0.00     0.054 H 
BRANCH  15  18
ATOM     18  N   UNL     1     -47.310  37.359  27.465  1.00  0.00    -0.347 N 
ATOM     19  O   UNL     1     -46.488  36.921  29.561  1.00  0.00    -0.268 OA
ATOM     20  C   UNL     1     -46.463  37.568  28.522  1.00  0.00     0.270 C 
ATOM     21  H   UNL     1     -47.218  37.976  26.663  1.00  0.00     0.164 HD
BRANCH  20  22
ATOM     22  C   UNL     1     -45.491  38.694  28.269  1.00  0.00     0.136 A 
ATOM     23  C   UNL     1     -45.682  39.407  27.158  1.00  0.00     0.035 A 
ATOM     24  N   UNL     1     -44.482  38.914  29.180  1.00  0.00    -0.225 NA
ATOM     25  C   UNL     1     -44.758  40.512  26.874  1.00  0.00     0.258 A 
ATOM     26  H   UNL     1     -46.479  39.224  26.449  1.00  0.00     0.071 H 
ATOM     27  C   UNL     1     -43.668  39.893  28.926  1.00  0.00     0.140 A 
ATOM     28  O   UNL     1     -44.926  41.175  25.851  1.00  0.00    -0.269 OA
ATOM     29  N   UNL     1     -43.753  40.716  27.807  1.00  0.00    -0.268 N 
ATOM     30  C   UNL     1     -42.562  40.168  29.885  1.00  0.00    -0.019 A 
ATOM     31  C   UNL     1     -42.839  41.745  27.606  1.00  0.00     0.014 A 
ATOM     32  C   UNL     1     -41.707  41.171  29.649  1.00  0.00    -0.057 A 
ATOM     33  H   UNL     1     -42.489  39.534  30.759  1.00  0.00     0.066 H 
ATOM     34  C   UNL     1     -41.847  41.987  28.472  1.00  0.00    -0.045 A 
ATOM     35  H   UNL     1     -42.964  42.348  26.711  1.00  0.00     0.082 H 
ATOM     36  H   UNL     1     -40.896  41.387  30.336  1.00  0.00     0.062 H 
ATOM     37  H   UNL     1     -41.140  42.793  28.306  1.00  0.00     0.064 H 
ENDBRANCH  20  22
ENDBRANCH  15  18
ENDBRANCH   1  15
BRANCH   6  38
ATOM     38  C   UNL     1     -48.784  29.659  24.215  1.00  0.00     0.039 C 
ATOM     39  H   UNL     1     -49.399  29.805  23.318  1.00  0.00     0.050 H 
ATOM     40  H   UNL     1     -47.901  29.112  23.857  1.00  0.00     0.050 H 
BRANCH  38  41
ATOM     41  N   UNL     1     -49.479  28.778  25.154  1.00  0.00    -0.295 NA
ATOM     42  C   UNL     1     -50.340  27.755  24.558  1.00  0.00     0.001 C 
ATOM     43  C   UNL     1     -48.629  28.091  26.130  1.00  0.00     0.028 C 
ATOM     44  C   UNL     1     -49.549  26.449  24.558  1.00  0.00    -0.010 C 
ATOM     45  H   UNL     1     -50.727  28.014  23.566  1.00  0.00     0.043 H 
ATOM     46  H   UNL     1     -51.217  27.636  25.209  1.00  0.00     0.043 H 
ATOM     47  C   UNL     1     -48.557  26.626  25.703  1.00  0.00     0.084 C 
ATOM     48  H   UNL     1     -49.125  28.167  27.105  1.00  0.00     0.046 H 
ATOM     49  H   UNL     1     -47.640  28.549  26.247  1.00  0.00     0.046 H 
ATOM     50  H   UNL     1     -50.214  25.593  24.710  1.00  0.00     0.031 H 
ATOM     51  H   UNL     1     -49.036  26.305  23.601  1.00  0.00     0.031 H 
ATOM     52  C   UNL     1     -48.516  25.555  26.811  1.00  0.00     0.001 C 
ATOM     53  O   UNL     1     -47.201  26.261  25.291  1.00  0.00    -0.373 OA
ATOM     54  C   UNL     1     -47.264  25.060  26.097  1.00  0.00     0.050 C 
ATOM     55  H   UNL     1     -49.349  24.848  26.832  1.00  0.00     0.032 H 
ATOM     56  H   UNL     1     -48.333  25.937  27.819  1.00  0.00     0.032 H 
ATOM     57  H   UNL     1     -47.396  24.171  25.473  1.00  0.00     0.057 H 
ATOM     58  H   UNL     1     -46.379  24.946  26.730  1.00  0.00     0.057 H 
ENDBRANCH  38  41
ENDBRANCH   6  38
TORSDOF 5
ENDMDL
MODEL 2
REMARK VINA RESULT:     -11.3      2.013      3.108
REMARK SMILES O=C(NCc1ccc2cc(CN3CC[C@]4(CCO4)C3)[nH]c2c1)c1cc(=O)n2ccccc2n1
REMARK SMILES IDX 5 1 6 2 7 3 8 4 9 5 10 6 20 7 21 8 22 9 4 15 3 18 1 19 2 20
REMARK SMILES IDX 23 22 24 23 33 24 25 25 32 27 26 28 27 29 31 30 28 31 30 32
REMARK SMILES IDX 29 34 11 38 12 41 13 42 19 43 14 44 15 47 16 52 18 53 17 54
REMARK H PARENT 6 10 7 11 9 12 20 13 22 14 4 16 4 17 3 21 24 26 31 33 28 35
REMARK H PARENT 30 36 29 37 11 39 11 40 13 45 13 46 19 48 19 49 14 50 14 51
REMARK H PARENT 16 55 16 56 17 57 17 58
REMARK Flexibility Score: inf
ROOT
ATOM      1  C   UNL     1     -47.959  34.881  26.677  1.00  0.00    -0.027 A 
ATOM      2  C   UNL     1     -46.767  34.918  25.943  1.00  0.00    -0.057 A 
ATOM      3  C   UNL     1     -46.385  33.844  25.129  1.00  0.00    -0.052 A 
ATOM      4  C   UNL     1     -47.219  32.715  25.039  1.00  0.00    -0.000 A 
ATOM      5  C   UNL     1     -47.144  31.478  24.344  1.00  0.00    -0.032 A 
ATOM      6  C   UNL     1     -48.271  30.738  24.647  1.00  0.00     0.030 A 
ATOM      7  N   UNL     1     -49.034  31.506  25.496  1.00  0.00    -0.357 N 
ATOM      8  C   UNL     1     -48.410  32.704  25.760  1.00  0.00     0.046 A 
ATOM      9  C   UNL     1     -48.807  33.763  26.584  1.00  0.00    -0.033 A 
ATOM     10  H   UNL     1     -46.120  35.790  26.001  1.00  0.00     0.063 H 
ATOM     11  H   UNL     1     -45.452  33.884  24.573  1.00  0.00     0.063 H 
ATOM     12  H   UNL     1     -46.343  31.161  23.689  1.00  0.00     0.065 H 
ATOM     13  H   UNL     1     -49.886  31.201  25.951  1.00  0.00     0.166 HD
ATOM     14  H   UNL     1     -49.743  33.720  27.134  1.00  0.00     0.065 H 
ENDROOT
BRANCH   1  15
ATOM     15  C   UNL     1     -48.362  36.059  27.525  1.00  0.00     0.043 C 
ATOM     16  H   UNL     1     -49.300  36.498  27.165  1.00  0.00     0.054 H 
ATOM     17  H   UNL     1     -48.536  35.752  28.563  1.00  0.00     0.054 H 
BRANCH  15  18
ATOM     18  N   UNL     1     -47.343  37.075  27.504  1.00  0.00    -0.347 N 
ATOM     19  O   UNL     1     -46.571  36.686  29.629  1.00  0.00    -0.268 OA
ATOM     20  C   UNL     1     -46.530  37.317  28.581  1.00  0.00     0.270 C 
ATOM     21  H   UNL     1     -47.241  37.681  26.695  1.00  0.00     0.164 HD
BRANCH  20  22
ATOM     22  C   UNL     1     -45.572  38.457  28.335  1.00  0.00     0.136 A 
ATOM     23  C   UNL     1     -45.767  39.170  27.224  1.00  0.00     0.035 A 
ATOM     24  N   UNL     1     -44.572  38.690  29.252  1.00  0.00    -0.225 NA
ATOM     25  C   UNL     1     -44.858  40.289  26.948  1.00  0.00     0.258 A 
ATOM     26  H   UNL     1     -46.557  38.977  26.510  1.00  0.00     0.071 H 
ATOM     27  C   UNL     1     -43.771  39.681  29.005  1.00  0.00     0.140 A 
ATOM     28  O   UNL     1     -45.029  40.951  25.925  1.00  0.00    -0.269 OA
ATOM     29  N   UNL     1     -43.860  40.505  27.888  1.00  0.00    -0.268 N 
ATOM     30  C   UNL     1     -42.674  39.970  29.971  1.00  0.00    -0.019 A 
ATOM     31  C   UNL     1     -42.960  41.547  27.694  1.00  0.00     0.014 A 
ATOM     32  C   UNL     1     -41.832  40.986  29.742  1.00  0.00    -0.057 A 
ATOM     33  H   UNL     1     -42.597  39.335  30.844  1.00  0.00     0.066 H 
ATOM     34  C   UNL     1     -41.977  41.802  28.566  1.00  0.00    -0.045 A 
ATOM     35  H   UNL     1     -43.089  42.151  26.799  1.00  0.00     0.082 H 
ATOM     36  H   UNL     1     -41.029  41.212  30.434  1.00  0.00     0.062 H 
ATOM     37  H   UNL     1     -41.281  42.618  28.406  1.00  0.00     0.064 H 
ENDBRANCH  20  22
ENDBRANCH  15  18
ENDBRANCH   1  15
BRANCH   6  38
ATOM     38  C   UNL     1     -48.691  29.390  24.161  1.00  0.00     0.039 C 
ATOM     39  H   UNL     1     -47.799  28.766  24.017  1.00  0.00     0.050 H 
ATOM     40  H   UNL     1     -49.244  28.897  24.973  1.00  0.00     0.050 H 
BRANCH  38  41
ATOM     41  N   UNL     1     -49.537  29.328  22.970  1.00  0.00    -0.295 NA
ATOM     42  C   UNL     1     -50.524  30.400  22.826  1.00  0.00     0.001 C 
ATOM     43  C   UNL     1     -48.830  29.238  21.690  1.00  0.00     0.028 C 
ATOM     44  C   UNL     1     -49.938  31.420  21.852  1.00  0.00    -0.010 C 
ATOM     45  H   UNL     1     -50.837  30.853  23.773  1.00  0.00     0.043 H 
ATOM     46  H   UNL     1     -51.428  29.964  22.380  1.00  0.00     0.043 H 
ATOM     47  C   UNL     1     -48.965  30.599  21.012  1.00  0.00     0.084 C 
ATOM     48  H   UNL     1     -49.338  28.474  21.089  1.00  0.00     0.046 H 
ATOM     49  H   UNL     1     -47.787  28.914  21.789  1.00  0.00     0.046 H 
ATOM     50  H   UNL     1     -50.729  31.878  21.250  1.00  0.00     0.031 H 
ATOM     51  H   UNL     1     -49.424  32.221  22.393  1.00  0.00     0.031 H 
ATOM     52  C   UNL     1     -49.119  30.626  19.478  1.00  0.00     0.001 C 
ATOM     53  O   UNL     1     -47.668  31.267  20.899  1.00  0.00    -0.373 OA
ATOM     54  C   UNL     1     -47.934  31.584  19.512  1.00  0.00     0.050 C 
ATOM     55  H   UNL     1     -50.049  31.051  19.091  1.00  0.00     0.032 H 
ATOM     56  H   UNL     1     -48.911  29.678  18.973  1.00  0.00     0.032 H 
ATOM     57  H   UNL     1     -48.179  32.643  19.389  1.00  0.00     0.057 H 
ATOM     58  H   UNL     1     -47.096  31.315  18.863  1.00  0.00     0.057 H 
ENDBRANCH  38  41
ENDBRANCH   6  38
TORSDOF 5
ENDMDL
MODEL 3
REMARK VINA RESULT:     -10.8      2.056      3.512
REMARK SMILES O=C(NCc1ccc2cc(CN3CC[C@]4(CCO4)C3)[nH]c2c1)c1cc(=O)n2ccccc2n1
REMARK SMILES IDX 5 1 6 2 7 3 8 4 9 5 10 6 20 7 21 8 22 9 4 15 3 18 1 19 2 20
REMARK SMILES IDX 23 22 24 23 33 24 25 25 32 27 26 28 27 29 31 30 28 31 30 32
REMARK SMILES IDX 29 34 11 38 12 41 13 42 19 43 14 44 15 47 16 52 18 53 17 54
REMARK H PARENT 6 10 7 11 9 12 20 13 22 14 4 16 4 17 3 21 24 26 31 33 28 35
REMARK H PARENT 30 36 29 37 11 39 11 40 13 45 13 46 19 48 19 49 14 50 14 51
REMARK H PARENT 16 55 16 56 17 57 17 58
REMARK Flexibility Score: inf
ROOT
ATOM      1  C   UNL     1     -46.319  36.402  28.443  1.00  0.00    -0.027 A 
ATOM      2  C   UNL     1     -47.696  36.480  28.201  1.00  0.00    -0.057 A 
ATOM      3  C   UNL     1     -48.318  35.628  27.278  1.00  0.00    -0.052 A 
ATOM      4  C   UNL     1     -47.546  34.673  26.592  1.00  0.00    -0.000 A 
ATOM      5  C   UNL     1     -47.831  33.687  25.610  1.00  0.00    -0.032 A 
ATOM      6  C   UNL     1     -46.655  33.033  25.293  1.00  0.00     0.030 A 
ATOM      7  N   UNL     1     -45.669  33.591  26.074  1.00  0.00    -0.357 N 
ATOM      8  C   UNL     1     -46.182  34.597  26.860  1.00  0.00     0.046 A 
ATOM      9  C   UNL     1     -45.541  35.442  27.773  1.00  0.00    -0.033 A 
ATOM     10  H   UNL     1     -48.302  37.210  28.732  1.00  0.00     0.063 H 
ATOM     11  H   UNL     1     -49.386  35.707  27.095  1.00  0.00     0.063 H 
ATOM     12  H   UNL     1     -48.800  33.478  25.177  1.00  0.00     0.065 H 
ATOM     13  H   UNL     1     -44.682  33.371  26.011  1.00  0.00     0.166 HD
ATOM     14  H   UNL     1     -44.473  35.356  27.956  1.00  0.00     0.065 H 
ENDROOT
BRANCH   1  15
ATOM     15  C   UNL     1     -45.678  37.310  29.459  1.00  0.00     0.043 C 
ATOM     16  H   UNL     1     -46.435  37.770  30.106  1.00  0.00     0.054 H 
ATOM     17  H   UNL     1     -45.002  36.749  30.115  1.00  0.00     0.054 H 
BRANCH  15  18
ATOM     18  N   UNL     1     -44.935  38.358  28.811  1.00  0.00    -0.347 N 
ATOM     19  O   UNL     1     -46.730  39.741  28.451  1.00  0.00    -0.268 OA
ATOM     20  C   UNL     1     -45.535  39.498  28.341  1.00  0.00     0.270 C 
ATOM     21  H   UNL     1     -43.940  38.249  28.638  1.00  0.00     0.164 HD
BRANCH  20  22
ATOM     22  C   UNL     1     -44.558  40.427  27.664  1.00  0.00     0.136 A 
ATOM     23  C   UNL     1     -43.398  40.632  28.292  1.00  0.00     0.035 A 
ATOM     24  N   UNL     1     -44.913  41.000  26.463  1.00  0.00    -0.225 NA
ATOM     25  C   UNL     1     -42.419  41.529  27.667  1.00  0.00     0.258 A 
ATOM     26  H   UNL     1     -43.130  40.176  29.236  1.00  0.00     0.071 H 
ATOM     27  C   UNL     1     -44.043  41.792  25.914  1.00  0.00     0.140 A 
ATOM     28  O   UNL     1     -41.347  41.724  28.238  1.00  0.00    -0.269 OA
ATOM     29  N   UNL     1     -42.798  42.092  26.457  1.00  0.00    -0.268 N 
ATOM     30  C   UNL     1     -44.385  42.433  24.613  1.00  0.00    -0.019 A 
ATOM     31  C   UNL     1     -41.922  42.953  25.805  1.00  0.00     0.014 A 
ATOM     32  C   UNL     1     -43.508  43.255  24.022  1.00  0.00    -0.057 A 
ATOM     33  H   UNL     1     -45.351  42.205  24.182  1.00  0.00     0.066 H 
ATOM     34  C   UNL     1     -42.235  43.526  24.635  1.00  0.00    -0.045 A 
ATOM     35  H   UNL     1     -40.966  43.143  26.286  1.00  0.00     0.082 H 
ATOM     36  H   UNL     1     -43.738  43.730  23.075  1.00  0.00     0.062 H 
ATOM     37  H   UNL     1     -41.544  44.195  24.135  1.00  0.00     0.064 H 
ENDBRANCH  20  22
ENDBRANCH  15  18
ENDBRANCH   1  15
BRANCH   6  38
ATOM     38  C   UNL     1     -46.411  31.905  24.346  1.00  0.00     0.039 C 
ATOM     39  H   UNL     1     -45.537  32.139  23.725  1.00  0.00     0.050 H 
ATOM     40  H   UNL     1     -46.104  31.031  24.936  1.00  0.00     0.050 H 
BRANCH  38  41
ATOM     41  N   UNL     1     -47.523  31.476  23.498  1.00  0.00    -0.295 NA
ATOM     42  C   UNL     1     -47.157  30.787  22.259  1.00  0.00     0.001 C 
ATOM     43  C   UNL     1     -48.540  30.649  24.150  1.00  0.00     0.028 C 
ATOM     44  C   UNL     1     -47.317  29.290  22.516  1.00  0.00    -0.010 C 
ATOM     45  H   UNL     1     -46.163  31.045  21.877  1.00  0.00     0.043 H 
ATOM     46  H   UNL     1     -47.873  31.090  21.484  1.00  0.00     0.043 H 
ATOM     47  C   UNL     1     -48.351  29.224  23.635  1.00  0.00     0.084 C 
ATOM     48  H   UNL     1     -49.520  31.028  23.837  1.00  0.00     0.046 H 
ATOM     49  H   UNL     1     -48.518  30.711  25.245  1.00  0.00     0.046 H 
ATOM     50  H   UNL     1     -47.647  28.774  21.609  1.00  0.00     0.031 H 
ATOM     51  H   UNL     1     -46.365  28.845  22.823  1.00  0.00     0.031 H 
ATOM     52  C   UNL     1     -49.613  28.365  23.416  1.00  0.00     0.001 C 
ATOM     53  O   UNL     1     -47.918  28.326  24.705  1.00  0.00    -0.373 OA
ATOM     54  C   UNL     1     -48.910  27.349  24.309  1.00  0.00     0.050 C 
ATOM     55  H   UNL     1     -49.802  28.032  22.393  1.00  0.00     0.032 H 
ATOM     56  H   UNL     1     -50.533  28.773  23.845  1.00  0.00     0.032 H 
ATOM     57  H   UNL     1     -48.447  26.504  23.789  1.00  0.00     0.057 H 
ATOM     58  H   UNL     1     -49.494  26.990  25.160  1.00  0.00     0.057 H 
ENDBRANCH  38  41
ENDBRANCH   6  38
TORSDOF 5
ENDMDL
MODEL 4
REMARK VINA RESULT:     -10.6      2.312      3.511
REMARK SMILES O=C(NCc1ccc2cc(CN3CC[C@]4(CCO4)C3)[nH]c2c1)c1cc(=O)n2ccccc2n1
REMARK SMILES IDX 5 1 6 2 7 3 8 4 9 5 10 6 20 7 21 8 22 9 4 15 3 18 1 19 2 20
REMARK SMILES IDX 23 22 24 23 33 24 25 25 32 27 26 28 27 29 31 30 28 31 30 32
REMARK SMILES IDX 29 34 11 38 12 41 13 42 19 43 14 44 15 47 16 52 18 53 17 54
REMARK H PARENT 6 10 7 11 9 12 20 13 22 14 4 16 4 17 3 21 24 26 31 33 28 35
REMARK H PARENT 30 36 29 37 11 39 11 40 13 45 13 46 19 48 19 49 14 50 14 51
REMARK H PARENT 16 55 16 56 17 57 17 58
REMARK Flexibility Score: inf
ROOT
ATOM      1  C   UNL     1     -48.008  34.657  26.504  1.00  0.00    -0.027 A 
ATOM      2  C   UNL     1     -46.761  34.699  25.869  1.00  0.00    -0.057 A 
ATOM      3  C   UNL     1     -46.311  33.627  25.086  1.00  0.00    -0.052 A 
ATOM      4  C   UNL     1     -47.133  32.497  24.927  1.00  0.00    -0.000 A 
ATOM      5  C   UNL     1     -46.999  31.262  24.238  1.00  0.00    -0.032 A 
ATOM      6  C   UNL     1     -48.145  30.518  24.447  1.00  0.00     0.030 A 
ATOM      7  N   UNL     1     -48.976  31.283  25.233  1.00  0.00    -0.357 N 
ATOM      8  C   UNL     1     -48.378  32.482  25.549  1.00  0.00     0.046 A 
ATOM      9  C   UNL     1     -48.843  33.538  26.341  1.00  0.00    -0.033 A 
ATOM     10  H   UNL     1     -46.122  35.572  25.981  1.00  0.00     0.063 H 
ATOM     11  H   UNL     1     -45.337  33.671  24.608  1.00  0.00     0.063 H 
ATOM     12  H   UNL     1     -46.147  30.948  23.648  1.00  0.00     0.065 H 
ATOM     13  H   UNL     1     -49.861  30.974  25.617  1.00  0.00     0.166 HD
ATOM     14  H   UNL     1     -49.820  33.491  26.813  1.00  0.00     0.065 H 
ENDROOT
BRANCH   1  15
ATOM     15  C   UNL     1     -48.481  35.832  27.319  1.00  0.00     0.043 C 
ATOM     16  H   UNL     1     -49.358  36.301  26.858  1.00  0.00     0.054 H 
ATOM     17  H   UNL     1     -48.785  35.515  28.324  1.00  0.00     0.054 H 
BRANCH  15  18
ATOM     18  N   UNL     1     -47.443  36.822  27.439  1.00  0.00    -0.347 N 
ATOM     19  O   UNL     1     -46.793  36.236  29.559  1.00  0.00    -0.268 OA
ATOM     20  C   UNL     1     -46.684  36.952  28.572  1.00  0.00     0.270 C 
ATOM     21  H   UNL     1     -47.286  37.491  26.691  1.00  0.00     0.164 HD
BRANCH  20  22
ATOM     22  C   UNL     1     -45.692  38.086  28.476  1.00  0.00     0.136 A 
ATOM     23  C   UNL     1     -44.845  38.224  29.498  1.00  0.00     0.035 A 
ATOM     24  N   UNL     1     -45.718  38.894  27.362  1.00  0.00    -0.225 NA
ATOM     25  C   UNL     1     -43.864  39.315  29.444  1.00  0.00     0.258 A 
ATOM     26  H   UNL     1     -44.835  37.582  30.369  1.00  0.00     0.071 H 
ATOM     27  C   UNL     1     -44.847  39.856  27.317  1.00  0.00     0.140 A 
ATOM     28  O   UNL     1     -43.080  39.451  30.382  1.00  0.00    -0.269 OA
ATOM     29  N   UNL     1     -43.908  40.114  28.311  1.00  0.00    -0.268 N 
ATOM     30  C   UNL     1     -44.838  40.756  26.130  1.00  0.00    -0.019 A 
ATOM     31  C   UNL     1     -43.008  41.167  28.188  1.00  0.00     0.014 A 
ATOM     32  C   UNL     1     -43.952  41.757  26.056  1.00  0.00    -0.057 A 
ATOM     33  H   UNL     1     -45.565  40.563  25.351  1.00  0.00     0.066 H 
ATOM     34  C   UNL     1     -43.006  41.972  27.118  1.00  0.00    -0.045 A 
ATOM     35  H   UNL     1     -42.302  41.311  29.002  1.00  0.00     0.082 H 
ATOM     36  H   UNL     1     -43.930  42.421  25.199  1.00  0.00     0.062 H 
ATOM     37  H   UNL     1     -42.299  42.790  27.032  1.00  0.00     0.064 H 
ENDBRANCH  20  22
ENDBRANCH  15  18
ENDBRANCH   1  15
BRANCH   6  38
ATOM     38  C   UNL     1     -48.521  29.170  23.926  1.00  0.00     0.039 C 
ATOM     39  H   UNL     1     -47.611  28.571  23.790  1.00  0.00     0.050 H 
ATOM     40  H   UNL     1     -49.079  28.648  24.715  1.00  0.00     0.050 H 
BRANCH  38  41
ATOM     41  N   UNL     1     -49.339  29.112  22.715  1.00  0.00    -0.295 NA
ATOM     42  C   UNL     1     -50.636  28.446  22.848  1.00  0.00     0.001 C 
ATOM     43  C   UNL     1     -49.594  30.395  22.056  1.00  0.00     0.028 C 
ATOM     44  C   UNL     1     -51.687  29.542  23.008  1.00  0.00    -0.010 C 
ATOM     45  H   UNL     1     -50.680  27.700  23.649  1.00  0.00     0.043 H 
ATOM     46  H   UNL     1     -50.831  27.905  21.912  1.00  0.00     0.043 H 
ATOM     47  C   UNL     1     -51.053  30.753  22.332  1.00  0.00     0.084 C 
ATOM     48  H   UNL     1     -49.448  30.244  20.980  1.00  0.00     0.046 H 
ATOM     49  H   UNL     1     -48.898  31.187  22.357  1.00  0.00     0.046 H 
ATOM     50  H   UNL     1     -52.631  29.246  22.538  1.00  0.00     0.031 H 
ATOM     51  H   UNL     1     -51.890  29.734  24.067  1.00  0.00     0.031 H 
ATOM     52  C   UNL     1     -51.842  31.466  21.215  1.00  0.00     0.001 C 
ATOM     53  O   UNL     1     -51.156  31.945  23.174  1.00  0.00    -0.373 OA
ATOM     54  C   UNL     1     -52.152  32.505  22.286  1.00  0.00     0.050 C 
ATOM     55  H   UNL     1     -52.710  30.933  20.819  1.00  0.00     0.032 H 
ATOM     56  H   UNL     1     -51.236  31.846  20.388  1.00  0.00     0.032 H 
ATOM     57  H   UNL     1     -53.153  32.446  22.726  1.00  0.00     0.057 H 
ATOM     58  H   UNL     1     -51.923  33.540  22.014  1.00  0.00     0.057 H 
ENDBRANCH  38  41
ENDBRANCH   6  38
TORSDOF 5
ENDMDL
MODEL 5
REMARK VINA RESULT:     -10.4      1.425      2.009
REMARK SMILES O=C(NCc1ccc2cc(CN3CC[C@]4(CCO4)C3)[nH]c2c1)c1cc(=O)n2ccccc2n1
REMARK SMILES IDX 5 1 6 2 7 3 8 4 9 5 10 6 20 7 21 8 22 9 4 15 3 18 1 19 2 20
REMARK SMILES IDX 23 22 24 23 33 24 25 25 32 27 26 28 27 29 31 30 28 31 30 32
REMARK SMILES IDX 29 34 11 38 12 41 13 42 19 43 14 44 15 47 16 52 18 53 17 54
REMARK H PARENT 6 10 7 11 9 12 20 13 22 14 4 16 4 17 3 21 24 26 31 33 28 35
REMARK H PARENT 30 36 29 37 11 39 11 40 13 45 13 46 19 48 19 49 14 50 14 51
REMARK H PARENT 16 55 16 56 17 57 17 58
REMARK Flexibility Score: inf
ROOT
ATOM      1  C   UNL     1     -46.472  35.045  27.635  1.00  0.00    -0.027 A 
ATOM      2  C   UNL     1     -47.748  35.563  27.376  1.00  0.00    -0.057 A 
ATOM      3  C   UNL     1     -48.695  34.827  26.653  1.00  0.00    -0.052 A 
ATOM      4  C   UNL     1     -48.361  33.543  26.187  1.00  0.00    -0.000 A 
ATOM      5  C   UNL     1     -49.046  32.552  25.434  1.00  0.00    -0.032 A 
ATOM      6  C   UNL     1     -48.202  31.469  25.267  1.00  0.00     0.030 A 
ATOM      7  N   UNL     1     -47.029  31.778  25.916  1.00  0.00    -0.357 N 
ATOM      8  C   UNL     1     -47.096  33.036  26.470  1.00  0.00     0.046 A 
ATOM      9  C   UNL     1     -46.133  33.757  27.186  1.00  0.00    -0.033 A 
ATOM     10  H   UNL     1     -48.017  36.553  27.739  1.00  0.00     0.063 H 
ATOM     11  H   UNL     1     -49.677  35.247  26.453  1.00  0.00     0.063 H 
ATOM     12  H   UNL     1     -50.056  32.623  25.052  1.00  0.00     0.065 H 
ATOM     13  H   UNL     1     -46.190  31.210  25.905  1.00  0.00     0.166 HD
ATOM     14  H   UNL     1     -45.154  33.331  27.386  1.00  0.00     0.065 H 
ENDROOT
BRANCH   1  15
ATOM     15  C   UNL     1     -45.480  35.845  28.438  1.00  0.00     0.043 C 
ATOM     16  H   UNL     1     -45.811  35.947  29.479  1.00  0.00     0.054 H 
ATOM     17  H   UNL     1     -44.505  35.344  28.465  1.00  0.00     0.054 H 
BRANCH  15  18
ATOM     18  N   UNL     1     -45.313  37.160  27.880  1.00  0.00    -0.347 N 
ATOM     19  O   UNL     1     -45.736  38.302  29.825  1.00  0.00    -0.268 OA
ATOM     20  C   UNL     1     -45.471  38.297  28.629  1.00  0.00     0.270 C 
ATOM     21  H   UNL     1     -45.123  37.276  26.889  1.00  0.00     0.164 HD
BRANCH  20  22
ATOM     22  C   UNL     1     -45.287  39.555  27.815  1.00  0.00     0.136 A 
ATOM     23  C   UNL     1     -46.385  40.068  27.256  1.00  0.00     0.035 A 
ATOM     24  N   UNL     1     -44.023  40.088  27.698  1.00  0.00    -0.225 NA
ATOM     25  C   UNL     1     -46.250  41.292  26.457  1.00  0.00     0.258 A 
ATOM     26  H   UNL     1     -47.374  39.639  27.356  1.00  0.00     0.071 H 
ATOM     27  C   UNL     1     -43.909  41.171  26.992  1.00  0.00     0.140 A 
ATOM     28  O   UNL     1     -47.257  41.772  25.936  1.00  0.00    -0.269 OA
ATOM     29  N   UNL     1     -44.968  41.811  26.356  1.00  0.00    -0.268 N 
ATOM     30  C   UNL     1     -42.559  41.784  26.838  1.00  0.00    -0.019 A 
ATOM     31  C   UNL     1     -44.762  42.969  25.614  1.00  0.00     0.014 A 
ATOM     32  C   UNL     1     -42.411  42.901  26.115  1.00  0.00    -0.057 A 
ATOM     33  H   UNL     1     -41.729  41.294  27.331  1.00  0.00     0.066 H 
ATOM     34  C   UNL     1     -43.546  43.515  25.481  1.00  0.00    -0.045 A 
ATOM     35  H   UNL     1     -45.634  43.417  25.144  1.00  0.00     0.082 H 
ATOM     36  H   UNL     1     -41.437  43.362  25.993  1.00  0.00     0.062 H 
ATOM     37  H   UNL     1     -43.397  44.419  24.901  1.00  0.00     0.064 H 
ENDBRANCH  20  22
ENDBRANCH  15  18
ENDBRANCH   1  15
BRANCH   6  38
ATOM     38  C   UNL     1     -48.441  30.165  24.581  1.00  0.00     0.039 C 
ATOM     39  H   UNL     1     -48.854  30.355  23.582  1.00  0.00     0.050 H 
ATOM     40  H   UNL     1     -47.464  29.700  24.392  1.00  0.00     0.050 H 
BRANCH  38  41
ATOM     41  N   UNL     1     -49.259  29.171  25.275  1.00  0.00    -0.295 NA
ATOM     42  C   UNL     1     -50.047  28.279  24.423  1.00  0.00     0.001 C 
ATOM     43  C   UNL     1     -48.549  28.316  26.229  1.00  0.00     0.028 C 
ATOM     44  C   UNL     1     -49.276  26.965  24.316  1.00  0.00    -0.010 C 
ATOM     45  H   UNL     1     -50.301  28.700  23.443  1.00  0.00     0.043 H 
ATOM     46  H   UNL     1     -51.001  28.087  24.932  1.00  0.00     0.043 H 
ATOM     47  C   UNL     1     -48.437  26.933  25.589  1.00  0.00     0.084 C 
ATOM     48  H   UNL     1     -49.165  28.254  27.135  1.00  0.00     0.046 H 
ATOM     49  H   UNL     1     -47.578  28.719  26.540  1.00  0.00     0.046 H 
ATOM     50  H   UNL     1     -49.964  26.116  24.247  1.00  0.00     0.031 H 
ATOM     51  H   UNL     1     -48.646  26.957  23.420  1.00  0.00     0.031 H 
ATOM     52  C   UNL     1     -48.550  25.703  26.511  1.00  0.00     0.001 C 
ATOM     53  O   UNL     1     -47.043  26.595  25.298  1.00  0.00    -0.373 OA
ATOM     54  C   UNL     1     -47.221  25.287  25.891  1.00  0.00     0.050 C 
ATOM     55  H   UNL     1     -49.386  25.026  26.316  1.00  0.00     0.032 H 
ATOM     56  H   UNL     1     -48.493  25.918  27.582  1.00  0.00     0.032 H 
ATOM     57  H   UNL     1     -47.281  24.510  25.123  1.00  0.00     0.057 H 
ATOM     58  H   UNL     1     -46.426  25.049  26.603  1.00  0.00     0.057 H 
ENDBRANCH  38  41
ENDBRANCH   6  38
TORSDOF 5
ENDMDL
MODEL 6
REMARK VINA RESULT:     -10.3      1.661      2.244
REMARK SMILES O=C(NCc1ccc2cc(CN3CC[C@]4(CCO4)C3)[nH]c2c1)c1cc(=O)n2ccccc2n1
REMARK SMILES IDX 5 1 6 2 7 3 8 4 9 5 10 6 20 7 21 8 22 9 4 15 3 18 1 19 2 20
REMARK SMILES IDX 23 22 24 23 33 24 25 25 32 27 26 28 27 29 31 30 28 31 30 32
REMARK SMILES IDX 29 34 11 38 12 41 13 42 19 43 14 44 15 47 16 52 18 53 17 54
REMARK H PARENT 6 10 7 11 9 12 20 13 22 14 4 16 4 17 3 21 24 26 31 33 28 35
REMARK H PARENT 30 36 29 37 11 39 11 40 13 45 13 46 19 48 19 49 14 50 14 51
REMARK H PARENT 16 55 16 56 17 57 17 58
REMARK Flexibility Score: inf
ROOT
ATOM      1  C   UNL     1     -47.894  34.552  26.608  1.00  0.00    -0.027 A 
ATOM      2  C   UNL     1     -46.609  34.569  26.051  1.00  0.00    -0.057 A 
ATOM      3  C   UNL     1     -46.197  33.579  25.149  1.00  0.00    -0.052 A 
ATOM      4  C   UNL     1     -47.094  32.557  24.790  1.00  0.00    -0.000 A 
ATOM      5  C   UNL     1     -47.015  31.420  23.942  1.00  0.00    -0.032 A 
ATOM      6  C   UNL     1     -48.228  30.758  23.985  1.00  0.00     0.030 A 
ATOM      7  N   UNL     1     -49.043  31.478  24.827  1.00  0.00    -0.357 N 
ATOM      8  C   UNL     1     -48.373  32.567  25.339  1.00  0.00     0.046 A 
ATOM      9  C   UNL     1     -48.802  33.542  26.246  1.00  0.00    -0.033 A 
ATOM     10  H   UNL     1     -45.911  35.361  26.317  1.00  0.00     0.063 H 
ATOM     11  H   UNL     1     -45.194  33.602  24.732  1.00  0.00     0.063 H 
ATOM     12  H   UNL     1     -46.156  31.116  23.359  1.00  0.00     0.065 H 
ATOM     13  H   UNL     1     -49.972  31.199  25.117  1.00  0.00     0.166 HD
ATOM     14  H   UNL     1     -49.808  33.517  26.656  1.00  0.00     0.065 H 
ENDROOT
BRANCH   1  15
ATOM     15  C   UNL     1     -48.322  35.642  27.555  1.00  0.00     0.043 C 
ATOM     16  H   UNL     1     -49.198  36.176  27.167  1.00  0.00     0.054 H 
ATOM     17  H   UNL     1     -48.612  35.224  28.526  1.00  0.00     0.054 H 
BRANCH  15  18
ATOM     18  N   UNL     1     -47.259  36.591  27.755  1.00  0.00    -0.347 N 
ATOM     19  O   UNL     1     -48.607  38.446  27.841  1.00  0.00    -0.268 OA
ATOM     20  C   UNL     1     -47.494  37.937  27.869  1.00  0.00     0.270 C 
ATOM     21  H   UNL     1     -46.292  36.283  27.762  1.00  0.00     0.164 HD
BRANCH  20  22
ATOM     22  C   UNL     1     -46.221  38.733  28.030  1.00  0.00     0.136 A 
ATOM     23  C   UNL     1     -45.482  38.461  29.107  1.00  0.00     0.035 A 
ATOM     24  N   UNL     1     -45.904  39.674  27.076  1.00  0.00    -0.225 NA
ATOM     25  C   UNL     1     -44.236  39.213  29.301  1.00  0.00     0.258 A 
ATOM     26  H   UNL     1     -45.742  37.719  29.850  1.00  0.00     0.071 H 
ATOM     27  C   UNL     1     -44.801  40.335  27.251  1.00  0.00     0.140 A 
ATOM     28  O   UNL     1     -43.548  38.971  30.292  1.00  0.00    -0.269 OA
ATOM     29  N   UNL     1     -43.937  40.153  28.326  1.00  0.00    -0.268 N 
ATOM     30  C   UNL     1     -44.417  41.363  26.243  1.00  0.00    -0.019 A 
ATOM     31  C   UNL     1     -42.772  40.904  28.442  1.00  0.00     0.014 A 
ATOM     32  C   UNL     1     -43.285  42.060  26.397  1.00  0.00    -0.057 A 
ATOM     33  H   UNL     1     -45.083  41.510  25.402  1.00  0.00     0.066 H 
ATOM     34  C   UNL     1     -42.433  41.826  27.532  1.00  0.00    -0.045 A 
ATOM     35  H   UNL     1     -42.144  40.710  29.308  1.00  0.00     0.082 H 
ATOM     36  H   UNL     1     -42.989  42.812  25.673  1.00  0.00     0.062 H 
ATOM     37  H   UNL     1     -41.522  42.405  27.632  1.00  0.00     0.064 H 
ENDBRANCH  20  22
ENDBRANCH  15  18
ENDBRANCH   1  15
BRANCH   6  38
ATOM     38  C   UNL     1     -48.676  29.531  23.261  1.00  0.00     0.039 C 
ATOM     39  H   UNL     1     -49.767  29.557  23.151  1.00  0.00     0.050 H 
ATOM     40  H   UNL     1     -48.294  29.589  22.232  1.00  0.00     0.050 H 
BRANCH  38  41
ATOM     41  N   UNL     1     -48.261  28.235  23.797  1.00  0.00    -0.295 NA
ATOM     42  C   UNL     1     -47.656  28.255  25.130  1.00  0.00     0.001 C 
ATOM     43  C   UNL     1     -49.294  27.197  23.824  1.00  0.00     0.028 C 
ATOM     44  C   UNL     1     -48.745  27.853  26.122  1.00  0.00    -0.010 C 
ATOM     45  H   UNL     1     -47.175  29.204  25.393  1.00  0.00     0.043 H 
ATOM     46  H   UNL     1     -46.863  27.494  25.148  1.00  0.00     0.043 H 
ATOM     47  C   UNL     1     -49.708  27.020  25.283  1.00  0.00     0.084 C 
ATOM     48  H   UNL     1     -48.836  26.271  23.456  1.00  0.00     0.046 H 
ATOM     49  H   UNL     1     -50.143  27.408  23.163  1.00  0.00     0.046 H 
ATOM     50  H   UNL     1     -48.318  27.286  26.956  1.00  0.00     0.031 H 
ATOM     51  H   UNL     1     -49.236  28.738  26.539  1.00  0.00     0.031 H 
ATOM     52  C   UNL     1     -50.059  25.598  25.764  1.00  0.00     0.001 C 
ATOM     53  O   UNL     1     -51.094  27.441  25.495  1.00  0.00    -0.373 OA
ATOM     54  C   UNL     1     -51.365  26.228  26.237  1.00  0.00     0.050 C 
ATOM     55  H   UNL     1     -49.429  25.185  26.555  1.00  0.00     0.032 H 
ATOM     56  H   UNL     1     -50.185  24.857  24.970  1.00  0.00     0.032 H 
ATOM     57  H   UNL     1     -51.431  26.427  27.311  1.00  0.00     0.057 H 
ATOM     58  H   UNL     1     -52.276  25.731  25.892  1.00  0.00     0.057 H 
ENDBRANCH  38  41
ENDBRANCH   6  38
TORSDOF 5
ENDMDL
MODEL 7
REMARK VINA RESULT:     -10.2      2.062     12.035
REMARK SMILES O=C(NCc1ccc2cc(CN3CC[C@]4(CCO4)C3)[nH]c2c1)c1cc(=O)n2ccccc2n1
REMARK SMILES IDX 5 1 6 2 7 3 8 4 9 5 10 6 20 7 21 8 22 9 4 15 3 18 1 19 2 20
REMARK SMILES IDX 23 22 24 23 33 24 25 25 32 27 26 28 27 29 31 30 28 31 30 32
REMARK SMILES IDX 29 34 11 38 12 41 13 42 19 43 14 44 15 47 16 52 18 53 17 54
REMARK H PARENT 6 10 7 11 9 12 20 13 22 14 4 16 4 17 3 21 24 26 31 33 28 35
REMARK H PARENT 30 36 29 37 11 39 11 40 13 45 13 46 19 48 19 49 14 50 14 51
REMARK H PARENT 16 55 16 56 17 57 17 58
REMARK Flexibility Score: inf
ROOT
ATOM      1  C   UNL     1     -47.882  34.464  26.754  1.00  0.00    -0.027 A 
ATOM      2  C   UNL     1     -46.771  33.882  27.377  1.00  0.00    -0.057 A 
ATOM      3  C   UNL     1     -45.735  34.671  27.894  1.00  0.00    -0.052 A 
ATOM      4  C   UNL     1     -45.820  36.072  27.794  1.00  0.00    -0.000 A 
ATOM      5  C   UNL     1     -44.976  37.147  28.183  1.00  0.00    -0.032 A 
ATOM      6  C   UNL     1     -45.583  38.333  27.814  1.00  0.00     0.030 A 
ATOM      7  N   UNL     1     -46.780  38.000  27.226  1.00  0.00    -0.357 N 
ATOM      8  C   UNL     1     -46.941  36.633  27.189  1.00  0.00     0.046 A 
ATOM      9  C   UNL     1     -47.983  35.863  26.660  1.00  0.00    -0.033 A 
ATOM     10  H   UNL     1     -46.701  32.800  27.466  1.00  0.00     0.063 H 
ATOM     11  H   UNL     1     -44.875  34.204  28.367  1.00  0.00     0.063 H 
ATOM     12  H   UNL     1     -44.021  37.061  28.683  1.00  0.00     0.065 H 
ATOM     13  H   UNL     1     -47.415  38.654  26.784  1.00  0.00     0.166 HD
ATOM     14  H   UNL     1     -48.842  36.335  26.193  1.00  0.00     0.065 H 
ENDROOT
BRANCH   1  15
ATOM     15  C   UNL     1     -48.995  33.595  26.230  1.00  0.00     0.043 C 
ATOM     16  H   UNL     1     -49.819  33.536  26.951  1.00  0.00     0.054 H 
ATOM     17  H   UNL     1     -49.415  34.012  25.306  1.00  0.00     0.054 H 
BRANCH  15  18
ATOM     18  N   UNL     1     -48.522  32.262  25.966  1.00  0.00    -0.347 N 
ATOM     19  O   UNL     1     -49.940  31.846  24.211  1.00  0.00    -0.268 OA
ATOM     20  C   UNL     1     -49.053  31.482  24.972  1.00  0.00     0.270 C 
ATOM     21  H   UNL     1     -47.809  31.845  26.557  1.00  0.00     0.164 HD
BRANCH  20  22
ATOM     22  C   UNL     1     -48.424  30.110  24.917  1.00  0.00     0.136 A 
ATOM     23  C   UNL     1     -47.497  29.918  23.976  1.00  0.00     0.035 A 
ATOM     24  N   UNL     1     -48.836  29.157  25.820  1.00  0.00    -0.225 NA
ATOM     25  C   UNL     1     -46.860  28.598  23.888  1.00  0.00     0.258 A 
ATOM     26  H   UNL     1     -47.182  30.676  23.271  1.00  0.00     0.071 H 
ATOM     27  C   UNL     1     -48.269  27.992  25.740  1.00  0.00     0.140 A 
ATOM     28  O   UNL     1     -46.005  28.411  23.024  1.00  0.00    -0.269 OA
ATOM     29  N   UNL     1     -47.290  27.656  24.811  1.00  0.00    -0.268 N 
ATOM     30  C   UNL     1     -48.683  26.930  26.700  1.00  0.00    -0.019 A 
ATOM     31  C   UNL     1     -46.732  26.382  24.790  1.00  0.00     0.014 A 
ATOM     32  C   UNL     1     -48.116  25.718  26.640  1.00  0.00    -0.057 A 
ATOM     33  H   UNL     1     -49.444  27.182  27.427  1.00  0.00     0.066 H 
ATOM     34  C   UNL     1     -47.108  25.432  25.655  1.00  0.00    -0.045 A 
ATOM     35  H   UNL     1     -45.972  26.189  24.037  1.00  0.00     0.082 H 
ATOM     36  H   UNL     1     -48.404  24.933  27.331  1.00  0.00     0.062 H 
ATOM     37  H   UNL     1     -46.666  24.442  25.630  1.00  0.00     0.064 H 
ENDBRANCH  20  22
ENDBRANCH  15  18
ENDBRANCH   1  15
BRANCH   6  38
ATOM     38  C   UNL     1     -45.132  39.742  28.015  1.00  0.00     0.039 C 
ATOM     39  H   UNL     1     -46.003  40.408  27.971  1.00  0.00     0.050 H 
ATOM     40  H   UNL     1     -44.766  39.835  29.047  1.00  0.00     0.050 H 
BRANCH  38  41
ATOM     41  N   UNL     1     -44.075  40.250  27.141  1.00  0.00    -0.295 NA
ATOM     42  C   UNL     1     -44.433  40.423  25.732  1.00  0.00     0.001 C 
ATOM     43  C   UNL     1     -43.443  41.501  27.566  1.00  0.00     0.028 C 
ATOM     44  C   UNL     1     -44.745  41.903  25.527  1.00  0.00    -0.010 C 
ATOM     45  H   UNL     1     -45.245  39.770  25.390  1.00  0.00     0.043 H 
ATOM     46  H   UNL     1     -43.554  40.160  25.129  1.00  0.00     0.043 H 
ATOM     47  C   UNL     1     -43.950  42.596  26.629  1.00  0.00     0.084 C 
ATOM     48  H   UNL     1     -42.360  41.380  27.440  1.00  0.00     0.046 H 
ATOM     49  H   UNL     1     -43.609  41.737  28.624  1.00  0.00     0.046 H 
ATOM     50  H   UNL     1     -44.443  42.228  24.526  1.00  0.00     0.031 H 
ATOM     51  H   UNL     1     -45.819  42.091  25.628  1.00  0.00     0.031 H 
ATOM     52  C   UNL     1     -42.966  43.714  26.232  1.00  0.00     0.001 C 
ATOM     53  O   UNL     1     -44.775  43.568  27.347  1.00  0.00    -0.373 OA
ATOM     54  C   UNL     1     -44.054  44.660  26.728  1.00  0.00     0.050 C 
ATOM     55  H   UNL     1     -42.730  43.796  25.168  1.00  0.00     0.032 H 
ATOM     56  H   UNL     1     -42.043  43.751  26.817  1.00  0.00     0.032 H 
ATOM     57  H   UNL     1     -44.654  45.139  25.950  1.00  0.00     0.057 H 
ATOM     58  H   UNL     1     -43.728  45.403  27.461  1.00  0.00     0.057 H 
ENDBRANCH  38  41
ENDBRANCH   6  38
TORSDOF 5
ENDMDL
