MODEL 1
REMARK VINA RESULT:     -11.7      0.000      0.000
REMARK SMILES Cn1ccc(-c2cn(-c3cncc(COc4ccc(C(=O)N5CCC(F)(F)CC5)c(N)c4)c3)c3ncnc(N)c23)n1
REMARK SMILES IDX 9 1 10 2 11 3 12 4 13 5 33 6 8 10 6 11 7 12 40 13 34 15
REMARK SMILES IDX 38 16 35 17 37 18 36 19 5 21 2 22 3 23 41 24 4 25 1 28 39 32
REMARK SMILES IDX 14 35 15 38 16 39 17 40 32 41 18 42 30 44 19 46 31 48 20 51
REMARK SMILES IDX 21 52 22 53 23 54 29 55 24 56 28 59 25 62 26 67 27 68
REMARK H PARENT 10 7 12 8 33 9 7 14 36 20 3 26 4 27 1 29 1 30 1 31 39 33 39 34
REMARK H PARENT 14 36 14 37 17 43 32 45 18 47 31 49 31 50 23 57 23 58 29 60
REMARK H PARENT 29 61 24 63 24 64 28 65 28 66
REMARK Flexibility Score: inf
ROOT
ATOM      1  C   UNL     1     -45.363  38.115  28.662  1.00  0.00     0.066 A 
ATOM      2  C   UNL     1     -45.865  37.985  29.954  1.00  0.00     0.051 A 
ATOM      3  N   UNL     1     -46.355  36.832  30.472  1.00  0.00    -0.262 NA
ATOM      4  C   UNL     1     -46.338  35.745  29.673  1.00  0.00     0.034 A 
ATOM      5  C   UNL     1     -45.863  35.754  28.368  1.00  0.00     0.010 A 
ATOM      6  C   UNL     1     -45.383  36.970  27.860  1.00  0.00    -0.028 A 
ATOM      7  H   UNL     1     -45.882  38.801  30.668  1.00  0.00     0.086 H 
ATOM      8  H   UNL     1     -46.729  34.837  30.125  1.00  0.00     0.084 H 
ATOM      9  H   UNL     1     -45.048  36.991  26.828  1.00  0.00     0.065 H 
ENDROOT
BRANCH   1  10
ATOM     10  N   UNL     1     -44.857  39.368  28.194  1.00  0.00    -0.299 N 
ATOM     11  C   UNL     1     -44.631  41.228  26.940  1.00  0.00     0.033 A 
ATOM     12  C   UNL     1     -45.385  40.092  27.143  1.00  0.00     0.021 A 
ATOM     13  C   UNL     1     -43.629  41.267  27.943  1.00  0.00     0.071 A 
ATOM     14  H   UNL     1     -46.232  39.746  26.567  1.00  0.00     0.083 H 
ATOM     15  C   UNL     1     -43.770  40.095  28.689  1.00  0.00     0.150 A 
ATOM     16  C   UNL     1     -42.616  42.155  28.348  1.00  0.00     0.137 A 
ATOM     17  N   UNL     1     -42.996  39.754  29.742  1.00  0.00    -0.218 NA
ATOM     18  N   UNL     1     -41.825  41.824  29.383  1.00  0.00    -0.219 NA
ATOM     19  C   UNL     1     -42.049  40.660  30.010  1.00  0.00     0.120 A 
ATOM     20  H   UNL     1     -41.385  40.430  30.838  1.00  0.00     0.106 H 
BRANCH  11  21
ATOM     21  C   UNL     1     -44.860  42.200  25.877  1.00  0.00     0.095 A 
ATOM     22  N   UNL     1     -44.510  43.444  24.207  1.00  0.00    -0.275 N 
ATOM     23  C   UNL     1     -45.770  43.768  24.615  1.00  0.00     0.025 A 
ATOM     24  N   UNL     1     -43.929  42.496  24.964  1.00  0.00    -0.173 NA
ATOM     25  C   UNL     1     -46.024  42.981  25.715  1.00  0.00    -0.016 A 
ATOM     26  H   UNL     1     -46.363  44.520  24.114  1.00  0.00     0.084 H 
ATOM     27  H   UNL     1     -46.922  42.978  26.318  1.00  0.00     0.066 H 
BRANCH  22  28
ATOM     28  C   UNL     1     -43.783  44.011  23.097  1.00  0.00     0.030 C 
ATOM     29  H   UNL     1     -43.940  43.374  22.222  1.00  0.00     0.048 H 
ATOM     30  H   UNL     1     -42.724  44.048  23.361  1.00  0.00     0.048 H 
ATOM     31  H   UNL     1     -44.154  45.019  22.896  1.00  0.00     0.048 H 
ENDBRANCH  22  28
ENDBRANCH  11  21
BRANCH  16  32
ATOM     32  N   UNL     1     -42.381  43.401  27.782  1.00  0.00    -0.383 N 
ATOM     33  H   UNL     1     -41.592  43.892  28.185  1.00  0.00     0.158 HD
ATOM     34  H   UNL     1     -42.364  43.319  26.771  1.00  0.00     0.158 HD
ENDBRANCH  16  32
ENDBRANCH   1  10
BRANCH   5  35
ATOM     35  C   UNL     1     -45.903  34.514  27.516  1.00  0.00     0.115 C 
ATOM     36  H   UNL     1     -45.996  33.595  28.106  1.00  0.00     0.076 H 
ATOM     37  H   UNL     1     -44.938  34.437  26.999  1.00  0.00     0.076 H 
BRANCH  35  38
ATOM     38  O   UNL     1     -46.907  34.579  26.501  1.00  0.00    -0.489 OA
BRANCH  38  39
ATOM     39  C   UNL     1     -47.176  33.454  25.769  1.00  0.00     0.121 A 
ATOM     40  C   UNL     1     -48.476  32.965  25.928  1.00  0.00    -0.019 A 
ATOM     41  C   UNL     1     -46.287  32.781  24.926  1.00  0.00     0.004 A 
ATOM     42  C   UNL     1     -48.899  31.841  25.220  1.00  0.00    -0.044 A 
ATOM     43  H   UNL     1     -49.166  33.472  26.597  1.00  0.00     0.066 H 
ATOM     44  C   UNL     1     -46.669  31.608  24.254  1.00  0.00     0.048 A 
ATOM     45  H   UNL     1     -45.273  33.135  24.782  1.00  0.00     0.068 H 
ATOM     46  C   UNL     1     -48.008  31.196  24.355  1.00  0.00     0.063 A 
ATOM     47  H   UNL     1     -49.915  31.475  25.336  1.00  0.00     0.063 H 
BRANCH  44  48
ATOM     48  N   UNL     1     -45.767  31.021  23.341  1.00  0.00    -0.398 N 
ATOM     49  H   UNL     1     -46.043  30.066  23.101  1.00  0.00     0.156 HD
ATOM     50  H   UNL     1     -44.803  31.041  23.666  1.00  0.00     0.156 HD
ENDBRANCH  44  48
BRANCH  46  51
ATOM     51  C   UNL     1     -48.490  30.022  23.597  1.00  0.00     0.255 C 
ATOM     52  O   UNL     1     -48.734  30.179  22.403  1.00  0.00    -0.269 OA
ATOM     53  N   UNL     1     -48.664  28.813  24.277  1.00  0.00    -0.338 N 
ATOM     54  C   UNL     1     -49.202  27.670  23.535  1.00  0.00     0.027 C 
ATOM     55  C   UNL     1     -48.629  28.707  25.741  1.00  0.00     0.027 C 
ATOM     56  C   UNL     1     -50.358  27.040  24.292  1.00  0.00     0.029 C 
ATOM     57  H   UNL     1     -49.531  27.969  22.536  1.00  0.00     0.050 H 
ATOM     58  H   UNL     1     -48.383  26.952  23.406  1.00  0.00     0.050 H 
ATOM     59  C   UNL     1     -48.661  27.260  26.200  1.00  0.00     0.029 C 
ATOM     60  H   UNL     1     -49.493  29.257  26.134  1.00  0.00     0.050 H 
ATOM     61  H   UNL     1     -47.727  29.189  26.124  1.00  0.00     0.050 H 
ATOM     62  C   UNL     1     -49.893  26.561  25.656  1.00  0.00     0.251 C 
ATOM     63  H   UNL     1     -51.161  27.777  24.413  1.00  0.00     0.035 H 
ATOM     64  H   UNL     1     -50.769  26.202  23.718  1.00  0.00     0.035 H 
ATOM     65  H   UNL     1     -48.654  27.213  27.295  1.00  0.00     0.035 H 
ATOM     66  H   UNL     1     -47.758  26.742  25.851  1.00  0.00     0.035 H 
ATOM     67  F   UNL     1     -50.917  26.704  26.538  1.00  0.00    -0.207 F 
ATOM     68  F   UNL     1     -49.635  25.226  25.600  1.00  0.00    -0.207 F 
ENDBRANCH  46  51
ENDBRANCH  38  39
ENDBRANCH  35  38
ENDBRANCH   5  35
TORSDOF 9
ENDMDL
MODEL 2
REMARK VINA RESULT:     -10.8      1.760      2.657
REMARK SMILES Cn1ccc(-c2cn(-c3cncc(COc4ccc(C(=O)N5CCC(F)(F)CC5)c(N)c4)c3)c3ncnc(N)c23)n1
REMARK SMILES IDX 9 1 10 2 11 3 12 4 13 5 33 6 8 10 6 11 7 12 40 13 34 15
REMARK SMILES IDX 38 16 35 17 37 18 36 19 5 21 2 22 3 23 41 24 4 25 1 28 39 32
REMARK SMILES IDX 14 35 15 38 16 39 17 40 32 41 18 42 30 44 19 46 31 48 20 51
REMARK SMILES IDX 21 52 22 53 23 54 29 55 24 56 28 59 25 62 26 67 27 68
REMARK H PARENT 10 7 12 8 33 9 7 14 36 20 3 26 4 27 1 29 1 30 1 31 39 33 39 34
REMARK H PARENT 14 36 14 37 17 43 32 45 18 47 31 49 31 50 23 57 23 58 29 60
REMARK H PARENT 29 61 24 63 24 64 28 65 28 66
REMARK Flexibility Score: inf
ROOT
ATOM      1  C   UNL     1     -46.306  38.724  27.481  1.00  0.00     0.066 A 
ATOM      2  C   UNL     1     -46.043  38.481  28.826  1.00  0.00     0.051 A 
ATOM      3  N   UNL     1     -46.251  37.292  29.443  1.00  0.00    -0.262 NA
ATOM      4  C   UNL     1     -46.734  36.285  28.686  1.00  0.00     0.034 A 
ATOM      5  C   UNL     1     -47.033  36.409  27.336  1.00  0.00     0.010 A 
ATOM      6  C   UNL     1     -46.824  37.660  26.737  1.00  0.00    -0.028 A 
ATOM      7  H   UNL     1     -45.623  39.227  29.493  1.00  0.00     0.086 H 
ATOM      8  H   UNL     1     -46.878  35.344  29.212  1.00  0.00     0.084 H 
ATOM      9  H   UNL     1     -47.095  37.773  25.693  1.00  0.00     0.065 H 
ENDROOT
BRANCH   1  10
ATOM     10  N   UNL     1     -46.051  40.008  26.904  1.00  0.00    -0.299 N 
ATOM     11  C   UNL     1     -44.941  41.717  25.941  1.00  0.00     0.033 A 
ATOM     12  C   UNL     1     -44.842  40.412  26.374  1.00  0.00     0.021 A 
ATOM     13  C   UNL     1     -46.281  42.138  26.136  1.00  0.00     0.071 A 
ATOM     14  H   UNL     1     -43.968  39.776  26.372  1.00  0.00     0.083 H 
ATOM     15  C   UNL     1     -46.942  41.077  26.758  1.00  0.00     0.150 A 
ATOM     16  C   UNL     1     -47.049  43.281  25.851  1.00  0.00     0.137 A 
ATOM     17  N   UNL     1     -48.244  41.084  27.116  1.00  0.00    -0.218 NA
ATOM     18  N   UNL     1     -48.343  43.312  26.217  1.00  0.00    -0.219 NA
ATOM     19  C   UNL     1     -48.860  42.235  26.824  1.00  0.00     0.120 A 
ATOM     20  H   UNL     1     -49.906  42.305  27.105  1.00  0.00     0.106 H 
BRANCH  11  21
ATOM     21  C   UNL     1     -43.841  42.492  25.377  1.00  0.00     0.095 A 
ATOM     22  N   UNL     1     -42.626  43.489  23.967  1.00  0.00    -0.275 N 
ATOM     23  C   UNL     1     -41.928  43.569  25.136  1.00  0.00     0.025 A 
ATOM     24  N   UNL     1     -43.793  42.830  24.084  1.00  0.00    -0.173 NA
ATOM     25  C   UNL     1     -42.690  42.913  26.075  1.00  0.00    -0.016 A 
ATOM     26  H   UNL     1     -40.967  44.059  25.201  1.00  0.00     0.084 H 
ATOM     27  H   UNL     1     -42.444  42.757  27.117  1.00  0.00     0.066 H 
BRANCH  22  28
ATOM     28  C   UNL     1     -42.233  44.015  22.682  1.00  0.00     0.030 C 
ATOM     29  H   UNL     1     -43.035  44.660  22.314  1.00  0.00     0.048 H 
ATOM     30  H   UNL     1     -42.070  43.176  22.001  1.00  0.00     0.048 H 
ATOM     31  H   UNL     1     -41.311  44.591  22.791  1.00  0.00     0.048 H 
ENDBRANCH  22  28
ENDBRANCH  11  21
BRANCH  16  32
ATOM     32  N   UNL     1     -46.587  44.396  25.166  1.00  0.00    -0.383 N 
ATOM     33  H   UNL     1     -45.577  44.447  25.099  1.00  0.00     0.158 HD
ATOM     34  H   UNL     1     -47.080  44.484  24.283  1.00  0.00     0.158 HD
ENDBRANCH  16  32
ENDBRANCH   1  10
BRANCH   5  35
ATOM     35  C   UNL     1     -47.602  35.255  26.554  1.00  0.00     0.115 C 
ATOM     36  H   UNL     1     -48.085  35.571  25.622  1.00  0.00     0.076 H 
ATOM     37  H   UNL     1     -48.398  34.806  27.162  1.00  0.00     0.076 H 
BRANCH  35  38
ATOM     38  O   UNL     1     -46.639  34.227  26.314  1.00  0.00    -0.489 OA
BRANCH  38  39
ATOM     39  C   UNL     1     -47.025  33.115  25.615  1.00  0.00     0.121 A 
ATOM     40  C   UNL     1     -48.362  32.755  25.804  1.00  0.00    -0.019 A 
ATOM     41  C   UNL     1     -46.216  32.342  24.776  1.00  0.00     0.004 A 
ATOM     42  C   UNL     1     -48.900  31.659  25.131  1.00  0.00    -0.044 A 
ATOM     43  H   UNL     1     -48.990  33.340  26.471  1.00  0.00     0.066 H 
ATOM     44  C   UNL     1     -46.718  31.195  24.139  1.00  0.00     0.048 A 
ATOM     45  H   UNL     1     -45.176  32.596  24.609  1.00  0.00     0.068 H 
ATOM     46  C   UNL     1     -48.088  30.913  24.270  1.00  0.00     0.063 A 
ATOM     47  H   UNL     1     -49.944  31.393  25.270  1.00  0.00     0.063 H 
BRANCH  44  48
ATOM     48  N   UNL     1     -45.890  30.505  23.229  1.00  0.00    -0.398 N 
ATOM     49  H   UNL     1     -46.079  30.785  22.263  1.00  0.00     0.156 HD
ATOM     50  H   UNL     1     -45.950  29.494  23.323  1.00  0.00     0.156 HD
ENDBRANCH  44  48
BRANCH  46  51
ATOM     51  C   UNL     1     -48.691  29.773  23.548  1.00  0.00     0.255 C 
ATOM     52  O   UNL     1     -49.000  29.945  22.371  1.00  0.00    -0.269 OA
ATOM     53  N   UNL     1     -48.896  28.577  24.242  1.00  0.00    -0.338 N 
ATOM     54  C   UNL     1     -49.551  27.470  23.540  1.00  0.00     0.027 C 
ATOM     55  C   UNL     1     -48.773  28.467  25.700  1.00  0.00     0.027 C 
ATOM     56  C   UNL     1     -50.692  26.912  24.371  1.00  0.00     0.029 C 
ATOM     57  H   UNL     1     -49.924  27.789  22.562  1.00  0.00     0.050 H 
ATOM     58  H   UNL     1     -48.788  26.702  23.360  1.00  0.00     0.050 H 
ATOM     59  C   UNL     1     -48.865  27.024  26.165  1.00  0.00     0.029 C 
ATOM     60  H   UNL     1     -49.573  29.070  26.147  1.00  0.00     0.050 H 
ATOM     61  H   UNL     1     -47.819  28.891  26.024  1.00  0.00     0.050 H 
ATOM     62  C   UNL     1     -50.171  26.404  25.704  1.00  0.00     0.251 C 
ATOM     63  H   UNL     1     -51.438  27.698  24.541  1.00  0.00     0.035 H 
ATOM     64  H   UNL     1     -51.191  26.103  23.828  1.00  0.00     0.035 H 
ATOM     65  H   UNL     1     -48.790  26.976  27.257  1.00  0.00     0.035 H 
ATOM     66  H   UNL     1     -48.021  26.451  25.761  1.00  0.00     0.035 H 
ATOM     67  F   UNL     1     -51.125  26.610  26.650  1.00  0.00    -0.207 F 
ATOM     68  F   UNL     1     -50.002  25.055  25.636  1.00  0.00    -0.207 F 
ENDBRANCH  46  51
ENDBRANCH  38  39
ENDBRANCH  35  38
ENDBRANCH   5  35
TORSDOF 9
ENDMDL
MODEL 3
REMARK VINA RESULT:     -10.1      2.269      3.012
REMARK SMILES Cn1ccc(-c2cn(-c3cncc(COc4ccc(C(=O)N5CCC(F)(F)CC5)c(N)c4)c3)c3ncnc(N)c23)n1
REMARK SMILES IDX 9 1 10 2 11 3 12 4 13 5 33 6 8 10 6 11 7 12 40 13 34 15
REMARK SMILES IDX 38 16 35 17 37 18 36 19 5 21 2 22 3 23 41 24 4 25 1 28 39 32
REMARK SMILES IDX 14 35 15 38 16 39 17 40 32 41 18 42 30 44 19 46 31 48 20 51
REMARK SMILES IDX 21 52 22 53 23 54 29 55 24 56 28 59 25 62 26 67 27 68
REMARK H PARENT 10 7 12 8 33 9 7 14 36 20 3 26 4 27 1 29 1 30 1 31 39 33 39 34
REMARK H PARENT 14 36 14 37 17 43 32 45 18 47 31 49 31 50 23 57 23 58 29 60
REMARK H PARENT 29 61 24 63 24 64 28 65 28 66
REMARK Flexibility Score: inf
ROOT
ATOM      1  C   UNL     1     -46.830  38.334  28.129  1.00  0.00     0.066 A 
ATOM      2  C   UNL     1     -46.172  38.195  29.349  1.00  0.00     0.051 A 
ATOM      3  N   UNL     1     -45.925  37.007  29.954  1.00  0.00    -0.262 NA
ATOM      4  C   UNL     1     -46.341  35.895  29.313  1.00  0.00     0.034 A 
ATOM      5  C   UNL     1     -47.006  35.909  28.094  1.00  0.00     0.010 A 
ATOM      6  C   UNL     1     -47.262  37.157  27.509  1.00  0.00    -0.028 A 
ATOM      7  H   UNL     1     -45.778  39.036  29.909  1.00  0.00     0.086 H 
ATOM      8  H   UNL     1     -46.117  34.962  29.823  1.00  0.00     0.084 H 
ATOM      9  H   UNL     1     -47.816  37.176  26.577  1.00  0.00     0.065 H 
ENDROOT
BRANCH   1  10
ATOM     10  N   UNL     1     -47.045  39.626  27.554  1.00  0.00    -0.299 N 
ATOM     11  C   UNL     1     -48.094  41.521  26.932  1.00  0.00     0.033 A 
ATOM     12  C   UNL     1     -48.227  40.336  27.623  1.00  0.00     0.021 A 
ATOM     13  C   UNL     1     -46.758  41.603  26.465  1.00  0.00     0.071 A 
ATOM     14  H   UNL     1     -49.108  39.949  28.115  1.00  0.00     0.083 H 
ATOM     15  C   UNL     1     -46.135  40.409  26.836  1.00  0.00     0.150 A 
ATOM     16  C   UNL     1     -45.963  42.544  25.786  1.00  0.00     0.137 A 
ATOM     17  N   UNL     1     -44.848  40.096  26.572  1.00  0.00    -0.218 NA
ATOM     18  N   UNL     1     -44.685  42.242  25.498  1.00  0.00    -0.219 NA
ATOM     19  C   UNL     1     -44.206  41.054  25.893  1.00  0.00     0.120 A 
ATOM     20  H   UNL     1     -43.171  40.849  25.638  1.00  0.00     0.106 H 
BRANCH  11  21
ATOM     21  C   UNL     1     -49.160  42.499  26.744  1.00  0.00     0.095 A 
ATOM     22  N   UNL     1     -50.845  43.475  25.927  1.00  0.00    -0.275 N 
ATOM     23  C   UNL     1     -50.419  44.305  26.921  1.00  0.00     0.025 A 
ATOM     24  N   UNL     1     -50.091  42.369  25.792  1.00  0.00    -0.173 NA
ATOM     25  C   UNL     1     -49.309  43.702  27.466  1.00  0.00    -0.016 A 
ATOM     26  H   UNL     1     -50.915  45.238  27.146  1.00  0.00     0.084 H 
ATOM     27  H   UNL     1     -48.691  44.081  28.269  1.00  0.00     0.066 H 
BRANCH  22  28
ATOM     28  C   UNL     1     -51.971  43.678  25.048  1.00  0.00     0.030 C 
ATOM     29  H   UNL     1     -52.048  42.813  24.383  1.00  0.00     0.048 H 
ATOM     30  H   UNL     1     -51.801  44.592  24.475  1.00  0.00     0.048 H 
ATOM     31  H   UNL     1     -52.884  43.774  25.642  1.00  0.00     0.048 H 
ENDBRANCH  22  28
ENDBRANCH  11  21
BRANCH  16  32
ATOM     32  N   UNL     1     -46.384  43.813  25.412  1.00  0.00    -0.383 N 
ATOM     33  H   UNL     1     -47.072  43.815  24.668  1.00  0.00     0.158 HD
ATOM     34  H   UNL     1     -46.643  44.344  26.237  1.00  0.00     0.158 HD
ENDBRANCH  16  32
ENDBRANCH   1  10
BRANCH   5  35
ATOM     35  C   UNL     1     -47.474  34.634  27.447  1.00  0.00     0.115 C 
ATOM     36  H   UNL     1     -48.559  34.492  27.522  1.00  0.00     0.076 H 
ATOM     37  H   UNL     1     -47.029  33.798  28.003  1.00  0.00     0.076 H 
BRANCH  35  38
ATOM     38  O   UNL     1     -47.031  34.509  26.094  1.00  0.00    -0.489 OA
BRANCH  38  39
ATOM     39  C   UNL     1     -47.252  33.331  25.435  1.00  0.00     0.121 A 
ATOM     40  C   UNL     1     -48.555  32.841  25.559  1.00  0.00    -0.019 A 
ATOM     41  C   UNL     1     -46.313  32.607  24.693  1.00  0.00     0.004 A 
ATOM     42  C   UNL     1     -48.931  31.663  24.914  1.00  0.00    -0.044 A 
ATOM     43  H   UNL     1     -49.284  33.389  26.151  1.00  0.00     0.066 H 
ATOM     44  C   UNL     1     -46.650  31.383  24.091  1.00  0.00     0.048 A 
ATOM     45  H   UNL     1     -45.295  32.961  24.579  1.00  0.00     0.068 H 
ATOM     46  C   UNL     1     -47.990  30.966  24.150  1.00  0.00     0.063 A 
ATOM     47  H   UNL     1     -49.950  31.296  25.002  1.00  0.00     0.063 H 
BRANCH  44  48
ATOM     48  N   UNL     1     -45.695  30.741  23.274  1.00  0.00    -0.398 N 
ATOM     49  H   UNL     1     -46.141  30.206  22.526  1.00  0.00     0.156 HD
ATOM     50  H   UNL     1     -45.055  30.150  23.800  1.00  0.00     0.156 HD
ENDBRANCH  44  48
BRANCH  46  51
ATOM     51  C   UNL     1     -48.422  29.735  23.456  1.00  0.00     0.255 C 
ATOM     52  O   UNL     1     -48.566  29.791  22.236  1.00  0.00    -0.269 OA
ATOM     53  N   UNL     1     -48.664  28.588  24.218  1.00  0.00    -0.338 N 
ATOM     54  C   UNL     1     -49.153  27.389  23.534  1.00  0.00     0.027 C 
ATOM     55  C   UNL     1     -48.750  28.606  25.684  1.00  0.00     0.027 C 
ATOM     56  C   UNL     1     -50.373  26.830  24.243  1.00  0.00     0.029 C 
ATOM     57  H   UNL     1     -49.396  27.603  22.489  1.00  0.00     0.050 H 
ATOM     58  H   UNL     1     -48.334  26.659  23.532  1.00  0.00     0.050 H 
ATOM     59  C   UNL     1     -48.835  27.203  26.259  1.00  0.00     0.029 C 
ATOM     60  H   UNL     1     -49.636  29.191  25.957  1.00  0.00     0.050 H 
ATOM     61  H   UNL     1     -47.876  29.115  26.098  1.00  0.00     0.050 H 
ATOM     62  C   UNL     1     -50.026  26.466  25.676  1.00  0.00     0.251 C 
ATOM     63  H   UNL     1     -51.175  27.578  24.235  1.00  0.00     0.035 H 
ATOM     64  H   UNL     1     -50.745  25.948  23.710  1.00  0.00     0.035 H 
ATOM     65  H   UNL     1     -48.918  27.249  27.351  1.00  0.00     0.035 H 
ATOM     66  H   UNL     1     -47.912  26.654  26.030  1.00  0.00     0.035 H 
ATOM     67  F   UNL     1     -51.118  26.687  26.457  1.00  0.00    -0.207 F 
ATOM     68  F   UNL     1     -49.780  25.130  25.754  1.00  0.00    -0.207 F 
ENDBRANCH  46  51
ENDBRANCH  38  39
ENDBRANCH  35  38
ENDBRANCH   5  35
TORSDOF 9
ENDMDL
MODEL 4
REMARK VINA RESULT:     -10.0      2.436      2.903
REMARK SMILES Cn1ccc(-c2cn(-c3cncc(COc4ccc(C(=O)N5CCC(F)(F)CC5)c(N)c4)c3)c3ncnc(N)c23)n1
REMARK SMILES IDX 9 1 10 2 11 3 12 4 13 5 33 6 8 10 6 11 7 12 40 13 34 15
REMARK SMILES IDX 38 16 35 17 37 18 36 19 5 21 2 22 3 23 41 24 4 25 1 28 39 32
REMARK SMILES IDX 14 35 15 38 16 39 17 40 32 41 18 42 30 44 19 46 31 48 20 51
REMARK SMILES IDX 21 52 22 53 23 54 29 55 24 56 28 59 25 62 26 67 27 68
REMARK H PARENT 10 7 12 8 33 9 7 14 36 20 3 26 4 27 1 29 1 30 1 31 39 33 39 34
REMARK H PARENT 14 36 14 37 17 43 32 45 18 47 31 49 31 50 23 57 23 58 29 60
REMARK H PARENT 29 61 24 63 24 64 28 65 28 66
REMARK Flexibility Score: inf
ROOT
ATOM      1  C   UNL     1     -47.004  39.213  27.437  1.00  0.00     0.066 A 
ATOM      2  C   UNL     1     -48.245  39.653  27.891  1.00  0.00     0.051 A 
ATOM      3  N   UNL     1     -49.275  38.835  28.216  1.00  0.00    -0.262 NA
ATOM      4  C   UNL     1     -49.065  37.507  28.096  1.00  0.00     0.034 A 
ATOM      5  C   UNL     1     -47.872  36.952  27.655  1.00  0.00     0.010 A 
ATOM      6  C   UNL     1     -46.835  37.830  27.308  1.00  0.00    -0.028 A 
ATOM      7  H   UNL     1     -48.481  40.701  28.046  1.00  0.00     0.086 H 
ATOM      8  H   UNL     1     -49.910  36.883  28.375  1.00  0.00     0.084 H 
ATOM      9  H   UNL     1     -45.915  37.403  26.924  1.00  0.00     0.065 H 
ENDROOT
BRANCH   1  10
ATOM     10  N   UNL     1     -45.965  40.144  27.122  1.00  0.00    -0.299 N 
ATOM     11  C   UNL     1     -44.835  41.778  26.059  1.00  0.00     0.033 A 
ATOM     12  C   UNL     1     -46.018  41.073  26.102  1.00  0.00     0.021 A 
ATOM     13  C   UNL     1     -44.025  41.332  27.134  1.00  0.00     0.071 A 
ATOM     14  H   UNL     1     -46.865  41.156  25.436  1.00  0.00     0.083 H 
ATOM     15  C   UNL     1     -44.731  40.302  27.761  1.00  0.00     0.150 A 
ATOM     16  C   UNL     1     -42.779  41.673  27.691  1.00  0.00     0.137 A 
ATOM     17  N   UNL     1     -44.294  39.611  28.834  1.00  0.00    -0.218 NA
ATOM     18  N   UNL     1     -42.320  40.982  28.750  1.00  0.00    -0.219 NA
ATOM     19  C   UNL     1     -43.085  40.002  29.252  1.00  0.00     0.120 A 
ATOM     20  H   UNL     1     -42.675  39.469  30.104  1.00  0.00     0.106 H 
BRANCH  11  21
ATOM     21  C   UNL     1     -44.512  42.803  25.072  1.00  0.00     0.095 A 
ATOM     22  N   UNL     1     -44.555  44.627  24.009  1.00  0.00    -0.275 N 
ATOM     23  C   UNL     1     -43.681  43.847  23.312  1.00  0.00     0.025 A 
ATOM     24  N   UNL     1     -45.084  44.013  25.083  1.00  0.00    -0.173 NA
ATOM     25  C   UNL     1     -43.641  42.642  23.974  1.00  0.00    -0.016 A 
ATOM     26  H   UNL     1     -43.182  44.196  22.420  1.00  0.00     0.084 H 
ATOM     27  H   UNL     1     -43.067  41.767  23.698  1.00  0.00     0.066 H 
BRANCH  22  28
ATOM     28  C   UNL     1     -44.949  45.981  23.701  1.00  0.00     0.030 C 
ATOM     29  H   UNL     1     -44.067  46.524  23.350  1.00  0.00     0.048 H 
ATOM     30  H   UNL     1     -45.347  46.440  24.609  1.00  0.00     0.048 H 
ATOM     31  H   UNL     1     -45.714  45.969  22.922  1.00  0.00     0.048 H 
ENDBRANCH  22  28
ENDBRANCH  11  21
BRANCH  16  32
ATOM     32  N   UNL     1     -41.977  42.719  27.257  1.00  0.00    -0.383 N 
ATOM     33  H   UNL     1     -42.100  42.952  26.279  1.00  0.00     0.158 HD
ATOM     34  H   UNL     1     -42.059  43.502  27.898  1.00  0.00     0.158 HD
ENDBRANCH  16  32
ENDBRANCH   1  10
BRANCH   5  35
ATOM     35  C   UNL     1     -47.712  35.462  27.511  1.00  0.00     0.115 C 
ATOM     36  H   UNL     1     -48.670  34.929  27.519  1.00  0.00     0.076 H 
ATOM     37  H   UNL     1     -47.166  35.102  28.392  1.00  0.00     0.076 H 
BRANCH  35  38
ATOM     38  O   UNL     1     -46.931  35.102  26.369  1.00  0.00    -0.489 OA
BRANCH  38  39
ATOM     39  C   UNL     1     -47.135  33.877  25.793  1.00  0.00     0.121 A 
ATOM     40  C   UNL     1     -48.339  33.267  26.154  1.00  0.00    -0.019 A 
ATOM     41  C   UNL     1     -46.263  33.216  24.922  1.00  0.00     0.004 A 
ATOM     42  C   UNL     1     -48.691  32.029  25.620  1.00  0.00    -0.044 A 
ATOM     43  H   UNL     1     -49.012  33.767  26.847  1.00  0.00     0.066 H 
ATOM     44  C   UNL     1     -46.566  31.938  24.423  1.00  0.00     0.048 A 
ATOM     45  H   UNL     1     -45.322  33.663  24.623  1.00  0.00     0.068 H 
ATOM     46  C   UNL     1     -47.824  31.392  24.725  1.00  0.00     0.063 A 
ATOM     47  H   UNL     1     -49.636  31.567  25.893  1.00  0.00     0.063 H 
BRANCH  44  48
ATOM     48  N   UNL     1     -45.699  31.355  23.474  1.00  0.00    -0.398 N 
ATOM     49  H   UNL     1     -44.955  32.001  23.199  1.00  0.00     0.156 HD
ATOM     50  H   UNL     1     -46.187  31.006  22.652  1.00  0.00     0.156 HD
ENDBRANCH  44  48
BRANCH  46  51
ATOM     51  C   UNL     1     -48.234  30.093  24.153  1.00  0.00     0.255 C 
ATOM     52  O   UNL     1     -47.652  29.087  24.554  1.00  0.00    -0.269 OA
ATOM     53  N   UNL     1     -49.238  30.078  23.180  1.00  0.00    -0.338 N 
ATOM     54  C   UNL     1     -49.597  28.795  22.572  1.00  0.00     0.027 C 
ATOM     55  C   UNL     1     -49.732  31.294  22.522  1.00  0.00     0.027 C 
ATOM     56  C   UNL     1     -49.603  28.906  21.058  1.00  0.00     0.029 C 
ATOM     57  H   UNL     1     -48.908  28.004  22.884  1.00  0.00     0.050 H 
ATOM     58  H   UNL     1     -50.592  28.524  22.947  1.00  0.00     0.050 H 
ATOM     59  C   UNL     1     -50.941  31.010  21.650  1.00  0.00     0.029 C 
ATOM     60  H   UNL     1     -48.909  31.704  21.923  1.00  0.00     0.050 H 
ATOM     61  H   UNL     1     -49.996  32.040  23.275  1.00  0.00     0.050 H 
ATOM     62  C   UNL     1     -50.607  29.954  20.612  1.00  0.00     0.251 C 
ATOM     63  H   UNL     1     -48.600  29.181  20.708  1.00  0.00     0.035 H 
ATOM     64  H   UNL     1     -49.848  27.936  20.612  1.00  0.00     0.035 H 
ATOM     65  H   UNL     1     -51.274  31.930  21.157  1.00  0.00     0.035 H 
ATOM     66  H   UNL     1     -51.774  30.662  22.275  1.00  0.00     0.035 H 
ATOM     67  F   UNL     1     -50.132  30.561  19.491  1.00  0.00    -0.207 F 
ATOM     68  F   UNL     1     -51.763  29.341  20.240  1.00  0.00    -0.207 F 
ENDBRANCH  46  51
ENDBRANCH  38  39
ENDBRANCH  35  38
ENDBRANCH   5  35
TORSDOF 9
ENDMDL
MODEL 5
REMARK VINA RESULT:      -9.9      4.673     12.931
REMARK SMILES Cn1ccc(-c2cn(-c3cncc(COc4ccc(C(=O)N5CCC(F)(F)CC5)c(N)c4)c3)c3ncnc(N)c23)n1
REMARK SMILES IDX 9 1 10 2 11 3 12 4 13 5 33 6 8 10 6 11 7 12 40 13 34 15
REMARK SMILES IDX 38 16 35 17 37 18 36 19 5 21 2 22 3 23 41 24 4 25 1 28 39 32
REMARK SMILES IDX 14 35 15 38 16 39 17 40 32 41 18 42 30 44 19 46 31 48 20 51
REMARK SMILES IDX 21 52 22 53 23 54 29 55 24 56 28 59 25 62 26 67 27 68
REMARK H PARENT 10 7 12 8 33 9 7 14 36 20 3 26 4 27 1 29 1 30 1 31 39 33 39 34
REMARK H PARENT 14 36 14 37 17 43 32 45 18 47 31 49 31 50 23 57 23 58 29 60
REMARK H PARENT 29 61 24 63 24 64 28 65 28 66
REMARK Flexibility Score: inf
ROOT
ATOM      1  C   UNL     1     -47.968  32.410  25.421  1.00  0.00     0.066 A 
ATOM      2  C   UNL     1     -46.660  32.704  25.044  1.00  0.00     0.051 A 
ATOM      3  N   UNL     1     -46.023  33.865  25.334  1.00  0.00    -0.262 NA
ATOM      4  C   UNL     1     -46.712  34.781  26.046  1.00  0.00     0.034 A 
ATOM      5  C   UNL     1     -48.019  34.599  26.477  1.00  0.00     0.010 A 
ATOM      6  C   UNL     1     -48.652  33.394  26.140  1.00  0.00    -0.028 A 
ATOM      7  H   UNL     1     -46.029  32.008  24.500  1.00  0.00     0.086 H 
ATOM      8  H   UNL     1     -46.165  35.694  26.268  1.00  0.00     0.084 H 
ATOM      9  H   UNL     1     -49.687  33.265  26.439  1.00  0.00     0.065 H 
ENDROOT
BRANCH   1  10
ATOM     10  N   UNL     1     -48.565  31.156  25.080  1.00  0.00    -0.299 N 
ATOM     11  C   UNL     1     -49.103  28.969  25.174  1.00  0.00     0.033 A 
ATOM     12  C   UNL     1     -48.427  29.990  25.807  1.00  0.00     0.021 A 
ATOM     13  C   UNL     1     -49.755  29.518  24.041  1.00  0.00     0.071 A 
ATOM     14  H   UNL     1     -47.825  29.933  26.703  1.00  0.00     0.083 H 
ATOM     15  C   UNL     1     -49.386  30.864  23.986  1.00  0.00     0.150 A 
ATOM     16  C   UNL     1     -50.638  29.065  23.045  1.00  0.00     0.137 A 
ATOM     17  N   UNL     1     -49.799  31.738  23.043  1.00  0.00    -0.218 NA
ATOM     18  N   UNL     1     -51.046  29.917  22.088  1.00  0.00    -0.219 NA
ATOM     19  C   UNL     1     -50.607  31.183  22.134  1.00  0.00     0.120 A 
ATOM     20  H   UNL     1     -50.958  31.836  21.340  1.00  0.00     0.106 H 
BRANCH  11  21
ATOM     21  C   UNL     1     -49.128  27.582  25.627  1.00  0.00     0.095 A 
ATOM     22  N   UNL     1     -48.463  25.658  26.186  1.00  0.00    -0.275 N 
ATOM     23  C   UNL     1     -49.824  25.573  26.224  1.00  0.00     0.025 A 
ATOM     24  N   UNL     1     -48.012  26.870  25.817  1.00  0.00    -0.173 NA
ATOM     25  C   UNL     1     -50.290  26.812  25.849  1.00  0.00    -0.016 A 
ATOM     26  H   UNL     1     -50.337  24.661  26.493  1.00  0.00     0.084 H 
ATOM     27  H   UNL     1     -51.323  27.114  25.747  1.00  0.00     0.066 H 
BRANCH  22  28
ATOM     28  C   UNL     1     -47.518  24.608  26.482  1.00  0.00     0.030 C 
ATOM     29  H   UNL     1     -47.585  24.376  27.548  1.00  0.00     0.048 H 
ATOM     30  H   UNL     1     -46.517  24.964  26.227  1.00  0.00     0.048 H 
ATOM     31  H   UNL     1     -47.761  23.722  25.891  1.00  0.00     0.048 H 
ENDBRANCH  22  28
ENDBRANCH  11  21
BRANCH  16  32
ATOM     32  N   UNL     1     -51.177  27.786  22.986  1.00  0.00    -0.383 N 
ATOM     33  H   UNL     1     -51.230  27.407  22.048  1.00  0.00     0.158 HD
ATOM     34  H   UNL     1     -50.717  27.189  23.665  1.00  0.00     0.158 HD
ENDBRANCH  16  32
ENDBRANCH   1  10
BRANCH   5  35
ATOM     35  C   UNL     1     -48.745  35.675  27.239  1.00  0.00     0.115 C 
ATOM     36  H   UNL     1     -49.830  35.521  27.262  1.00  0.00     0.076 H 
ATOM     37  H   UNL     1     -48.592  36.620  26.702  1.00  0.00     0.076 H 
BRANCH  35  38
ATOM     38  O   UNL     1     -48.222  35.863  28.556  1.00  0.00    -0.489 OA
BRANCH  38  39
ATOM     39  C   UNL     1     -47.168  36.718  28.730  1.00  0.00     0.121 A 
ATOM     40  C   UNL     1     -46.941  37.574  27.648  1.00  0.00    -0.019 A 
ATOM     41  C   UNL     1     -46.333  36.789  29.849  1.00  0.00     0.004 A 
ATOM     42  C   UNL     1     -45.918  38.520  27.699  1.00  0.00    -0.044 A 
ATOM     43  H   UNL     1     -47.574  37.511  26.767  1.00  0.00     0.066 H 
ATOM     44  C   UNL     1     -45.255  37.687  29.896  1.00  0.00     0.048 A 
ATOM     45  H   UNL     1     -46.484  36.139  30.704  1.00  0.00     0.068 H 
ATOM     46  C   UNL     1     -45.110  38.600  28.839  1.00  0.00     0.063 A 
ATOM     47  H   UNL     1     -45.756  39.193  26.861  1.00  0.00     0.063 H 
BRANCH  44  48
ATOM     48  N   UNL     1     -44.502  37.786  31.085  1.00  0.00    -0.398 N 
ATOM     49  H   UNL     1     -43.502  37.877  30.890  1.00  0.00     0.156 HD
ATOM     50  H   UNL     1     -44.669  37.015  31.727  1.00  0.00     0.156 HD
ENDBRANCH  44  48
BRANCH  46  51
ATOM     51  C   UNL     1     -44.050  39.629  28.877  1.00  0.00     0.255 C 
ATOM     52  O   UNL     1     -43.367  39.703  29.896  1.00  0.00    -0.269 OA
ATOM     53  N   UNL     1     -43.896  40.471  27.772  1.00  0.00    -0.338 N 
ATOM     54  C   UNL     1     -42.886  41.530  27.839  1.00  0.00     0.027 C 
ATOM     55  C   UNL     1     -44.880  40.551  26.684  1.00  0.00     0.027 C 
ATOM     56  C   UNL     1     -43.485  42.866  27.437  1.00  0.00     0.029 C 
ATOM     57  H   UNL     1     -42.458  41.602  28.844  1.00  0.00     0.050 H 
ATOM     58  H   UNL     1     -42.072  41.247  27.160  1.00  0.00     0.050 H 
ATOM     59  C   UNL     1     -44.375  41.401  25.531  1.00  0.00     0.029 C 
ATOM     60  H   UNL     1     -45.802  40.974  27.102  1.00  0.00     0.050 H 
ATOM     61  H   UNL     1     -45.110  39.547  26.321  1.00  0.00     0.050 H 
ATOM     62  C   UNL     1     -44.021  42.794  26.018  1.00  0.00     0.251 C 
ATOM     63  H   UNL     1     -44.298  43.124  28.126  1.00  0.00     0.035 H 
ATOM     64  H   UNL     1     -42.729  43.654  27.515  1.00  0.00     0.035 H 
ATOM     65  H   UNL     1     -45.137  41.458  24.746  1.00  0.00     0.035 H 
ATOM     66  H   UNL     1     -43.490  40.929  25.085  1.00  0.00     0.035 H 
ATOM     67  F   UNL     1     -45.117  43.594  25.927  1.00  0.00    -0.207 F 
ATOM     68  F   UNL     1     -43.104  43.323  25.163  1.00  0.00    -0.207 F 
ENDBRANCH  46  51
ENDBRANCH  38  39
ENDBRANCH  35  38
ENDBRANCH   5  35
TORSDOF 9
ENDMDL
MODEL 6
REMARK VINA RESULT:      -9.8      5.010     12.863
REMARK SMILES Cn1ccc(-c2cn(-c3cncc(COc4ccc(C(=O)N5CCC(F)(F)CC5)c(N)c4)c3)c3ncnc(N)c23)n1
REMARK SMILES IDX 9 1 10 2 11 3 12 4 13 5 33 6 8 10 6 11 7 12 40 13 34 15
REMARK SMILES IDX 38 16 35 17 37 18 36 19 5 21 2 22 3 23 41 24 4 25 1 28 39 32
REMARK SMILES IDX 14 35 15 38 16 39 17 40 32 41 18 42 30 44 19 46 31 48 20 51
REMARK SMILES IDX 21 52 22 53 23 54 29 55 24 56 28 59 25 62 26 67 27 68
REMARK H PARENT 10 7 12 8 33 9 7 14 36 20 3 26 4 27 1 29 1 30 1 31 39 33 39 34
REMARK H PARENT 14 36 14 37 17 43 32 45 18 47 31 49 31 50 23 57 23 58 29 60
REMARK H PARENT 29 61 24 63 24 64 28 65 28 66
REMARK Flexibility Score: inf
ROOT
ATOM      1  C   UNL     1     -47.265  32.757  26.235  1.00  0.00     0.066 A 
ATOM      2  C   UNL     1     -46.414  32.462  27.298  1.00  0.00     0.051 A 
ATOM      3  N   UNL     1     -45.984  33.370  28.208  1.00  0.00    -0.262 NA
ATOM      4  C   UNL     1     -46.427  34.637  28.067  1.00  0.00     0.034 A 
ATOM      5  C   UNL     1     -47.277  35.048  27.049  1.00  0.00     0.010 A 
ATOM      6  C   UNL     1     -47.685  34.085  26.114  1.00  0.00    -0.028 A 
ATOM      7  H   UNL     1     -46.042  31.464  27.499  1.00  0.00     0.086 H 
ATOM      8  H   UNL     1     -46.069  35.334  28.820  1.00  0.00     0.084 H 
ATOM      9  H   UNL     1     -48.315  34.410  25.294  1.00  0.00     0.065 H 
ENDROOT
BRANCH   1  10
ATOM     10  N   UNL     1     -47.678  31.737  25.322  1.00  0.00    -0.299 N 
ATOM     11  C   UNL     1     -48.793  29.966  24.486  1.00  0.00     0.033 A 
ATOM     12  C   UNL     1     -48.686  30.824  25.559  1.00  0.00     0.021 A 
ATOM     13  C   UNL     1     -47.869  30.390  23.498  1.00  0.00     0.071 A 
ATOM     14  H   UNL     1     -49.240  30.799  26.487  1.00  0.00     0.083 H 
ATOM     15  C   UNL     1     -47.171  31.469  24.046  1.00  0.00     0.150 A 
ATOM     16  C   UNL     1     -47.530  30.022  22.183  1.00  0.00     0.137 A 
ATOM     17  N   UNL     1     -46.195  32.155  23.416  1.00  0.00    -0.218 NA
ATOM     18  N   UNL     1     -46.548  30.684  21.547  1.00  0.00    -0.219 NA
ATOM     19  C   UNL     1     -45.939  31.692  22.187  1.00  0.00     0.120 A 
ATOM     20  H   UNL     1     -45.150  32.197  21.638  1.00  0.00     0.106 H 
BRANCH  11  21
ATOM     21  C   UNL     1     -49.714  28.837  24.411  1.00  0.00     0.095 A 
ATOM     22  N   UNL     1     -51.310  27.608  23.779  1.00  0.00    -0.275 N 
ATOM     23  C   UNL     1     -50.802  26.970  24.871  1.00  0.00     0.025 A 
ATOM     24  N   UNL     1     -50.671  28.753  23.480  1.00  0.00    -0.173 NA
ATOM     25  C   UNL     1     -49.765  27.756  25.318  1.00  0.00    -0.016 A 
ATOM     26  H   UNL     1     -51.215  26.043  25.242  1.00  0.00     0.084 H 
ATOM     27  H   UNL     1     -49.137  27.576  26.180  1.00  0.00     0.066 H 
BRANCH  22  28
ATOM     28  C   UNL     1     -52.425  27.184  22.965  1.00  0.00     0.030 C 
ATOM     29  H   UNL     1     -52.258  26.146  22.667  1.00  0.00     0.048 H 
ATOM     30  H   UNL     1     -52.478  27.834  22.088  1.00  0.00     0.048 H 
ATOM     31  H   UNL     1     -53.348  27.262  23.545  1.00  0.00     0.048 H 
ENDBRANCH  22  28
ENDBRANCH  11  21
BRANCH  16  32
ATOM     32  N   UNL     1     -48.169  29.033  21.447  1.00  0.00    -0.383 N 
ATOM     33  H   UNL     1     -48.061  29.134  20.445  1.00  0.00     0.158 HD
ATOM     34  H   UNL     1     -47.922  28.120  21.815  1.00  0.00     0.158 HD
ENDBRANCH  16  32
ENDBRANCH   1  10
BRANCH   5  35
ATOM     35  C   UNL     1     -47.708  36.485  26.926  1.00  0.00     0.115 C 
ATOM     36  H   UNL     1     -48.787  36.592  26.758  1.00  0.00     0.076 H 
ATOM     37  H   UNL     1     -47.227  36.899  26.031  1.00  0.00     0.076 H 
BRANCH  35  38
ATOM     38  O   UNL     1     -47.277  37.283  28.030  1.00  0.00    -0.489 OA
BRANCH  38  39
ATOM     39  C   UNL     1     -46.349  38.265  27.810  1.00  0.00     0.121 A 
ATOM     40  C   UNL     1     -46.444  38.871  26.554  1.00  0.00    -0.019 A 
ATOM     41  C   UNL     1     -45.352  38.678  28.698  1.00  0.00     0.004 A 
ATOM     42  C   UNL     1     -45.582  39.908  26.203  1.00  0.00    -0.044 A 
ATOM     43  H   UNL     1     -47.205  38.541  25.850  1.00  0.00     0.066 H 
ATOM     44  C   UNL     1     -44.429  39.675  28.342  1.00  0.00     0.048 A 
ATOM     45  H   UNL     1     -45.252  38.228  29.679  1.00  0.00     0.068 H 
ATOM     46  C   UNL     1     -44.609  40.333  27.114  1.00  0.00     0.063 A 
ATOM     47  H   UNL     1     -45.671  40.386  25.231  1.00  0.00     0.063 H 
BRANCH  44  48
ATOM     48  N   UNL     1     -43.503  40.123  29.309  1.00  0.00    -0.398 N 
ATOM     49  H   UNL     1     -42.758  40.680  28.885  1.00  0.00     0.156 HD
ATOM     50  H   UNL     1     -43.109  39.366  29.863  1.00  0.00     0.156 HD
ENDBRANCH  44  48
BRANCH  46  51
ATOM     51  C   UNL     1     -43.725  41.452  26.727  1.00  0.00     0.255 C 
ATOM     52  O   UNL     1     -42.521  41.326  26.943  1.00  0.00    -0.269 OA
ATOM     53  N   UNL     1     -44.300  42.593  26.161  1.00  0.00    -0.338 N 
ATOM     54  C   UNL     1     -43.427  43.724  25.836  1.00  0.00     0.027 C 
ATOM     55  C   UNL     1     -45.747  42.840  26.155  1.00  0.00     0.027 C 
ATOM     56  C   UNL     1     -43.993  45.014  26.402  1.00  0.00     0.029 C 
ATOM     57  H   UNL     1     -42.415  43.563  26.218  1.00  0.00     0.050 H 
ATOM     58  H   UNL     1     -43.355  43.776  24.743  1.00  0.00     0.050 H 
ATOM     59  C   UNL     1     -46.107  44.054  25.318  1.00  0.00     0.029 C 
ATOM     60  H   UNL     1     -46.064  42.979  27.196  1.00  0.00     0.050 H 
ATOM     61  H   UNL     1     -46.270  41.963  25.765  1.00  0.00     0.050 H 
ATOM     62  C   UNL     1     -45.371  45.281  25.823  1.00  0.00     0.251 C 
ATOM     63  H   UNL     1     -44.059  44.936  27.494  1.00  0.00     0.035 H 
ATOM     64  H   UNL     1     -43.321  45.849  26.176  1.00  0.00     0.035 H 
ATOM     65  H   UNL     1     -47.189  44.224  25.349  1.00  0.00     0.035 H 
ATOM     66  H   UNL     1     -45.842  43.870  24.268  1.00  0.00     0.035 H 
ATOM     67  F   UNL     1     -46.127  45.900  26.770  1.00  0.00    -0.207 F 
ATOM     68  F   UNL     1     -45.264  46.167  24.797  1.00  0.00    -0.207 F 
ENDBRANCH  46  51
ENDBRANCH  38  39
ENDBRANCH  35  38
ENDBRANCH   5  35
TORSDOF 9
ENDMDL
MODEL 7
REMARK VINA RESULT:      -9.6      2.841      3.857
REMARK SMILES Cn1ccc(-c2cn(-c3cncc(COc4ccc(C(=O)N5CCC(F)(F)CC5)c(N)c4)c3)c3ncnc(N)c23)n1
REMARK SMILES IDX 9 1 10 2 11 3 12 4 13 5 33 6 8 10 6 11 7 12 40 13 34 15
REMARK SMILES IDX 38 16 35 17 37 18 36 19 5 21 2 22 3 23 41 24 4 25 1 28 39 32
REMARK SMILES IDX 14 35 15 38 16 39 17 40 32 41 18 42 30 44 19 46 31 48 20 51
REMARK SMILES IDX 21 52 22 53 23 54 29 55 24 56 28 59 25 62 26 67 27 68
REMARK H PARENT 10 7 12 8 33 9 7 14 36 20 3 26 4 27 1 29 1 30 1 31 39 33 39 34
REMARK H PARENT 14 36 14 37 17 43 32 45 18 47 31 49 31 50 23 57 23 58 29 60
REMARK H PARENT 29 61 24 63 24 64 28 65 28 66
REMARK Flexibility Score: inf
ROOT
ATOM      1  C   UNL     1     -47.240  38.519  27.154  1.00  0.00     0.066 A 
ATOM      2  C   UNL     1     -48.420  38.373  27.879  1.00  0.00     0.051 A 
ATOM      3  N   UNL     1     -48.920  37.185  28.296  1.00  0.00    -0.262 NA
ATOM      4  C   UNL     1     -48.210  36.079  27.988  1.00  0.00     0.034 A 
ATOM      5  C   UNL     1     -47.021  36.100  27.270  1.00  0.00     0.010 A 
ATOM      6  C   UNL     1     -46.546  37.347  26.839  1.00  0.00    -0.028 A 
ATOM      7  H   UNL     1     -49.029  39.214  28.195  1.00  0.00     0.086 H 
ATOM      8  H   UNL     1     -48.636  35.146  28.346  1.00  0.00     0.084 H 
ATOM      9  H   UNL     1     -45.639  37.365  26.243  1.00  0.00     0.065 H 
ENDROOT
BRANCH   1  10
ATOM     10  N   UNL     1     -46.777  39.813  26.758  1.00  0.00    -0.299 N 
ATOM     11  C   UNL     1     -45.377  41.458  26.115  1.00  0.00     0.033 A 
ATOM     12  C   UNL     1     -45.477  40.114  26.401  1.00  0.00     0.021 A 
ATOM     13  C   UNL     1     -46.673  42.022  26.223  1.00  0.00     0.071 A 
ATOM     14  H   UNL     1     -44.687  39.376  26.413  1.00  0.00     0.083 H 
ATOM     15  C   UNL     1     -47.518  40.995  26.649  1.00  0.00     0.150 A 
ATOM     16  C   UNL     1     -47.268  43.276  25.997  1.00  0.00     0.137 A 
ATOM     17  N   UNL     1     -48.842  41.130  26.874  1.00  0.00    -0.218 NA
ATOM     18  N   UNL     1     -48.583  43.433  26.234  1.00  0.00    -0.219 NA
ATOM     19  C   UNL     1     -49.285  42.373  26.657  1.00  0.00     0.120 A 
ATOM     20  H   UNL     1     -50.342  42.545  26.839  1.00  0.00     0.106 H 
BRANCH  11  21
ATOM     21  C   UNL     1     -44.138  42.142  25.757  1.00  0.00     0.095 A 
ATOM     22  N   UNL     1     -42.688  43.163  24.612  1.00  0.00    -0.275 N 
ATOM     23  C   UNL     1     -42.083  42.947  25.815  1.00  0.00     0.025 A 
ATOM     24  N   UNL     1     -43.940  42.675  24.546  1.00  0.00    -0.173 NA
ATOM     25  C   UNL     1     -43.001  42.268  26.582  1.00  0.00    -0.016 A 
ATOM     26  H   UNL     1     -41.072  43.271  26.019  1.00  0.00     0.084 H 
ATOM     27  H   UNL     1     -42.865  41.909  27.593  1.00  0.00     0.066 H 
BRANCH  22  28
ATOM     28  C   UNL     1     -42.123  43.827  23.462  1.00  0.00     0.030 C 
ATOM     29  H   UNL     1     -42.100  43.115  22.631  1.00  0.00     0.048 H 
ATOM     30  H   UNL     1     -41.112  44.156  23.715  1.00  0.00     0.048 H 
ATOM     31  H   UNL     1     -42.742  44.688  23.198  1.00  0.00     0.048 H 
ENDBRANCH  22  28
ENDBRANCH  11  21
BRANCH  16  32
ATOM     32  N   UNL     1     -46.607  44.389  25.495  1.00  0.00    -0.383 N 
ATOM     33  H   UNL     1     -46.339  45.061  26.205  1.00  0.00     0.158 HD
ATOM     34  H   UNL     1     -45.856  44.092  24.881  1.00  0.00     0.158 HD
ENDBRANCH  16  32
ENDBRANCH   1  10
BRANCH   5  35
ATOM     35  C   UNL     1     -46.294  34.828  26.930  1.00  0.00     0.115 C 
ATOM     36  H   UNL     1     -45.350  34.717  27.477  1.00  0.00     0.076 H 
ATOM     37  H   UNL     1     -46.015  34.880  25.869  1.00  0.00     0.076 H 
BRANCH  35  38
ATOM     38  O   UNL     1     -47.116  33.668  27.081  1.00  0.00    -0.489 OA
BRANCH  38  39
ATOM     39  C   UNL     1     -47.170  32.763  26.056  1.00  0.00     0.121 A 
ATOM     40  C   UNL     1     -48.075  31.717  26.263  1.00  0.00    -0.019 A 
ATOM     41  C   UNL     1     -46.415  32.795  24.880  1.00  0.00     0.004 A 
ATOM     42  C   UNL     1     -48.256  30.737  25.289  1.00  0.00    -0.044 A 
ATOM     43  H   UNL     1     -48.650  31.675  27.185  1.00  0.00     0.066 H 
ATOM     44  C   UNL     1     -46.532  31.782  23.914  1.00  0.00     0.048 A 
ATOM     45  H   UNL     1     -45.706  33.593  24.690  1.00  0.00     0.068 H 
ATOM     46  C   UNL     1     -47.516  30.799  24.103  1.00  0.00     0.063 A 
ATOM     47  H   UNL     1     -48.972  29.935  25.449  1.00  0.00     0.063 H 
BRANCH  44  48
ATOM     48  N   UNL     1     -45.819  31.912  22.702  1.00  0.00    -0.398 N 
ATOM     49  H   UNL     1     -45.962  32.832  22.280  1.00  0.00     0.156 HD
ATOM     50  H   UNL     1     -46.034  31.177  22.033  1.00  0.00     0.156 HD
ENDBRANCH  44  48
BRANCH  46  51
ATOM     51  C   UNL     1     -47.747  29.762  23.076  1.00  0.00     0.255 C 
ATOM     52  O   UNL     1     -46.852  28.942  22.886  1.00  0.00    -0.269 OA
ATOM     53  N   UNL     1     -48.951  29.781  22.366  1.00  0.00    -0.338 N 
ATOM     54  C   UNL     1     -49.149  28.789  21.306  1.00  0.00     0.027 C 
ATOM     55  C   UNL     1     -49.888  30.911  22.411  1.00  0.00     0.027 C 
ATOM     56  C   UNL     1     -49.610  29.462  20.025  1.00  0.00     0.029 C 
ATOM     57  H   UNL     1     -48.231  28.224  21.119  1.00  0.00     0.050 H 
ATOM     58  H   UNL     1     -49.901  28.076  21.665  1.00  0.00     0.050 H 
ATOM     59  C   UNL     1     -51.190  30.590  21.699  1.00  0.00     0.029 C 
ATOM     60  H   UNL     1     -49.393  31.771  21.944  1.00  0.00     0.050 H 
ATOM     61  H   UNL     1     -50.099  31.174  23.450  1.00  0.00     0.050 H 
ATOM     62  C   UNL     1     -50.920  30.193  20.259  1.00  0.00     0.251 C 
ATOM     63  H   UNL     1     -48.845  30.172  19.690  1.00  0.00     0.035 H 
ATOM     64  H   UNL     1     -49.731  28.716  19.233  1.00  0.00     0.035 H 
ATOM     65  H   UNL     1     -51.860  31.457  21.732  1.00  0.00     0.035 H 
ATOM     66  H   UNL     1     -51.702  29.769  22.218  1.00  0.00     0.035 H 
ATOM     67  F   UNL     1     -50.943  31.304  19.475  1.00  0.00    -0.207 F 
ATOM     68  F   UNL     1     -51.952  29.416  19.831  1.00  0.00    -0.207 F 
ENDBRANCH  46  51
ENDBRANCH  38  39
ENDBRANCH  35  38
ENDBRANCH   5  35
TORSDOF 9
ENDMDL
