MODEL 1
REMARK VINA RESULT:     -10.4      0.000      0.000
REMARK SMILES Cn1ccc(-c2cn([C@@H]3O[C@H](COc4ccc5ccc(NC6CCC6)nc5c4)[C@@H](O)[C@@H]3F)c3ncnc(N)c23)n1
REMARK SMILES IDX 12 1 11 4 9 5 10 6 31 7 29 9 32 10 8 14 6 15 7 16 39 17
REMARK SMILES IDX 33 19 37 20 34 21 36 22 35 23 5 25 2 26 3 27 40 28 4 29 1 32
REMARK SMILES IDX 38 36 30 39 13 41 14 42 15 43 28 44 16 45 27 47 17 49 26 51
REMARK SMILES IDX 18 52 20 53 19 54 21 57 22 59 23 60 25 61 24 63
REMARK H PARENT 12 2 12 3 9 8 31 11 11 12 29 13 7 18 35 24 3 30 4 31 1 33 1 34
REMARK H PARENT 1 35 38 37 38 38 30 40 15 46 28 48 16 50 18 55 19 56 21 58
REMARK H PARENT 22 62 23 64 23 65 25 66 25 67 24 68 24 69
REMARK Flexibility Score: inf
ROOT
ATOM      1  C   UNL     1     -47.891  35.450  27.126  1.00  0.00     0.117 C 
ATOM      2  H   UNL     1     -47.888  35.744  26.070  1.00  0.00     0.073 H 
ATOM      3  H   UNL     1     -48.626  36.043  27.684  1.00  0.00     0.073 H 
ENDROOT
BRANCH   1   4
ATOM      4  C   UNL     1     -46.502  35.695  27.727  1.00  0.00     0.123 C 
ATOM      5  C   UNL     1     -45.374  37.742  27.942  1.00  0.00     0.169 C 
ATOM      6  O   UNL     1     -45.822  36.742  26.991  1.00  0.00    -0.345 OA
ATOM      7  C   UNL     1     -45.346  37.028  29.283  1.00  0.00     0.173 C 
ATOM      8  H   UNL     1     -44.347  38.020  27.672  1.00  0.00     0.088 H 
ATOM      9  C   UNL     1     -46.539  36.102  29.201  1.00  0.00     0.119 C 
ATOM     10  F   UNL     1     -45.362  37.826  30.365  1.00  0.00    -0.239 F 
ATOM     11  H   UNL     1     -44.433  36.422  29.356  1.00  0.00     0.074 H 
ATOM     12  H   UNL     1     -45.908  34.782  27.595  1.00  0.00     0.067 H 
ATOM     13  H   UNL     1     -47.472  36.588  29.487  1.00  0.00     0.066 H 
BRANCH   5  14
ATOM     14  N   UNL     1     -46.164  38.941  27.712  1.00  0.00    -0.302 N 
ATOM     15  C   UNL     1     -47.897  40.351  27.931  1.00  0.00     0.033 A 
ATOM     16  C   UNL     1     -47.405  39.114  28.297  1.00  0.00     0.019 A 
ATOM     17  C   UNL     1     -46.937  40.948  27.057  1.00  0.00     0.071 A 
ATOM     18  H   UNL     1     -47.806  38.357  28.958  1.00  0.00     0.083 H 
ATOM     19  C   UNL     1     -45.870  40.054  26.965  1.00  0.00     0.148 A 
ATOM     20  C   UNL     1     -46.809  42.148  26.330  1.00  0.00     0.137 A 
ATOM     21  N   UNL     1     -44.739  40.253  26.270  1.00  0.00    -0.218 NA
ATOM     22  N   UNL     1     -45.678  42.379  25.635  1.00  0.00    -0.219 NA
ATOM     23  C   UNL     1     -44.725  41.436  25.641  1.00  0.00     0.120 A 
ATOM     24  H   UNL     1     -43.833  41.660  25.064  1.00  0.00     0.106 H 
BRANCH  15  25
ATOM     25  C   UNL     1     -49.157  40.946  28.390  1.00  0.00     0.095 A 
ATOM     26  N   UNL     1     -50.557  42.272  29.262  1.00  0.00    -0.275 N 
ATOM     27  C   UNL     1     -51.304  41.202  28.870  1.00  0.00     0.025 A 
ATOM     28  N   UNL     1     -49.248  42.147  28.978  1.00  0.00    -0.173 NA
ATOM     29  C   UNL     1     -50.419  40.315  28.301  1.00  0.00    -0.016 A 
ATOM     30  H   UNL     1     -52.372  41.156  29.028  1.00  0.00     0.084 H 
ATOM     31  H   UNL     1     -50.656  39.349  27.881  1.00  0.00     0.066 H 
BRANCH  26  32
ATOM     32  C   UNL     1     -51.026  43.461  29.931  1.00  0.00     0.030 C 
ATOM     33  H   UNL     1     -50.644  44.335  29.397  1.00  0.00     0.048 H 
ATOM     34  H   UNL     1     -52.119  43.472  29.927  1.00  0.00     0.048 H 
ATOM     35  H   UNL     1     -50.654  43.445  30.958  1.00  0.00     0.048 H 
ENDBRANCH  26  32
ENDBRANCH  15  25
BRANCH  20  36
ATOM     36  N   UNL     1     -47.778  43.141  26.282  1.00  0.00    -0.383 N 
ATOM     37  H   UNL     1     -48.239  43.140  25.382  1.00  0.00     0.158 HD
ATOM     38  H   UNL     1     -47.403  44.045  26.590  1.00  0.00     0.158 HD
ENDBRANCH  20  36
ENDBRANCH   5  14
BRANCH   9  39
ATOM     39  O   UNL     1     -46.382  34.963  30.051  1.00  0.00    -0.387 OA
ATOM     40  H   UNL     1     -46.310  35.311  30.961  1.00  0.00     0.211 HD
ENDBRANCH   9  39
ENDBRANCH   1   4
BRANCH   1  41
ATOM     41  O   UNL     1     -48.215  34.063  27.239  1.00  0.00    -0.491 OA
BRANCH  41  42
ATOM     42  C   UNL     1     -47.771  33.226  26.255  1.00  0.00     0.121 A 
ATOM     43  C   UNL     1     -46.819  33.536  25.289  1.00  0.00    -0.019 A 
ATOM     44  C   UNL     1     -48.344  31.951  26.270  1.00  0.00     0.007 A 
ATOM     45  C   UNL     1     -46.458  32.576  24.342  1.00  0.00    -0.049 A 
ATOM     46  H   UNL     1     -46.339  34.508  25.246  1.00  0.00     0.066 H 
ATOM     47  C   UNL     1     -48.006  30.979  25.338  1.00  0.00     0.076 A 
ATOM     48  H   UNL     1     -49.084  31.706  27.028  1.00  0.00     0.069 H 
ATOM     49  C   UNL     1     -47.046  31.300  24.361  1.00  0.00     0.001 A 
ATOM     50  H   UNL     1     -45.714  32.827  23.589  1.00  0.00     0.063 H 
ATOM     51  N   UNL     1     -48.599  29.774  25.396  1.00  0.00    -0.231 NA
ATOM     52  C   UNL     1     -46.715  30.315  23.426  1.00  0.00    -0.049 A 
ATOM     53  C   UNL     1     -48.270  28.832  24.491  1.00  0.00     0.126 A 
ATOM     54  C   UNL     1     -47.337  29.071  23.490  1.00  0.00    -0.019 A 
ATOM     55  H   UNL     1     -45.987  30.509  22.644  1.00  0.00     0.063 H 
ATOM     56  H   UNL     1     -47.105  28.306  22.757  1.00  0.00     0.066 H 
BRANCH  53  57
ATOM     57  N   UNL     1     -48.925  27.579  24.522  1.00  0.00    -0.367 N 
ATOM     58  H   UNL     1     -49.156  27.323  23.567  1.00  0.00     0.162 HD
BRANCH  57  59
ATOM     59  C   UNL     1     -48.355  26.471  25.236  1.00  0.00     0.028 C 
ATOM     60  C   UNL     1     -46.806  26.477  25.247  1.00  0.00    -0.033 C 
ATOM     61  C   UNL     1     -48.280  26.730  26.760  1.00  0.00    -0.033 C 
ATOM     62  H   UNL     1     -48.811  25.507  24.978  1.00  0.00     0.053 H 
ATOM     63  C   UNL     1     -46.892  26.056  26.728  1.00  0.00    -0.049 C 
ATOM     64  H   UNL     1     -46.343  27.461  25.100  1.00  0.00     0.029 H 
ATOM     65  H   UNL     1     -46.325  25.757  24.581  1.00  0.00     0.029 H 
ATOM     66  H   UNL     1     -48.245  27.788  27.051  1.00  0.00     0.029 H 
ATOM     67  H   UNL     1     -49.035  26.222  27.364  1.00  0.00     0.029 H 
ATOM     68  H   UNL     1     -46.924  24.970  26.875  1.00  0.00     0.027 H 
ATOM     69  H   UNL     1     -46.137  26.485  27.390  1.00  0.00     0.027 H 
ENDBRANCH  57  59
ENDBRANCH  53  57
ENDBRANCH  41  42
ENDBRANCH   1  41
TORSDOF 10
ENDMDL
MODEL 2
REMARK VINA RESULT:     -10.1      2.392      3.643
REMARK SMILES Cn1ccc(-c2cn([C@@H]3O[C@H](COc4ccc5ccc(NC6CCC6)nc5c4)[C@@H](O)[C@@H]3F)c3ncnc(N)c23)n1
REMARK SMILES IDX 12 1 11 4 9 5 10 6 31 7 29 9 32 10 8 14 6 15 7 16 39 17
REMARK SMILES IDX 33 19 37 20 34 21 36 22 35 23 5 25 2 26 3 27 40 28 4 29 1 32
REMARK SMILES IDX 38 36 30 39 13 41 14 42 15 43 28 44 16 45 27 47 17 49 26 51
REMARK SMILES IDX 18 52 20 53 19 54 21 57 22 59 23 60 25 61 24 63
REMARK H PARENT 12 2 12 3 9 8 31 11 11 12 29 13 7 18 35 24 3 30 4 31 1 33 1 34
REMARK H PARENT 1 35 38 37 38 38 30 40 15 46 28 48 16 50 18 55 19 56 21 58
REMARK H PARENT 22 62 23 64 23 65 25 66 25 67 24 68 24 69
REMARK Flexibility Score: inf
ROOT
ATOM      1  C   UNL     1     -46.305  34.471  26.635  1.00  0.00     0.117 C 
ATOM      2  H   UNL     1     -45.782  33.551  26.920  1.00  0.00     0.073 H 
ATOM      3  H   UNL     1     -45.596  35.305  26.556  1.00  0.00     0.073 H 
ENDROOT
BRANCH   1   4
ATOM      4  C   UNL     1     -47.351  34.814  27.702  1.00  0.00     0.123 C 
ATOM      5  C   UNL     1     -47.419  36.710  29.086  1.00  0.00     0.169 C 
ATOM      6  O   UNL     1     -46.713  35.469  28.827  1.00  0.00    -0.345 OA
ATOM      7  C   UNL     1     -48.781  36.531  28.436  1.00  0.00     0.173 C 
ATOM      8  H   UNL     1     -47.557  36.793  30.171  1.00  0.00     0.088 H 
ATOM      9  C   UNL     1     -48.465  35.730  27.193  1.00  0.00     0.119 C 
ATOM     10  F   UNL     1     -49.456  37.666  28.183  1.00  0.00    -0.239 F 
ATOM     11  H   UNL     1     -49.423  35.927  29.092  1.00  0.00     0.074 H 
ATOM     12  H   UNL     1     -47.769  33.874  28.083  1.00  0.00     0.067 H 
ATOM     13  H   UNL     1     -48.155  36.355  26.355  1.00  0.00     0.066 H 
BRANCH   5  14
ATOM     14  N   UNL     1     -46.522  37.798  28.732  1.00  0.00    -0.302 N 
ATOM     15  C   UNL     1     -45.789  39.590  27.595  1.00  0.00     0.033 A 
ATOM     16  C   UNL     1     -46.786  38.636  27.664  1.00  0.00     0.019 A 
ATOM     17  C   UNL     1     -44.856  39.305  28.639  1.00  0.00     0.071 A 
ATOM     18  H   UNL     1     -47.685  38.505  27.077  1.00  0.00     0.083 H 
ATOM     19  C   UNL     1     -45.357  38.203  29.333  1.00  0.00     0.148 A 
ATOM     20  C   UNL     1     -43.644  39.842  29.114  1.00  0.00     0.137 A 
ATOM     21  N   UNL     1     -44.798  37.639  30.415  1.00  0.00    -0.218 NA
ATOM     22  N   UNL     1     -43.069  39.303  30.208  1.00  0.00    -0.219 NA
ATOM     23  C   UNL     1     -43.665  38.251  30.784  1.00  0.00     0.120 A 
ATOM     24  H   UNL     1     -43.165  37.843  31.658  1.00  0.00     0.106 H 
BRANCH  15  25
ATOM     25  C   UNL     1     -45.730  40.705  26.644  1.00  0.00     0.095 A 
ATOM     26  N   UNL     1     -45.034  42.077  25.191  1.00  0.00    -0.275 N 
ATOM     27  C   UNL     1     -46.278  42.530  25.514  1.00  0.00     0.025 A 
ATOM     28  N   UNL     1     -44.677  40.965  25.858  1.00  0.00    -0.173 NA
ATOM     29  C   UNL     1     -46.759  41.659  26.464  1.00  0.00    -0.016 A 
ATOM     30  H   UNL     1     -46.706  43.412  25.060  1.00  0.00     0.084 H 
ATOM     31  H   UNL     1     -47.718  41.708  26.957  1.00  0.00     0.066 H 
BRANCH  26  32
ATOM     32  C   UNL     1     -44.113  42.665  24.249  1.00  0.00     0.030 C 
ATOM     33  H   UNL     1     -44.306  43.740  24.199  1.00  0.00     0.048 H 
ATOM     34  H   UNL     1     -43.088  42.487  24.585  1.00  0.00     0.048 H 
ATOM     35  H   UNL     1     -44.276  42.199  23.275  1.00  0.00     0.048 H 
ENDBRANCH  26  32
ENDBRANCH  15  25
BRANCH  20  36
ATOM     36  N   UNL     1     -42.985  40.919  28.536  1.00  0.00    -0.383 N 
ATOM     37  H   UNL     1     -42.334  41.327  29.194  1.00  0.00     0.158 HD
ATOM     38  H   UNL     1     -43.644  41.571  28.098  1.00  0.00     0.158 HD
ENDBRANCH  20  36
ENDBRANCH   5  14
BRANCH   9  39
ATOM     39  O   UNL     1     -49.593  34.969  26.755  1.00  0.00    -0.387 OA
ATOM     40  H   UNL     1     -50.119  35.566  26.189  1.00  0.00     0.211 HD
ENDBRANCH   9  39
ENDBRANCH   1   4
BRANCH   1  41
ATOM     41  O   UNL     1     -46.959  34.285  25.378  1.00  0.00    -0.491 OA
BRANCH  41  42
ATOM     42  C   UNL     1     -46.894  33.045  24.808  1.00  0.00     0.121 A 
ATOM     43  C   UNL     1     -45.983  32.640  23.837  1.00  0.00    -0.019 A 
ATOM     44  C   UNL     1     -47.838  32.131  25.286  1.00  0.00     0.007 A 
ATOM     45  C   UNL     1     -46.032  31.334  23.346  1.00  0.00    -0.049 A 
ATOM     46  H   UNL     1     -45.225  33.310  23.446  1.00  0.00     0.066 H 
ATOM     47  C   UNL     1     -47.912  30.829  24.812  1.00  0.00     0.076 A 
ATOM     48  H   UNL     1     -48.548  32.445  26.048  1.00  0.00     0.069 H 
ATOM     49  C   UNL     1     -46.991  30.428  23.827  1.00  0.00     0.001 A 
ATOM     50  H   UNL     1     -45.317  31.027  22.586  1.00  0.00     0.063 H 
ATOM     51  N   UNL     1     -48.849  29.999  25.302  1.00  0.00    -0.231 NA
ATOM     52  C   UNL     1     -47.075  29.114  23.355  1.00  0.00    -0.049 A 
ATOM     53  C   UNL     1     -48.918  28.736  24.840  1.00  0.00     0.126 A 
ATOM     54  C   UNL     1     -48.051  28.263  23.864  1.00  0.00    -0.019 A 
ATOM     55  H   UNL     1     -46.396  28.752  22.589  1.00  0.00     0.063 H 
ATOM     56  H   UNL     1     -48.141  27.249  23.489  1.00  0.00     0.066 H 
BRANCH  53  57
ATOM     57  N   UNL     1     -49.932  27.874  25.322  1.00  0.00    -0.367 N 
ATOM     58  H   UNL     1     -50.379  27.439  24.520  1.00  0.00     0.162 HD
BRANCH  57  59
ATOM     59  C   UNL     1     -49.650  26.911  26.350  1.00  0.00     0.028 C 
ATOM     60  C   UNL     1     -49.441  25.476  25.807  1.00  0.00    -0.033 C 
ATOM     61  C   UNL     1     -48.152  26.890  26.738  1.00  0.00    -0.033 C 
ATOM     62  H   UNL     1     -50.325  26.987  27.211  1.00  0.00     0.053 H 
ATOM     63  C   UNL     1     -48.272  25.352  26.806  1.00  0.00    -0.049 C 
ATOM     64  H   UNL     1     -49.125  25.416  24.757  1.00  0.00     0.029 H 
ATOM     65  H   UNL     1     -50.271  24.784  25.967  1.00  0.00     0.029 H 
ATOM     66  H   UNL     1     -47.463  27.240  25.959  1.00  0.00     0.029 H 
ATOM     67  H   UNL     1     -47.900  27.383  27.680  1.00  0.00     0.029 H 
ATOM     68  H   UNL     1     -48.573  24.976  27.790  1.00  0.00     0.027 H 
ATOM     69  H   UNL     1     -47.404  24.790  26.456  1.00  0.00     0.027 H 
ENDBRANCH  57  59
ENDBRANCH  53  57
ENDBRANCH  41  42
ENDBRANCH   1  41
TORSDOF 10
ENDMDL
MODEL 3
REMARK VINA RESULT:      -9.7      1.312      3.077
REMARK SMILES Cn1ccc(-c2cn([C@@H]3O[C@H](COc4ccc5ccc(NC6CCC6)nc5c4)[C@@H](O)[C@@H]3F)c3ncnc(N)c23)n1
REMARK SMILES IDX 12 1 11 4 9 5 10 6 31 7 29 9 32 10 8 14 6 15 7 16 39 17
REMARK SMILES IDX 33 19 37 20 34 21 36 22 35 23 5 25 2 26 3 27 40 28 4 29 1 32
REMARK SMILES IDX 38 36 30 39 13 41 14 42 15 43 28 44 16 45 27 47 17 49 26 51
REMARK SMILES IDX 18 52 20 53 19 54 21 57 22 59 23 60 25 61 24 63
REMARK H PARENT 12 2 12 3 9 8 31 11 11 12 29 13 7 18 35 24 3 30 4 31 1 33 1 34
REMARK H PARENT 1 35 38 37 38 38 30 40 15 46 28 48 16 50 18 55 19 56 21 58
REMARK H PARENT 22 62 23 64 23 65 25 66 25 67 24 68 24 69
REMARK Flexibility Score: inf
ROOT
ATOM      1  C   UNL     1     -47.556  35.705  27.196  1.00  0.00     0.117 C 
ATOM      2  H   UNL     1     -47.387  35.946  26.140  1.00  0.00     0.073 H 
ATOM      3  H   UNL     1     -48.305  36.381  27.626  1.00  0.00     0.073 H 
ENDROOT
BRANCH   1   4
ATOM      4  C   UNL     1     -46.245  35.867  27.973  1.00  0.00     0.123 C 
ATOM      5  C   UNL     1     -44.917  37.794  28.160  1.00  0.00     0.169 C 
ATOM      6  O   UNL     1     -45.348  36.748  27.252  1.00  0.00    -0.345 OA
ATOM      7  C   UNL     1     -45.161  37.234  29.551  1.00  0.00     0.173 C 
ATOM      8  H   UNL     1     -43.837  37.929  28.022  1.00  0.00     0.088 H 
ATOM      9  C   UNL     1     -46.434  36.436  29.380  1.00  0.00     0.119 C 
ATOM     10  F   UNL     1     -45.229  38.144  30.539  1.00  0.00    -0.239 F 
ATOM     11  H   UNL     1     -44.347  36.546  29.817  1.00  0.00     0.074 H 
ATOM     12  H   UNL     1     -45.753  34.887  28.017  1.00  0.00     0.067 H 
ATOM     13  H   UNL     1     -47.333  37.047  29.476  1.00  0.00     0.066 H 
BRANCH   5  14
ATOM     14  N   UNL     1     -45.517  39.036  27.702  1.00  0.00    -0.302 N 
ATOM     15  C   UNL     1     -45.602  41.064  26.741  1.00  0.00     0.033 A 
ATOM     16  C   UNL     1     -44.763  40.028  27.103  1.00  0.00     0.019 A 
ATOM     17  C   UNL     1     -46.919  40.711  27.168  1.00  0.00     0.071 A 
ATOM     18  H   UNL     1     -43.701  39.887  26.948  1.00  0.00     0.083 H 
ATOM     19  C   UNL     1     -46.829  39.441  27.738  1.00  0.00     0.148 A 
ATOM     20  C   UNL     1     -48.203  41.291  27.138  1.00  0.00     0.137 A 
ATOM     21  N   UNL     1     -47.854  38.727  28.228  1.00  0.00    -0.218 NA
ATOM     22  N   UNL     1     -49.252  40.590  27.612  1.00  0.00    -0.219 NA
ATOM     23  C   UNL     1     -49.024  39.372  28.123  1.00  0.00     0.120 A 
ATOM     24  H   UNL     1     -49.895  38.845  28.499  1.00  0.00     0.106 H 
BRANCH  15  25
ATOM     25  C   UNL     1     -45.207  42.279  26.021  1.00  0.00     0.095 A 
ATOM     26  N   UNL     1     -44.966  44.312  25.483  1.00  0.00    -0.275 N 
ATOM     27  C   UNL     1     -44.401  43.620  24.453  1.00  0.00     0.025 A 
ATOM     28  N   UNL     1     -45.458  43.522  26.454  1.00  0.00    -0.173 NA
ATOM     29  C   UNL     1     -44.547  42.289  24.771  1.00  0.00    -0.016 A 
ATOM     30  H   UNL     1     -43.960  44.115  23.600  1.00  0.00     0.084 H 
ATOM     31  H   UNL     1     -44.221  41.446  24.180  1.00  0.00     0.066 H 
BRANCH  26  32
ATOM     32  C   UNL     1     -45.081  45.744  25.608  1.00  0.00     0.030 C 
ATOM     33  H   UNL     1     -44.940  46.192  24.620  1.00  0.00     0.048 H 
ATOM     34  H   UNL     1     -46.072  45.996  25.992  1.00  0.00     0.048 H 
ATOM     35  H   UNL     1     -44.310  46.090  26.300  1.00  0.00     0.048 H 
ENDBRANCH  26  32
ENDBRANCH  15  25
BRANCH  20  36
ATOM     36  N   UNL     1     -48.480  42.554  26.635  1.00  0.00    -0.383 N 
ATOM     37  H   UNL     1     -48.485  42.536  25.624  1.00  0.00     0.158 HD
ATOM     38  H   UNL     1     -47.883  43.268  27.066  1.00  0.00     0.158 HD
ENDBRANCH  20  36
ENDBRANCH   5  14
BRANCH   9  39
ATOM     39  O   UNL     1     -46.535  35.388  30.347  1.00  0.00    -0.387 OA
ATOM     40  H   UNL     1     -45.653  35.315  30.761  1.00  0.00     0.211 HD
ENDBRANCH   9  39
ENDBRANCH   1   4
BRANCH   1  41
ATOM     41  O   UNL     1     -48.011  34.356  27.316  1.00  0.00    -0.491 OA
BRANCH  41  42
ATOM     42  C   UNL     1     -47.639  33.474  26.341  1.00  0.00     0.121 A 
ATOM     43  C   UNL     1     -46.661  33.689  25.376  1.00  0.00    -0.019 A 
ATOM     44  C   UNL     1     -48.322  32.254  26.366  1.00  0.00     0.007 A 
ATOM     45  C   UNL     1     -46.383  32.691  24.440  1.00  0.00    -0.049 A 
ATOM     46  H   UNL     1     -46.097  34.615  25.325  1.00  0.00     0.066 H 
ATOM     47  C   UNL     1     -48.069  31.247  25.445  1.00  0.00     0.076 A 
ATOM     48  H   UNL     1     -49.084  32.083  27.123  1.00  0.00     0.069 H 
ATOM     49  C   UNL     1     -47.081  31.473  24.468  1.00  0.00     0.001 A 
ATOM     50  H   UNL     1     -45.617  32.869  23.687  1.00  0.00     0.063 H 
ATOM     51  N   UNL     1     -48.766  30.100  25.511  1.00  0.00    -0.231 NA
ATOM     52  C   UNL     1     -46.835  30.453  23.544  1.00  0.00    -0.049 A 
ATOM     53  C   UNL     1     -48.518  29.124  24.617  1.00  0.00     0.126 A 
ATOM     54  C   UNL     1     -47.564  29.270  23.617  1.00  0.00    -0.019 A 
ATOM     55  H   UNL     1     -46.091  30.574  22.763  1.00  0.00     0.063 H 
ATOM     56  H   UNL     1     -47.399  28.481  22.892  1.00  0.00     0.066 H 
BRANCH  53  57
ATOM     57  N   UNL     1     -49.281  27.933  24.657  1.00  0.00    -0.367 N 
ATOM     58  H   UNL     1     -49.810  27.871  23.793  1.00  0.00     0.162 HD
BRANCH  57  59
ATOM     59  C   UNL     1     -48.664  26.678  24.984  1.00  0.00     0.028 C 
ATOM     60  C   UNL     1     -47.876  26.708  26.317  1.00  0.00    -0.033 C 
ATOM     61  C   UNL     1     -49.645  25.708  25.686  1.00  0.00    -0.033 C 
ATOM     62  H   UNL     1     -48.129  26.224  24.141  1.00  0.00     0.053 H 
ATOM     63  C   UNL     1     -48.473  25.317  26.612  1.00  0.00    -0.049 C 
ATOM     64  H   UNL     1     -48.195  27.479  27.030  1.00  0.00     0.029 H 
ATOM     65  H   UNL     1     -46.789  26.742  26.223  1.00  0.00     0.029 H 
ATOM     66  H   UNL     1     -50.478  26.189  26.216  1.00  0.00     0.029 H 
ATOM     67  H   UNL     1     -50.041  24.902  25.064  1.00  0.00     0.029 H 
ATOM     68  H   UNL     1     -47.866  24.488  26.229  1.00  0.00     0.027 H 
ATOM     69  H   UNL     1     -48.732  25.121  27.654  1.00  0.00     0.027 H 
ENDBRANCH  57  59
ENDBRANCH  53  57
ENDBRANCH  41  42
ENDBRANCH   1  41
TORSDOF 10
ENDMDL
MODEL 4
REMARK VINA RESULT:      -9.4      2.912      4.651
REMARK SMILES Cn1ccc(-c2cn([C@@H]3O[C@H](COc4ccc5ccc(NC6CCC6)nc5c4)[C@@H](O)[C@@H]3F)c3ncnc(N)c23)n1
REMARK SMILES IDX 12 1 11 4 9 5 10 6 31 7 29 9 32 10 8 14 6 15 7 16 39 17
REMARK SMILES IDX 33 19 37 20 34 21 36 22 35 23 5 25 2 26 3 27 40 28 4 29 1 32
REMARK SMILES IDX 38 36 30 39 13 41 14 42 15 43 28 44 16 45 27 47 17 49 26 51
REMARK SMILES IDX 18 52 20 53 19 54 21 57 22 59 23 60 25 61 24 63
REMARK H PARENT 12 2 12 3 9 8 31 11 11 12 29 13 7 18 35 24 3 30 4 31 1 33 1 34
REMARK H PARENT 1 35 38 37 38 38 30 40 15 46 28 48 16 50 18 55 19 56 21 58
REMARK H PARENT 22 62 23 64 23 65 25 66 25 67 24 68 24 69
REMARK Flexibility Score: inf
ROOT
ATOM      1  C   UNL     1     -45.618  36.121  27.301  1.00  0.00     0.117 C 
ATOM      2  H   UNL     1     -45.257  35.110  27.524  1.00  0.00     0.073 H 
ATOM      3  H   UNL     1     -44.791  36.752  26.952  1.00  0.00     0.073 H 
ENDROOT
BRANCH   1   4
ATOM      4  C   UNL     1     -46.209  36.743  28.571  1.00  0.00     0.123 C 
ATOM      5  C   UNL     1     -45.649  38.799  29.556  1.00  0.00     0.169 C 
ATOM      6  O   UNL     1     -45.177  37.451  29.303  1.00  0.00    -0.345 OA
ATOM      7  C   UNL     1     -47.160  38.720  29.417  1.00  0.00     0.173 C 
ATOM      8  H   UNL     1     -45.406  39.045  30.597  1.00  0.00     0.088 H 
ATOM      9  C   UNL     1     -47.350  37.724  28.296  1.00  0.00     0.119 C 
ATOM     10  F   UNL     1     -47.784  39.892  29.203  1.00  0.00    -0.239 F 
ATOM     11  H   UNL     1     -47.591  38.302  30.338  1.00  0.00     0.074 H 
ATOM     12  H   UNL     1     -46.551  35.928  29.221  1.00  0.00     0.067 H 
ATOM     13  H   UNL     1     -47.290  38.182  27.308  1.00  0.00     0.066 H 
BRANCH   5  14
ATOM     14  N   UNL     1     -44.837  39.698  28.752  1.00  0.00    -0.302 N 
ATOM     15  C   UNL     1     -44.344  41.082  27.054  1.00  0.00     0.033 A 
ATOM     16  C   UNL     1     -45.311  40.245  27.574  1.00  0.00     0.019 A 
ATOM     17  C   UNL     1     -43.215  41.020  27.928  1.00  0.00     0.071 A 
ATOM     18  H   UNL     1     -46.315  40.022  27.235  1.00  0.00     0.083 H 
ATOM     19  C   UNL     1     -43.568  40.170  28.978  1.00  0.00     0.148 A 
ATOM     20  C   UNL     1     -41.926  41.584  27.991  1.00  0.00     0.137 A 
ATOM     21  N   UNL     1     -42.801  39.874  30.038  1.00  0.00    -0.218 NA
ATOM     22  N   UNL     1     -41.140  41.313  29.051  1.00  0.00    -0.219 NA
ATOM     23  C   UNL     1     -41.610  40.487  29.996  1.00  0.00     0.120 A 
ATOM     24  H   UNL     1     -40.942  40.290  30.829  1.00  0.00     0.106 H 
BRANCH  15  25
ATOM     25  C   UNL     1     -44.476  41.904  25.847  1.00  0.00     0.095 A 
ATOM     26  N   UNL     1     -45.119  43.388  24.483  1.00  0.00    -0.275 N 
ATOM     27  C   UNL     1     -44.231  42.639  23.771  1.00  0.00     0.025 A 
ATOM     28  N   UNL     1     -45.283  42.968  25.750  1.00  0.00    -0.173 NA
ATOM     29  C   UNL     1     -43.795  41.657  24.632  1.00  0.00    -0.016 A 
ATOM     30  H   UNL     1     -43.991  42.853  22.740  1.00  0.00     0.084 H 
ATOM     31  H   UNL     1     -43.085  40.874  24.410  1.00  0.00     0.066 H 
BRANCH  26  32
ATOM     32  C   UNL     1     -45.866  44.528  24.011  1.00  0.00     0.030 C 
ATOM     33  H   UNL     1     -45.214  45.135  23.377  1.00  0.00     0.048 H 
ATOM     34  H   UNL     1     -46.728  44.184  23.433  1.00  0.00     0.048 H 
ATOM     35  H   UNL     1     -46.200  45.101  24.879  1.00  0.00     0.048 H 
ENDBRANCH  26  32
ENDBRANCH  15  25
BRANCH  20  36
ATOM     36  N   UNL     1     -41.393  42.429  27.026  1.00  0.00    -0.383 N 
ATOM     37  H   UNL     1     -42.011  43.213  26.867  1.00  0.00     0.158 HD
ATOM     38  H   UNL     1     -41.108  41.909  26.190  1.00  0.00     0.158 HD
ENDBRANCH  20  36
ENDBRANCH   5  14
BRANCH   9  39
ATOM     39  O   UNL     1     -48.619  37.071  28.380  1.00  0.00    -0.387 OA
ATOM     40  H   UNL     1     -49.101  37.508  29.107  1.00  0.00     0.211 HD
ENDBRANCH   9  39
ENDBRANCH   1   4
BRANCH   1  41
ATOM     41  O   UNL     1     -46.627  36.061  26.292  1.00  0.00    -0.491 OA
BRANCH  41  42
ATOM     42  C   UNL     1     -47.231  34.855  26.071  1.00  0.00     0.121 A 
ATOM     43  C   UNL     1     -48.395  34.402  26.683  1.00  0.00    -0.019 A 
ATOM     44  C   UNL     1     -46.592  34.045  25.127  1.00  0.00     0.007 A 
ATOM     45  C   UNL     1     -48.902  33.143  26.356  1.00  0.00    -0.049 A 
ATOM     46  H   UNL     1     -48.932  35.000  27.412  1.00  0.00     0.066 H 
ATOM     47  C   UNL     1     -47.072  32.789  24.787  1.00  0.00     0.076 A 
ATOM     48  H   UNL     1     -45.684  34.401  24.645  1.00  0.00     0.069 H 
ATOM     49  C   UNL     1     -48.247  32.334  25.413  1.00  0.00     0.001 A 
ATOM     50  H   UNL     1     -49.813  32.796  26.840  1.00  0.00     0.063 H 
ATOM     51  N   UNL     1     -46.407  32.051  23.881  1.00  0.00    -0.231 NA
ATOM     52  C   UNL     1     -48.720  31.066  25.064  1.00  0.00    -0.049 A 
ATOM     53  C   UNL     1     -46.875  30.832  23.551  1.00  0.00     0.126 A 
ATOM     54  C   UNL     1     -48.025  30.307  24.128  1.00  0.00    -0.019 A 
ATOM     55  H   UNL     1     -49.618  30.660  25.520  1.00  0.00     0.063 H 
ATOM     56  H   UNL     1     -48.369  29.312  23.866  1.00  0.00     0.066 H 
BRANCH  53  57
ATOM     57  N   UNL     1     -46.154  30.035  22.631  1.00  0.00    -0.367 N 
ATOM     58  H   UNL     1     -46.264  29.063  22.904  1.00  0.00     0.162 HD
BRANCH  57  59
ATOM     59  C   UNL     1     -46.333  30.204  21.216  1.00  0.00     0.028 C 
ATOM     60  C   UNL     1     -47.745  30.713  20.832  1.00  0.00    -0.033 C 
ATOM     61  C   UNL     1     -45.799  31.567  20.715  1.00  0.00    -0.033 C 
ATOM     62  H   UNL     1     -45.974  29.350  20.629  1.00  0.00     0.053 H 
ATOM     63  C   UNL     1     -47.049  31.635  19.810  1.00  0.00    -0.049 C 
ATOM     64  H   UNL     1     -48.274  31.259  21.623  1.00  0.00     0.029 H 
ATOM     65  H   UNL     1     -48.418  29.965  20.407  1.00  0.00     0.029 H 
ATOM     66  H   UNL     1     -45.764  32.361  21.472  1.00  0.00     0.029 H 
ATOM     67  H   UNL     1     -44.841  31.536  20.190  1.00  0.00     0.029 H 
ATOM     68  H   UNL     1     -46.907  31.174  18.826  1.00  0.00     0.027 H 
ATOM     69  H   UNL     1     -47.492  32.625  19.683  1.00  0.00     0.027 H 
ENDBRANCH  57  59
ENDBRANCH  53  57
ENDBRANCH  41  42
ENDBRANCH   1  41
TORSDOF 10
ENDMDL
MODEL 5
REMARK VINA RESULT:      -9.3      4.887      8.128
REMARK SMILES Cn1ccc(-c2cn([C@@H]3O[C@H](COc4ccc5ccc(NC6CCC6)nc5c4)[C@@H](O)[C@@H]3F)c3ncnc(N)c23)n1
REMARK SMILES IDX 12 1 11 4 9 5 10 6 31 7 29 9 32 10 8 14 6 15 7 16 39 17
REMARK SMILES IDX 33 19 37 20 34 21 36 22 35 23 5 25 2 26 3 27 40 28 4 29 1 32
REMARK SMILES IDX 38 36 30 39 13 41 14 42 15 43 28 44 16 45 27 47 17 49 26 51
REMARK SMILES IDX 18 52 20 53 19 54 21 57 22 59 23 60 25 61 24 63
REMARK H PARENT 12 2 12 3 9 8 31 11 11 12 29 13 7 18 35 24 3 30 4 31 1 33 1 34
REMARK H PARENT 1 35 38 37 38 38 30 40 15 46 28 48 16 50 18 55 19 56 21 58
REMARK H PARENT 22 62 23 64 23 65 25 66 25 67 24 68 24 69
REMARK Flexibility Score: inf
ROOT
ATOM      1  C   UNL     1     -43.464  43.950  27.354  1.00  0.00     0.117 C 
ATOM      2  H   UNL     1     -44.479  43.605  27.582  1.00  0.00     0.073 H 
ATOM      3  H   UNL     1     -43.123  44.661  28.117  1.00  0.00     0.073 H 
ENDROOT
BRANCH   1   4
ATOM      4  C   UNL     1     -43.458  44.651  25.991  1.00  0.00     0.123 C 
ATOM      5  C   UNL     1     -45.209  44.771  24.432  1.00  0.00     0.169 C 
ATOM      6  O   UNL     1     -44.233  43.883  25.037  1.00  0.00    -0.345 OA
ATOM      7  C   UNL     1     -44.665  46.171  24.663  1.00  0.00     0.173 C 
ATOM      8  H   UNL     1     -45.215  44.571  23.354  1.00  0.00     0.088 H 
ATOM      9  C   UNL     1     -44.028  46.069  26.030  1.00  0.00     0.119 C 
ATOM     10  F   UNL     1     -45.565  47.165  24.565  1.00  0.00    -0.239 F 
ATOM     11  H   UNL     1     -43.881  46.385  23.924  1.00  0.00     0.074 H 
ATOM     12  H   UNL     1     -42.425  44.661  25.619  1.00  0.00     0.067 H 
ATOM     13  H   UNL     1     -44.741  46.220  26.842  1.00  0.00     0.066 H 
BRANCH   5  14
ATOM     14  N   UNL     1     -46.520  44.355  24.904  1.00  0.00    -0.302 N 
ATOM     15  C   UNL     1     -48.011  43.265  26.180  1.00  0.00     0.033 A 
ATOM     16  C   UNL     1     -46.664  43.433  25.923  1.00  0.00     0.019 A 
ATOM     17  C   UNL     1     -48.725  44.090  25.257  1.00  0.00     0.071 A 
ATOM     18  H   UNL     1     -45.792  43.012  26.405  1.00  0.00     0.083 H 
ATOM     19  C   UNL     1     -47.766  44.765  24.500  1.00  0.00     0.148 A 
ATOM     20  C   UNL     1     -50.071  44.379  24.959  1.00  0.00     0.137 A 
ATOM     21  N   UNL     1     -48.020  45.672  23.544  1.00  0.00    -0.218 NA
ATOM     22  N   UNL     1     -50.353  45.297  24.013  1.00  0.00    -0.219 NA
ATOM     23  C   UNL     1     -49.332  45.878  23.368  1.00  0.00     0.120 A 
ATOM     24  H   UNL     1     -49.603  46.606  22.610  1.00  0.00     0.106 H 
BRANCH  15  25
ATOM     25  C   UNL     1     -48.588  42.421  27.232  1.00  0.00     0.095 A 
ATOM     26  N   UNL     1     -49.598  41.795  28.983  1.00  0.00    -0.275 N 
ATOM     27  C   UNL     1     -49.095  40.644  28.454  1.00  0.00     0.025 A 
ATOM     28  N   UNL     1     -49.310  42.890  28.257  1.00  0.00    -0.173 NA
ATOM     29  C   UNL     1     -48.425  41.018  27.311  1.00  0.00    -0.016 A 
ATOM     30  H   UNL     1     -49.244  39.682  28.921  1.00  0.00     0.084 H 
ATOM     31  H   UNL     1     -47.894  40.367  26.633  1.00  0.00     0.066 H 
BRANCH  26  32
ATOM     32  C   UNL     1     -50.364  41.930  30.197  1.00  0.00     0.030 C 
ATOM     33  H   UNL     1     -50.699  42.967  30.284  1.00  0.00     0.048 H 
ATOM     34  H   UNL     1     -51.229  41.263  30.157  1.00  0.00     0.048 H 
ATOM     35  H   UNL     1     -49.722  41.662  31.038  1.00  0.00     0.048 H 
ENDBRANCH  26  32
ENDBRANCH  15  25
BRANCH  20  36
ATOM     36  N   UNL     1     -51.157  43.787  25.589  1.00  0.00    -0.383 N 
ATOM     37  H   UNL     1     -51.947  43.745  24.960  1.00  0.00     0.158 HD
ATOM     38  H   UNL     1     -51.337  44.213  26.505  1.00  0.00     0.158 HD
ENDBRANCH  20  36
ENDBRANCH   5  14
BRANCH   9  39
ATOM     39  O   UNL     1     -42.988  47.035  26.201  1.00  0.00    -0.387 OA
ATOM     40  H   UNL     1     -42.813  47.405  25.314  1.00  0.00     0.211 HD
ENDBRANCH   9  39
ENDBRANCH   1   4
BRANCH   1  41
ATOM     41  O   UNL     1     -42.572  42.834  27.314  1.00  0.00    -0.491 OA
BRANCH  41  42
ATOM     42  C   UNL     1     -42.952  41.696  27.968  1.00  0.00     0.121 A 
ATOM     43  C   UNL     1     -42.423  41.229  29.167  1.00  0.00    -0.019 A 
ATOM     44  C   UNL     1     -43.977  40.978  27.344  1.00  0.00     0.007 A 
ATOM     45  C   UNL     1     -42.913  40.047  29.724  1.00  0.00    -0.049 A 
ATOM     46  H   UNL     1     -41.636  41.759  29.693  1.00  0.00     0.066 H 
ATOM     47  C   UNL     1     -44.479  39.798  27.873  1.00  0.00     0.076 A 
ATOM     48  H   UNL     1     -44.394  41.345  26.409  1.00  0.00     0.069 H 
ATOM     49  C   UNL     1     -43.937  39.329  29.084  1.00  0.00     0.001 A 
ATOM     50  H   UNL     1     -42.493  39.688  30.661  1.00  0.00     0.063 H 
ATOM     51  N   UNL     1     -45.457  39.145  27.222  1.00  0.00    -0.231 NA
ATOM     52  C   UNL     1     -44.449  38.138  29.607  1.00  0.00    -0.049 A 
ATOM     53  C   UNL     1     -45.944  38.000  27.738  1.00  0.00     0.126 A 
ATOM     54  C   UNL     1     -45.459  37.466  28.924  1.00  0.00    -0.019 A 
ATOM     55  H   UNL     1     -44.064  37.723  30.534  1.00  0.00     0.063 H 
ATOM     56  H   UNL     1     -45.848  36.529  29.309  1.00  0.00     0.066 H 
BRANCH  53  57
ATOM     57  N   UNL     1     -46.942  37.288  27.032  1.00  0.00    -0.367 N 
ATOM     58  H   UNL     1     -46.824  37.483  26.042  1.00  0.00     0.162 HD
BRANCH  57  59
ATOM     59  C   UNL     1     -47.149  35.887  27.267  1.00  0.00     0.028 C 
ATOM     60  C   UNL     1     -48.628  35.451  27.125  1.00  0.00    -0.033 C 
ATOM     61  C   UNL     1     -46.866  35.032  26.008  1.00  0.00    -0.033 C 
ATOM     62  H   UNL     1     -46.643  35.519  28.168  1.00  0.00     0.053 H 
ATOM     63  C   UNL     1     -48.108  34.198  26.391  1.00  0.00    -0.049 C 
ATOM     64  H   UNL     1     -49.247  36.101  26.493  1.00  0.00     0.029 H 
ATOM     65  H   UNL     1     -49.158  35.261  28.061  1.00  0.00     0.029 H 
ATOM     66  H   UNL     1     -46.974  35.561  25.052  1.00  0.00     0.029 H 
ATOM     67  H   UNL     1     -45.918  34.489  26.007  1.00  0.00     0.029 H 
ATOM     68  H   UNL     1     -47.887  33.358  27.059  1.00  0.00     0.027 H 
ATOM     69  H   UNL     1     -48.720  33.845  25.559  1.00  0.00     0.027 H 
ENDBRANCH  57  59
ENDBRANCH  53  57
ENDBRANCH  41  42
ENDBRANCH   1  41
TORSDOF 10
ENDMDL
MODEL 6
REMARK VINA RESULT:      -9.3      2.951      4.338
REMARK SMILES Cn1ccc(-c2cn([C@@H]3O[C@H](COc4ccc5ccc(NC6CCC6)nc5c4)[C@@H](O)[C@@H]3F)c3ncnc(N)c23)n1
REMARK SMILES IDX 12 1 11 4 9 5 10 6 31 7 29 9 32 10 8 14 6 15 7 16 39 17
REMARK SMILES IDX 33 19 37 20 34 21 36 22 35 23 5 25 2 26 3 27 40 28 4 29 1 32
REMARK SMILES IDX 38 36 30 39 13 41 14 42 15 43 28 44 16 45 27 47 17 49 26 51
REMARK SMILES IDX 18 52 20 53 19 54 21 57 22 59 23 60 25 61 24 63
REMARK H PARENT 12 2 12 3 9 8 31 11 11 12 29 13 7 18 35 24 3 30 4 31 1 33 1 34
REMARK H PARENT 1 35 38 37 38 38 30 40 15 46 28 48 16 50 18 55 19 56 21 58
REMARK H PARENT 22 62 23 64 23 65 25 66 25 67 24 68 24 69
REMARK Flexibility Score: inf
ROOT
ATOM      1  C   UNL     1     -45.754  38.740  28.259  1.00  0.00     0.117 C 
ATOM      2  H   UNL     1     -46.298  39.504  28.828  1.00  0.00     0.073 H 
ATOM      3  H   UNL     1     -45.657  37.822  28.851  1.00  0.00     0.073 H 
ENDROOT
BRANCH   1   4
ATOM      4  C   UNL     1     -44.352  39.259  27.922  1.00  0.00     0.123 C 
ATOM      5  C   UNL     1     -43.788  41.182  26.700  1.00  0.00     0.169 C 
ATOM      6  O   UNL     1     -44.346  39.847  26.597  1.00  0.00    -0.345 OA
ATOM      7  C   UNL     1     -42.999  41.181  27.998  1.00  0.00     0.173 C 
ATOM      8  H   UNL     1     -43.089  41.315  25.865  1.00  0.00     0.088 H 
ATOM      9  C   UNL     1     -43.835  40.309  28.907  1.00  0.00     0.119 C 
ATOM     10  F   UNL     1     -42.734  42.393  28.516  1.00  0.00    -0.239 F 
ATOM     11  H   UNL     1     -42.028  40.693  27.835  1.00  0.00     0.074 H 
ATOM     12  H   UNL     1     -43.671  38.398  27.885  1.00  0.00     0.067 H 
ATOM     13  H   UNL     1     -44.636  40.859  29.402  1.00  0.00     0.066 H 
BRANCH   5  14
ATOM     14  N   UNL     1     -44.868  42.121  26.444  1.00  0.00    -0.302 N 
ATOM     15  C   UNL     1     -46.988  42.830  26.229  1.00  0.00     0.033 A 
ATOM     16  C   UNL     1     -46.193  41.726  26.467  1.00  0.00     0.019 A 
ATOM     17  C   UNL     1     -46.116  43.942  26.016  1.00  0.00     0.071 A 
ATOM     18  H   UNL     1     -46.452  40.700  26.695  1.00  0.00     0.083 H 
ATOM     19  C   UNL     1     -44.814  43.467  26.179  1.00  0.00     0.148 A 
ATOM     20  C   UNL     1     -46.247  45.313  25.717  1.00  0.00     0.137 A 
ATOM     21  N   UNL     1     -43.696  44.205  26.101  1.00  0.00    -0.218 NA
ATOM     22  N   UNL     1     -45.140  46.079  25.647  1.00  0.00    -0.219 NA
ATOM     23  C   UNL     1     -43.949  45.493  25.836  1.00  0.00     0.120 A 
ATOM     24  H   UNL     1     -43.084  46.145  25.765  1.00  0.00     0.106 H 
BRANCH  15  25
ATOM     25  C   UNL     1     -48.454  42.851  26.233  1.00  0.00     0.095 A 
ATOM     26  N   UNL     1     -50.464  43.210  25.676  1.00  0.00    -0.275 N 
ATOM     27  C   UNL     1     -50.554  42.610  26.897  1.00  0.00     0.025 A 
ATOM     28  N   UNL     1     -49.200  43.363  25.245  1.00  0.00    -0.173 NA
ATOM     29  C   UNL     1     -49.259  42.368  27.292  1.00  0.00    -0.016 A 
ATOM     30  H   UNL     1     -51.503  42.416  27.375  1.00  0.00     0.084 H 
ATOM     31  H   UNL     1     -48.942  41.906  28.215  1.00  0.00     0.066 H 
BRANCH  26  32
ATOM     32  C   UNL     1     -51.555  43.676  24.855  1.00  0.00     0.030 C 
ATOM     33  H   UNL     1     -52.435  43.810  25.489  1.00  0.00     0.048 H 
ATOM     34  H   UNL     1     -51.281  44.630  24.396  1.00  0.00     0.048 H 
ATOM     35  H   UNL     1     -51.746  42.928  24.083  1.00  0.00     0.048 H 
ENDBRANCH  26  32
ENDBRANCH  15  25
BRANCH  20  36
ATOM     36  N   UNL     1     -47.458  45.954  25.496  1.00  0.00    -0.383 N 
ATOM     37  H   UNL     1     -47.763  45.809  24.543  1.00  0.00     0.158 HD
ATOM     38  H   UNL     1     -47.428  46.929  25.812  1.00  0.00     0.158 HD
ENDBRANCH  20  36
ENDBRANCH   5  14
BRANCH   9  39
ATOM     39  O   UNL     1     -43.044  39.704  29.933  1.00  0.00    -0.387 OA
ATOM     40  H   UNL     1     -43.641  39.100  30.415  1.00  0.00     0.211 HD
ENDBRANCH   9  39
ENDBRANCH   1   4
BRANCH   1  41
ATOM     41  O   UNL     1     -46.454  38.452  27.047  1.00  0.00    -0.491 OA
BRANCH  41  42
ATOM     42  C   UNL     1     -47.132  37.269  26.973  1.00  0.00     0.121 A 
ATOM     43  C   UNL     1     -48.391  37.015  27.508  1.00  0.00    -0.019 A 
ATOM     44  C   UNL     1     -46.466  36.256  26.275  1.00  0.00     0.007 A 
ATOM     45  C   UNL     1     -48.966  35.753  27.352  1.00  0.00    -0.049 A 
ATOM     46  H   UNL     1     -48.949  37.773  28.047  1.00  0.00     0.066 H 
ATOM     47  C   UNL     1     -47.013  34.992  26.109  1.00  0.00     0.076 A 
ATOM     48  H   UNL     1     -45.484  36.455  25.853  1.00  0.00     0.069 H 
ATOM     49  C   UNL     1     -48.284  34.740  26.657  1.00  0.00     0.001 A 
ATOM     50  H   UNL     1     -49.950  35.562  27.775  1.00  0.00     0.063 H 
ATOM     51  N   UNL     1     -46.320  34.055  25.438  1.00  0.00    -0.231 NA
ATOM     52  C   UNL     1     -48.825  33.462  26.485  1.00  0.00    -0.049 A 
ATOM     53  C   UNL     1     -46.853  32.829  25.277  1.00  0.00     0.126 A 
ATOM     54  C   UNL     1     -48.099  32.497  25.792  1.00  0.00    -0.019 A 
ATOM     55  H   UNL     1     -49.798  33.208  26.892  1.00  0.00     0.063 H 
ATOM     56  H   UNL     1     -48.498  31.496  25.673  1.00  0.00     0.066 H 
BRANCH  53  57
ATOM     57  N   UNL     1     -46.107  31.828  24.610  1.00  0.00    -0.367 N 
ATOM     58  H   UNL     1     -46.106  30.997  25.194  1.00  0.00     0.162 HD
BRANCH  57  59
ATOM     59  C   UNL     1     -46.379  31.502  23.238  1.00  0.00     0.028 C 
ATOM     60  C   UNL     1     -45.632  30.238  22.747  1.00  0.00    -0.033 C 
ATOM     61  C   UNL     1     -47.685  30.688  23.077  1.00  0.00    -0.033 C 
ATOM     62  H   UNL     1     -46.317  32.367  22.567  1.00  0.00     0.053 H 
ATOM     63  C   UNL     1     -46.936  29.843  22.024  1.00  0.00    -0.049 C 
ATOM     64  H   UNL     1     -45.340  29.533  23.535  1.00  0.00     0.029 H 
ATOM     65  H   UNL     1     -44.772  30.419  22.098  1.00  0.00     0.029 H 
ATOM     66  H   UNL     1     -47.989  30.114  23.962  1.00  0.00     0.029 H 
ATOM     67  H   UNL     1     -48.548  31.245  22.704  1.00  0.00     0.029 H 
ATOM     68  H   UNL     1     -47.011  30.239  21.005  1.00  0.00     0.027 H 
ATOM     69  H   UNL     1     -47.170  28.777  22.013  1.00  0.00     0.027 H 
ENDBRANCH  57  59
ENDBRANCH  53  57
ENDBRANCH  41  42
ENDBRANCH   1  41
TORSDOF 10
ENDMDL
MODEL 7
REMARK VINA RESULT:      -9.3      3.002     11.745
REMARK SMILES Cn1ccc(-c2cn([C@@H]3O[C@H](COc4ccc5ccc(NC6CCC6)nc5c4)[C@@H](O)[C@@H]3F)c3ncnc(N)c23)n1
REMARK SMILES IDX 12 1 11 4 9 5 10 6 31 7 29 9 32 10 8 14 6 15 7 16 39 17
REMARK SMILES IDX 33 19 37 20 34 21 36 22 35 23 5 25 2 26 3 27 40 28 4 29 1 32
REMARK SMILES IDX 38 36 30 39 13 41 14 42 15 43 28 44 16 45 27 47 17 49 26 51
REMARK SMILES IDX 18 52 20 53 19 54 21 57 22 59 23 60 25 61 24 63
REMARK H PARENT 12 2 12 3 9 8 31 11 11 12 29 13 7 18 35 24 3 30 4 31 1 33 1 34
REMARK H PARENT 1 35 38 37 38 38 30 40 15 46 28 48 16 50 18 55 19 56 21 58
REMARK H PARENT 22 62 23 64 23 65 25 66 25 67 24 68 24 69
REMARK Flexibility Score: inf
ROOT
ATOM      1  C   UNL     1     -46.512  33.113  26.285  1.00  0.00     0.117 C 
ATOM      2  H   UNL     1     -45.676  33.754  25.983  1.00  0.00     0.073 H 
ATOM      3  H   UNL     1     -46.189  32.067  26.342  1.00  0.00     0.073 H 
ENDROOT
BRANCH   1   4
ATOM      4  C   UNL     1     -47.639  33.225  25.253  1.00  0.00     0.123 C 
ATOM      5  C   UNL     1     -48.310  31.615  23.682  1.00  0.00     0.169 C 
ATOM      6  O   UNL     1     -47.257  32.551  24.028  1.00  0.00    -0.345 OA
ATOM      7  C   UNL     1     -49.538  32.108  24.428  1.00  0.00     0.173 C 
ATOM      8  H   UNL     1     -48.495  31.707  22.604  1.00  0.00     0.088 H 
ATOM      9  C   UNL     1     -48.964  32.625  25.728  1.00  0.00     0.119 C 
ATOM     10  F   UNL     1     -50.516  31.201  24.599  1.00  0.00    -0.239 F 
ATOM     11  H   UNL     1     -49.985  32.949  23.881  1.00  0.00     0.074 H 
ATOM     12  H   UNL     1     -47.766  34.285  25.001  1.00  0.00     0.067 H 
ATOM     13  H   UNL     1     -48.834  31.840  26.474  1.00  0.00     0.066 H 
BRANCH   5  14
ATOM     14  N   UNL     1     -47.772  30.276  23.862  1.00  0.00    -0.302 N 
ATOM     15  C   UNL     1     -47.682  28.167  24.628  1.00  0.00     0.033 A 
ATOM     16  C   UNL     1     -48.391  29.351  24.683  1.00  0.00     0.019 A 
ATOM     17  C   UNL     1     -46.562  28.383  23.767  1.00  0.00     0.071 A 
ATOM     18  H   UNL     1     -49.307  29.607  25.198  1.00  0.00     0.083 H 
ATOM     19  C   UNL     1     -46.666  29.693  23.296  1.00  0.00     0.148 A 
ATOM     20  C   UNL     1     -45.463  27.638  23.297  1.00  0.00     0.137 A 
ATOM     21  N   UNL     1     -45.831  30.281  22.426  1.00  0.00    -0.218 NA
ATOM     22  N   UNL     1     -44.616  28.201  22.412  1.00  0.00    -0.219 NA
ATOM     23  C   UNL     1     -44.841  29.467  22.035  1.00  0.00     0.120 A 
ATOM     24  H   UNL     1     -44.132  29.884  21.327  1.00  0.00     0.106 H 
BRANCH  15  25
ATOM     25  C   UNL     1     -48.042  26.916  25.303  1.00  0.00     0.095 A 
ATOM     26  N   UNL     1     -47.913  25.110  26.398  1.00  0.00    -0.275 N 
ATOM     27  C   UNL     1     -49.217  25.174  26.006  1.00  0.00     0.025 A 
ATOM     28  N   UNL     1     -47.177  26.159  25.990  1.00  0.00    -0.173 NA
ATOM     29  C   UNL     1     -49.334  26.340  25.284  1.00  0.00    -0.016 A 
ATOM     30  H   UNL     1     -49.933  24.406  26.259  1.00  0.00     0.084 H 
ATOM     31  H   UNL     1     -50.228  26.718  24.811  1.00  0.00     0.066 H 
BRANCH  26  32
ATOM     32  C   UNL     1     -47.288  24.061  27.166  1.00  0.00     0.030 C 
ATOM     33  H   UNL     1     -46.336  24.433  27.554  1.00  0.00     0.048 H 
ATOM     34  H   UNL     1     -47.942  23.779  27.996  1.00  0.00     0.048 H 
ATOM     35  H   UNL     1     -47.127  23.205  26.507  1.00  0.00     0.048 H 
ENDBRANCH  26  32
ENDBRANCH  15  25
BRANCH  20  36
ATOM     36  N   UNL     1     -45.183  26.332  23.675  1.00  0.00    -0.383 N 
ATOM     37  H   UNL     1     -45.900  25.986  24.298  1.00  0.00     0.158 HD
ATOM     38  H   UNL     1     -44.218  26.237  24.009  1.00  0.00     0.158 HD
ENDBRANCH  20  36
ENDBRANCH   5  14
BRANCH   9  39
ATOM     39  O   UNL     1     -49.800  33.626  26.313  1.00  0.00    -0.387 OA
ATOM     40  H   UNL     1     -49.682  34.429  25.769  1.00  0.00     0.211 HD
ENDBRANCH   9  39
ENDBRANCH   1   4
BRANCH   1  41
ATOM     41  O   UNL     1     -47.000  33.528  27.562  1.00  0.00    -0.491 OA
BRANCH  41  42
ATOM     42  C   UNL     1     -46.563  34.728  28.048  1.00  0.00     0.121 A 
ATOM     43  C   UNL     1     -46.092  34.963  29.336  1.00  0.00    -0.019 A 
ATOM     44  C   UNL     1     -46.599  35.780  27.128  1.00  0.00     0.007 A 
ATOM     45  C   UNL     1     -45.672  36.246  29.694  1.00  0.00    -0.049 A 
ATOM     46  H   UNL     1     -46.035  34.176  30.080  1.00  0.00     0.066 H 
ATOM     47  C   UNL     1     -46.192  37.064  27.459  1.00  0.00     0.076 A 
ATOM     48  H   UNL     1     -46.963  35.595  26.119  1.00  0.00     0.069 H 
ATOM     49  C   UNL     1     -45.721  37.297  28.764  1.00  0.00     0.001 A 
ATOM     50  H   UNL     1     -45.307  36.421  30.704  1.00  0.00     0.063 H 
ATOM     51  N   UNL     1     -46.260  38.038  26.534  1.00  0.00    -0.231 NA
ATOM     52  C   UNL     1     -45.316  38.596  29.087  1.00  0.00    -0.049 A 
ATOM     53  C   UNL     1     -45.864  39.284  26.857  1.00  0.00     0.126 A 
ATOM     54  C   UNL     1     -45.393  39.599  28.125  1.00  0.00    -0.019 A 
ATOM     55  H   UNL     1     -44.951  38.835  30.081  1.00  0.00     0.063 H 
ATOM     56  H   UNL     1     -45.103  40.614  28.371  1.00  0.00     0.066 H 
BRANCH  53  57
ATOM     57  N   UNL     1     -45.976  40.320  25.900  1.00  0.00    -0.367 N 
ATOM     58  H   UNL     1     -46.916  40.290  25.516  1.00  0.00     0.162 HD
BRANCH  57  59
ATOM     59  C   UNL     1     -45.586  41.663  26.223  1.00  0.00     0.028 C 
ATOM     60  C   UNL     1     -44.888  42.399  25.052  1.00  0.00    -0.033 C 
ATOM     61  C   UNL     1     -46.748  42.670  26.049  1.00  0.00    -0.033 C 
ATOM     62  H   UNL     1     -45.076  41.746  27.190  1.00  0.00     0.053 H 
ATOM     63  C   UNL     1     -45.712  43.642  25.445  1.00  0.00    -0.049 C 
ATOM     64  H   UNL     1     -45.127  42.016  24.052  1.00  0.00     0.029 H 
ATOM     65  H   UNL     1     -43.805  42.507  25.139  1.00  0.00     0.029 H 
ATOM     66  H   UNL     1     -47.527  42.365  25.338  1.00  0.00     0.029 H 
ATOM     67  H   UNL     1     -47.224  43.007  26.973  1.00  0.00     0.029 H 
ATOM     68  H   UNL     1     -45.219  44.280  26.187  1.00  0.00     0.027 H 
ATOM     69  H   UNL     1     -46.064  44.261  24.617  1.00  0.00     0.027 H 
ENDBRANCH  57  59
ENDBRANCH  53  57
ENDBRANCH  41  42
ENDBRANCH   1  41
TORSDOF 10
ENDMDL
