MODEL 1
REMARK VINA RESULT:     -10.1      0.000      0.000
REMARK SMILES CNc1ccc2ccc(OCc3cncc(-n4cc(C)c5c(N)ncnc54)c3)cc2n1
REMARK SMILES IDX 11 1 10 4 9 5 3 6 4 7 31 8 5 9 30 11 6 12 29 14 7 15 8 17
REMARK SMILES IDX 2 20 1 22 12 26 13 27 28 28 14 29 16 31 15 33 17 35 18 36
REMARK SMILES IDX 27 37 19 38 21 40 26 41 22 42 25 43 24 44 20 46 23 50
REMARK H PARENT 11 2 11 3 4 10 5 13 29 16 7 18 8 19 2 21 1 23 1 24 1 25 13 30
REMARK H PARENT 28 32 15 34 18 39 25 45 20 47 20 48 20 49 23 51 23 52
REMARK Flexibility Score: inf
ROOT
ATOM      1  C   UNL     1     -46.752  36.721  26.855  1.00  0.00     0.115 C 
ATOM      2  H   UNL     1     -45.866  37.094  26.325  1.00  0.00     0.076 H 
ATOM      3  H   UNL     1     -47.618  37.058  26.272  1.00  0.00     0.076 H 
ENDROOT
BRANCH   1   4
ATOM      4  O   UNL     1     -46.868  37.334  28.141  1.00  0.00    -0.489 OA
BRANCH   4   5
ATOM      5  C   UNL     1     -45.770  37.944  28.683  1.00  0.00     0.122 A 
ATOM      6  C   UNL     1     -42.817  41.642  28.102  1.00  0.00     0.126 A 
ATOM      7  C   UNL     1     -42.096  41.303  29.240  1.00  0.00    -0.019 A 
ATOM      8  N   UNL     1     -43.883  40.921  27.700  1.00  0.00    -0.231 NA
ATOM      9  C   UNL     1     -42.466  40.181  29.975  1.00  0.00    -0.049 A 
ATOM     10  H   UNL     1     -41.259  41.912  29.563  1.00  0.00     0.066 H 
ATOM     11  C   UNL     1     -44.250  39.835  28.407  1.00  0.00     0.076 A 
ATOM     12  C   UNL     1     -43.563  39.420  29.562  1.00  0.00     0.001 A 
ATOM     13  H   UNL     1     -41.905  39.915  30.866  1.00  0.00     0.063 H 
ATOM     14  C   UNL     1     -45.344  39.087  27.995  1.00  0.00     0.007 A 
ATOM     15  C   UNL     1     -43.984  38.281  30.266  1.00  0.00    -0.049 A 
ATOM     16  H   UNL     1     -45.884  39.404  27.106  1.00  0.00     0.069 H 
ATOM     17  C   UNL     1     -45.086  37.545  29.827  1.00  0.00    -0.019 A 
ATOM     18  H   UNL     1     -43.460  37.964  31.164  1.00  0.00     0.063 H 
ATOM     19  H   UNL     1     -45.386  36.682  30.411  1.00  0.00     0.066 H 
BRANCH   6  20
ATOM     20  N   UNL     1     -42.429  42.797  27.398  1.00  0.00    -0.373 N 
ATOM     21  H   UNL     1     -41.823  42.525  26.629  1.00  0.00     0.161 HD
BRANCH  20  22
ATOM     22  C   UNL     1     -43.539  43.620  26.945  1.00  0.00     0.005 C 
ATOM     23  H   UNL     1     -43.196  44.452  26.321  1.00  0.00     0.045 H 
ATOM     24  H   UNL     1     -44.044  44.046  27.817  1.00  0.00     0.045 H 
ATOM     25  H   UNL     1     -44.280  43.027  26.397  1.00  0.00     0.045 H 
ENDBRANCH  20  22
ENDBRANCH   6  20
ENDBRANCH   4   5
ENDBRANCH   1   4
BRANCH   1  26
ATOM     26  C   UNL     1     -46.800  35.215  26.900  1.00  0.00     0.010 A 
ATOM     27  C   UNL     1     -46.222  34.532  27.961  1.00  0.00     0.034 A 
ATOM     28  C   UNL     1     -47.367  34.452  25.870  1.00  0.00    -0.028 A 
ATOM     29  N   UNL     1     -46.205  33.188  28.070  1.00  0.00    -0.262 NA
ATOM     30  H   UNL     1     -45.742  35.058  28.783  1.00  0.00     0.084 H 
ATOM     31  C   UNL     1     -47.372  33.054  25.938  1.00  0.00     0.066 A 
ATOM     32  H   UNL     1     -47.818  34.985  25.039  1.00  0.00     0.065 H 
ATOM     33  C   UNL     1     -46.779  32.485  27.062  1.00  0.00     0.051 A 
ATOM     34  H   UNL     1     -46.708  31.413  27.217  1.00  0.00     0.086 H 
BRANCH  31  35
ATOM     35  N   UNL     1     -47.955  32.234  24.919  1.00  0.00    -0.299 N 
ATOM     36  C   UNL     1     -49.315  32.012  24.757  1.00  0.00     0.015 A 
ATOM     37  C   UNL     1     -47.303  31.517  23.913  1.00  0.00     0.150 A 
ATOM     38  C   UNL     1     -49.539  31.185  23.674  1.00  0.00    -0.020 A 
ATOM     39  H   UNL     1     -50.046  32.466  25.410  1.00  0.00     0.083 H 
ATOM     40  C   UNL     1     -48.259  30.875  23.127  1.00  0.00     0.064 A 
ATOM     41  N   UNL     1     -45.971  31.425  23.725  1.00  0.00    -0.218 NA
ATOM     42  C   UNL     1     -47.785  30.106  22.050  1.00  0.00     0.136 A 
ATOM     43  C   UNL     1     -45.640  30.662  22.677  1.00  0.00     0.120 A 
ATOM     44  N   UNL     1     -46.461  30.012  21.839  1.00  0.00    -0.219 NA
ATOM     45  H   UNL     1     -44.578  30.557  22.480  1.00  0.00     0.106 H 
BRANCH  38  46
ATOM     46  C   UNL     1     -50.864  30.715  23.191  1.00  0.00    -0.037 C 
ATOM     47  H   UNL     1     -50.779  30.296  22.185  1.00  0.00     0.028 H 
ATOM     48  H   UNL     1     -51.268  29.948  23.859  1.00  0.00     0.028 H 
ATOM     49  H   UNL     1     -51.586  31.538  23.153  1.00  0.00     0.028 H 
ENDBRANCH  38  46
BRANCH  42  50
ATOM     50  N   UNL     1     -48.604  29.430  21.152  1.00  0.00    -0.383 N 
ATOM     51  H   UNL     1     -48.131  29.122  20.315  1.00  0.00     0.158 HD
ATOM     52  H   UNL     1     -49.127  28.714  21.645  1.00  0.00     0.158 HD
ENDBRANCH  42  50
ENDBRANCH  31  35
ENDBRANCH   1  26
TORSDOF 8
ENDMDL
MODEL 2
REMARK VINA RESULT:      -9.8      1.651     10.420
REMARK SMILES CNc1ccc2ccc(OCc3cncc(-n4cc(C)c5c(N)ncnc54)c3)cc2n1
REMARK SMILES IDX 11 1 10 4 9 5 3 6 4 7 31 8 5 9 30 11 6 12 29 14 7 15 8 17
REMARK SMILES IDX 2 20 1 22 12 26 13 27 28 28 14 29 16 31 15 33 17 35 18 36
REMARK SMILES IDX 27 37 19 38 21 40 26 41 22 42 25 43 24 44 20 46 23 50
REMARK H PARENT 11 2 11 3 4 10 5 13 29 16 7 18 8 19 2 21 1 23 1 24 1 25 13 30
REMARK H PARENT 28 32 15 34 18 39 25 45 20 47 20 48 20 49 23 51 23 52
REMARK Flexibility Score: inf
ROOT
ATOM      1  C   UNL     1     -47.383  35.206  27.804  1.00  0.00     0.115 C 
ATOM      2  H   UNL     1     -47.591  34.331  28.433  1.00  0.00     0.076 H 
ATOM      3  H   UNL     1     -48.357  35.657  27.581  1.00  0.00     0.076 H 
ENDROOT
BRANCH   1   4
ATOM      4  O   UNL     1     -46.825  34.808  26.550  1.00  0.00    -0.489 OA
BRANCH   4   5
ATOM      5  C   UNL     1     -47.352  33.722  25.908  1.00  0.00     0.122 A 
ATOM      6  C   UNL     1     -46.321  30.344  22.703  1.00  0.00     0.126 A 
ATOM      7  C   UNL     1     -47.578  29.768  22.840  1.00  0.00    -0.019 A 
ATOM      8  N   UNL     1     -45.960  31.429  23.419  1.00  0.00    -0.231 NA
ATOM      9  C   UNL     1     -48.497  30.332  23.720  1.00  0.00    -0.049 A 
ATOM     10  H   UNL     1     -47.839  28.878  22.277  1.00  0.00     0.066 H 
ATOM     11  C   UNL     1     -46.843  31.980  24.274  1.00  0.00     0.076 A 
ATOM     12  C   UNL     1     -48.137  31.462  24.458  1.00  0.00     0.001 A 
ATOM     13  H   UNL     1     -49.479  29.881  23.829  1.00  0.00     0.063 H 
ATOM     14  C   UNL     1     -46.477  33.100  25.008  1.00  0.00     0.007 A 
ATOM     15  C   UNL     1     -49.022  32.071  25.362  1.00  0.00    -0.049 A 
ATOM     16  H   UNL     1     -45.476  33.503  24.876  1.00  0.00     0.069 H 
ATOM     17  C   UNL     1     -48.629  33.199  26.085  1.00  0.00    -0.019 A 
ATOM     18  H   UNL     1     -50.020  31.667  25.513  1.00  0.00     0.063 H 
ATOM     19  H   UNL     1     -49.339  33.627  26.785  1.00  0.00     0.066 H 
BRANCH   6  20
ATOM     20  N   UNL     1     -45.409  29.732  21.824  1.00  0.00    -0.373 N 
ATOM     21  H   UNL     1     -44.798  30.445  21.437  1.00  0.00     0.161 HD
BRANCH  20  22
ATOM     22  C   UNL     1     -44.656  28.638  22.414  1.00  0.00     0.005 C 
ATOM     23  H   UNL     1     -43.951  28.200  21.698  1.00  0.00     0.045 H 
ATOM     24  H   UNL     1     -45.352  27.849  22.717  1.00  0.00     0.045 H 
ATOM     25  H   UNL     1     -44.118  28.959  23.314  1.00  0.00     0.045 H 
ENDBRANCH  20  22
ENDBRANCH   6  20
ENDBRANCH   4   5
ENDBRANCH   1   4
BRANCH   1  26
ATOM     26  C   UNL     1     -46.562  36.245  28.525  1.00  0.00     0.010 A 
ATOM     27  C   UNL     1     -46.366  36.149  29.895  1.00  0.00     0.034 A 
ATOM     28  C   UNL     1     -46.018  37.359  27.868  1.00  0.00    -0.028 A 
ATOM     29  N   UNL     1     -45.661  37.043  30.618  1.00  0.00    -0.262 NA
ATOM     30  H   UNL     1     -46.779  35.326  30.473  1.00  0.00     0.084 H 
ATOM     31  C   UNL     1     -45.280  38.313  28.577  1.00  0.00     0.066 A 
ATOM     32  H   UNL     1     -46.172  37.435  26.797  1.00  0.00     0.065 H 
ATOM     33  C   UNL     1     -45.136  38.097  29.946  1.00  0.00     0.051 A 
ATOM     34  H   UNL     1     -44.601  38.776  30.600  1.00  0.00     0.086 H 
BRANCH  31  35
ATOM     35  N   UNL     1     -44.692  39.457  27.947  1.00  0.00    -0.299 N 
ATOM     36  C   UNL     1     -45.069  39.968  26.713  1.00  0.00     0.015 A 
ATOM     37  C   UNL     1     -43.659  40.267  28.424  1.00  0.00     0.150 A 
ATOM     38  C   UNL     1     -44.312  41.080  26.404  1.00  0.00    -0.020 A 
ATOM     39  H   UNL     1     -45.863  39.521  26.133  1.00  0.00     0.083 H 
ATOM     40  C   UNL     1     -43.418  41.280  27.497  1.00  0.00     0.064 A 
ATOM     41  N   UNL     1     -42.976  40.105  29.576  1.00  0.00    -0.218 NA
ATOM     42  C   UNL     1     -42.408  42.205  27.814  1.00  0.00     0.136 A 
ATOM     43  C   UNL     1     -42.037  41.039  29.765  1.00  0.00     0.120 A 
ATOM     44  N   UNL     1     -41.724  42.067  28.963  1.00  0.00    -0.219 NA
ATOM     45  H   UNL     1     -41.460  40.956  30.680  1.00  0.00     0.106 H 
BRANCH  38  46
ATOM     46  C   UNL     1     -44.417  41.893  25.164  1.00  0.00    -0.037 C 
ATOM     47  H   UNL     1     -43.869  41.417  24.346  1.00  0.00     0.028 H 
ATOM     48  H   UNL     1     -45.464  42.009  24.866  1.00  0.00     0.028 H 
ATOM     49  H   UNL     1     -43.999  42.895  25.311  1.00  0.00     0.028 H 
ENDBRANCH  38  46
BRANCH  42  50
ATOM     50  N   UNL     1     -42.064  43.291  27.016  1.00  0.00    -0.383 N 
ATOM     51  H   UNL     1     -42.817  43.633  26.438  1.00  0.00     0.158 HD
ATOM     52  H   UNL     1     -41.598  43.991  27.584  1.00  0.00     0.158 HD
ENDBRANCH  42  50
ENDBRANCH  31  35
ENDBRANCH   1  26
TORSDOF 8
ENDMDL
MODEL 3
REMARK VINA RESULT:      -9.7      1.694     10.470
REMARK SMILES CNc1ccc2ccc(OCc3cncc(-n4cc(C)c5c(N)ncnc54)c3)cc2n1
REMARK SMILES IDX 11 1 10 4 9 5 3 6 4 7 31 8 5 9 30 11 6 12 29 14 7 15 8 17
REMARK SMILES IDX 2 20 1 22 12 26 13 27 28 28 14 29 16 31 15 33 17 35 18 36
REMARK SMILES IDX 27 37 19 38 21 40 26 41 22 42 25 43 24 44 20 46 23 50
REMARK H PARENT 11 2 11 3 4 10 5 13 29 16 7 18 8 19 2 21 1 23 1 24 1 25 13 30
REMARK H PARENT 28 32 15 34 18 39 25 45 20 47 20 48 20 49 23 51 23 52
REMARK Flexibility Score: inf
ROOT
ATOM      1  C   UNL     1     -46.648  35.446  27.893  1.00  0.00     0.115 C 
ATOM      2  H   UNL     1     -46.014  35.047  28.695  1.00  0.00     0.076 H 
ATOM      3  H   UNL     1     -47.650  35.039  28.069  1.00  0.00     0.076 H 
ENDROOT
BRANCH   1   4
ATOM      4  O   UNL     1     -46.228  34.949  26.620  1.00  0.00    -0.489 OA
BRANCH   4   5
ATOM      5  C   UNL     1     -46.952  33.950  26.029  1.00  0.00     0.122 A 
ATOM      6  C   UNL     1     -46.668  30.482  22.769  1.00  0.00     0.126 A 
ATOM      7  C   UNL     1     -47.977  30.085  23.013  1.00  0.00    -0.019 A 
ATOM      8  N   UNL     1     -46.102  31.502  23.446  1.00  0.00    -0.231 NA
ATOM      9  C   UNL     1     -48.733  30.765  23.963  1.00  0.00    -0.049 A 
ATOM     10  H   UNL     1     -48.405  29.243  22.479  1.00  0.00     0.066 H 
ATOM     11  C   UNL     1     -46.826  32.165  24.369  1.00  0.00     0.076 A 
ATOM     12  C   UNL     1     -48.160  31.830  24.662  1.00  0.00     0.001 A 
ATOM     13  H   UNL     1     -49.756  30.454  24.155  1.00  0.00     0.063 H 
ATOM     14  C   UNL     1     -46.250  33.219  25.064  1.00  0.00     0.007 A 
ATOM     15  C   UNL     1     -48.874  32.550  25.633  1.00  0.00    -0.049 A 
ATOM     16  H   UNL     1     -45.217  33.480  24.846  1.00  0.00     0.069 H 
ATOM     17  C   UNL     1     -48.270  33.608  26.315  1.00  0.00    -0.019 A 
ATOM     18  H   UNL     1     -49.903  32.288  25.869  1.00  0.00     0.063 H 
ATOM     19  H   UNL     1     -48.853  34.126  27.069  1.00  0.00     0.066 H 
BRANCH   6  20
ATOM     20  N   UNL     1     -45.927  29.755  21.821  1.00  0.00    -0.373 N 
ATOM     21  H   UNL     1     -45.594  30.394  21.104  1.00  0.00     0.161 HD
BRANCH  20  22
ATOM     22  C   UNL     1     -44.842  28.969  22.387  1.00  0.00     0.005 C 
ATOM     23  H   UNL     1     -44.770  27.982  21.918  1.00  0.00     0.045 H 
ATOM     24  H   UNL     1     -45.035  28.814  23.454  1.00  0.00     0.045 H 
ATOM     25  H   UNL     1     -43.882  29.490  22.303  1.00  0.00     0.045 H 
ENDBRANCH  20  22
ENDBRANCH   6  20
ENDBRANCH   4   5
ENDBRANCH   1   4
BRANCH   1  26
ATOM     26  C   UNL     1     -46.757  36.949  27.945  1.00  0.00     0.010 A 
ATOM     27  C   UNL     1     -48.002  37.553  28.057  1.00  0.00     0.034 A 
ATOM     28  C   UNL     1     -45.638  37.786  27.830  1.00  0.00    -0.028 A 
ATOM     29  N   UNL     1     -48.189  38.887  28.094  1.00  0.00    -0.262 NA
ATOM     30  H   UNL     1     -48.915  36.966  28.126  1.00  0.00     0.084 H 
ATOM     31  C   UNL     1     -45.784  39.178  27.861  1.00  0.00     0.066 A 
ATOM     32  H   UNL     1     -44.665  37.315  27.741  1.00  0.00     0.065 H 
ATOM     33  C   UNL     1     -47.082  39.664  27.997  1.00  0.00     0.051 A 
ATOM     34  H   UNL     1     -47.320  40.722  28.016  1.00  0.00     0.086 H 
BRANCH  31  35
ATOM     35  N   UNL     1     -44.669  40.072  27.764  1.00  0.00    -0.299 N 
ATOM     36  C   UNL     1     -43.633  40.154  28.682  1.00  0.00     0.015 A 
ATOM     37  C   UNL     1     -44.401  41.009  26.763  1.00  0.00     0.150 A 
ATOM     38  C   UNL     1     -42.715  41.107  28.285  1.00  0.00    -0.020 A 
ATOM     39  H   UNL     1     -43.598  39.521  29.557  1.00  0.00     0.083 H 
ATOM     40  C   UNL     1     -43.197  41.648  27.057  1.00  0.00     0.064 A 
ATOM     41  N   UNL     1     -45.174  41.286  25.693  1.00  0.00    -0.218 NA
ATOM     42  C   UNL     1     -42.759  42.627  26.148  1.00  0.00     0.136 A 
ATOM     43  C   UNL     1     -44.658  42.237  24.906  1.00  0.00     0.120 A 
ATOM     44  N   UNL     1     -43.509  42.908  25.069  1.00  0.00    -0.219 NA
ATOM     45  H   UNL     1     -45.240  42.496  24.027  1.00  0.00     0.106 H 
BRANCH  38  46
ATOM     46  C   UNL     1     -41.477  41.487  29.014  1.00  0.00    -0.037 C 
ATOM     47  H   UNL     1     -41.679  42.305  29.712  1.00  0.00     0.028 H 
ATOM     48  H   UNL     1     -41.083  40.634  29.575  1.00  0.00     0.028 H 
ATOM     49  H   UNL     1     -40.697  41.821  28.321  1.00  0.00     0.028 H 
ENDBRANCH  38  46
BRANCH  42  50
ATOM     50  N   UNL     1     -41.567  43.333  26.274  1.00  0.00    -0.383 N 
ATOM     51  H   UNL     1     -40.836  43.022  25.651  1.00  0.00     0.158 HD
ATOM     52  H   UNL     1     -41.762  44.328  26.256  1.00  0.00     0.158 HD
ENDBRANCH  42  50
ENDBRANCH  31  35
ENDBRANCH   1  26
TORSDOF 8
ENDMDL
MODEL 4
REMARK VINA RESULT:      -9.6      1.981     10.692
REMARK SMILES CNc1ccc2ccc(OCc3cncc(-n4cc(C)c5c(N)ncnc54)c3)cc2n1
REMARK SMILES IDX 11 1 10 4 9 5 3 6 4 7 31 8 5 9 30 11 6 12 29 14 7 15 8 17
REMARK SMILES IDX 2 20 1 22 12 26 13 27 28 28 14 29 16 31 15 33 17 35 18 36
REMARK SMILES IDX 27 37 19 38 21 40 26 41 22 42 25 43 24 44 20 46 23 50
REMARK H PARENT 11 2 11 3 4 10 5 13 29 16 7 18 8 19 2 21 1 23 1 24 1 25 13 30
REMARK H PARENT 28 32 15 34 18 39 25 45 20 47 20 48 20 49 23 51 23 52
REMARK Flexibility Score: inf
ROOT
ATOM      1  C   UNL     1     -47.472  35.798  26.593  1.00  0.00     0.115 C 
ATOM      2  H   UNL     1     -48.308  36.404  26.222  1.00  0.00     0.076 H 
ATOM      3  H   UNL     1     -46.760  35.725  25.762  1.00  0.00     0.076 H 
ENDROOT
BRANCH   1   4
ATOM      4  O   UNL     1     -47.899  34.464  26.877  1.00  0.00    -0.489 OA
BRANCH   4   5
ATOM      5  C   UNL     1     -47.536  33.458  26.023  1.00  0.00     0.122 A 
ATOM      6  C   UNL     1     -48.920  29.202  24.376  1.00  0.00     0.126 A 
ATOM      7  C   UNL     1     -47.812  29.116  23.541  1.00  0.00    -0.019 A 
ATOM      8  N   UNL     1     -49.126  30.276  25.166  1.00  0.00    -0.231 NA
ATOM      9  C   UNL     1     -46.880  30.149  23.532  1.00  0.00    -0.049 A 
ATOM     10  H   UNL     1     -47.680  28.257  22.891  1.00  0.00     0.066 H 
ATOM     11  C   UNL     1     -48.230  31.281  25.162  1.00  0.00     0.076 A 
ATOM     12  C   UNL     1     -47.079  31.260  24.355  1.00  0.00     0.001 A 
ATOM     13  H   UNL     1     -46.015  30.083  22.879  1.00  0.00     0.063 H 
ATOM     14  C   UNL     1     -48.435  32.385  25.978  1.00  0.00     0.007 A 
ATOM     15  C   UNL     1     -46.173  32.332  24.385  1.00  0.00    -0.049 A 
ATOM     16  H   UNL     1     -49.326  32.411  26.601  1.00  0.00     0.069 H 
ATOM     17  C   UNL     1     -46.403  33.429  25.217  1.00  0.00    -0.019 A 
ATOM     18  H   UNL     1     -45.287  32.323  23.755  1.00  0.00     0.063 H 
ATOM     19  H   UNL     1     -45.686  34.243  25.196  1.00  0.00     0.066 H 
BRANCH   6  20
ATOM     20  N   UNL     1     -49.854  28.151  24.340  1.00  0.00    -0.373 N 
ATOM     21  H   UNL     1     -49.680  27.586  23.513  1.00  0.00     0.161 HD
BRANCH  20  22
ATOM     22  C   UNL     1     -49.889  27.343  25.548  1.00  0.00     0.005 C 
ATOM     23  H   UNL     1     -50.830  26.790  25.637  1.00  0.00     0.045 H 
ATOM     24  H   UNL     1     -49.810  28.003  26.418  1.00  0.00     0.045 H 
ATOM     25  H   UNL     1     -49.044  26.646  25.590  1.00  0.00     0.045 H 
ENDBRANCH  20  22
ENDBRANCH   6  20
ENDBRANCH   4   5
ENDBRANCH   1   4
BRANCH   1  26
ATOM     26  C   UNL     1     -46.754  36.457  27.743  1.00  0.00     0.010 A 
ATOM     27  C   UNL     1     -46.932  35.985  29.036  1.00  0.00     0.034 A 
ATOM     28  C   UNL     1     -45.937  37.583  27.570  1.00  0.00    -0.028 A 
ATOM     29  N   UNL     1     -46.342  36.526  30.121  1.00  0.00    -0.262 NA
ATOM     30  H   UNL     1     -47.571  35.131  29.248  1.00  0.00     0.084 H 
ATOM     31  C   UNL     1     -45.305  38.180  28.667  1.00  0.00     0.066 A 
ATOM     32  H   UNL     1     -45.798  37.953  26.560  1.00  0.00     0.065 H 
ATOM     33  C   UNL     1     -45.546  37.604  29.912  1.00  0.00     0.051 A 
ATOM     34  H   UNL     1     -45.125  37.989  30.835  1.00  0.00     0.086 H 
BRANCH  31  35
ATOM     35  N   UNL     1     -44.449  39.321  28.537  1.00  0.00    -0.299 N 
ATOM     36  C   UNL     1     -43.404  39.633  29.395  1.00  0.00     0.015 A 
ATOM     37  C   UNL     1     -44.483  40.316  27.558  1.00  0.00     0.150 A 
ATOM     38  C   UNL     1     -42.773  40.789  28.979  1.00  0.00    -0.020 A 
ATOM     39  H   UNL     1     -43.159  39.009  30.242  1.00  0.00     0.083 H 
ATOM     40  C   UNL     1     -43.452  41.222  27.802  1.00  0.00     0.064 A 
ATOM     41  N   UNL     1     -45.369  40.419  26.546  1.00  0.00    -0.218 NA
ATOM     42  C   UNL     1     -43.325  42.297  26.906  1.00  0.00     0.136 A 
ATOM     43  C   UNL     1     -45.153  41.483  25.765  1.00  0.00     0.120 A 
ATOM     44  N   UNL     1     -44.191  42.410  25.884  1.00  0.00    -0.219 NA
ATOM     45  H   UNL     1     -45.837  41.611  24.933  1.00  0.00     0.106 H 
BRANCH  38  46
ATOM     46  C   UNL     1     -41.617  41.444  29.646  1.00  0.00    -0.037 C 
ATOM     47  H   UNL     1     -40.731  41.399  29.007  1.00  0.00     0.028 H 
ATOM     48  H   UNL     1     -41.841  42.492  29.864  1.00  0.00     0.028 H 
ATOM     49  H   UNL     1     -41.375  40.949  30.593  1.00  0.00     0.028 H 
ENDBRANCH  38  46
BRANCH  42  50
ATOM     50  N   UNL     1     -42.334  43.270  26.986  1.00  0.00    -0.383 N 
ATOM     51  H   UNL     1     -41.414  42.906  27.190  1.00  0.00     0.158 HD
ATOM     52  H   UNL     1     -42.392  43.878  26.177  1.00  0.00     0.158 HD
ENDBRANCH  42  50
ENDBRANCH  31  35
ENDBRANCH   1  26
TORSDOF 8
ENDMDL
MODEL 5
REMARK VINA RESULT:      -9.4      2.141     10.693
REMARK SMILES CNc1ccc2ccc(OCc3cncc(-n4cc(C)c5c(N)ncnc54)c3)cc2n1
REMARK SMILES IDX 11 1 10 4 9 5 3 6 4 7 31 8 5 9 30 11 6 12 29 14 7 15 8 17
REMARK SMILES IDX 2 20 1 22 12 26 13 27 28 28 14 29 16 31 15 33 17 35 18 36
REMARK SMILES IDX 27 37 19 38 21 40 26 41 22 42 25 43 24 44 20 46 23 50
REMARK H PARENT 11 2 11 3 4 10 5 13 29 16 7 18 8 19 2 21 1 23 1 24 1 25 13 30
REMARK H PARENT 28 32 15 34 18 39 25 45 20 47 20 48 20 49 23 51 23 52
REMARK Flexibility Score: inf
ROOT
ATOM      1  C   UNL     1     -46.012  34.394  27.872  1.00  0.00     0.115 C 
ATOM      2  H   UNL     1     -45.051  34.043  27.473  1.00  0.00     0.076 H 
ATOM      3  H   UNL     1     -46.316  33.654  28.621  1.00  0.00     0.076 H 
ENDROOT
BRANCH   1   4
ATOM      4  O   UNL     1     -47.017  34.379  26.857  1.00  0.00    -0.489 OA
BRANCH   4   5
ATOM      5  C   UNL     1     -47.001  33.378  25.925  1.00  0.00     0.122 A 
ATOM      6  C   UNL     1     -48.851  29.098  24.926  1.00  0.00     0.126 A 
ATOM      7  C   UNL     1     -48.155  29.028  23.725  1.00  0.00    -0.019 A 
ATOM      8  N   UNL     1     -48.749  30.169  25.739  1.00  0.00    -0.231 NA
ATOM      9  C   UNL     1     -47.315  30.075  23.359  1.00  0.00    -0.049 A 
ATOM     10  H   UNL     1     -48.272  28.171  23.071  1.00  0.00     0.066 H 
ATOM     11  C   UNL     1     -47.941  31.188  25.391  1.00  0.00     0.076 A 
ATOM     12  C   UNL     1     -47.195  31.185  24.200  1.00  0.00     0.001 A 
ATOM     13  H   UNL     1     -46.772  30.022  22.421  1.00  0.00     0.063 H 
ATOM     14  C   UNL     1     -47.829  32.290  26.228  1.00  0.00     0.007 A 
ATOM     15  C   UNL     1     -46.366  32.271  23.880  1.00  0.00    -0.049 A 
ATOM     16  H   UNL     1     -48.408  32.303  27.149  1.00  0.00     0.069 H 
ATOM     17  C   UNL     1     -46.270  33.366  24.741  1.00  0.00    -0.019 A 
ATOM     18  H   UNL     1     -45.795  32.276  22.954  1.00  0.00     0.063 H 
ATOM     19  H   UNL     1     -45.630  34.191  24.446  1.00  0.00     0.066 H 
BRANCH   6  20
ATOM     20  N   UNL     1     -49.709  28.032  25.251  1.00  0.00    -0.373 N 
ATOM     21  H   UNL     1     -49.922  27.512  24.404  1.00  0.00     0.161 HD
BRANCH  20  22
ATOM     22  C   UNL     1     -49.209  27.164  26.305  1.00  0.00     0.005 C 
ATOM     23  H   UNL     1     -49.821  27.235  27.211  1.00  0.00     0.045 H 
ATOM     24  H   UNL     1     -48.192  27.475  26.568  1.00  0.00     0.045 H 
ATOM     25  H   UNL     1     -49.154  26.121  25.975  1.00  0.00     0.045 H 
ENDBRANCH  20  22
ENDBRANCH   6  20
ENDBRANCH   4   5
ENDBRANCH   1   4
BRANCH   1  26
ATOM     26  C   UNL     1     -45.888  35.721  28.576  1.00  0.00     0.010 A 
ATOM     27  C   UNL     1     -46.332  35.860  29.883  1.00  0.00     0.034 A 
ATOM     28  C   UNL     1     -45.380  36.863  27.939  1.00  0.00    -0.028 A 
ATOM     29  N   UNL     1     -46.274  37.013  30.579  1.00  0.00    -0.262 NA
ATOM     30  H   UNL     1     -46.760  35.023  30.431  1.00  0.00     0.084 H 
ATOM     31  C   UNL     1     -45.302  38.083  28.620  1.00  0.00     0.066 A 
ATOM     32  H   UNL     1     -45.033  36.756  26.917  1.00  0.00     0.065 H 
ATOM     33  C   UNL     1     -45.761  38.091  29.935  1.00  0.00     0.051 A 
ATOM     34  H   UNL     1     -45.766  38.981  30.556  1.00  0.00     0.086 H 
BRANCH  31  35
ATOM     35  N   UNL     1     -44.775  39.271  28.017  1.00  0.00    -0.299 N 
ATOM     36  C   UNL     1     -45.203  39.807  26.811  1.00  0.00     0.015 A 
ATOM     37  C   UNL     1     -43.764  40.105  28.498  1.00  0.00     0.150 A 
ATOM     38  C   UNL     1     -44.499  40.960  26.524  1.00  0.00    -0.020 A 
ATOM     39  H   UNL     1     -45.993  39.348  26.234  1.00  0.00     0.083 H 
ATOM     40  C   UNL     1     -43.587  41.159  27.602  1.00  0.00     0.064 A 
ATOM     41  N   UNL     1     -43.047  39.931  29.627  1.00  0.00    -0.218 NA
ATOM     42  C   UNL     1     -42.607  42.112  27.927  1.00  0.00     0.136 A 
ATOM     43  C   UNL     1     -42.141  40.896  29.827  1.00  0.00     0.120 A 
ATOM     44  N   UNL     1     -41.890  41.963  29.054  1.00  0.00    -0.219 NA
ATOM     45  H   UNL     1     -41.539  40.805  30.725  1.00  0.00     0.106 H 
BRANCH  38  46
ATOM     46  C   UNL     1     -44.667  41.810  25.316  1.00  0.00    -0.037 C 
ATOM     47  H   UNL     1     -43.793  42.452  25.175  1.00  0.00     0.028 H 
ATOM     48  H   UNL     1     -44.797  41.190  24.423  1.00  0.00     0.028 H 
ATOM     49  H   UNL     1     -45.547  42.455  25.407  1.00  0.00     0.028 H 
ENDBRANCH  38  46
BRANCH  42  50
ATOM     50  N   UNL     1     -42.326  43.238  27.161  1.00  0.00    -0.383 N 
ATOM     51  H   UNL     1     -42.845  44.061  27.431  1.00  0.00     0.158 HD
ATOM     52  H   UNL     1     -41.321  43.359  27.095  1.00  0.00     0.158 HD
ENDBRANCH  42  50
ENDBRANCH  31  35
ENDBRANCH   1  26
TORSDOF 8
ENDMDL
MODEL 6
REMARK VINA RESULT:      -9.3      2.896     11.088
REMARK SMILES CNc1ccc2ccc(OCc3cncc(-n4cc(C)c5c(N)ncnc54)c3)cc2n1
REMARK SMILES IDX 11 1 10 4 9 5 3 6 4 7 31 8 5 9 30 11 6 12 29 14 7 15 8 17
REMARK SMILES IDX 2 20 1 22 12 26 13 27 28 28 14 29 16 31 15 33 17 35 18 36
REMARK SMILES IDX 27 37 19 38 21 40 26 41 22 42 25 43 24 44 20 46 23 50
REMARK H PARENT 11 2 11 3 4 10 5 13 29 16 7 18 8 19 2 21 1 23 1 24 1 25 13 30
REMARK H PARENT 28 32 15 34 18 39 25 45 20 47 20 48 20 49 23 51 23 52
REMARK Flexibility Score: inf
ROOT
ATOM      1  C   UNL     1     -47.401  33.729  25.811  1.00  0.00     0.115 C 
ATOM      2  H   UNL     1     -47.654  33.778  24.744  1.00  0.00     0.076 H 
ATOM      3  H   UNL     1     -46.320  33.549  25.858  1.00  0.00     0.076 H 
ENDROOT
BRANCH   1   4
ATOM      4  O   UNL     1     -48.025  32.601  26.428  1.00  0.00    -0.489 OA
BRANCH   4   5
ATOM      5  C   UNL     1     -48.615  31.656  25.634  1.00  0.00     0.122 A 
ATOM      6  C   UNL     1     -49.253  26.953  25.174  1.00  0.00     0.126 A 
ATOM      7  C   UNL     1     -50.025  27.124  24.032  1.00  0.00    -0.019 A 
ATOM      8  N   UNL     1     -48.737  28.005  25.842  1.00  0.00    -0.231 NA
ATOM      9  C   UNL     1     -50.258  28.409  23.550  1.00  0.00    -0.049 A 
ATOM     10  H   UNL     1     -50.455  26.267  23.525  1.00  0.00     0.066 H 
ATOM     11  C   UNL     1     -48.959  29.251  25.383  1.00  0.00     0.076 A 
ATOM     12  C   UNL     1     -49.719  29.505  24.228  1.00  0.00     0.001 A 
ATOM     13  H   UNL     1     -50.863  28.544  22.658  1.00  0.00     0.063 H 
ATOM     14  C   UNL     1     -48.426  30.337  26.064  1.00  0.00     0.007 A 
ATOM     15  C   UNL     1     -49.924  30.822  23.789  1.00  0.00    -0.049 A 
ATOM     16  H   UNL     1     -47.841  30.149  26.962  1.00  0.00     0.069 H 
ATOM     17  C   UNL     1     -49.373  31.896  24.492  1.00  0.00    -0.019 A 
ATOM     18  H   UNL     1     -50.519  31.022  22.901  1.00  0.00     0.063 H 
ATOM     19  H   UNL     1     -49.571  32.898  24.127  1.00  0.00     0.066 H 
BRANCH   6  20
ATOM     20  N   UNL     1     -49.060  25.641  25.646  1.00  0.00    -0.373 N 
ATOM     21  H   UNL     1     -48.816  25.043  24.862  1.00  0.00     0.161 HD
BRANCH  20  22
ATOM     22  C   UNL     1     -48.094  25.534  26.727  1.00  0.00     0.005 C 
ATOM     23  H   UNL     1     -48.548  25.122  27.635  1.00  0.00     0.045 H 
ATOM     24  H   UNL     1     -47.719  26.534  26.970  1.00  0.00     0.045 H 
ATOM     25  H   UNL     1     -47.230  24.925  26.436  1.00  0.00     0.045 H 
ENDBRANCH  20  22
ENDBRANCH   6  20
ENDBRANCH   4   5
ENDBRANCH   1   4
BRANCH   1  26
ATOM     26  C   UNL     1     -47.671  35.029  26.523  1.00  0.00     0.010 A 
ATOM     27  C   UNL     1     -48.905  35.254  27.117  1.00  0.00     0.034 A 
ATOM     28  C   UNL     1     -46.731  36.068  26.570  1.00  0.00    -0.028 A 
ATOM     29  N   UNL     1     -49.235  36.393  27.758  1.00  0.00    -0.262 NA
ATOM     30  H   UNL     1     -49.691  34.503  27.099  1.00  0.00     0.084 H 
ATOM     31  C   UNL     1     -47.028  37.270  27.223  1.00  0.00     0.066 A 
ATOM     32  H   UNL     1     -45.766  35.894  26.105  1.00  0.00     0.065 H 
ATOM     33  C   UNL     1     -48.293  37.369  27.797  1.00  0.00     0.051 A 
ATOM     34  H   UNL     1     -48.642  38.256  28.313  1.00  0.00     0.086 H 
BRANCH  31  35
ATOM     35  N   UNL     1     -46.093  38.352  27.311  1.00  0.00    -0.299 N 
ATOM     36  C   UNL     1     -45.935  39.346  26.357  1.00  0.00     0.015 A 
ATOM     37  C   UNL     1     -45.183  38.622  28.335  1.00  0.00     0.150 A 
ATOM     38  C   UNL     1     -44.961  40.241  26.754  1.00  0.00    -0.020 A 
ATOM     39  H   UNL     1     -46.534  39.371  25.458  1.00  0.00     0.083 H 
ATOM     40  C   UNL     1     -44.486  39.788  28.020  1.00  0.00     0.064 A 
ATOM     41  N   UNL     1     -44.978  37.883  29.444  1.00  0.00    -0.218 NA
ATOM     42  C   UNL     1     -43.524  40.223  28.948  1.00  0.00     0.136 A 
ATOM     43  C   UNL     1     -44.036  38.391  30.246  1.00  0.00     0.120 A 
ATOM     44  N   UNL     1     -43.313  39.506  30.065  1.00  0.00    -0.219 NA
ATOM     45  H   UNL     1     -43.833  37.835  31.156  1.00  0.00     0.106 H 
BRANCH  38  46
ATOM     46  C   UNL     1     -44.505  41.433  25.993  1.00  0.00    -0.037 C 
ATOM     47  H   UNL     1     -43.557  41.803  26.394  1.00  0.00     0.028 H 
ATOM     48  H   UNL     1     -44.368  41.187  24.936  1.00  0.00     0.028 H 
ATOM     49  H   UNL     1     -45.236  42.246  26.056  1.00  0.00     0.028 H 
ENDBRANCH  38  46
BRANCH  42  50
ATOM     50  N   UNL     1     -42.766  41.380  28.803  1.00  0.00    -0.383 N 
ATOM     51  H   UNL     1     -42.228  41.417  27.949  1.00  0.00     0.158 HD
ATOM     52  H   UNL     1     -43.348  42.190  28.987  1.00  0.00     0.158 HD
ENDBRANCH  42  50
ENDBRANCH  31  35
ENDBRANCH   1  26
TORSDOF 8
ENDMDL
MODEL 7
REMARK VINA RESULT:      -9.3      1.951      2.506
REMARK SMILES CNc1ccc2ccc(OCc3cncc(-n4cc(C)c5c(N)ncnc54)c3)cc2n1
REMARK SMILES IDX 11 1 10 4 9 5 3 6 4 7 31 8 5 9 30 11 6 12 29 14 7 15 8 17
REMARK SMILES IDX 2 20 1 22 12 26 13 27 28 28 14 29 16 31 15 33 17 35 18 36
REMARK SMILES IDX 27 37 19 38 21 40 26 41 22 42 25 43 24 44 20 46 23 50
REMARK H PARENT 11 2 11 3 4 10 5 13 29 16 7 18 8 19 2 21 1 23 1 24 1 25 13 30
REMARK H PARENT 28 32 15 34 18 39 25 45 20 47 20 48 20 49 23 51 23 52
REMARK Flexibility Score: inf
ROOT
ATOM      1  C   UNL     1     -48.858  35.324  27.001  1.00  0.00     0.115 C 
ATOM      2  H   UNL     1     -48.993  36.221  26.383  1.00  0.00     0.076 H 
ATOM      3  H   UNL     1     -49.858  34.897  27.137  1.00  0.00     0.076 H 
ENDROOT
BRANCH   1   4
ATOM      4  O   UNL     1     -48.388  35.674  28.305  1.00  0.00    -0.489 OA
BRANCH   4   5
ATOM      5  C   UNL     1     -47.328  36.532  28.417  1.00  0.00     0.122 A 
ATOM      6  C   UNL     1     -45.460  40.511  26.569  1.00  0.00     0.126 A 
ATOM      7  C   UNL     1     -44.396  40.479  27.462  1.00  0.00    -0.019 A 
ATOM      8  N   UNL     1     -46.429  39.573  26.592  1.00  0.00    -0.231 NA
ATOM      9  C   UNL     1     -44.314  39.447  28.391  1.00  0.00    -0.049 A 
ATOM     10  H   UNL     1     -43.643  41.259  27.446  1.00  0.00     0.066 H 
ATOM     11  C   UNL     1     -46.358  38.571  27.489  1.00  0.00     0.076 A 
ATOM     12  C   UNL     1     -45.306  38.464  28.416  1.00  0.00     0.001 A 
ATOM     13  H   UNL     1     -43.483  39.422  29.091  1.00  0.00     0.063 H 
ATOM     14  C   UNL     1     -47.350  37.601  27.513  1.00  0.00     0.007 A 
ATOM     15  C   UNL     1     -45.276  37.402  29.333  1.00  0.00    -0.049 A 
ATOM     16  H   UNL     1     -48.169  37.679  26.803  1.00  0.00     0.069 H 
ATOM     17  C   UNL     1     -46.285  36.438  29.333  1.00  0.00    -0.019 A 
ATOM     18  H   UNL     1     -44.469  37.322  30.058  1.00  0.00     0.063 H 
ATOM     19  H   UNL     1     -46.231  35.644  30.070  1.00  0.00     0.066 H 
BRANCH   6  20
ATOM     20  N   UNL     1     -45.525  41.583  25.661  1.00  0.00    -0.373 N 
ATOM     21  H   UNL     1     -45.752  41.220  24.739  1.00  0.00     0.161 HD
BRANCH  20  22
ATOM     22  C   UNL     1     -46.432  42.647  26.059  1.00  0.00     0.005 C 
ATOM     23  H   UNL     1     -47.320  42.681  25.420  1.00  0.00     0.045 H 
ATOM     24  H   UNL     1     -45.917  43.609  25.961  1.00  0.00     0.045 H 
ATOM     25  H   UNL     1     -46.733  42.546  27.108  1.00  0.00     0.045 H 
ENDBRANCH  20  22
ENDBRANCH   6  20
ENDBRANCH   4   5
ENDBRANCH   1   4
BRANCH   1  26
ATOM     26  C   UNL     1     -48.012  34.281  26.317  1.00  0.00     0.010 A 
ATOM     27  C   UNL     1     -46.676  34.537  26.045  1.00  0.00     0.034 A 
ATOM     28  C   UNL     1     -48.538  33.055  25.885  1.00  0.00    -0.028 A 
ATOM     29  N   UNL     1     -45.855  33.667  25.423  1.00  0.00    -0.262 NA
ATOM     30  H   UNL     1     -46.207  35.476  26.328  1.00  0.00     0.084 H 
ATOM     31  C   UNL     1     -47.725  32.120  25.234  1.00  0.00     0.066 A 
ATOM     32  H   UNL     1     -49.583  32.854  26.097  1.00  0.00     0.065 H 
ATOM     33  C   UNL     1     -46.396  32.485  25.035  1.00  0.00     0.051 A 
ATOM     34  H   UNL     1     -45.676  31.851  24.528  1.00  0.00     0.086 H 
BRANCH  31  35
ATOM     35  N   UNL     1     -48.214  30.849  24.790  1.00  0.00    -0.299 N 
ATOM     36  C   UNL     1     -48.676  29.840  25.623  1.00  0.00     0.015 A 
ATOM     37  C   UNL     1     -48.325  30.378  23.480  1.00  0.00     0.150 A 
ATOM     38  C   UNL     1     -49.085  28.753  24.876  1.00  0.00    -0.020 A 
ATOM     39  H   UNL     1     -48.703  29.958  26.697  1.00  0.00     0.083 H 
ATOM     40  C   UNL     1     -48.872  29.096  23.509  1.00  0.00     0.064 A 
ATOM     41  N   UNL     1     -47.953  31.027  22.358  1.00  0.00    -0.218 NA
ATOM     42  C   UNL     1     -49.067  28.461  22.270  1.00  0.00     0.136 A 
ATOM     43  C   UNL     1     -48.180  30.322  21.244  1.00  0.00     0.120 A 
ATOM     44  N   UNL     1     -48.713  29.096  21.140  1.00  0.00    -0.219 NA
ATOM     45  H   UNL     1     -47.900  30.801  20.311  1.00  0.00     0.106 H 
BRANCH  38  46
ATOM     46  C   UNL     1     -49.631  27.478  25.412  1.00  0.00    -0.037 C 
ATOM     47  H   UNL     1     -50.720  27.457  25.312  1.00  0.00     0.028 H 
ATOM     48  H   UNL     1     -49.211  26.623  24.875  1.00  0.00     0.028 H 
ATOM     49  H   UNL     1     -49.389  27.359  26.473  1.00  0.00     0.028 H 
ENDBRANCH  38  46
BRANCH  42  50
ATOM     50  N   UNL     1     -49.630  27.198  22.119  1.00  0.00    -0.383 N 
ATOM     51  H   UNL     1     -49.738  26.688  22.984  1.00  0.00     0.158 HD
ATOM     52  H   UNL     1     -50.465  27.268  21.547  1.00  0.00     0.158 HD
ENDBRANCH  42  50
ENDBRANCH  31  35
ENDBRANCH   1  26
TORSDOF 8
ENDMDL
