MODEL 1
REMARK VINA RESULT:     -11.2      0.000      0.000
REMARK SMILES O=C(NCc1ccc2cc(CN3CC(C4CC4)C3)[nH]c2c1)c1cc(=O)n2ccccc2n1
REMARK SMILES IDX 5 1 6 2 7 3 8 4 9 5 10 6 19 7 20 8 21 9 4 15 3 18 1 19 2 20
REMARK SMILES IDX 22 22 23 23 32 24 24 25 31 27 25 28 26 29 30 30 27 31 29 32
REMARK SMILES IDX 28 34 11 38 12 41 13 42 18 43 14 44 15 50 16 51 17 52
REMARK H PARENT 6 10 7 11 9 12 19 13 21 14 4 16 4 17 3 21 23 26 30 33 27 35
REMARK H PARENT 29 36 28 37 11 39 11 40 13 45 13 46 18 47 18 48 14 49 15 53
REMARK H PARENT 16 54 16 55 17 56 17 57
REMARK Flexibility Score: inf
ROOT
ATOM      1  C   UNL     1     -47.977  34.889  26.766  1.00  0.00    -0.027 A 
ATOM      2  C   UNL     1     -46.695  34.822  26.206  1.00  0.00    -0.057 A 
ATOM      3  C   UNL     1     -46.331  33.774  25.351  1.00  0.00    -0.052 A 
ATOM      4  C   UNL     1     -47.276  32.776  25.043  1.00  0.00    -0.000 A 
ATOM      5  C   UNL     1     -47.249  31.604  24.238  1.00  0.00    -0.032 A 
ATOM      6  C   UNL     1     -48.489  31.004  24.315  1.00  0.00     0.030 A 
ATOM      7  N   UNL     1     -49.265  31.786  25.138  1.00  0.00    -0.357 N 
ATOM      8  C   UNL     1     -48.550  32.866  25.598  1.00  0.00     0.046 A 
ATOM      9  C   UNL     1     -48.932  33.905  26.455  1.00  0.00    -0.033 A 
ATOM     10  H   UNL     1     -45.961  35.593  26.432  1.00  0.00     0.063 H 
ATOM     11  H   UNL     1     -45.331  33.734  24.930  1.00  0.00     0.063 H 
ATOM     12  H   UNL     1     -46.407  31.239  23.665  1.00  0.00     0.065 H 
ATOM     13  H   UNL     1     -50.220  31.561  25.390  1.00  0.00     0.166 HD
ATOM     14  H   UNL     1     -49.937  33.950  26.866  1.00  0.00     0.065 H 
ENDROOT
BRANCH   1  15
ATOM     15  C   UNL     1     -48.355  36.043  27.658  1.00  0.00     0.043 C 
ATOM     16  H   UNL     1     -49.316  36.472  27.354  1.00  0.00     0.054 H 
ATOM     17  H   UNL     1     -48.471  35.713  28.697  1.00  0.00     0.054 H 
BRANCH  15  18
ATOM     18  N   UNL     1     -47.351  37.072  27.614  1.00  0.00    -0.347 N 
ATOM     19  O   UNL     1     -46.638  36.804  29.778  1.00  0.00    -0.268 OA
ATOM     20  C   UNL     1     -46.556  37.364  28.692  1.00  0.00     0.270 C 
ATOM     21  H   UNL     1     -47.180  37.587  26.755  1.00  0.00     0.164 HD
BRANCH  20  22
ATOM     22  C   UNL     1     -45.558  38.458  28.395  1.00  0.00     0.136 A 
ATOM     23  C   UNL     1     -45.710  39.104  27.237  1.00  0.00     0.035 A 
ATOM     24  N   UNL     1     -44.571  38.720  29.318  1.00  0.00    -0.225 NA
ATOM     25  C   UNL     1     -44.762  40.176  26.910  1.00  0.00     0.258 A 
ATOM     26  H   UNL     1     -46.491  38.888  26.520  1.00  0.00     0.071 H 
ATOM     27  C   UNL     1     -43.735  39.668  29.024  1.00  0.00     0.140 A 
ATOM     28  O   UNL     1     -44.894  40.777  25.845  1.00  0.00    -0.269 OA
ATOM     29  N   UNL     1     -43.776  40.420  27.854  1.00  0.00    -0.268 N 
ATOM     30  C   UNL     1     -42.648  39.986  29.993  1.00  0.00    -0.019 A 
ATOM     31  C   UNL     1     -42.841  41.421  27.614  1.00  0.00     0.014 A 
ATOM     32  C   UNL     1     -41.771  40.959  29.718  1.00  0.00    -0.057 A 
ATOM     33  H   UNL     1     -42.608  39.406  30.906  1.00  0.00     0.066 H 
ATOM     34  C   UNL     1     -41.867  41.701  28.490  1.00  0.00    -0.045 A 
ATOM     35  H   UNL     1     -42.933  41.969  26.680  1.00  0.00     0.082 H 
ATOM     36  H   UNL     1     -40.972  41.205  30.411  1.00  0.00     0.062 H 
ATOM     37  H   UNL     1     -41.142  42.485  28.292  1.00  0.00     0.064 H 
ENDBRANCH  20  22
ENDBRANCH  15  18
ENDBRANCH   1  15
BRANCH   6  38
ATOM     38  C   UNL     1     -49.026  29.766  23.675  1.00  0.00     0.039 C 
ATOM     39  H   UNL     1     -48.263  29.328  23.017  1.00  0.00     0.050 H 
ATOM     40  H   UNL     1     -49.865  30.060  23.032  1.00  0.00     0.050 H 
BRANCH  38  41
ATOM     41  N   UNL     1     -49.514  28.820  24.684  1.00  0.00    -0.297 NA
ATOM     42  C   UNL     1     -48.423  28.446  25.627  1.00  0.00     0.003 C 
ATOM     43  C   UNL     1     -49.470  27.433  24.150  1.00  0.00     0.003 C 
ATOM     44  C   UNL     1     -48.919  26.981  25.526  1.00  0.00    -0.013 C 
ATOM     45  H   UNL     1     -48.510  28.895  26.622  1.00  0.00     0.043 H 
ATOM     46  H   UNL     1     -47.397  28.595  25.266  1.00  0.00     0.043 H 
ATOM     47  H   UNL     1     -50.450  27.022  23.888  1.00  0.00     0.043 H 
ATOM     48  H   UNL     1     -48.791  27.271  23.304  1.00  0.00     0.043 H 
ATOM     49  H   UNL     1     -49.744  26.789  26.233  1.00  0.00     0.033 H 
BRANCH  44  50
ATOM     50  C   UNL     1     -47.924  25.851  25.665  1.00  0.00    -0.036 C 
ATOM     51  C   UNL     1     -46.639  25.974  26.436  1.00  0.00    -0.050 C 
ATOM     52  C   UNL     1     -47.711  25.030  26.906  1.00  0.00    -0.050 C 
ATOM     53  H   UNL     1     -47.882  25.321  24.717  1.00  0.00     0.031 H 
ATOM     54  H   UNL     1     -45.742  25.549  25.999  1.00  0.00     0.027 H 
ATOM     55  H   UNL     1     -46.463  26.872  27.018  1.00  0.00     0.027 H 
ATOM     56  H   UNL     1     -47.537  23.966  26.785  1.00  0.00     0.027 H 
ATOM     57  H   UNL     1     -48.252  25.283  27.810  1.00  0.00     0.027 H 
ENDBRANCH  44  50
ENDBRANCH  38  41
ENDBRANCH   6  38
TORSDOF 6
ENDMDL
MODEL 2
REMARK VINA RESULT:     -10.3      2.377      3.465
REMARK SMILES O=C(NCc1ccc2cc(CN3CC(C4CC4)C3)[nH]c2c1)c1cc(=O)n2ccccc2n1
REMARK SMILES IDX 5 1 6 2 7 3 8 4 9 5 10 6 19 7 20 8 21 9 4 15 3 18 1 19 2 20
REMARK SMILES IDX 22 22 23 23 32 24 24 25 31 27 25 28 26 29 30 30 27 31 29 32
REMARK SMILES IDX 28 34 11 38 12 41 13 42 18 43 14 44 15 50 16 51 17 52
REMARK H PARENT 6 10 7 11 9 12 19 13 21 14 4 16 4 17 3 21 23 26 30 33 27 35
REMARK H PARENT 29 36 28 37 11 39 11 40 13 45 13 46 18 47 18 48 14 49 15 53
REMARK H PARENT 16 54 16 55 17 56 17 57
REMARK Flexibility Score: inf
ROOT
ATOM      1  C   UNL     1     -46.538  35.731  28.380  1.00  0.00    -0.027 A 
ATOM      2  C   UNL     1     -47.889  35.908  28.057  1.00  0.00    -0.057 A 
ATOM      3  C   UNL     1     -48.505  35.133  27.066  1.00  0.00    -0.052 A 
ATOM      4  C   UNL     1     -47.752  34.154  26.390  1.00  0.00    -0.000 A 
ATOM      5  C   UNL     1     -48.045  33.218  25.359  1.00  0.00    -0.032 A 
ATOM      6  C   UNL     1     -46.896  32.501  25.093  1.00  0.00     0.030 A 
ATOM      7  N   UNL     1     -45.920  32.974  25.939  1.00  0.00    -0.357 N 
ATOM      8  C   UNL     1     -46.413  33.982  26.734  1.00  0.00     0.046 A 
ATOM      9  C   UNL     1     -45.781  34.747  27.721  1.00  0.00    -0.033 A 
ATOM     10  H   UNL     1     -48.481  36.657  28.579  1.00  0.00     0.063 H 
ATOM     11  H   UNL     1     -49.552  35.287  26.822  1.00  0.00     0.063 H 
ATOM     12  H   UNL     1     -48.998  33.087  24.864  1.00  0.00     0.065 H 
ATOM     13  H   UNL     1     -44.965  32.640  25.938  1.00  0.00     0.166 HD
ATOM     14  H   UNL     1     -44.736  34.584  27.970  1.00  0.00     0.065 H 
ENDROOT
BRANCH   1  15
ATOM     15  C   UNL     1     -45.907  36.555  29.472  1.00  0.00     0.043 C 
ATOM     16  H   UNL     1     -46.655  36.859  30.214  1.00  0.00     0.054 H 
ATOM     17  H   UNL     1     -45.147  35.975  30.010  1.00  0.00     0.054 H 
BRANCH  15  18
ATOM     18  N   UNL     1     -45.285  37.732  28.929  1.00  0.00    -0.347 N 
ATOM     19  O   UNL     1     -44.205  38.344  30.859  1.00  0.00    -0.268 OA
ATOM     20  C   UNL     1     -44.464  38.535  29.677  1.00  0.00     0.270 C 
ATOM     21  H   UNL     1     -45.411  37.976  27.951  1.00  0.00     0.164 HD
BRANCH  20  22
ATOM     22  C   UNL     1     -43.905  39.691  28.882  1.00  0.00     0.136 A 
ATOM     23  C   UNL     1     -42.869  40.338  29.420  1.00  0.00     0.035 A 
ATOM     24  N   UNL     1     -44.483  40.002  27.672  1.00  0.00    -0.225 NA
ATOM     25  C   UNL     1     -42.294  41.468  28.680  1.00  0.00     0.258 A 
ATOM     26  H   UNL     1     -42.423  40.083  30.372  1.00  0.00     0.071 H 
ATOM     27  C   UNL     1     -43.973  41.002  27.021  1.00  0.00     0.140 A 
ATOM     28  O   UNL     1     -41.340  42.071  29.168  1.00  0.00    -0.269 OA
ATOM     29  N   UNL     1     -42.896  41.763  27.464  1.00  0.00    -0.268 N 
ATOM     30  C   UNL     1     -44.568  41.376  25.707  1.00  0.00    -0.019 A 
ATOM     31  C   UNL     1     -42.407  42.820  26.705  1.00  0.00     0.014 A 
ATOM     32  C   UNL     1     -44.062  42.402  25.012  1.00  0.00    -0.057 A 
ATOM     33  H   UNL     1     -45.406  40.790  25.354  1.00  0.00     0.066 H 
ATOM     34  C   UNL     1     -42.946  43.150  25.525  1.00  0.00    -0.045 A 
ATOM     35  H   UNL     1     -41.563  43.371  27.112  1.00  0.00     0.082 H 
ATOM     36  H   UNL     1     -44.482  42.690  24.053  1.00  0.00     0.062 H 
ATOM     37  H   UNL     1     -42.556  43.978  24.941  1.00  0.00     0.064 H 
ENDBRANCH  20  22
ENDBRANCH  15  18
ENDBRANCH   1  15
BRANCH   6  38
ATOM     38  C   UNL     1     -46.626  31.398  24.124  1.00  0.00     0.039 C 
ATOM     39  H   UNL     1     -46.309  30.497  24.666  1.00  0.00     0.050 H 
ATOM     40  H   UNL     1     -45.777  31.704  23.498  1.00  0.00     0.050 H 
BRANCH  38  41
ATOM     41  N   UNL     1     -47.787  31.159  23.260  1.00  0.00    -0.297 NA
ATOM     42  C   UNL     1     -48.675  30.117  23.846  1.00  0.00     0.003 C 
ATOM     43  C   UNL     1     -47.435  30.196  22.183  1.00  0.00     0.003 C 
ATOM     44  C   UNL     1     -48.807  29.515  22.423  1.00  0.00    -0.013 C 
ATOM     45  H   UNL     1     -49.606  30.502  24.272  1.00  0.00     0.043 H 
ATOM     46  H   UNL     1     -48.211  29.439  24.575  1.00  0.00     0.043 H 
ATOM     47  H   UNL     1     -47.312  30.650  21.196  1.00  0.00     0.043 H 
ATOM     48  H   UNL     1     -46.563  29.561  22.381  1.00  0.00     0.043 H 
ATOM     49  H   UNL     1     -49.599  30.022  21.847  1.00  0.00     0.033 H 
BRANCH  44  50
ATOM     50  C   UNL     1     -49.006  28.025  22.265  1.00  0.00    -0.036 C 
ATOM     51  C   UNL     1     -50.323  27.339  22.503  1.00  0.00    -0.050 C 
ATOM     52  C   UNL     1     -49.724  27.361  21.124  1.00  0.00    -0.050 C 
ATOM     53  H   UNL     1     -48.116  27.525  22.637  1.00  0.00     0.031 H 
ATOM     54  H   UNL     1     -50.316  26.400  23.046  1.00  0.00     0.027 H 
ATOM     55  H   UNL     1     -51.203  27.947  22.684  1.00  0.00     0.027 H 
ATOM     56  H   UNL     1     -49.313  26.436  20.736  1.00  0.00     0.027 H 
ATOM     57  H   UNL     1     -50.205  27.974  20.371  1.00  0.00     0.027 H 
ENDBRANCH  44  50
ENDBRANCH  38  41
ENDBRANCH   6  38
TORSDOF 6
ENDMDL
MODEL 3
REMARK VINA RESULT:     -10.2      1.411      2.065
REMARK SMILES O=C(NCc1ccc2cc(CN3CC(C4CC4)C3)[nH]c2c1)c1cc(=O)n2ccccc2n1
REMARK SMILES IDX 5 1 6 2 7 3 8 4 9 5 10 6 19 7 20 8 21 9 4 15 3 18 1 19 2 20
REMARK SMILES IDX 22 22 23 23 32 24 24 25 31 27 25 28 26 29 30 30 27 31 29 32
REMARK SMILES IDX 28 34 11 38 12 41 13 42 18 43 14 44 15 50 16 51 17 52
REMARK H PARENT 6 10 7 11 9 12 19 13 21 14 4 16 4 17 3 21 23 26 30 33 27 35
REMARK H PARENT 29 36 28 37 11 39 11 40 13 45 13 46 18 47 18 48 14 49 15 53
REMARK H PARENT 16 54 16 55 17 56 17 57
REMARK Flexibility Score: inf
ROOT
ATOM      1  C   UNL     1     -47.742  35.648  27.323  1.00  0.00    -0.027 A 
ATOM      2  C   UNL     1     -46.475  35.485  26.749  1.00  0.00    -0.057 A 
ATOM      3  C   UNL     1     -46.209  34.430  25.867  1.00  0.00    -0.052 A 
ATOM      4  C   UNL     1     -47.237  33.523  25.547  1.00  0.00    -0.000 A 
ATOM      5  C   UNL     1     -47.317  32.371  24.717  1.00  0.00    -0.032 A 
ATOM      6  C   UNL     1     -48.603  31.877  24.793  1.00  0.00     0.030 A 
ATOM      7  N   UNL     1     -49.303  32.702  25.641  1.00  0.00    -0.357 N 
ATOM      8  C   UNL     1     -48.494  33.708  26.117  1.00  0.00     0.046 A 
ATOM      9  C   UNL     1     -48.779  34.755  27.001  1.00  0.00    -0.033 A 
ATOM     10  H   UNL     1     -45.676  36.186  26.983  1.00  0.00     0.063 H 
ATOM     11  H   UNL     1     -45.219  34.314  25.434  1.00  0.00     0.063 H 
ATOM     12  H   UNL     1     -46.514  31.949  24.127  1.00  0.00     0.065 H 
ATOM     13  H   UNL     1     -50.271  32.554  25.899  1.00  0.00     0.166 HD
ATOM     14  H   UNL     1     -49.773  34.876  27.424  1.00  0.00     0.065 H 
ENDROOT
BRANCH   1  15
ATOM     15  C   UNL     1     -48.012  36.809  28.244  1.00  0.00     0.043 C 
ATOM     16  H   UNL     1     -48.949  37.310  27.976  1.00  0.00     0.054 H 
ATOM     17  H   UNL     1     -48.121  36.469  29.281  1.00  0.00     0.054 H 
BRANCH  15  18
ATOM     18  N   UNL     1     -46.940  37.767  28.187  1.00  0.00    -0.347 N 
ATOM     19  O   UNL     1     -45.966  37.155  30.173  1.00  0.00    -0.268 OA
ATOM     20  C   UNL     1     -45.985  37.853  29.166  1.00  0.00     0.270 C 
ATOM     21  H   UNL     1     -46.843  38.382  27.385  1.00  0.00     0.164 HD
BRANCH  20  22
ATOM     22  C   UNL     1     -44.948  38.910  28.870  1.00  0.00     0.136 A 
ATOM     23  C   UNL     1     -43.984  39.070  29.779  1.00  0.00     0.035 A 
ATOM     24  N   UNL     1     -45.053  39.631  27.702  1.00  0.00    -0.225 NA
ATOM     25  C   UNL     1     -42.955  40.086  29.530  1.00  0.00     0.258 A 
ATOM     26  H   UNL     1     -43.912  38.496  30.694  1.00  0.00     0.071 H 
ATOM     27  C   UNL     1     -44.141  40.528  27.486  1.00  0.00     0.140 A 
ATOM     28  O   UNL     1     -42.063  40.241  30.363  1.00  0.00    -0.269 OA
ATOM     29  N   UNL     1     -43.084  40.800  28.347  1.00  0.00    -0.268 N 
ATOM     30  C   UNL     1     -44.216  41.335  26.234  1.00  0.00    -0.019 A 
ATOM     31  C   UNL     1     -42.146  41.780  28.042  1.00  0.00     0.014 A 
ATOM     32  C   UNL     1     -43.290  42.267  25.984  1.00  0.00    -0.057 A 
ATOM     33  H   UNL     1     -45.036  41.130  25.557  1.00  0.00     0.066 H 
ATOM     34  C   UNL     1     -42.219  42.500  26.916  1.00  0.00    -0.045 A 
ATOM     35  H   UNL     1     -41.346  41.939  28.760  1.00  0.00     0.082 H 
ATOM     36  H   UNL     1     -43.327  42.864  25.078  1.00  0.00     0.062 H 
ATOM     37  H   UNL     1     -41.481  43.263  26.687  1.00  0.00     0.064 H 
ENDBRANCH  20  22
ENDBRANCH  15  18
ENDBRANCH   1  15
BRANCH   6  38
ATOM     38  C   UNL     1     -49.249  30.703  24.132  1.00  0.00     0.039 C 
ATOM     39  H   UNL     1     -49.480  30.947  23.087  1.00  0.00     0.050 H 
ATOM     40  H   UNL     1     -50.209  30.525  24.634  1.00  0.00     0.050 H 
BRANCH  38  41
ATOM     41  N   UNL     1     -48.417  29.502  24.263  1.00  0.00    -0.297 NA
ATOM     42  C   UNL     1     -49.244  28.271  24.124  1.00  0.00     0.003 C 
ATOM     43  C   UNL     1     -48.228  29.163  25.698  1.00  0.00     0.003 C 
ATOM     44  C   UNL     1     -48.454  27.677  25.318  1.00  0.00    -0.013 C 
ATOM     45  H   UNL     1     -49.114  27.741  23.175  1.00  0.00     0.043 H 
ATOM     46  H   UNL     1     -50.320  28.385  24.315  1.00  0.00     0.043 H 
ATOM     47  H   UNL     1     -47.232  29.394  26.087  1.00  0.00     0.043 H 
ATOM     48  H   UNL     1     -48.972  29.582  26.387  1.00  0.00     0.043 H 
ATOM     49  H   UNL     1     -47.511  27.214  24.982  1.00  0.00     0.033 H 
BRANCH  44  50
ATOM     50  C   UNL     1     -49.139  26.702  26.248  1.00  0.00    -0.036 C 
ATOM     51  C   UNL     1     -49.745  25.407  25.784  1.00  0.00    -0.050 C 
ATOM     52  C   UNL     1     -48.562  25.394  26.712  1.00  0.00    -0.050 C 
ATOM     53  H   UNL     1     -49.700  27.274  26.982  1.00  0.00     0.031 H 
ATOM     54  H   UNL     1     -50.711  25.125  26.188  1.00  0.00     0.027 H 
ATOM     55  H   UNL     1     -49.588  25.095  24.757  1.00  0.00     0.027 H 
ATOM     56  H   UNL     1     -48.731  25.103  27.743  1.00  0.00     0.027 H 
ATOM     57  H   UNL     1     -47.609  25.064  26.317  1.00  0.00     0.027 H 
ENDBRANCH  44  50
ENDBRANCH  38  41
ENDBRANCH   6  38
TORSDOF 6
ENDMDL
MODEL 4
REMARK VINA RESULT:     -10.1      1.655      2.360
REMARK SMILES O=C(NCc1ccc2cc(CN3CC(C4CC4)C3)[nH]c2c1)c1cc(=O)n2ccccc2n1
REMARK SMILES IDX 5 1 6 2 7 3 8 4 9 5 10 6 19 7 20 8 21 9 4 15 3 18 1 19 2 20
REMARK SMILES IDX 22 22 23 23 32 24 24 25 31 27 25 28 26 29 30 30 27 31 29 32
REMARK SMILES IDX 28 34 11 38 12 41 13 42 18 43 14 44 15 50 16 51 17 52
REMARK H PARENT 6 10 7 11 9 12 19 13 21 14 4 16 4 17 3 21 23 26 30 33 27 35
REMARK H PARENT 29 36 28 37 11 39 11 40 13 45 13 46 18 47 18 48 14 49 15 53
REMARK H PARENT 16 54 16 55 17 56 17 57
REMARK Flexibility Score: inf
ROOT
ATOM      1  C   UNL     1     -46.457  35.205  27.630  1.00  0.00    -0.027 A 
ATOM      2  C   UNL     1     -47.829  35.422  27.455  1.00  0.00    -0.057 A 
ATOM      3  C   UNL     1     -48.601  34.571  26.653  1.00  0.00    -0.052 A 
ATOM      4  C   UNL     1     -47.986  33.474  26.020  1.00  0.00    -0.000 A 
ATOM      5  C   UNL     1     -48.449  32.440  25.161  1.00  0.00    -0.032 A 
ATOM      6  C   UNL     1     -47.377  31.630  24.849  1.00  0.00     0.030 A 
ATOM      7  N   UNL     1     -46.281  32.142  25.502  1.00  0.00    -0.357 N 
ATOM      8  C   UNL     1     -46.622  33.266  26.217  1.00  0.00     0.046 A 
ATOM      9  C   UNL     1     -45.835  34.105  27.013  1.00  0.00    -0.033 A 
ATOM     10  H   UNL     1     -48.315  36.262  27.947  1.00  0.00     0.063 H 
ATOM     11  H   UNL     1     -49.663  34.757  26.523  1.00  0.00     0.063 H 
ATOM     12  H   UNL     1     -49.463  32.307  24.807  1.00  0.00     0.065 H 
ATOM     13  H   UNL     1     -45.349  31.754  25.426  1.00  0.00     0.166 HD
ATOM     14  H   UNL     1     -44.775  33.911  27.152  1.00  0.00     0.065 H 
ENDROOT
BRANCH   1  15
ATOM     15  C   UNL     1     -45.655  36.115  28.523  1.00  0.00     0.043 C 
ATOM     16  H   UNL     1     -46.136  36.226  29.501  1.00  0.00     0.054 H 
ATOM     17  H   UNL     1     -44.656  35.701  28.708  1.00  0.00     0.054 H 
BRANCH  15  18
ATOM     18  N   UNL     1     -45.507  37.416  27.927  1.00  0.00    -0.347 N 
ATOM     19  O   UNL     1     -44.539  38.409  29.756  1.00  0.00    -0.268 OA
ATOM     20  C   UNL     1     -44.942  38.467  28.600  1.00  0.00     0.270 C 
ATOM     21  H   UNL     1     -45.786  37.574  26.964  1.00  0.00     0.164 HD
BRANCH  20  22
ATOM     22  C   UNL     1     -44.867  39.719  27.758  1.00  0.00     0.136 A 
ATOM     23  C   UNL     1     -46.011  40.141  27.215  1.00  0.00     0.035 A 
ATOM     24  N   UNL     1     -43.648  40.341  27.605  1.00  0.00    -0.225 NA
ATOM     25  C   UNL     1     -45.983  41.354  26.390  1.00  0.00     0.258 A 
ATOM     26  H   UNL     1     -46.963  39.643  27.344  1.00  0.00     0.071 H 
ATOM     27  C   UNL     1     -43.628  41.413  26.875  1.00  0.00     0.140 A 
ATOM     28  O   UNL     1     -47.032  41.750  25.885  1.00  0.00    -0.269 OA
ATOM     29  N   UNL     1     -44.743  41.961  26.250  1.00  0.00    -0.268 N 
ATOM     30  C   UNL     1     -42.329  42.118  26.679  1.00  0.00    -0.019 A 
ATOM     31  C   UNL     1     -44.637  43.116  25.482  1.00  0.00     0.014 A 
ATOM     32  C   UNL     1     -42.277  43.227  25.932  1.00  0.00    -0.057 A 
ATOM     33  H   UNL     1     -41.456  41.699  27.162  1.00  0.00     0.066 H 
ATOM     34  C   UNL     1     -43.467  43.745  25.311  1.00  0.00    -0.045 A 
ATOM     35  H   UNL     1     -45.549  43.489  25.023  1.00  0.00     0.082 H 
ATOM     36  H   UNL     1     -41.341  43.755  25.778  1.00  0.00     0.062 H 
ATOM     37  H   UNL     1     -43.396  44.646  24.710  1.00  0.00     0.064 H 
ENDBRANCH  20  22
ENDBRANCH  15  18
ENDBRANCH   1  15
BRANCH   6  38
ATOM     38  C   UNL     1     -47.283  30.404  24.002  1.00  0.00     0.039 C 
ATOM     39  H   UNL     1     -46.277  29.970  24.087  1.00  0.00     0.050 H 
ATOM     40  H   UNL     1     -47.406  30.712  22.955  1.00  0.00     0.050 H 
BRANCH  38  41
ATOM     41  N   UNL     1     -48.342  29.447  24.340  1.00  0.00    -0.297 NA
ATOM     42  C   UNL     1     -48.462  29.293  25.816  1.00  0.00     0.003 C 
ATOM     43  C   UNL     1     -47.816  28.058  24.279  1.00  0.00     0.003 C 
ATOM     44  C   UNL     1     -48.597  27.766  25.586  1.00  0.00    -0.013 C 
ATOM     45  H   UNL     1     -49.344  29.774  26.252  1.00  0.00     0.043 H 
ATOM     46  H   UNL     1     -47.582  29.579  26.407  1.00  0.00     0.043 H 
ATOM     47  H   UNL     1     -48.149  27.488  23.406  1.00  0.00     0.043 H 
ATOM     48  H   UNL     1     -46.727  27.959  24.360  1.00  0.00     0.043 H 
ATOM     49  H   UNL     1     -49.641  27.487  25.362  1.00  0.00     0.033 H 
BRANCH  44  50
ATOM     50  C   UNL     1     -48.081  26.810  26.638  1.00  0.00    -0.036 C 
ATOM     51  C   UNL     1     -48.110  25.315  26.479  1.00  0.00    -0.050 C 
ATOM     52  C   UNL     1     -46.794  26.039  26.554  1.00  0.00    -0.050 C 
ATOM     53  H   UNL     1     -48.347  27.208  27.614  1.00  0.00     0.031 H 
ATOM     54  H   UNL     1     -48.412  24.720  27.334  1.00  0.00     0.027 H 
ATOM     55  H   UNL     1     -48.406  24.897  25.524  1.00  0.00     0.027 H 
ATOM     56  H   UNL     1     -46.207  25.932  27.460  1.00  0.00     0.027 H 
ATOM     57  H   UNL     1     -46.196  26.101  25.653  1.00  0.00     0.027 H 
ENDBRANCH  44  50
ENDBRANCH  38  41
ENDBRANCH   6  38
TORSDOF 6
ENDMDL
MODEL 5
REMARK VINA RESULT:      -9.9      2.942     11.765
REMARK SMILES O=C(NCc1ccc2cc(CN3CC(C4CC4)C3)[nH]c2c1)c1cc(=O)n2ccccc2n1
REMARK SMILES IDX 5 1 6 2 7 3 8 4 9 5 10 6 19 7 20 8 21 9 4 15 3 18 1 19 2 20
REMARK SMILES IDX 22 22 23 23 32 24 24 25 31 27 25 28 26 29 30 30 27 31 29 32
REMARK SMILES IDX 28 34 11 38 12 41 13 42 18 43 14 44 15 50 16 51 17 52
REMARK H PARENT 6 10 7 11 9 12 19 13 21 14 4 16 4 17 3 21 23 26 30 33 27 35
REMARK H PARENT 29 36 28 37 11 39 11 40 13 45 13 46 18 47 18 48 14 49 15 53
REMARK H PARENT 16 54 16 55 17 56 17 57
REMARK Flexibility Score: inf
ROOT
ATOM      1  C   UNL     1     -48.045  34.187  26.611  1.00  0.00    -0.027 A 
ATOM      2  C   UNL     1     -46.895  33.639  27.194  1.00  0.00    -0.057 A 
ATOM      3  C   UNL     1     -45.871  34.457  27.687  1.00  0.00    -0.052 A 
ATOM      4  C   UNL     1     -46.005  35.856  27.601  1.00  0.00    -0.000 A 
ATOM      5  C   UNL     1     -45.186  36.954  27.985  1.00  0.00    -0.032 A 
ATOM      6  C   UNL     1     -45.844  38.118  27.646  1.00  0.00     0.030 A 
ATOM      7  N   UNL     1     -47.040  37.754  27.074  1.00  0.00    -0.357 N 
ATOM      8  C   UNL     1     -47.160  36.385  27.030  1.00  0.00     0.046 A 
ATOM      9  C   UNL     1     -48.194  35.583  26.532  1.00  0.00    -0.033 A 
ATOM     10  H   UNL     1     -46.787  32.559  27.273  1.00  0.00     0.063 H 
ATOM     11  H   UNL     1     -44.984  34.016  28.131  1.00  0.00     0.063 H 
ATOM     12  H   UNL     1     -44.215  36.894  28.459  1.00  0.00     0.065 H 
ATOM     13  H   UNL     1     -47.713  38.416  26.707  1.00  0.00     0.166 HD
ATOM     14  H   UNL     1     -49.086  36.027  26.098  1.00  0.00     0.065 H 
ENDROOT
BRANCH   1  15
ATOM     15  C   UNL     1     -49.147  33.287  26.118  1.00  0.00     0.043 C 
ATOM     16  H   UNL     1     -49.983  33.270  26.826  1.00  0.00     0.054 H 
ATOM     17  H   UNL     1     -49.549  33.648  25.164  1.00  0.00     0.054 H 
BRANCH  15  18
ATOM     18  N   UNL     1     -48.666  31.944  25.933  1.00  0.00    -0.347 N 
ATOM     19  O   UNL     1     -49.861  31.523  24.020  1.00  0.00    -0.268 OA
ATOM     20  C   UNL     1     -49.061  31.166  24.876  1.00  0.00     0.270 C 
ATOM     21  H   UNL     1     -47.979  31.552  26.571  1.00  0.00     0.164 HD
BRANCH  20  22
ATOM     22  C   UNL     1     -48.398  29.809  24.878  1.00  0.00     0.136 A 
ATOM     23  C   UNL     1     -47.421  29.623  23.988  1.00  0.00     0.035 A 
ATOM     24  N   UNL     1     -48.829  28.864  25.781  1.00  0.00    -0.225 NA
ATOM     25  C   UNL     1     -46.749  28.318  23.957  1.00  0.00     0.258 A 
ATOM     26  H   UNL     1     -47.091  30.374  23.284  1.00  0.00     0.071 H 
ATOM     27  C   UNL     1     -48.233  27.712  25.750  1.00  0.00     0.140 A 
ATOM     28  O   UNL     1     -45.849  28.136  23.139  1.00  0.00    -0.269 OA
ATOM     29  N   UNL     1     -47.203  27.382  24.875  1.00  0.00    -0.268 N 
ATOM     30  C   UNL     1     -48.668  26.656  26.708  1.00  0.00    -0.019 A 
ATOM     31  C   UNL     1     -46.615  26.122  24.905  1.00  0.00     0.014 A 
ATOM     32  C   UNL     1     -48.071  25.459  26.700  1.00  0.00    -0.057 A 
ATOM     33  H   UNL     1     -49.469  26.904  27.393  1.00  0.00     0.066 H 
ATOM     34  C   UNL     1     -47.011  25.179  25.769  1.00  0.00    -0.045 A 
ATOM     35  H   UNL     1     -45.815  25.933  24.194  1.00  0.00     0.082 H 
ATOM     36  H   UNL     1     -48.374  24.677  27.390  1.00  0.00     0.062 H 
ATOM     37  H   UNL     1     -46.544  24.199  25.784  1.00  0.00     0.064 H 
ENDBRANCH  20  22
ENDBRANCH  15  18
ENDBRANCH   1  15
BRANCH   6  38
ATOM     38  C   UNL     1     -45.463  39.552  27.820  1.00  0.00     0.039 C 
ATOM     39  H   UNL     1     -44.704  39.640  28.610  1.00  0.00     0.050 H 
ATOM     40  H   UNL     1     -46.351  40.092  28.174  1.00  0.00     0.050 H 
BRANCH  38  41
ATOM     41  N   UNL     1     -45.028  40.140  26.549  1.00  0.00    -0.297 NA
ATOM     42  C   UNL     1     -43.591  40.525  26.610  1.00  0.00     0.003 C 
ATOM     43  C   UNL     1     -45.372  41.586  26.509  1.00  0.00     0.003 C 
ATOM     44  C   UNL     1     -43.975  41.842  25.888  1.00  0.00    -0.013 C 
ATOM     45  H   UNL     1     -42.921  39.869  26.047  1.00  0.00     0.043 H 
ATOM     46  H   UNL     1     -43.171  40.674  27.614  1.00  0.00     0.043 H 
ATOM     47  H   UNL     1     -46.218  41.829  25.859  1.00  0.00     0.043 H 
ATOM     48  H   UNL     1     -45.539  42.061  27.483  1.00  0.00     0.043 H 
ATOM     49  H   UNL     1     -44.004  41.703  24.794  1.00  0.00     0.033 H 
BRANCH  44  50
ATOM     50  C   UNL     1     -43.185  43.100  26.170  1.00  0.00    -0.036 C 
ATOM     51  C   UNL     1     -41.970  43.505  25.383  1.00  0.00    -0.050 C 
ATOM     52  C   UNL     1     -43.213  44.349  25.334  1.00  0.00    -0.050 C 
ATOM     53  H   UNL     1     -43.143  43.236  27.247  1.00  0.00     0.031 H 
ATOM     54  H   UNL     1     -41.116  43.888  25.930  1.00  0.00     0.027 H 
ATOM     55  H   UNL     1     -41.708  42.936  24.498  1.00  0.00     0.027 H 
ATOM     56  H   UNL     1     -43.198  45.303  25.849  1.00  0.00     0.027 H 
ATOM     57  H   UNL     1     -43.785  44.360  24.415  1.00  0.00     0.027 H 
ENDBRANCH  44  50
ENDBRANCH  38  41
ENDBRANCH   6  38
TORSDOF 6
ENDMDL
MODEL 6
REMARK VINA RESULT:      -9.9      1.585      3.167
REMARK SMILES O=C(NCc1ccc2cc(CN3CC(C4CC4)C3)[nH]c2c1)c1cc(=O)n2ccccc2n1
REMARK SMILES IDX 5 1 6 2 7 3 8 4 9 5 10 6 19 7 20 8 21 9 4 15 3 18 1 19 2 20
REMARK SMILES IDX 22 22 23 23 32 24 24 25 31 27 25 28 26 29 30 30 27 31 29 32
REMARK SMILES IDX 28 34 11 38 12 41 13 42 18 43 14 44 15 50 16 51 17 52
REMARK H PARENT 6 10 7 11 9 12 19 13 21 14 4 16 4 17 3 21 23 26 30 33 27 35
REMARK H PARENT 29 36 28 37 11 39 11 40 13 45 13 46 18 47 18 48 14 49 15 53
REMARK H PARENT 16 54 16 55 17 56 17 57
REMARK Flexibility Score: inf
ROOT
ATOM      1  C   UNL     1     -48.002  35.019  26.659  1.00  0.00    -0.027 A 
ATOM      2  C   UNL     1     -46.750  35.030  26.032  1.00  0.00    -0.057 A 
ATOM      3  C   UNL     1     -46.291  33.920  25.311  1.00  0.00    -0.052 A 
ATOM      4  C   UNL     1     -47.108  32.778  25.210  1.00  0.00    -0.000 A 
ATOM      5  C   UNL     1     -46.963  31.511  24.579  1.00  0.00    -0.032 A 
ATOM      6  C   UNL     1     -48.108  30.780  24.821  1.00  0.00     0.030 A 
ATOM      7  N   UNL     1     -48.942  31.572  25.574  1.00  0.00    -0.357 N 
ATOM      8  C   UNL     1     -48.356  32.790  25.829  1.00  0.00     0.046 A 
ATOM      9  C   UNL     1     -48.831  33.889  26.553  1.00  0.00    -0.033 A 
ATOM     10  H   UNL     1     -46.115  35.911  26.098  1.00  0.00     0.063 H 
ATOM     11  H   UNL     1     -45.314  33.942  24.836  1.00  0.00     0.063 H 
ATOM     12  H   UNL     1     -46.108  31.173  24.010  1.00  0.00     0.065 H 
ATOM     13  H   UNL     1     -49.846  31.271  25.917  1.00  0.00     0.166 HD
ATOM     14  H   UNL     1     -49.813  33.869  27.019  1.00  0.00     0.065 H 
ENDROOT
BRANCH   1  15
ATOM     15  C   UNL     1     -48.488  36.237  27.401  1.00  0.00     0.043 C 
ATOM     16  H   UNL     1     -49.394  36.642  26.936  1.00  0.00     0.054 H 
ATOM     17  H   UNL     1     -48.749  35.986  28.436  1.00  0.00     0.054 H 
BRANCH  15  18
ATOM     18  N   UNL     1     -47.478  37.261  27.419  1.00  0.00    -0.347 N 
ATOM     19  O   UNL     1     -46.623  36.718  29.478  1.00  0.00    -0.268 OA
ATOM     20  C   UNL     1     -46.608  37.411  28.468  1.00  0.00     0.270 C 
ATOM     21  H   UNL     1     -47.359  37.880  26.622  1.00  0.00     0.164 HD
BRANCH  20  22
ATOM     22  C   UNL     1     -45.620  38.531  28.244  1.00  0.00     0.136 A 
ATOM     23  C   UNL     1     -45.779  39.252  27.133  1.00  0.00     0.035 A 
ATOM     24  N   UNL     1     -44.634  38.739  29.182  1.00  0.00    -0.225 NA
ATOM     25  C   UNL     1     -44.841  40.351  26.877  1.00  0.00     0.258 A 
ATOM     26  H   UNL     1     -46.559  39.078  26.404  1.00  0.00     0.071 H 
ATOM     27  C   UNL     1     -43.806  39.711  28.952  1.00  0.00     0.140 A 
ATOM     28  O   UNL     1     -44.979  41.021  25.855  1.00  0.00    -0.269 OA
ATOM     29  N   UNL     1     -43.855  40.540  27.835  1.00  0.00    -0.268 N 
ATOM     30  C   UNL     1     -42.720  39.973  29.939  1.00  0.00    -0.019 A 
ATOM     31  C   UNL     1     -42.929  41.562  27.662  1.00  0.00     0.014 A 
ATOM     32  C   UNL     1     -41.852  40.969  29.729  1.00  0.00    -0.057 A 
ATOM     33  H   UNL     1     -42.674  39.334  30.811  1.00  0.00     0.066 H 
ATOM     34  C   UNL     1     -41.956  41.792  28.553  1.00  0.00    -0.045 A 
ATOM     35  H   UNL     1     -43.027  42.171  26.767  1.00  0.00     0.082 H 
ATOM     36  H   UNL     1     -41.054  41.176  30.436  1.00  0.00     0.062 H 
ATOM     37  H   UNL     1     -41.238  42.593  28.408  1.00  0.00     0.064 H 
ENDBRANCH  20  22
ENDBRANCH  15  18
ENDBRANCH   1  15
BRANCH   6  38
ATOM     38  C   UNL     1     -48.505  29.403  24.399  1.00  0.00     0.039 C 
ATOM     39  H   UNL     1     -49.065  28.914  25.208  1.00  0.00     0.050 H 
ATOM     40  H   UNL     1     -47.586  28.821  24.254  1.00  0.00     0.050 H 
BRANCH  38  41
ATOM     41  N   UNL     1     -49.248  29.433  23.134  1.00  0.00    -0.297 NA
ATOM     42  C   UNL     1     -48.962  30.688  22.384  1.00  0.00     0.003 C 
ATOM     43  C   UNL     1     -50.629  29.934  23.363  1.00  0.00     0.003 C 
ATOM     44  C   UNL     1     -50.478  30.775  22.070  1.00  0.00    -0.013 C 
ATOM     45  H   UNL     1     -48.316  30.556  21.510  1.00  0.00     0.043 H 
ATOM     46  H   UNL     1     -48.581  31.530  22.976  1.00  0.00     0.043 H 
ATOM     47  H   UNL     1     -51.401  29.160  23.322  1.00  0.00     0.043 H 
ATOM     48  H   UNL     1     -50.776  30.519  24.280  1.00  0.00     0.043 H 
ATOM     49  H   UNL     1     -50.736  30.174  21.182  1.00  0.00     0.033 H 
BRANCH  44  50
ATOM     50  C   UNL     1     -51.123  32.132  21.909  1.00  0.00    -0.036 C 
ATOM     51  C   UNL     1     -52.420  32.348  21.179  1.00  0.00    -0.050 C 
ATOM     52  C   UNL     1     -52.337  32.610  22.657  1.00  0.00    -0.050 C 
ATOM     53  H   UNL     1     -50.336  32.862  21.743  1.00  0.00     0.031 H 
ATOM     54  H   UNL     1     -52.492  33.201  20.514  1.00  0.00     0.027 H 
ATOM     55  H   UNL     1     -52.983  31.482  20.847  1.00  0.00     0.027 H 
ATOM     56  H   UNL     1     -52.353  33.642  22.990  1.00  0.00     0.027 H 
ATOM     57  H   UNL     1     -52.852  31.929  23.324  1.00  0.00     0.027 H 
ENDBRANCH  44  50
ENDBRANCH  38  41
ENDBRANCH   6  38
TORSDOF 6
ENDMDL
MODEL 7
REMARK VINA RESULT:      -9.9      2.893     11.584
REMARK SMILES O=C(NCc1ccc2cc(CN3CC(C4CC4)C3)[nH]c2c1)c1cc(=O)n2ccccc2n1
REMARK SMILES IDX 5 1 6 2 7 3 8 4 9 5 10 6 19 7 20 8 21 9 4 15 3 18 1 19 2 20
REMARK SMILES IDX 22 22 23 23 32 24 24 25 31 27 25 28 26 29 30 30 27 31 29 32
REMARK SMILES IDX 28 34 11 38 12 41 13 42 18 43 14 44 15 50 16 51 17 52
REMARK H PARENT 6 10 7 11 9 12 19 13 21 14 4 16 4 17 3 21 23 26 30 33 27 35
REMARK H PARENT 29 36 28 37 11 39 11 40 13 45 13 46 18 47 18 48 14 49 15 53
REMARK H PARENT 16 54 16 55 17 56 17 57
REMARK Flexibility Score: inf
ROOT
ATOM      1  C   UNL     1     -46.853  33.515  25.568  1.00  0.00    -0.027 A 
ATOM      2  C   UNL     1     -48.161  33.893  25.898  1.00  0.00    -0.057 A 
ATOM      3  C   UNL     1     -48.413  34.808  26.928  1.00  0.00    -0.052 A 
ATOM      4  C   UNL     1     -47.331  35.363  27.637  1.00  0.00    -0.000 A 
ATOM      5  C   UNL     1     -47.223  36.291  28.710  1.00  0.00    -0.032 A 
ATOM      6  C   UNL     1     -45.884  36.461  28.995  1.00  0.00     0.030 A 
ATOM      7  N   UNL     1     -45.181  35.668  28.120  1.00  0.00    -0.357 N 
ATOM      8  C   UNL     1     -46.037  34.986  27.287  1.00  0.00     0.046 A 
ATOM      9  C   UNL     1     -45.765  34.072  26.262  1.00  0.00    -0.033 A 
ATOM     10  H   UNL     1     -49.003  33.476  25.349  1.00  0.00     0.063 H 
ATOM     11  H   UNL     1     -49.434  35.086  27.175  1.00  0.00     0.063 H 
ATOM     12  H   UNL     1     -48.043  36.780  29.219  1.00  0.00     0.065 H 
ATOM     13  H   UNL     1     -44.172  35.581  28.126  1.00  0.00     0.166 HD
ATOM     14  H   UNL     1     -44.743  33.804  26.009  1.00  0.00     0.065 H 
ENDROOT
BRANCH   1  15
ATOM     15  C   UNL     1     -46.606  32.553  24.436  1.00  0.00     0.043 C 
ATOM     16  H   UNL     1     -47.038  32.930  23.502  1.00  0.00     0.054 H 
ATOM     17  H   UNL     1     -45.531  32.427  24.257  1.00  0.00     0.054 H 
BRANCH  15  18
ATOM     18  N   UNL     1     -47.177  31.265  24.725  1.00  0.00    -0.347 N 
ATOM     19  O   UNL     1     -48.623  31.239  22.943  1.00  0.00    -0.268 OA
ATOM     20  C   UNL     1     -48.145  30.702  23.935  1.00  0.00     0.270 C 
ATOM     21  H   UNL     1     -46.839  30.718  25.511  1.00  0.00     0.164 HD
BRANCH  20  22
ATOM     22  C   UNL     1     -48.564  29.334  24.421  1.00  0.00     0.136 A 
ATOM     23  C   UNL     1     -49.871  29.069  24.398  1.00  0.00     0.035 A 
ATOM     24  N   UNL     1     -47.591  28.458  24.848  1.00  0.00    -0.225 NA
ATOM     25  C   UNL     1     -50.321  27.750  24.860  1.00  0.00     0.258 A 
ATOM     26  H   UNL     1     -50.626  29.766  24.058  1.00  0.00     0.071 H 
ATOM     27  C   UNL     1     -47.994  27.294  25.257  1.00  0.00     0.140 A 
ATOM     28  O   UNL     1     -51.525  27.497  24.843  1.00  0.00    -0.269 OA
ATOM     29  N   UNL     1     -49.323  26.887  25.287  1.00  0.00    -0.268 N 
ATOM     30  C   UNL     1     -46.976  26.314  25.731  1.00  0.00    -0.019 A 
ATOM     31  C   UNL     1     -49.672  25.619  25.741  1.00  0.00     0.014 A 
ATOM     32  C   UNL     1     -47.361  25.105  26.158  1.00  0.00    -0.057 A 
ATOM     33  H   UNL     1     -45.939  26.622  25.711  1.00  0.00     0.066 H 
ATOM     34  C   UNL     1     -48.753  24.743  26.165  1.00  0.00    -0.045 A 
ATOM     35  H   UNL     1     -50.730  25.367  25.737  1.00  0.00     0.082 H 
ATOM     36  H   UNL     1     -46.635  24.377  26.507  1.00  0.00     0.062 H 
ATOM     37  H   UNL     1     -49.037  23.756  26.516  1.00  0.00     0.064 H 
ENDBRANCH  20  22
ENDBRANCH  15  18
ENDBRANCH   1  15
BRANCH   6  38
ATOM     38  C   UNL     1     -45.193  37.314  30.008  1.00  0.00     0.039 C 
ATOM     39  H   UNL     1     -44.154  36.979  30.128  1.00  0.00     0.050 H 
ATOM     40  H   UNL     1     -45.691  37.153  30.974  1.00  0.00     0.050 H 
BRANCH  38  41
ATOM     41  N   UNL     1     -45.293  38.735  29.657  1.00  0.00    -0.297 NA
ATOM     42  C   UNL     1     -45.598  38.900  28.209  1.00  0.00     0.003 C 
ATOM     43  C   UNL     1     -43.941  39.294  29.394  1.00  0.00     0.003 C 
ATOM     44  C   UNL     1     -44.549  40.041  28.179  1.00  0.00    -0.013 C 
ATOM     45  H   UNL     1     -46.625  39.212  27.994  1.00  0.00     0.043 H 
ATOM     46  H   UNL     1     -45.350  38.050  27.561  1.00  0.00     0.043 H 
ATOM     47  H   UNL     1     -43.559  39.941  30.189  1.00  0.00     0.043 H 
ATOM     48  H   UNL     1     -43.165  38.561  29.144  1.00  0.00     0.043 H 
ATOM     49  H   UNL     1     -44.993  41.000  28.494  1.00  0.00     0.033 H 
BRANCH  44  50
ATOM     50  C   UNL     1     -43.764  40.292  26.912  1.00  0.00    -0.036 C 
ATOM     51  C   UNL     1     -44.117  41.369  25.923  1.00  0.00    -0.050 C 
ATOM     52  C   UNL     1     -42.824  41.443  26.687  1.00  0.00    -0.050 C 
ATOM     53  H   UNL     1     -43.461  39.330  26.507  1.00  0.00     0.031 H 
ATOM     54  H   UNL     1     -44.070  41.123  24.868  1.00  0.00     0.027 H 
ATOM     55  H   UNL     1     -44.898  42.076  26.177  1.00  0.00     0.027 H 
ATOM     56  H   UNL     1     -41.904  41.248  26.146  1.00  0.00     0.027 H 
ATOM     57  H   UNL     1     -42.727  42.207  27.449  1.00  0.00     0.027 H 
ENDBRANCH  44  50
ENDBRANCH  38  41
ENDBRANCH   6  38
TORSDOF 6
ENDMDL
