MODEL 1
REMARK VINA RESULT:     -11.6      0.000      0.000
REMARK SMILES O=C(NCc1ccc2cc(CNC3CCCC3)[nH]c2c1)c1cc(=O)n2ccccc2n1
REMARK SMILES IDX 5 1 6 2 7 3 8 4 9 5 10 6 18 7 19 8 20 9 4 15 3 18 1 19 2 20
REMARK SMILES IDX 21 22 22 23 31 24 23 25 30 27 24 28 25 29 29 30 26 31 28 32
REMARK SMILES IDX 27 34 11 38 12 41 13 43 14 44 17 45 15 47 16 50
REMARK H PARENT 6 10 7 11 9 12 18 13 20 14 4 16 4 17 3 21 22 26 29 33 26 35
REMARK H PARENT 28 36 27 37 11 39 11 40 12 42 13 46 14 48 14 49 17 51 17 52
REMARK H PARENT 15 53 15 54 16 55 16 56
REMARK Flexibility Score: inf
ROOT
ATOM      1  C   UNL     1     -47.937  34.939  26.539  1.00  0.00    -0.027 A 
ATOM      2  C   UNL     1     -46.683  34.908  25.916  1.00  0.00    -0.057 A 
ATOM      3  C   UNL     1     -46.253  33.778  25.208  1.00  0.00    -0.052 A 
ATOM      4  C   UNL     1     -47.094  32.652  25.131  1.00  0.00    -0.000 A 
ATOM      5  C   UNL     1     -46.983  31.375  24.513  1.00  0.00    -0.032 A 
ATOM      6  C   UNL     1     -48.140  30.670  24.780  1.00  0.00     0.030 A 
ATOM      7  N   UNL     1     -48.942  31.484  25.544  1.00  0.00    -0.357 N 
ATOM      8  C   UNL     1     -48.332  32.695  25.768  1.00  0.00     0.046 A 
ATOM      9  C   UNL     1     -48.779  33.816  26.479  1.00  0.00    -0.033 A 
ATOM     10  H   UNL     1     -46.022  35.771  25.977  1.00  0.00     0.063 H 
ATOM     11  H   UNL     1     -45.280  33.773  24.725  1.00  0.00     0.063 H 
ATOM     12  H   UNL     1     -46.143  31.013  23.935  1.00  0.00     0.065 H 
ATOM     13  H   UNL     1     -49.867  31.225  25.859  1.00  0.00     0.166 HD
ATOM     14  H   UNL     1     -49.747  33.816  26.971  1.00  0.00     0.065 H 
ENDROOT
BRANCH   1  15
ATOM     15  C   UNL     1     -48.363  36.154  27.321  1.00  0.00     0.043 C 
ATOM     16  H   UNL     1     -48.602  35.886  28.357  1.00  0.00     0.054 H 
ATOM     17  H   UNL     1     -49.269  36.598  26.892  1.00  0.00     0.054 H 
BRANCH  15  18
ATOM     18  N   UNL     1     -47.325  37.149  27.326  1.00  0.00    -0.347 N 
ATOM     19  O   UNL     1     -46.718  36.851  29.519  1.00  0.00    -0.268 OA
ATOM     20  C   UNL     1     -46.590  37.432  28.448  1.00  0.00     0.270 C 
ATOM     21  H   UNL     1     -47.156  37.719  26.503  1.00  0.00     0.164 HD
BRANCH  20  22
ATOM     22  C   UNL     1     -45.598  38.547  28.223  1.00  0.00     0.136 A 
ATOM     23  C   UNL     1     -45.748  39.262  27.106  1.00  0.00     0.035 A 
ATOM     24  N   UNL     1     -44.614  38.757  29.163  1.00  0.00    -0.225 NA
ATOM     25  C   UNL     1     -44.805  40.357  26.849  1.00  0.00     0.258 A 
ATOM     26  H   UNL     1     -46.526  39.087  26.375  1.00  0.00     0.071 H 
ATOM     27  C   UNL     1     -43.782  39.725  28.932  1.00  0.00     0.140 A 
ATOM     28  O   UNL     1     -44.935  41.022  25.823  1.00  0.00    -0.269 OA
ATOM     29  N   UNL     1     -43.824  40.549  27.811  1.00  0.00    -0.268 N 
ATOM     30  C   UNL     1     -42.701  39.990  29.924  1.00  0.00    -0.019 A 
ATOM     31  C   UNL     1     -42.893  41.567  27.637  1.00  0.00     0.014 A 
ATOM     32  C   UNL     1     -41.828  40.982  29.712  1.00  0.00    -0.057 A 
ATOM     33  H   UNL     1     -42.661  39.354  30.800  1.00  0.00     0.066 H 
ATOM     34  C   UNL     1     -41.924  41.799  28.532  1.00  0.00    -0.045 A 
ATOM     35  H   UNL     1     -42.984  42.171  26.738  1.00  0.00     0.082 H 
ATOM     36  H   UNL     1     -41.034  41.189  30.423  1.00  0.00     0.062 H 
ATOM     37  H   UNL     1     -41.203  42.596  28.385  1.00  0.00     0.064 H 
ENDBRANCH  20  22
ENDBRANCH  15  18
ENDBRANCH   1  15
BRANCH   6  38
ATOM     38  C   UNL     1     -48.565  29.295  24.399  1.00  0.00     0.036 C 
ATOM     39  H   UNL     1     -49.339  28.944  25.093  1.00  0.00     0.049 H 
ATOM     40  H   UNL     1     -49.000  29.334  23.394  1.00  0.00     0.049 H 
BRANCH  38  41
ATOM     41  N   UNL     1     -47.405  28.408  24.435  1.00  0.00    -0.308 NA
ATOM     42  H   UNL     1     -46.727  28.811  25.083  1.00  0.00     0.123 HD
BRANCH  41  43
ATOM     43  C   UNL     1     -47.754  27.067  24.890  1.00  0.00     0.007 C 
ATOM     44  C   UNL     1     -48.627  27.119  26.145  1.00  0.00    -0.038 C 
ATOM     45  C   UNL     1     -46.568  26.232  25.372  1.00  0.00    -0.038 C 
ATOM     46  H   UNL     1     -48.301  26.527  24.105  1.00  0.00     0.046 H 
ATOM     47  C   UNL     1     -48.548  25.700  26.699  1.00  0.00    -0.052 C 
ATOM     48  H   UNL     1     -49.657  27.419  25.929  1.00  0.00     0.028 H 
ATOM     49  H   UNL     1     -48.218  27.822  26.882  1.00  0.00     0.028 H 
ATOM     50  C   UNL     1     -47.205  25.141  26.229  1.00  0.00    -0.052 C 
ATOM     51  H   UNL     1     -45.890  26.834  25.989  1.00  0.00     0.028 H 
ATOM     52  H   UNL     1     -45.984  25.809  24.547  1.00  0.00     0.028 H 
ATOM     53  H   UNL     1     -48.638  25.689  27.790  1.00  0.00     0.027 H 
ATOM     54  H   UNL     1     -49.365  25.090  26.297  1.00  0.00     0.027 H 
ATOM     55  H   UNL     1     -47.367  24.232  25.637  1.00  0.00     0.027 H 
ATOM     56  H   UNL     1     -46.559  24.873  27.071  1.00  0.00     0.027 H 
ENDBRANCH  41  43
ENDBRANCH  38  41
ENDBRANCH   6  38
TORSDOF 6
ENDMDL
MODEL 2
REMARK VINA RESULT:     -11.5      1.290      1.959
REMARK SMILES O=C(NCc1ccc2cc(CNC3CCCC3)[nH]c2c1)c1cc(=O)n2ccccc2n1
REMARK SMILES IDX 5 1 6 2 7 3 8 4 9 5 10 6 18 7 19 8 20 9 4 15 3 18 1 19 2 20
REMARK SMILES IDX 21 22 22 23 31 24 23 25 30 27 24 28 25 29 29 30 26 31 28 32
REMARK SMILES IDX 27 34 11 38 12 41 13 43 14 44 17 45 15 47 16 50
REMARK H PARENT 6 10 7 11 9 12 18 13 20 14 4 16 4 17 3 21 22 26 29 33 26 35
REMARK H PARENT 28 36 27 37 11 39 11 40 12 42 13 46 14 48 14 49 17 51 17 52
REMARK H PARENT 15 53 15 54 16 55 16 56
REMARK Flexibility Score: inf
ROOT
ATOM      1  C   UNL     1     -48.036  34.394  26.363  1.00  0.00    -0.027 A 
ATOM      2  C   UNL     1     -46.787  34.481  25.734  1.00  0.00    -0.057 A 
ATOM      3  C   UNL     1     -46.290  33.425  24.959  1.00  0.00    -0.052 A 
ATOM      4  C   UNL     1     -47.056  32.253  24.818  1.00  0.00    -0.000 A 
ATOM      5  C   UNL     1     -46.868  31.025  24.125  1.00  0.00    -0.032 A 
ATOM      6  C   UNL     1     -47.975  30.231  24.354  1.00  0.00     0.030 A 
ATOM      7  N   UNL     1     -48.822  30.944  25.169  1.00  0.00    -0.357 N 
ATOM      8  C   UNL     1     -48.290  32.178  25.461  1.00  0.00     0.046 A 
ATOM      9  C   UNL     1     -48.804  33.223  26.239  1.00  0.00    -0.033 A 
ATOM     10  H   UNL     1     -46.183  35.381  25.843  1.00  0.00     0.063 H 
ATOM     11  H   UNL     1     -45.323  33.512  24.472  1.00  0.00     0.063 H 
ATOM     12  H   UNL     1     -46.011  30.753  23.524  1.00  0.00     0.065 H 
ATOM     13  H   UNL     1     -49.726  30.607  25.472  1.00  0.00     0.166 HD
ATOM     14  H   UNL     1     -49.766  33.130  26.734  1.00  0.00     0.065 H 
ENDROOT
BRANCH   1  15
ATOM     15  C   UNL     1     -48.534  35.530  27.217  1.00  0.00     0.043 C 
ATOM     16  H   UNL     1     -48.845  35.167  28.204  1.00  0.00     0.054 H 
ATOM     17  H   UNL     1     -49.411  36.005  26.764  1.00  0.00     0.054 H 
BRANCH  15  18
ATOM     18  N   UNL     1     -47.511  36.527  27.389  1.00  0.00    -0.347 N 
ATOM     19  O   UNL     1     -46.996  35.972  29.555  1.00  0.00    -0.268 OA
ATOM     20  C   UNL     1     -46.830  36.679  28.568  1.00  0.00     0.270 C 
ATOM     21  H   UNL     1     -47.315  37.194  26.648  1.00  0.00     0.164 HD
BRANCH  20  22
ATOM     22  C   UNL     1     -45.846  37.822  28.524  1.00  0.00     0.136 A 
ATOM     23  C   UNL     1     -45.011  37.930  29.560  1.00  0.00     0.035 A 
ATOM     24  N   UNL     1     -45.866  38.672  27.441  1.00  0.00    -0.225 NA
ATOM     25  C   UNL     1     -44.037  39.028  29.557  1.00  0.00     0.258 A 
ATOM     26  H   UNL     1     -45.005  37.255  30.406  1.00  0.00     0.071 H 
ATOM     27  C   UNL     1     -45.004  39.641  27.442  1.00  0.00     0.140 A 
ATOM     28  O   UNL     1     -43.264  39.136  30.507  1.00  0.00    -0.269 OA
ATOM     29  N   UNL     1     -44.078  39.870  28.455  1.00  0.00    -0.268 N 
ATOM     30  C   UNL     1     -44.989  40.585  26.288  1.00  0.00    -0.019 A 
ATOM     31  C   UNL     1     -43.185  40.934  28.380  1.00  0.00     0.014 A 
ATOM     32  C   UNL     1     -44.111  41.595  26.262  1.00  0.00    -0.057 A 
ATOM     33  H   UNL     1     -45.706  40.415  25.495  1.00  0.00     0.066 H 
ATOM     34  C   UNL     1     -43.178  41.778  27.342  1.00  0.00    -0.045 A 
ATOM     35  H   UNL     1     -42.489  41.053  29.208  1.00  0.00     0.082 H 
ATOM     36  H   UNL     1     -44.085  42.292  25.431  1.00  0.00     0.062 H 
ATOM     37  H   UNL     1     -42.477  42.605  27.295  1.00  0.00     0.064 H 
ENDBRANCH  20  22
ENDBRANCH  15  18
ENDBRANCH   1  15
BRANCH   6  38
ATOM     38  C   UNL     1     -48.313  28.856  23.895  1.00  0.00     0.036 C 
ATOM     39  H   UNL     1     -49.266  28.544  24.339  1.00  0.00     0.049 H 
ATOM     40  H   UNL     1     -48.435  28.876  22.806  1.00  0.00     0.049 H 
BRANCH  38  41
ATOM     41  N   UNL     1     -47.241  27.944  24.285  1.00  0.00    -0.308 NA
ATOM     42  H   UNL     1     -46.429  28.509  24.537  1.00  0.00     0.123 HD
BRANCH  41  43
ATOM     43  C   UNL     1     -47.613  27.118  25.429  1.00  0.00     0.007 C 
ATOM     44  C   UNL     1     -46.669  25.925  25.580  1.00  0.00    -0.038 C 
ATOM     45  C   UNL     1     -48.969  26.426  25.297  1.00  0.00    -0.038 C 
ATOM     46  H   UNL     1     -47.581  27.710  26.354  1.00  0.00     0.046 H 
ATOM     47  C   UNL     1     -47.420  24.986  26.518  1.00  0.00    -0.052 C 
ATOM     48  H   UNL     1     -45.691  26.210  25.981  1.00  0.00     0.028 H 
ATOM     49  H   UNL     1     -46.506  25.426  24.616  1.00  0.00     0.028 H 
ATOM     50  C   UNL     1     -48.905  25.285  26.310  1.00  0.00    -0.052 C 
ATOM     51  H   UNL     1     -49.102  26.014  24.289  1.00  0.00     0.028 H 
ATOM     52  H   UNL     1     -49.810  27.097  25.497  1.00  0.00     0.028 H 
ATOM     53  H   UNL     1     -47.180  23.937  26.313  1.00  0.00     0.027 H 
ATOM     54  H   UNL     1     -47.143  25.188  27.559  1.00  0.00     0.027 H 
ATOM     55  H   UNL     1     -49.360  25.588  27.260  1.00  0.00     0.027 H 
ATOM     56  H   UNL     1     -49.450  24.406  25.950  1.00  0.00     0.027 H 
ENDBRANCH  41  43
ENDBRANCH  38  41
ENDBRANCH   6  38
TORSDOF 6
ENDMDL
MODEL 3
REMARK VINA RESULT:     -10.3      2.914     11.391
REMARK SMILES O=C(NCc1ccc2cc(CNC3CCCC3)[nH]c2c1)c1cc(=O)n2ccccc2n1
REMARK SMILES IDX 5 1 6 2 7 3 8 4 9 5 10 6 18 7 19 8 20 9 4 15 3 18 1 19 2 20
REMARK SMILES IDX 21 22 22 23 31 24 23 25 30 27 24 28 25 29 29 30 26 31 28 32
REMARK SMILES IDX 27 34 11 38 12 41 13 43 14 44 17 45 15 47 16 50
REMARK H PARENT 6 10 7 11 9 12 18 13 20 14 4 16 4 17 3 21 22 26 29 33 26 35
REMARK H PARENT 28 36 27 37 11 39 11 40 12 42 13 46 14 48 14 49 17 51 17 52
REMARK H PARENT 15 53 15 54 16 55 16 56
REMARK Flexibility Score: inf
ROOT
ATOM      1  C   UNL     1     -46.771  33.544  25.543  1.00  0.00    -0.027 A 
ATOM      2  C   UNL     1     -48.103  33.834  25.863  1.00  0.00    -0.057 A 
ATOM      3  C   UNL     1     -48.423  34.720  26.901  1.00  0.00    -0.052 A 
ATOM      4  C   UNL     1     -47.387  35.322  27.638  1.00  0.00    -0.000 A 
ATOM      5  C   UNL     1     -47.349  36.244  28.721  1.00  0.00    -0.032 A 
ATOM      6  C   UNL     1     -46.025  36.478  29.036  1.00  0.00     0.030 A 
ATOM      7  N   UNL     1     -45.265  35.720  28.177  1.00  0.00    -0.357 N 
ATOM      8  C   UNL     1     -46.067  35.012  27.314  1.00  0.00     0.046 A 
ATOM      9  C   UNL     1     -45.728  34.130  26.281  1.00  0.00    -0.033 A 
ATOM     10  H   UNL     1     -48.913  33.367  25.304  1.00  0.00     0.063 H 
ATOM     11  H   UNL     1     -49.462  34.938  27.132  1.00  0.00     0.063 H 
ATOM     12  H   UNL     1     -48.203  36.686  29.216  1.00  0.00     0.065 H 
ATOM     13  H   UNL     1     -44.254  35.723  28.170  1.00  0.00     0.166 HD
ATOM     14  H   UNL     1     -44.690  33.904  26.058  1.00  0.00     0.065 H 
ENDROOT
BRANCH   1  15
ATOM     15  C   UNL     1     -46.453  32.564  24.445  1.00  0.00     0.043 C 
ATOM     16  H   UNL     1     -45.371  32.403  24.367  1.00  0.00     0.054 H 
ATOM     17  H   UNL     1     -46.786  32.944  23.472  1.00  0.00     0.054 H 
BRANCH  15  18
ATOM     18  N   UNL     1     -47.094  31.299  24.687  1.00  0.00    -0.347 N 
ATOM     19  O   UNL     1     -48.287  31.256  22.727  1.00  0.00    -0.268 OA
ATOM     20  C   UNL     1     -47.985  30.751  23.802  1.00  0.00     0.270 C 
ATOM     21  H   UNL     1     -46.946  30.809  25.564  1.00  0.00     0.164 HD
BRANCH  20  22
ATOM     22  C   UNL     1     -48.565  29.449  24.298  1.00  0.00     0.136 A 
ATOM     23  C   UNL     1     -49.886  29.300  24.176  1.00  0.00     0.035 A 
ATOM     24  N   UNL     1     -47.716  28.508  24.837  1.00  0.00    -0.225 NA
ATOM     25  C   UNL     1     -50.491  28.048  24.645  1.00  0.00     0.258 A 
ATOM     26  H   UNL     1     -50.543  30.047  23.749  1.00  0.00     0.071 H 
ATOM     27  C   UNL     1     -48.254  27.404  25.250  1.00  0.00     0.140 A 
ATOM     28  O   UNL     1     -51.707  27.901  24.537  1.00  0.00    -0.269 OA
ATOM     29  N   UNL     1     -49.614  27.117  25.184  1.00  0.00    -0.268 N 
ATOM     30  C   UNL     1     -47.372  26.357  25.842  1.00  0.00    -0.019 A 
ATOM     31  C   UNL     1     -50.113  25.905  25.650  1.00  0.00     0.014 A 
ATOM     32  C   UNL     1     -47.900  25.206  26.277  1.00  0.00    -0.057 A 
ATOM     33  H   UNL     1     -46.312  26.571  25.897  1.00  0.00     0.066 H 
ATOM     34  C   UNL     1     -49.316  24.970  26.179  1.00  0.00    -0.045 A 
ATOM     35  H   UNL     1     -51.186  25.749  25.567  1.00  0.00     0.082 H 
ATOM     36  H   UNL     1     -47.274  24.433  26.710  1.00  0.00     0.062 H 
ATOM     37  H   UNL     1     -49.716  24.028  26.540  1.00  0.00     0.064 H 
ENDBRANCH  20  22
ENDBRANCH  15  18
ENDBRANCH   1  15
BRANCH   6  38
ATOM     38  C   UNL     1     -45.398  37.335  30.079  1.00  0.00     0.036 C 
ATOM     39  H   UNL     1     -45.860  37.128  31.052  1.00  0.00     0.049 H 
ATOM     40  H   UNL     1     -44.335  37.077  30.145  1.00  0.00     0.049 H 
BRANCH  38  41
ATOM     41  N   UNL     1     -45.575  38.738  29.715  1.00  0.00    -0.308 NA
ATOM     42  H   UNL     1     -45.110  39.304  30.427  1.00  0.00     0.123 HD
BRANCH  41  43
ATOM     43  C   UNL     1     -44.991  39.045  28.414  1.00  0.00     0.007 C 
ATOM     44  C   UNL     1     -43.871  40.078  28.539  1.00  0.00    -0.038 C 
ATOM     45  C   UNL     1     -45.943  39.737  27.438  1.00  0.00    -0.038 C 
ATOM     46  H   UNL     1     -44.579  38.135  27.956  1.00  0.00     0.046 H 
ATOM     47  C   UNL     1     -43.671  40.571  27.110  1.00  0.00    -0.052 C 
ATOM     48  H   UNL     1     -42.953  39.654  28.960  1.00  0.00     0.028 H 
ATOM     49  H   UNL     1     -44.177  40.917  29.177  1.00  0.00     0.028 H 
ATOM     50  C   UNL     1     -45.018  40.383  26.410  1.00  0.00    -0.052 C 
ATOM     51  H   UNL     1     -46.526  40.515  27.947  1.00  0.00     0.028 H 
ATOM     52  H   UNL     1     -46.648  39.043  26.969  1.00  0.00     0.028 H 
ATOM     53  H   UNL     1     -43.339  41.614  27.088  1.00  0.00     0.027 H 
ATOM     54  H   UNL     1     -42.904  39.971  26.605  1.00  0.00     0.027 H 
ATOM     55  H   UNL     1     -44.896  39.730  25.538  1.00  0.00     0.027 H 
ATOM     56  H   UNL     1     -45.426  41.334  26.053  1.00  0.00     0.027 H 
ENDBRANCH  41  43
ENDBRANCH  38  41
ENDBRANCH   6  38
TORSDOF 6
ENDMDL
MODEL 4
REMARK VINA RESULT:     -10.3      2.131      3.398
REMARK SMILES O=C(NCc1ccc2cc(CNC3CCCC3)[nH]c2c1)c1cc(=O)n2ccccc2n1
REMARK SMILES IDX 5 1 6 2 7 3 8 4 9 5 10 6 18 7 19 8 20 9 4 15 3 18 1 19 2 20
REMARK SMILES IDX 21 22 22 23 31 24 23 25 30 27 24 28 25 29 29 30 26 31 28 32
REMARK SMILES IDX 27 34 11 38 12 41 13 43 14 44 17 45 15 47 16 50
REMARK H PARENT 6 10 7 11 9 12 18 13 20 14 4 16 4 17 3 21 22 26 29 33 26 35
REMARK H PARENT 28 36 27 37 11 39 11 40 12 42 13 46 14 48 14 49 17 51 17 52
REMARK H PARENT 15 53 15 54 16 55 16 56
REMARK Flexibility Score: inf
ROOT
ATOM      1  C   UNL     1     -46.506  35.609  28.328  1.00  0.00    -0.027 A 
ATOM      2  C   UNL     1     -47.854  35.758  27.975  1.00  0.00    -0.057 A 
ATOM      3  C   UNL     1     -48.418  35.006  26.936  1.00  0.00    -0.052 A 
ATOM      4  C   UNL     1     -47.613  34.092  26.231  1.00  0.00    -0.000 A 
ATOM      5  C   UNL     1     -47.849  33.191  25.155  1.00  0.00    -0.032 A 
ATOM      6  C   UNL     1     -46.663  32.540  24.876  1.00  0.00     0.030 A 
ATOM      7  N   UNL     1     -45.720  33.026  25.750  1.00  0.00    -0.357 N 
ATOM      8  C   UNL     1     -46.272  33.967  26.587  1.00  0.00     0.046 A 
ATOM      9  C   UNL     1     -45.691  34.709  27.623  1.00  0.00    -0.033 A 
ATOM     10  H   UNL     1     -48.483  36.468  28.509  1.00  0.00     0.063 H 
ATOM     11  H   UNL     1     -49.466  35.129  26.679  1.00  0.00     0.063 H 
ATOM     12  H   UNL     1     -48.788  33.039  24.641  1.00  0.00     0.065 H 
ATOM     13  H   UNL     1     -44.764  32.698  25.784  1.00  0.00     0.166 HD
ATOM     14  H   UNL     1     -44.640  34.593  27.871  1.00  0.00     0.065 H 
ENDROOT
BRANCH   1  15
ATOM     15  C   UNL     1     -45.915  36.452  29.428  1.00  0.00     0.043 C 
ATOM     16  H   UNL     1     -45.203  35.870  30.024  1.00  0.00     0.054 H 
ATOM     17  H   UNL     1     -46.694  36.800  30.117  1.00  0.00     0.054 H 
BRANCH  15  18
ATOM     18  N   UNL     1     -45.239  37.600  28.885  1.00  0.00    -0.347 N 
ATOM     19  O   UNL     1     -44.361  38.325  30.877  1.00  0.00    -0.268 OA
ATOM     20  C   UNL     1     -44.522  38.464  29.671  1.00  0.00     0.270 C 
ATOM     21  H   UNL     1     -45.335  37.834  27.902  1.00  0.00     0.164 HD
BRANCH  20  22
ATOM     22  C   UNL     1     -43.950  39.619  28.886  1.00  0.00     0.136 A 
ATOM     23  C   UNL     1     -42.909  40.252  29.431  1.00  0.00     0.035 A 
ATOM     24  N   UNL     1     -44.522  39.947  27.677  1.00  0.00    -0.225 NA
ATOM     25  C   UNL     1     -42.320  41.381  28.701  1.00  0.00     0.258 A 
ATOM     26  H   UNL     1     -42.467  39.984  30.382  1.00  0.00     0.071 H 
ATOM     27  C   UNL     1     -44.000  40.945  27.035  1.00  0.00     0.140 A 
ATOM     28  O   UNL     1     -41.361  41.970  29.195  1.00  0.00    -0.269 OA
ATOM     29  N   UNL     1     -42.915  41.691  27.486  1.00  0.00    -0.268 N 
ATOM     30  C   UNL     1     -44.588  41.336  25.722  1.00  0.00    -0.019 A 
ATOM     31  C   UNL     1     -42.413  42.749  26.735  1.00  0.00     0.014 A 
ATOM     32  C   UNL     1     -44.070  42.362  25.036  1.00  0.00    -0.057 A 
ATOM     33  H   UNL     1     -45.432  40.761  25.362  1.00  0.00     0.066 H 
ATOM     34  C   UNL     1     -42.946  43.094  25.557  1.00  0.00    -0.045 A 
ATOM     35  H   UNL     1     -41.564  43.289  27.149  1.00  0.00     0.082 H 
ATOM     36  H   UNL     1     -44.484  42.660  24.079  1.00  0.00     0.062 H 
ATOM     37  H   UNL     1     -42.546  43.922  24.980  1.00  0.00     0.064 H 
ENDBRANCH  20  22
ENDBRANCH  15  18
ENDBRANCH   1  15
BRANCH   6  38
ATOM     38  C   UNL     1     -46.321  31.511  23.857  1.00  0.00     0.036 C 
ATOM     39  H   UNL     1     -46.750  31.796  22.888  1.00  0.00     0.049 H 
ATOM     40  H   UNL     1     -45.231  31.479  23.751  1.00  0.00     0.049 H 
BRANCH  38  41
ATOM     41  N   UNL     1     -46.844  30.217  24.288  1.00  0.00    -0.308 NA
ATOM     42  H   UNL     1     -47.131  30.308  25.263  1.00  0.00     0.123 HD
BRANCH  41  43
ATOM     43  C   UNL     1     -47.994  29.798  23.494  1.00  0.00     0.007 C 
ATOM     44  C   UNL     1     -48.155  28.278  23.514  1.00  0.00    -0.038 C 
ATOM     45  C   UNL     1     -47.868  30.078  21.997  1.00  0.00    -0.038 C 
ATOM     46  H   UNL     1     -48.915  30.253  23.886  1.00  0.00     0.046 H 
ATOM     47  C   UNL     1     -49.101  27.999  22.351  1.00  0.00    -0.052 C 
ATOM     48  H   UNL     1     -48.553  27.909  24.464  1.00  0.00     0.028 H 
ATOM     49  H   UNL     1     -47.196  27.776  23.333  1.00  0.00     0.028 H 
ATOM     50  C   UNL     1     -48.890  29.142  21.356  1.00  0.00    -0.052 C 
ATOM     51  H   UNL     1     -46.863  29.826  21.636  1.00  0.00     0.028 H 
ATOM     52  H   UNL     1     -48.063  31.124  21.743  1.00  0.00     0.028 H 
ATOM     53  H   UNL     1     -48.905  27.021  21.898  1.00  0.00     0.027 H 
ATOM     54  H   UNL     1     -50.141  27.997  22.699  1.00  0.00     0.027 H 
ATOM     55  H   UNL     1     -49.838  29.666  21.186  1.00  0.00     0.027 H 
ATOM     56  H   UNL     1     -48.539  28.777  20.387  1.00  0.00     0.027 H 
ENDBRANCH  41  43
ENDBRANCH  38  41
ENDBRANCH   6  38
TORSDOF 6
ENDMDL
MODEL 5
REMARK VINA RESULT:     -10.3      2.671     11.401
REMARK SMILES O=C(NCc1ccc2cc(CNC3CCCC3)[nH]c2c1)c1cc(=O)n2ccccc2n1
REMARK SMILES IDX 5 1 6 2 7 3 8 4 9 5 10 6 18 7 19 8 20 9 4 15 3 18 1 19 2 20
REMARK SMILES IDX 21 22 22 23 31 24 23 25 30 27 24 28 25 29 29 30 26 31 28 32
REMARK SMILES IDX 27 34 11 38 12 41 13 43 14 44 17 45 15 47 16 50
REMARK H PARENT 6 10 7 11 9 12 18 13 20 14 4 16 4 17 3 21 22 26 29 33 26 35
REMARK H PARENT 28 36 27 37 11 39 11 40 12 42 13 46 14 48 14 49 17 51 17 52
REMARK H PARENT 15 53 15 54 16 55 16 56
REMARK Flexibility Score: inf
ROOT
ATOM      1  C   UNL     1     -48.133  34.138  26.595  1.00  0.00    -0.027 A 
ATOM      2  C   UNL     1     -46.861  33.634  26.896  1.00  0.00    -0.057 A 
ATOM      3  C   UNL     1     -45.830  34.479  27.329  1.00  0.00    -0.052 A 
ATOM      4  C   UNL     1     -46.078  35.859  27.455  1.00  0.00    -0.000 A 
ATOM      5  C   UNL     1     -45.289  36.972  27.859  1.00  0.00    -0.032 A 
ATOM      6  C   UNL     1     -46.077  38.104  27.783  1.00  0.00     0.030 A 
ATOM      7  N   UNL     1     -47.316  37.704  27.342  1.00  0.00    -0.357 N 
ATOM      8  C   UNL     1     -47.345  36.344  27.140  1.00  0.00     0.046 A 
ATOM      9  C   UNL     1     -48.387  35.515  26.706  1.00  0.00    -0.033 A 
ATOM     10  H   UNL     1     -46.657  32.569  26.793  1.00  0.00     0.063 H 
ATOM     11  H   UNL     1     -44.852  34.072  27.564  1.00  0.00     0.063 H 
ATOM     12  H   UNL     1     -44.253  36.945  28.170  1.00  0.00     0.065 H 
ATOM     13  H   UNL     1     -48.100  38.332  27.223  1.00  0.00     0.166 HD
ATOM     14  H   UNL     1     -49.362  35.926  26.461  1.00  0.00     0.065 H 
ENDROOT
BRANCH   1  15
ATOM     15  C   UNL     1     -49.215  33.214  26.101  1.00  0.00     0.043 C 
ATOM     16  H   UNL     1     -49.626  33.570  25.149  1.00  0.00     0.054 H 
ATOM     17  H   UNL     1     -50.050  33.173  26.810  1.00  0.00     0.054 H 
BRANCH  15  18
ATOM     18  N   UNL     1     -48.705  31.881  25.917  1.00  0.00    -0.347 N 
ATOM     19  O   UNL     1     -49.156  31.759  23.671  1.00  0.00    -0.268 OA
ATOM     20  C   UNL     1     -48.735  31.248  24.703  1.00  0.00     0.270 C 
ATOM     21  H   UNL     1     -48.366  31.348  26.712  1.00  0.00     0.164 HD
BRANCH  20  22
ATOM     22  C   UNL     1     -48.194  29.841  24.770  1.00  0.00     0.136 A 
ATOM     23  C   UNL     1     -47.215  29.538  23.915  1.00  0.00     0.035 A 
ATOM     24  N   UNL     1     -48.731  28.969  25.690  1.00  0.00    -0.225 NA
ATOM     25  C   UNL     1     -46.659  28.180  23.947  1.00  0.00     0.258 A 
ATOM     26  H   UNL     1     -46.801  30.233  23.196  1.00  0.00     0.071 H 
ATOM     27  C   UNL     1     -48.237  27.770  25.715  1.00  0.00     0.140 A 
ATOM     28  O   UNL     1     -45.757  27.890  23.163  1.00  0.00    -0.269 OA
ATOM     29  N   UNL     1     -47.217  27.320  24.883  1.00  0.00    -0.268 N 
ATOM     30  C   UNL     1     -48.788  26.791  26.696  1.00  0.00    -0.019 A 
ATOM     31  C   UNL     1     -46.743  26.016  24.974  1.00  0.00     0.014 A 
ATOM     32  C   UNL     1     -48.299  25.546  26.746  1.00  0.00    -0.057 A 
ATOM     33  H   UNL     1     -49.582  27.132  27.349  1.00  0.00     0.066 H 
ATOM     34  C   UNL     1     -47.242  25.143  25.857  1.00  0.00    -0.045 A 
ATOM     35  H   UNL     1     -45.944  25.733  24.292  1.00  0.00     0.082 H 
ATOM     36  H   UNL     1     -48.687  24.821  27.453  1.00  0.00     0.062 H 
ATOM     37  H   UNL     1     -46.864  24.127  25.918  1.00  0.00     0.064 H 
ENDBRANCH  20  22
ENDBRANCH  15  18
ENDBRANCH   1  15
BRANCH   6  38
ATOM     38  C   UNL     1     -45.779  39.533  28.071  1.00  0.00     0.036 C 
ATOM     39  H   UNL     1     -46.600  40.162  27.704  1.00  0.00     0.049 H 
ATOM     40  H   UNL     1     -45.712  39.660  29.157  1.00  0.00     0.049 H 
BRANCH  38  41
ATOM     41  N   UNL     1     -44.523  39.900  27.422  1.00  0.00    -0.308 NA
ATOM     42  H   UNL     1     -44.751  40.447  26.590  1.00  0.00     0.123 HD
BRANCH  41  43
ATOM     43  C   UNL     1     -43.669  40.701  28.292  1.00  0.00     0.007 C 
ATOM     44  C   UNL     1     -42.424  41.189  27.550  1.00  0.00    -0.038 C 
ATOM     45  C   UNL     1     -43.052  39.931  29.460  1.00  0.00    -0.038 C 
ATOM     46  H   UNL     1     -44.219  41.576  28.667  1.00  0.00     0.046 H 
ATOM     47  C   UNL     1     -41.486  41.630  28.668  1.00  0.00    -0.052 C 
ATOM     48  H   UNL     1     -42.643  42.003  26.852  1.00  0.00     0.028 H 
ATOM     49  H   UNL     1     -41.959  40.374  26.981  1.00  0.00     0.028 H 
ATOM     50  C   UNL     1     -41.868  40.793  29.890  1.00  0.00    -0.052 C 
ATOM     51  H   UNL     1     -42.691  38.949  29.132  1.00  0.00     0.028 H 
ATOM     52  H   UNL     1     -43.757  39.772  30.283  1.00  0.00     0.028 H 
ATOM     53  H   UNL     1     -40.436  41.492  28.389  1.00  0.00     0.027 H 
ATOM     54  H   UNL     1     -41.630  42.694  28.887  1.00  0.00     0.027 H 
ATOM     55  H   UNL     1     -42.154  41.453  30.718  1.00  0.00     0.027 H 
ATOM     56  H   UNL     1     -41.034  40.175  30.236  1.00  0.00     0.027 H 
ENDBRANCH  41  43
ENDBRANCH  38  41
ENDBRANCH   6  38
TORSDOF 6
ENDMDL
MODEL 6
REMARK VINA RESULT:     -10.0      1.735      2.869
REMARK SMILES O=C(NCc1ccc2cc(CNC3CCCC3)[nH]c2c1)c1cc(=O)n2ccccc2n1
REMARK SMILES IDX 5 1 6 2 7 3 8 4 9 5 10 6 18 7 19 8 20 9 4 15 3 18 1 19 2 20
REMARK SMILES IDX 21 22 22 23 31 24 23 25 30 27 24 28 25 29 29 30 26 31 28 32
REMARK SMILES IDX 27 34 11 38 12 41 13 43 14 44 17 45 15 47 16 50
REMARK H PARENT 6 10 7 11 9 12 18 13 20 14 4 16 4 17 3 21 22 26 29 33 26 35
REMARK H PARENT 28 36 27 37 11 39 11 40 12 42 13 46 14 48 14 49 17 51 17 52
REMARK H PARENT 15 53 15 54 16 55 16 56
REMARK Flexibility Score: inf
ROOT
ATOM      1  C   UNL     1     -47.933  34.917  26.594  1.00  0.00    -0.027 A 
ATOM      2  C   UNL     1     -46.677  34.893  25.973  1.00  0.00    -0.057 A 
ATOM      3  C   UNL     1     -46.271  33.795  25.203  1.00  0.00    -0.052 A 
ATOM      4  C   UNL     1     -47.137  32.695  25.059  1.00  0.00    -0.000 A 
ATOM      5  C   UNL     1     -47.053  31.453  24.369  1.00  0.00    -0.032 A 
ATOM      6  C   UNL     1     -48.227  30.761  24.592  1.00  0.00     0.030 A 
ATOM      7  N   UNL     1     -49.013  31.548  25.400  1.00  0.00    -0.357 N 
ATOM      8  C   UNL     1     -48.376  32.731  25.694  1.00  0.00     0.046 A 
ATOM      9  C   UNL     1     -48.800  33.819  26.467  1.00  0.00    -0.033 A 
ATOM     10  H   UNL     1     -45.997  35.735  26.085  1.00  0.00     0.063 H 
ATOM     11  H   UNL     1     -45.297  33.795  24.723  1.00  0.00     0.063 H 
ATOM     12  H   UNL     1     -46.219  31.106  23.774  1.00  0.00     0.065 H 
ATOM     13  H   UNL     1     -49.945  31.293  25.698  1.00  0.00     0.166 HD
ATOM     14  H   UNL     1     -49.770  33.813  26.956  1.00  0.00     0.065 H 
ENDROOT
BRANCH   1  15
ATOM     15  C   UNL     1     -48.334  36.095  27.443  1.00  0.00     0.043 C 
ATOM     16  H   UNL     1     -48.512  35.785  28.480  1.00  0.00     0.054 H 
ATOM     17  H   UNL     1     -49.268  36.539  27.081  1.00  0.00     0.054 H 
BRANCH  15  18
ATOM     18  N   UNL     1     -47.312  37.107  27.430  1.00  0.00    -0.347 N 
ATOM     19  O   UNL     1     -46.605  36.762  29.586  1.00  0.00    -0.268 OA
ATOM     20  C   UNL     1     -46.533  37.373  28.525  1.00  0.00     0.270 C 
ATOM     21  H   UNL     1     -47.188  37.700  26.615  1.00  0.00     0.164 HD
BRANCH  20  22
ATOM     22  C   UNL     1     -45.569  38.509  28.288  1.00  0.00     0.136 A 
ATOM     23  C   UNL     1     -45.758  39.228  27.179  1.00  0.00     0.035 A 
ATOM     24  N   UNL     1     -44.571  38.735  29.209  1.00  0.00    -0.225 NA
ATOM     25  C   UNL     1     -44.843  40.344  26.910  1.00  0.00     0.258 A 
ATOM     26  H   UNL     1     -46.547  39.042  26.462  1.00  0.00     0.071 H 
ATOM     27  C   UNL     1     -43.764  39.721  28.967  1.00  0.00     0.140 A 
ATOM     28  O   UNL     1     -45.009  41.012  25.891  1.00  0.00    -0.269 OA
ATOM     29  N   UNL     1     -43.846  40.550  27.853  1.00  0.00    -0.268 N 
ATOM     30  C   UNL     1     -42.668  40.002  29.938  1.00  0.00    -0.019 A 
ATOM     31  C   UNL     1     -42.940  41.589  27.666  1.00  0.00     0.014 A 
ATOM     32  C   UNL     1     -41.821  41.013  29.715  1.00  0.00    -0.057 A 
ATOM     33  H   UNL     1     -42.597  39.362  30.809  1.00  0.00     0.066 H 
ATOM     34  C   UNL     1     -41.959  41.835  28.542  1.00  0.00    -0.045 A 
ATOM     35  H   UNL     1     -43.063  42.197  26.773  1.00  0.00     0.082 H 
ATOM     36  H   UNL     1     -41.017  41.233  30.410  1.00  0.00     0.062 H 
ATOM     37  H   UNL     1     -41.257  42.649  28.386  1.00  0.00     0.064 H 
ENDBRANCH  20  22
ENDBRANCH  15  18
ENDBRANCH   1  15
BRANCH   6  38
ATOM     38  C   UNL     1     -48.682  29.421  24.133  1.00  0.00     0.036 C 
ATOM     39  H   UNL     1     -47.887  28.943  23.547  1.00  0.00     0.049 H 
ATOM     40  H   UNL     1     -48.875  28.800  25.016  1.00  0.00     0.049 H 
BRANCH  38  41
ATOM     41  N   UNL     1     -49.891  29.576  23.327  1.00  0.00    -0.308 NA
ATOM     42  H   UNL     1     -50.579  30.073  23.894  1.00  0.00     0.123 HD
BRANCH  41  43
ATOM     43  C   UNL     1     -49.643  30.338  22.108  1.00  0.00     0.007 C 
ATOM     44  C   UNL     1     -50.927  30.516  21.297  1.00  0.00    -0.038 C 
ATOM     45  C   UNL     1     -48.731  29.642  21.098  1.00  0.00    -0.038 C 
ATOM     46  H   UNL     1     -49.243  31.332  22.354  1.00  0.00     0.046 H 
ATOM     47  C   UNL     1     -50.429  30.946  19.921  1.00  0.00    -0.052 C 
ATOM     48  H   UNL     1     -51.604  31.254  21.738  1.00  0.00     0.028 H 
ATOM     49  H   UNL     1     -51.473  29.568  21.209  1.00  0.00     0.028 H 
ATOM     50  C   UNL     1     -49.026  30.352  19.779  1.00  0.00    -0.052 C 
ATOM     51  H   UNL     1     -48.988  28.579  21.008  1.00  0.00     0.028 H 
ATOM     52  H   UNL     1     -47.672  29.709  21.366  1.00  0.00     0.028 H 
ATOM     53  H   UNL     1     -51.100  30.604  19.126  1.00  0.00     0.027 H 
ATOM     54  H   UNL     1     -50.376  32.039  19.860  1.00  0.00     0.027 H 
ATOM     55  H   UNL     1     -48.299  31.153  19.604  1.00  0.00     0.027 H 
ATOM     56  H   UNL     1     -48.962  29.659  18.934  1.00  0.00     0.027 H 
ENDBRANCH  41  43
ENDBRANCH  38  41
ENDBRANCH   6  38
TORSDOF 6
ENDMDL
MODEL 7
REMARK VINA RESULT:     -10.0      2.417      3.482
REMARK SMILES O=C(NCc1ccc2cc(CNC3CCCC3)[nH]c2c1)c1cc(=O)n2ccccc2n1
REMARK SMILES IDX 5 1 6 2 7 3 8 4 9 5 10 6 18 7 19 8 20 9 4 15 3 18 1 19 2 20
REMARK SMILES IDX 21 22 22 23 31 24 23 25 30 27 24 28 25 29 29 30 26 31 28 32
REMARK SMILES IDX 27 34 11 38 12 41 13 43 14 44 17 45 15 47 16 50
REMARK H PARENT 6 10 7 11 9 12 18 13 20 14 4 16 4 17 3 21 22 26 29 33 26 35
REMARK H PARENT 28 36 27 37 11 39 11 40 12 42 13 46 14 48 14 49 17 51 17 52
REMARK H PARENT 15 53 15 54 16 55 16 56
REMARK Flexibility Score: inf
ROOT
ATOM      1  C   UNL     1     -47.692  35.445  27.183  1.00  0.00    -0.027 A 
ATOM      2  C   UNL     1     -46.405  35.234  26.670  1.00  0.00    -0.057 A 
ATOM      3  C   UNL     1     -46.130  34.154  25.821  1.00  0.00    -0.052 A 
ATOM      4  C   UNL     1     -47.165  33.261  25.485  1.00  0.00    -0.000 A 
ATOM      5  C   UNL     1     -47.241  32.096  24.672  1.00  0.00    -0.032 A 
ATOM      6  C   UNL     1     -48.539  31.627  24.719  1.00  0.00     0.030 A 
ATOM      7  N   UNL     1     -49.245  32.474  25.539  1.00  0.00    -0.357 N 
ATOM      8  C   UNL     1     -48.436  33.478  26.014  1.00  0.00     0.046 A 
ATOM      9  C   UNL     1     -48.729  34.552  26.864  1.00  0.00    -0.033 A 
ATOM     10  H   UNL     1     -45.596  35.915  26.931  1.00  0.00     0.063 H 
ATOM     11  H   UNL     1     -45.129  34.009  25.428  1.00  0.00     0.063 H 
ATOM     12  H   UNL     1     -46.428  31.649  24.115  1.00  0.00     0.065 H 
ATOM     13  H   UNL     1     -50.235  32.378  25.728  1.00  0.00     0.166 HD
ATOM     14  H   UNL     1     -49.728  34.689  27.266  1.00  0.00     0.065 H 
ENDROOT
BRANCH   1  15
ATOM     15  C   UNL     1     -47.954  36.595  28.119  1.00  0.00     0.043 C 
ATOM     16  H   UNL     1     -48.055  36.240  29.152  1.00  0.00     0.054 H 
ATOM     17  H   UNL     1     -48.893  37.100  27.866  1.00  0.00     0.054 H 
BRANCH  15  18
ATOM     18  N   UNL     1     -46.886  37.556  28.060  1.00  0.00    -0.347 N 
ATOM     19  O   UNL     1     -45.936  36.984  30.069  1.00  0.00    -0.268 OA
ATOM     20  C   UNL     1     -45.963  37.685  29.064  1.00  0.00     0.270 C 
ATOM     21  H   UNL     1     -46.832  38.216  27.290  1.00  0.00     0.164 HD
BRANCH  20  22
ATOM     22  C   UNL     1     -44.974  38.794  28.802  1.00  0.00     0.136 A 
ATOM     23  C   UNL     1     -44.039  38.992  29.733  1.00  0.00     0.035 A 
ATOM     24  N   UNL     1     -45.091  39.525  27.640  1.00  0.00    -0.225 NA
ATOM     25  C   UNL     1     -43.056  40.061  29.517  1.00  0.00     0.258 A 
ATOM     26  H   UNL     1     -43.956  38.410  30.642  1.00  0.00     0.071 H 
ATOM     27  C   UNL     1     -44.222  40.469  27.453  1.00  0.00     0.140 A 
ATOM     28  O   UNL     1     -42.191  40.251  30.370  1.00  0.00    -0.269 OA
ATOM     29  N   UNL     1     -43.196  40.782  28.340  1.00  0.00    -0.268 N 
ATOM     30  C   UNL     1     -44.311  41.286  26.209  1.00  0.00    -0.019 A 
ATOM     31  C   UNL     1     -42.302  41.812  28.065  1.00  0.00     0.014 A 
ATOM     32  C   UNL     1     -43.427  42.266  25.989  1.00  0.00    -0.057 A 
ATOM     33  H   UNL     1     -45.106  41.049  25.513  1.00  0.00     0.066 H 
ATOM     34  C   UNL     1     -42.388  42.541  26.946  1.00  0.00    -0.045 A 
ATOM     35  H   UNL     1     -41.526  42.001  28.802  1.00  0.00     0.082 H 
ATOM     36  H   UNL     1     -43.476  42.871  25.089  1.00  0.00     0.062 H 
ATOM     37  H   UNL     1     -41.686  43.342  26.742  1.00  0.00     0.064 H 
ENDBRANCH  20  22
ENDBRANCH  15  18
ENDBRANCH   1  15
BRANCH   6  38
ATOM     38  C   UNL     1     -49.184  30.448  24.078  1.00  0.00     0.036 C 
ATOM     39  H   UNL     1     -49.541  29.758  24.852  1.00  0.00     0.049 H 
ATOM     40  H   UNL     1     -50.051  30.798  23.506  1.00  0.00     0.049 H 
BRANCH  38  41
ATOM     41  N   UNL     1     -48.215  29.786  23.209  1.00  0.00    -0.308 NA
ATOM     42  H   UNL     1     -48.218  28.792  23.442  1.00  0.00     0.123 HD
BRANCH  41  43
ATOM     43  C   UNL     1     -48.548  29.941  21.797  1.00  0.00     0.007 C 
ATOM     44  C   UNL     1     -47.523  30.821  21.080  1.00  0.00    -0.038 C 
ATOM     45  C   UNL     1     -49.848  30.700  21.532  1.00  0.00    -0.038 C 
ATOM     46  H   UNL     1     -48.577  28.961  21.301  1.00  0.00     0.046 H 
ATOM     47  C   UNL     1     -48.221  31.204  19.780  1.00  0.00    -0.052 C 
ATOM     48  H   UNL     1     -46.576  30.301  20.900  1.00  0.00     0.028 H 
ATOM     49  H   UNL     1     -47.305  31.726  21.660  1.00  0.00     0.028 H 
ATOM     50  C   UNL     1     -49.720  31.161  20.081  1.00  0.00    -0.052 C 
ATOM     51  H   UNL     1     -49.930  31.575  22.188  1.00  0.00     0.028 H 
ATOM     52  H   UNL     1     -50.739  30.083  21.683  1.00  0.00     0.028 H 
ATOM     53  H   UNL     1     -47.902  32.191  19.429  1.00  0.00     0.027 H 
ATOM     54  H   UNL     1     -47.980  30.482  18.992  1.00  0.00     0.027 H 
ATOM     55  H   UNL     1     -50.214  30.451  19.408  1.00  0.00     0.027 H 
ATOM     56  H   UNL     1     -50.193  32.137  19.933  1.00  0.00     0.027 H 
ENDBRANCH  41  43
ENDBRANCH  38  41
ENDBRANCH   6  38
TORSDOF 6
ENDMDL
