MODEL 1
REMARK VINA RESULT:     -10.3      0.000      0.000
REMARK SMILES CNc1ccc2ccc(OCc3cccc(-n4cc(Cl)c5c(N)ncnc54)n3)cc2n1
REMARK SMILES IDX 11 1 10 4 9 5 3 6 4 7 31 8 5 9 30 11 6 12 29 14 7 15 8 17
REMARK SMILES IDX 2 20 1 22 12 26 13 27 28 28 14 29 16 31 15 32 17 35 18 36
REMARK SMILES IDX 27 37 19 38 21 40 26 41 20 42 22 43 25 44 24 45 23 47
REMARK H PARENT 11 2 11 3 4 10 5 13 29 16 7 18 8 19 2 21 1 23 1 24 1 25 13 30
REMARK H PARENT 14 33 15 34 18 39 25 46 23 48 23 49
REMARK Flexibility Score: inf
ROOT
ATOM      1  C   UNL     1     -47.215  35.299  26.656  1.00  0.00     0.130 C 
ATOM      2  H   UNL     1     -48.132  35.754  26.261  1.00  0.00     0.078 H 
ATOM      3  H   UNL     1     -46.520  35.259  25.808  1.00  0.00     0.078 H 
ENDROOT
BRANCH   1   4
ATOM      4  O   UNL     1     -47.436  33.946  27.073  1.00  0.00    -0.487 OA
BRANCH   4   5
ATOM      5  C   UNL     1     -47.482  32.968  26.117  1.00  0.00     0.122 A 
ATOM      6  C   UNL     1     -46.338  30.969  21.949  1.00  0.00     0.126 A 
ATOM      7  C   UNL     1     -47.180  29.888  22.180  1.00  0.00    -0.019 A 
ATOM      8  N   UNL     1     -46.210  31.966  22.847  1.00  0.00    -0.231 NA
ATOM      9  C   UNL     1     -47.906  29.827  23.367  1.00  0.00    -0.049 A 
ATOM     10  H   UNL     1     -47.290  29.107  21.435  1.00  0.00     0.066 H 
ATOM     11  C   UNL     1     -46.909  31.917  23.995  1.00  0.00     0.076 A 
ATOM     12  C   UNL     1     -47.780  30.856  24.303  1.00  0.00     0.001 A 
ATOM     13  H   UNL     1     -48.569  28.985  23.545  1.00  0.00     0.063 H 
ATOM     14  C   UNL     1     -46.772  32.949  24.914  1.00  0.00     0.007 A 
ATOM     15  C   UNL     1     -48.492  30.856  25.512  1.00  0.00    -0.049 A 
ATOM     16  H   UNL     1     -46.093  33.749  24.639  1.00  0.00     0.069 H 
ATOM     17  C   UNL     1     -48.343  31.912  26.410  1.00  0.00    -0.019 A 
ATOM     18  H   UNL     1     -49.171  30.041  25.757  1.00  0.00     0.063 H 
ATOM     19  H   UNL     1     -48.903  31.912  27.342  1.00  0.00     0.066 H 
BRANCH   6  20
ATOM     20  N   UNL     1     -45.650  31.019  20.724  1.00  0.00    -0.373 N 
ATOM     21  H   UNL     1     -44.680  31.260  20.899  1.00  0.00     0.161 HD
BRANCH  20  22
ATOM     22  C   UNL     1     -46.259  31.897  19.735  1.00  0.00     0.005 C 
ATOM     23  H   UNL     1     -47.299  31.617  19.535  1.00  0.00     0.045 H 
ATOM     24  H   UNL     1     -46.211  32.947  20.043  1.00  0.00     0.045 H 
ATOM     25  H   UNL     1     -45.709  31.804  18.792  1.00  0.00     0.045 H 
ENDBRANCH  20  22
ENDBRANCH   6  20
ENDBRANCH   4   5
ENDBRANCH   1   4
BRANCH   1  26
ATOM     26  C   UNL     1     -46.581  36.144  27.738  1.00  0.00     0.080 A 
ATOM     27  C   UNL     1     -46.653  35.757  29.070  1.00  0.00    -0.037 A 
ATOM     28  N   UNL     1     -45.971  37.293  27.352  1.00  0.00    -0.232 NA
ATOM     29  C   UNL     1     -46.081  36.579  30.033  1.00  0.00    -0.057 A 
ATOM     30  H   UNL     1     -47.156  34.839  29.356  1.00  0.00     0.064 H 
ATOM     31  C   UNL     1     -45.438  38.109  28.304  1.00  0.00     0.138 A 
ATOM     32  C   UNL     1     -45.467  37.772  29.651  1.00  0.00    -0.019 A 
ATOM     33  H   UNL     1     -46.127  36.304  31.083  1.00  0.00     0.062 H 
ATOM     34  H   UNL     1     -45.056  38.404  30.427  1.00  0.00     0.066 H 
BRANCH  31  35
ATOM     35  N   UNL     1     -44.874  39.341  27.840  1.00  0.00    -0.284 N 
ATOM     36  C   UNL     1     -45.305  39.981  26.686  1.00  0.00     0.032 A 
ATOM     37  C   UNL     1     -43.856  40.115  28.394  1.00  0.00     0.152 A 
ATOM     38  C   UNL     1     -44.599  41.146  26.528  1.00  0.00     0.072 A 
ATOM     39  H   UNL     1     -46.098  39.553  26.088  1.00  0.00     0.084 H 
ATOM     40  C   UNL     1     -43.677  41.246  27.596  1.00  0.00     0.080 A 
ATOM     41  N   UNL     1     -43.145  39.838  29.507  1.00  0.00    -0.218 NA
ATOM     42  Cl  UNL     1     -44.799  42.262  25.260  1.00  0.00    -0.082 Cl
ATOM     43  C   UNL     1     -42.693  42.161  27.999  1.00  0.00     0.137 A 
ATOM     44  C   UNL     1     -42.232  40.777  29.786  1.00  0.00     0.120 A 
ATOM     45  N   UNL     1     -41.968  41.901  29.102  1.00  0.00    -0.219 NA
ATOM     46  H   UNL     1     -41.630  40.610  30.675  1.00  0.00     0.106 H 
BRANCH  43  47
ATOM     47  N   UNL     1     -42.397  43.332  27.322  1.00  0.00    -0.383 N 
ATOM     48  H   UNL     1     -42.572  43.251  26.328  1.00  0.00     0.158 HD
ATOM     49  H   UNL     1     -42.676  44.193  27.777  1.00  0.00     0.158 HD
ENDBRANCH  43  47
ENDBRANCH  31  35
ENDBRANCH   1  26
TORSDOF 7
ENDMDL
MODEL 2
REMARK VINA RESULT:     -10.1      1.523      2.309
REMARK SMILES CNc1ccc2ccc(OCc3cccc(-n4cc(Cl)c5c(N)ncnc54)n3)cc2n1
REMARK SMILES IDX 11 1 10 4 9 5 3 6 4 7 31 8 5 9 30 11 6 12 29 14 7 15 8 17
REMARK SMILES IDX 2 20 1 22 12 26 13 27 28 28 14 29 16 31 15 32 17 35 18 36
REMARK SMILES IDX 27 37 19 38 21 40 26 41 20 42 22 43 25 44 24 45 23 47
REMARK H PARENT 11 2 11 3 4 10 5 13 29 16 7 18 8 19 2 21 1 23 1 24 1 25 13 30
REMARK H PARENT 14 33 15 34 18 39 25 46 23 48 23 49
REMARK Flexibility Score: inf
ROOT
ATOM      1  C   UNL     1     -47.395  35.360  26.598  1.00  0.00     0.130 C 
ATOM      2  H   UNL     1     -48.270  35.889  26.201  1.00  0.00     0.078 H 
ATOM      3  H   UNL     1     -46.704  35.263  25.753  1.00  0.00     0.078 H 
ENDROOT
BRANCH   1   4
ATOM      4  O   UNL     1     -47.728  34.030  27.015  1.00  0.00    -0.487 OA
BRANCH   4   5
ATOM      5  C   UNL     1     -47.567  33.007  26.120  1.00  0.00     0.122 A 
ATOM      6  C   UNL     1     -48.462  28.696  24.307  1.00  0.00     0.126 A 
ATOM      7  C   UNL     1     -47.500  28.859  23.316  1.00  0.00    -0.019 A 
ATOM      8  N   UNL     1     -48.706  29.661  25.215  1.00  0.00    -0.231 NA
ATOM      9  C   UNL     1     -46.776  30.046  23.254  1.00  0.00    -0.049 A 
ATOM     10  H   UNL     1     -47.300  28.061  22.609  1.00  0.00     0.066 H 
ATOM     11  C   UNL     1     -48.009  30.810  25.165  1.00  0.00     0.076 A 
ATOM     12  C   UNL     1     -47.022  31.051  24.192  1.00  0.00     0.001 A 
ATOM     13  H   UNL     1     -46.021  30.171  22.484  1.00  0.00     0.063 H 
ATOM     14  C   UNL     1     -48.267  31.798  26.106  1.00  0.00     0.007 A 
ATOM     15  C   UNL     1     -46.318  32.265  24.187  1.00  0.00    -0.049 A 
ATOM     16  H   UNL     1     -49.033  31.573  26.840  1.00  0.00     0.069 H 
ATOM     17  C   UNL     1     -46.591  33.234  25.152  1.00  0.00    -0.019 A 
ATOM     18  H   UNL     1     -45.550  32.459  23.441  1.00  0.00     0.063 H 
ATOM     19  H   UNL     1     -46.037  34.169  25.149  1.00  0.00     0.066 H 
BRANCH   6  20
ATOM     20  N   UNL     1     -49.147  27.470  24.365  1.00  0.00    -0.373 N 
ATOM     21  H   UNL     1     -49.395  27.184  23.423  1.00  0.00     0.161 HD
BRANCH  20  22
ATOM     22  C   UNL     1     -50.300  27.474  25.254  1.00  0.00     0.005 C 
ATOM     23  H   UNL     1     -50.744  28.472  25.332  1.00  0.00     0.045 H 
ATOM     24  H   UNL     1     -51.061  26.755  24.930  1.00  0.00     0.045 H 
ATOM     25  H   UNL     1     -49.975  27.181  26.258  1.00  0.00     0.045 H 
ENDBRANCH  20  22
ENDBRANCH   6  20
ENDBRANCH   4   5
ENDBRANCH   1   4
BRANCH   1  26
ATOM     26  C   UNL     1     -46.696  36.150  27.682  1.00  0.00     0.080 A 
ATOM     27  C   UNL     1     -46.735  35.725  29.004  1.00  0.00    -0.037 A 
ATOM     28  N   UNL     1     -46.061  37.290  27.309  1.00  0.00    -0.232 NA
ATOM     29  C   UNL     1     -46.103  36.498  29.970  1.00  0.00    -0.057 A 
ATOM     30  H   UNL     1     -47.260  34.815  29.280  1.00  0.00     0.064 H 
ATOM     31  C   UNL     1     -45.469  38.058  28.266  1.00  0.00     0.138 A 
ATOM     32  C   UNL     1     -45.463  37.681  29.602  1.00  0.00    -0.019 A 
ATOM     33  H   UNL     1     -46.123  36.193  31.013  1.00  0.00     0.062 H 
ATOM     34  H   UNL     1     -45.003  38.276  30.382  1.00  0.00     0.066 H 
BRANCH  31  35
ATOM     35  N   UNL     1     -44.878  39.285  27.818  1.00  0.00    -0.284 N 
ATOM     36  C   UNL     1     -45.258  39.921  26.645  1.00  0.00     0.032 A 
ATOM     37  C   UNL     1     -43.881  40.057  28.410  1.00  0.00     0.152 A 
ATOM     38  C   UNL     1     -44.541  41.081  26.508  1.00  0.00     0.072 A 
ATOM     39  H   UNL     1     -46.029  39.493  26.016  1.00  0.00     0.084 H 
ATOM     40  C   UNL     1     -43.663  41.183  27.613  1.00  0.00     0.080 A 
ATOM     41  N   UNL     1     -43.218  39.782  29.552  1.00  0.00    -0.218 NA
ATOM     42  Cl  UNL     1     -44.682  42.190  25.227  1.00  0.00    -0.082 Cl
ATOM     43  C   UNL     1     -42.691  42.094  28.052  1.00  0.00     0.137 A 
ATOM     44  C   UNL     1     -42.311  40.718  29.864  1.00  0.00     0.120 A 
ATOM     45  N   UNL     1     -42.014  41.836  29.185  1.00  0.00    -0.219 NA
ATOM     46  H   UNL     1     -41.747  40.553  30.777  1.00  0.00     0.106 H 
BRANCH  43  47
ATOM     47  N   UNL     1     -42.361  43.260  27.381  1.00  0.00    -0.383 N 
ATOM     48  H   UNL     1     -41.665  43.102  26.663  1.00  0.00     0.158 HD
ATOM     49  H   UNL     1     -43.131  43.878  27.157  1.00  0.00     0.158 HD
ENDBRANCH  43  47
ENDBRANCH  31  35
ENDBRANCH   1  26
TORSDOF 7
ENDMDL
MODEL 3
REMARK VINA RESULT:      -9.7      2.032      3.042
REMARK SMILES CNc1ccc2ccc(OCc3cccc(-n4cc(Cl)c5c(N)ncnc54)n3)cc2n1
REMARK SMILES IDX 11 1 10 4 9 5 3 6 4 7 31 8 5 9 30 11 6 12 29 14 7 15 8 17
REMARK SMILES IDX 2 20 1 22 12 26 13 27 28 28 14 29 16 31 15 32 17 35 18 36
REMARK SMILES IDX 27 37 19 38 21 40 26 41 20 42 22 43 25 44 24 45 23 47
REMARK H PARENT 11 2 11 3 4 10 5 13 29 16 7 18 8 19 2 21 1 23 1 24 1 25 13 30
REMARK H PARENT 14 33 15 34 18 39 25 46 23 48 23 49
REMARK Flexibility Score: inf
ROOT
ATOM      1  C   UNL     1     -46.380  34.649  27.512  1.00  0.00     0.130 C 
ATOM      2  H   UNL     1     -45.622  34.567  26.724  1.00  0.00     0.078 H 
ATOM      3  H   UNL     1     -45.890  34.294  28.427  1.00  0.00     0.078 H 
ENDROOT
BRANCH   1   4
ATOM      4  O   UNL     1     -47.488  33.772  27.269  1.00  0.00    -0.487 OA
BRANCH   4   5
ATOM      5  C   UNL     1     -47.397  32.878  26.237  1.00  0.00     0.122 A 
ATOM      6  C   UNL     1     -48.469  28.860  23.918  1.00  0.00     0.126 A 
ATOM      7  C   UNL     1     -47.564  29.146  22.902  1.00  0.00    -0.019 A 
ATOM      8  N   UNL     1     -48.644  29.695  24.961  1.00  0.00    -0.231 NA
ATOM      9  C   UNL     1     -46.824  30.324  22.957  1.00  0.00    -0.049 A 
ATOM     10  H   UNL     1     -47.418  28.449  22.084  1.00  0.00     0.066 H 
ATOM     11  C   UNL     1     -47.931  30.834  25.023  1.00  0.00     0.076 A 
ATOM     12  C   UNL     1     -46.998  31.195  24.035  1.00  0.00     0.001 A 
ATOM     13  H   UNL     1     -46.112  30.545  22.167  1.00  0.00     0.063 H 
ATOM     14  C   UNL     1     -48.117  31.689  26.103  1.00  0.00     0.007 A 
ATOM     15  C   UNL     1     -46.274  32.392  24.151  1.00  0.00    -0.049 A 
ATOM     16  H   UNL     1     -48.843  31.374  26.844  1.00  0.00     0.069 H 
ATOM     17  C   UNL     1     -46.474  33.224  25.251  1.00  0.00    -0.019 A 
ATOM     18  H   UNL     1     -45.548  32.678  23.393  1.00  0.00     0.063 H 
ATOM     19  H   UNL     1     -45.905  34.146  25.342  1.00  0.00     0.066 H 
BRANCH   6  20
ATOM     20  N   UNL     1     -49.171  27.643  23.852  1.00  0.00    -0.373 N 
ATOM     21  H   UNL     1     -49.472  27.487  22.895  1.00  0.00     0.161 HD
BRANCH  20  22
ATOM     22  C   UNL     1     -50.276  27.542  24.794  1.00  0.00     0.005 C 
ATOM     23  H   UNL     1     -50.381  26.523  25.181  1.00  0.00     0.045 H 
ATOM     24  H   UNL     1     -50.163  28.245  25.626  1.00  0.00     0.045 H 
ATOM     25  H   UNL     1     -51.208  27.791  24.276  1.00  0.00     0.045 H 
ENDBRANCH  20  22
ENDBRANCH   6  20
ENDBRANCH   4   5
ENDBRANCH   1   4
BRANCH   1  26
ATOM     26  C   UNL     1     -46.812  36.080  27.740  1.00  0.00     0.080 A 
ATOM     27  C   UNL     1     -48.159  36.418  27.758  1.00  0.00    -0.037 A 
ATOM     28  N   UNL     1     -45.833  37.007  27.898  1.00  0.00    -0.232 NA
ATOM     29  C   UNL     1     -48.508  37.750  27.942  1.00  0.00    -0.057 A 
ATOM     30  H   UNL     1     -48.924  35.661  27.618  1.00  0.00     0.064 H 
ATOM     31  C   UNL     1     -46.182  38.315  28.049  1.00  0.00     0.138 A 
ATOM     32  C   UNL     1     -47.511  38.715  28.087  1.00  0.00    -0.019 A 
ATOM     33  H   UNL     1     -49.554  38.044  27.955  1.00  0.00     0.062 H 
ATOM     34  H   UNL     1     -47.814  39.748  28.202  1.00  0.00     0.066 H 
BRANCH  31  35
ATOM     35  N   UNL     1     -45.102  39.253  28.138  1.00  0.00    -0.284 N 
ATOM     36  C   UNL     1     -44.175  39.240  29.170  1.00  0.00     0.032 A 
ATOM     37  C   UNL     1     -44.761  40.297  27.280  1.00  0.00     0.152 A 
ATOM     38  C   UNL     1     -43.252  40.232  28.959  1.00  0.00     0.072 A 
ATOM     39  H   UNL     1     -44.246  38.504  29.960  1.00  0.00     0.084 H 
ATOM     40  C   UNL     1     -43.608  40.912  27.771  1.00  0.00     0.080 A 
ATOM     41  N   UNL     1     -45.420  40.674  26.165  1.00  0.00    -0.218 NA
ATOM     42  Cl  UNL     1     -41.924  40.581  29.962  1.00  0.00    -0.082 Cl
ATOM     43  C   UNL     1     -43.099  41.991  27.032  1.00  0.00     0.137 A 
ATOM     44  C   UNL     1     -44.846  41.717  25.551  1.00  0.00     0.120 A 
ATOM     45  N   UNL     1     -43.744  42.387  25.920  1.00  0.00    -0.219 NA
ATOM     46  H   UNL     1     -45.331  42.064  24.643  1.00  0.00     0.106 H 
BRANCH  43  47
ATOM     47  N   UNL     1     -41.963  42.702  27.380  1.00  0.00    -0.383 N 
ATOM     48  H   UNL     1     -41.580  43.215  26.595  1.00  0.00     0.158 HD
ATOM     49  H   UNL     1     -41.987  43.171  28.277  1.00  0.00     0.158 HD
ENDBRANCH  43  47
ENDBRANCH  31  35
ENDBRANCH   1  26
TORSDOF 7
ENDMDL
MODEL 4
REMARK VINA RESULT:      -9.5      2.070      3.590
REMARK SMILES CNc1ccc2ccc(OCc3cccc(-n4cc(Cl)c5c(N)ncnc54)n3)cc2n1
REMARK SMILES IDX 11 1 10 4 9 5 3 6 4 7 31 8 5 9 30 11 6 12 29 14 7 15 8 17
REMARK SMILES IDX 2 20 1 22 12 26 13 27 28 28 14 29 16 31 15 32 17 35 18 36
REMARK SMILES IDX 27 37 19 38 21 40 26 41 20 42 22 43 25 44 24 45 23 47
REMARK H PARENT 11 2 11 3 4 10 5 13 29 16 7 18 8 19 2 21 1 23 1 24 1 25 13 30
REMARK H PARENT 14 33 15 34 18 39 25 46 23 48 23 49
REMARK Flexibility Score: inf
ROOT
ATOM      1  C   UNL     1     -46.057  37.660  28.822  1.00  0.00     0.130 C 
ATOM      2  H   UNL     1     -45.656  36.674  29.084  1.00  0.00     0.078 H 
ATOM      3  H   UNL     1     -46.774  37.905  29.616  1.00  0.00     0.078 H 
ENDROOT
BRANCH   1   4
ATOM      4  O   UNL     1     -46.797  37.619  27.595  1.00  0.00    -0.487 OA
BRANCH   4   5
ATOM      5  C   UNL     1     -47.200  36.401  27.119  1.00  0.00     0.122 A 
ATOM      6  C   UNL     1     -46.609  32.258  24.847  1.00  0.00     0.126 A 
ATOM      7  C   UNL     1     -47.939  31.903  25.044  1.00  0.00    -0.019 A 
ATOM      8  N   UNL     1     -46.117  33.426  25.304  1.00  0.00    -0.231 NA
ATOM      9  C   UNL     1     -48.783  32.769  25.735  1.00  0.00    -0.049 A 
ATOM     10  H   UNL     1     -48.323  30.970  24.647  1.00  0.00     0.066 H 
ATOM     11  C   UNL     1     -46.926  34.270  25.970  1.00  0.00     0.076 A 
ATOM     12  C   UNL     1     -48.282  33.982  26.211  1.00  0.00     0.001 A 
ATOM     13  H   UNL     1     -49.823  32.495  25.884  1.00  0.00     0.063 H 
ATOM     14  C   UNL     1     -46.411  35.473  26.436  1.00  0.00     0.007 A 
ATOM     15  C   UNL     1     -49.085  34.901  26.905  1.00  0.00    -0.049 A 
ATOM     16  H   UNL     1     -45.362  35.659  26.228  1.00  0.00     0.069 H 
ATOM     17  C   UNL     1     -48.543  36.105  27.351  1.00  0.00    -0.019 A 
ATOM     18  H   UNL     1     -50.135  34.688  27.093  1.00  0.00     0.063 H 
ATOM     19  H   UNL     1     -49.171  36.817  27.880  1.00  0.00     0.066 H 
BRANCH   6  20
ATOM     20  N   UNL     1     -45.794  31.379  24.112  1.00  0.00    -0.373 N 
ATOM     21  H   UNL     1     -44.849  31.748  24.085  1.00  0.00     0.161 HD
BRANCH  20  22
ATOM     22  C   UNL     1     -46.297  31.073  22.781  1.00  0.00     0.005 C 
ATOM     23  H   UNL     1     -47.372  31.269  22.702  1.00  0.00     0.045 H 
ATOM     24  H   UNL     1     -45.760  31.634  22.008  1.00  0.00     0.045 H 
ATOM     25  H   UNL     1     -46.145  30.007  22.581  1.00  0.00     0.045 H 
ENDBRANCH  20  22
ENDBRANCH   6  20
ENDBRANCH   4   5
ENDBRANCH   1   4
BRANCH   1  26
ATOM     26  C   UNL     1     -44.985  38.727  28.818  1.00  0.00     0.080 A 
ATOM     27  C   UNL     1     -43.994  38.737  29.790  1.00  0.00    -0.037 A 
ATOM     28  N   UNL     1     -45.054  39.673  27.847  1.00  0.00    -0.232 NA
ATOM     29  C   UNL     1     -43.046  39.753  29.763  1.00  0.00    -0.057 A 
ATOM     30  H   UNL     1     -43.966  37.976  30.564  1.00  0.00     0.064 H 
ATOM     31  C   UNL     1     -44.139  40.683  27.844  1.00  0.00     0.138 A 
ATOM     32  C   UNL     1     -43.117  40.742  28.782  1.00  0.00    -0.019 A 
ATOM     33  H   UNL     1     -42.262  39.789  30.515  1.00  0.00     0.062 H 
ATOM     34  H   UNL     1     -42.380  41.535  28.804  1.00  0.00     0.066 H 
BRANCH  31  35
ATOM     35  N   UNL     1     -44.309  41.690  26.839  1.00  0.00    -0.284 N 
ATOM     36  C   UNL     1     -45.555  42.121  26.406  1.00  0.00     0.032 A 
ATOM     37  C   UNL     1     -43.347  42.408  26.132  1.00  0.00     0.152 A 
ATOM     38  C   UNL     1     -45.390  43.108  25.469  1.00  0.00     0.072 A 
ATOM     39  H   UNL     1     -46.457  41.694  26.825  1.00  0.00     0.084 H 
ATOM     40  C   UNL     1     -44.001  43.301  25.281  1.00  0.00     0.080 A 
ATOM     41  N   UNL     1     -42.008  42.278  26.229  1.00  0.00    -0.218 NA
ATOM     42  Cl  UNL     1     -46.641  43.940  24.673  1.00  0.00    -0.082 Cl
ATOM     43  C   UNL     1     -43.194  44.128  24.484  1.00  0.00     0.137 A 
ATOM     44  C   UNL     1     -41.345  43.111  25.417  1.00  0.00     0.120 A 
ATOM     45  N   UNL     1     -41.856  44.009  24.561  1.00  0.00    -0.219 NA
ATOM     46  H   UNL     1     -40.261  43.054  25.453  1.00  0.00     0.106 H 
BRANCH  43  47
ATOM     47  N   UNL     1     -43.686  45.069  23.596  1.00  0.00    -0.383 N 
ATOM     48  H   UNL     1     -43.427  44.861  22.639  1.00  0.00     0.158 HD
ATOM     49  H   UNL     1     -44.631  45.390  23.764  1.00  0.00     0.158 HD
ENDBRANCH  43  47
ENDBRANCH  31  35
ENDBRANCH   1  26
TORSDOF 7
ENDMDL
MODEL 5
REMARK VINA RESULT:      -9.5      2.572      4.263
REMARK SMILES CNc1ccc2ccc(OCc3cccc(-n4cc(Cl)c5c(N)ncnc54)n3)cc2n1
REMARK SMILES IDX 11 1 10 4 9 5 3 6 4 7 31 8 5 9 30 11 6 12 29 14 7 15 8 17
REMARK SMILES IDX 2 20 1 22 12 26 13 27 28 28 14 29 16 31 15 32 17 35 18 36
REMARK SMILES IDX 27 37 19 38 21 40 26 41 20 42 22 43 25 44 24 45 23 47
REMARK H PARENT 11 2 11 3 4 10 5 13 29 16 7 18 8 19 2 21 1 23 1 24 1 25 13 30
REMARK H PARENT 14 33 15 34 18 39 25 46 23 48 23 49
REMARK Flexibility Score: inf
ROOT
ATOM      1  C   UNL     1     -48.398  39.444  28.102  1.00  0.00     0.130 C 
ATOM      2  H   UNL     1     -48.614  39.574  29.169  1.00  0.00     0.078 H 
ATOM      3  H   UNL     1     -49.297  38.982  27.675  1.00  0.00     0.078 H 
ENDROOT
BRANCH   1   4
ATOM      4  O   UNL     1     -47.320  38.523  27.892  1.00  0.00    -0.487 OA
BRANCH   4   5
ATOM      5  C   UNL     1     -47.618  37.261  27.453  1.00  0.00     0.122 A 
ATOM      6  C   UNL     1     -46.739  33.187  25.151  1.00  0.00     0.126 A 
ATOM      7  C   UNL     1     -47.998  32.684  25.458  1.00  0.00    -0.019 A 
ATOM      8  N   UNL     1     -46.350  34.409  25.563  1.00  0.00    -0.231 NA
ATOM      9  C   UNL     1     -48.877  33.455  26.214  1.00  0.00    -0.049 A 
ATOM     10  H   UNL     1     -48.303  31.708  25.097  1.00  0.00     0.066 H 
ATOM     11  C   UNL     1     -47.194  35.163  26.291  1.00  0.00     0.076 A 
ATOM     12  C   UNL     1     -48.483  34.723  26.644  1.00  0.00     0.001 A 
ATOM     13  H   UNL     1     -49.863  33.065  26.449  1.00  0.00     0.063 H 
ATOM     14  C   UNL     1     -46.785  36.422  26.710  1.00  0.00     0.007 A 
ATOM     15  C   UNL     1     -49.328  35.551  27.399  1.00  0.00    -0.049 A 
ATOM     16  H   UNL     1     -45.786  36.725  26.415  1.00  0.00     0.069 H 
ATOM     17  C   UNL     1     -48.893  36.815  27.797  1.00  0.00    -0.019 A 
ATOM     18  H   UNL     1     -50.327  35.222  27.675  1.00  0.00     0.063 H 
ATOM     19  H   UNL     1     -49.554  37.456  28.374  1.00  0.00     0.066 H 
BRANCH   6  20
ATOM     20  N   UNL     1     -45.891  32.399  24.353  1.00  0.00    -0.373 N 
ATOM     21  H   UNL     1     -45.502  32.975  23.614  1.00  0.00     0.161 HD
BRANCH  20  22
ATOM     22  C   UNL     1     -46.515  31.192  23.831  1.00  0.00     0.005 C 
ATOM     23  H   UNL     1     -46.908  31.348  22.821  1.00  0.00     0.045 H 
ATOM     24  H   UNL     1     -45.820  30.345  23.832  1.00  0.00     0.045 H 
ATOM     25  H   UNL     1     -47.362  30.925  24.472  1.00  0.00     0.045 H 
ENDBRANCH  20  22
ENDBRANCH   6  20
ENDBRANCH   4   5
ENDBRANCH   1   4
BRANCH   1  26
ATOM     26  C   UNL     1     -48.176  40.766  27.402  1.00  0.00     0.080 A 
ATOM     27  C   UNL     1     -49.247  41.602  27.114  1.00  0.00    -0.037 A 
ATOM     28  N   UNL     1     -46.902  41.078  27.052  1.00  0.00    -0.232 NA
ATOM     29  C   UNL     1     -48.999  42.794  26.444  1.00  0.00    -0.057 A 
ATOM     30  H   UNL     1     -50.259  41.326  27.394  1.00  0.00     0.064 H 
ATOM     31  C   UNL     1     -46.670  42.234  26.369  1.00  0.00     0.138 A 
ATOM     32  C   UNL     1     -47.697  43.117  26.062  1.00  0.00    -0.019 A 
ATOM     33  H   UNL     1     -49.818  43.465  26.201  1.00  0.00     0.062 H 
ATOM     34  H   UNL     1     -47.540  44.040  25.518  1.00  0.00     0.066 H 
BRANCH  31  35
ATOM     35  N   UNL     1     -45.316  42.471  25.965  1.00  0.00    -0.284 N 
ATOM     36  C   UNL     1     -44.984  43.107  24.777  1.00  0.00     0.032 A 
ATOM     37  C   UNL     1     -44.127  42.150  26.616  1.00  0.00     0.152 A 
ATOM     38  C   UNL     1     -43.620  43.214  24.689  1.00  0.00     0.072 A 
ATOM     39  H   UNL     1     -45.760  43.448  24.104  1.00  0.00     0.084 H 
ATOM     40  C   UNL     1     -43.061  42.612  25.841  1.00  0.00     0.080 A 
ATOM     41  N   UNL     1     -43.999  41.499  27.790  1.00  0.00    -0.218 NA
ATOM     42  Cl  UNL     1     -42.762  43.936  23.412  1.00  0.00    -0.082 Cl
ATOM     43  C   UNL     1     -41.769  42.389  26.340  1.00  0.00     0.137 A 
ATOM     44  C   UNL     1     -42.721  41.338  28.158  1.00  0.00     0.120 A 
ATOM     45  N   UNL     1     -41.619  41.737  27.506  1.00  0.00    -0.219 NA
ATOM     46  H   UNL     1     -42.555  40.823  29.100  1.00  0.00     0.106 H 
BRANCH  43  47
ATOM     47  N   UNL     1     -40.609  42.791  25.697  1.00  0.00    -0.383 N 
ATOM     48  H   UNL     1     -39.945  43.209  26.337  1.00  0.00     0.158 HD
ATOM     49  H   UNL     1     -40.247  42.158  24.995  1.00  0.00     0.158 HD
ENDBRANCH  43  47
ENDBRANCH  31  35
ENDBRANCH   1  26
TORSDOF 7
ENDMDL
MODEL 6
REMARK VINA RESULT:      -9.4      2.556      4.679
REMARK SMILES CNc1ccc2ccc(OCc3cccc(-n4cc(Cl)c5c(N)ncnc54)n3)cc2n1
REMARK SMILES IDX 11 1 10 4 9 5 3 6 4 7 31 8 5 9 30 11 6 12 29 14 7 15 8 17
REMARK SMILES IDX 2 20 1 22 12 26 13 27 28 28 14 29 16 31 15 32 17 35 18 36
REMARK SMILES IDX 27 37 19 38 21 40 26 41 20 42 22 43 25 44 24 45 23 47
REMARK H PARENT 11 2 11 3 4 10 5 13 29 16 7 18 8 19 2 21 1 23 1 24 1 25 13 30
REMARK H PARENT 14 33 15 34 18 39 25 46 23 48 23 49
REMARK Flexibility Score: inf
ROOT
ATOM      1  C   UNL     1     -45.240  38.602  28.856  1.00  0.00     0.130 C 
ATOM      2  H   UNL     1     -44.825  37.619  29.109  1.00  0.00     0.078 H 
ATOM      3  H   UNL     1     -45.896  38.867  29.693  1.00  0.00     0.078 H 
ENDROOT
BRANCH   1   4
ATOM      4  O   UNL     1     -46.067  38.538  27.687  1.00  0.00    -0.487 OA
BRANCH   4   5
ATOM      5  C   UNL     1     -46.638  37.339  27.357  1.00  0.00     0.122 A 
ATOM      6  C   UNL     1     -46.673  32.954  25.502  1.00  0.00     0.126 A 
ATOM      7  C   UNL     1     -48.021  32.787  25.794  1.00  0.00    -0.019 A 
ATOM      8  N   UNL     1     -46.021  34.091  25.813  1.00  0.00    -0.231 NA
ATOM      9  C   UNL     1     -48.716  33.814  26.429  1.00  0.00    -0.049 A 
ATOM     10  H   UNL     1     -48.536  31.875  25.513  1.00  0.00     0.066 H 
ATOM     11  C   UNL     1     -46.685  35.090  26.423  1.00  0.00     0.076 A 
ATOM     12  C   UNL     1     -48.049  34.996  26.754  1.00  0.00     0.001 A 
ATOM     13  H   UNL     1     -49.771  33.686  26.652  1.00  0.00     0.063 H 
ATOM     14  C   UNL     1     -46.004  36.259  26.739  1.00  0.00     0.007 A 
ATOM     15  C   UNL     1     -48.697  36.070  27.384  1.00  0.00    -0.049 A 
ATOM     16  H   UNL     1     -44.955  36.293  26.466  1.00  0.00     0.069 H 
ATOM     17  C   UNL     1     -47.991  37.235  27.679  1.00  0.00    -0.019 A 
ATOM     18  H   UNL     1     -49.752  36.008  27.641  1.00  0.00     0.063 H 
ATOM     19  H   UNL     1     -48.499  38.067  28.160  1.00  0.00     0.066 H 
BRANCH   6  20
ATOM     20  N   UNL     1     -46.011  31.914  24.825  1.00  0.00    -0.373 N 
ATOM     21  H   UNL     1     -45.125  32.260  24.472  1.00  0.00     0.161 HD
BRANCH  20  22
ATOM     22  C   UNL     1     -46.805  31.282  23.782  1.00  0.00     0.005 C 
ATOM     23  H   UNL     1     -47.374  30.431  24.169  1.00  0.00     0.045 H 
ATOM     24  H   UNL     1     -47.485  31.997  23.304  1.00  0.00     0.045 H 
ATOM     25  H   UNL     1     -46.132  30.899  23.007  1.00  0.00     0.045 H 
ENDBRANCH  20  22
ENDBRANCH   6  20
ENDBRANCH   4   5
ENDBRANCH   1   4
BRANCH   1  26
ATOM     26  C   UNL     1     -44.167  39.662  28.751  1.00  0.00     0.080 A 
ATOM     27  C   UNL     1     -43.190  39.779  29.731  1.00  0.00    -0.037 A 
ATOM     28  N   UNL     1     -44.220  40.497  27.682  1.00  0.00    -0.232 NA
ATOM     29  C   UNL     1     -42.242  40.787  29.607  1.00  0.00    -0.057 A 
ATOM     30  H   UNL     1     -43.174  39.107  30.583  1.00  0.00     0.064 H 
ATOM     31  C   UNL     1     -43.305  41.500  27.582  1.00  0.00     0.138 A 
ATOM     32  C   UNL     1     -42.296  41.662  28.523  1.00  0.00    -0.019 A 
ATOM     33  H   UNL     1     -41.469  40.905  30.362  1.00  0.00     0.062 H 
ATOM     34  H   UNL     1     -41.560  42.454  28.469  1.00  0.00     0.066 H 
BRANCH  31  35
ATOM     35  N   UNL     1     -43.459  42.391  26.470  1.00  0.00    -0.284 N 
ATOM     36  C   UNL     1     -42.523  42.492  25.450  1.00  0.00     0.032 A 
ATOM     37  C   UNL     1     -44.494  43.278  26.180  1.00  0.00     0.152 A 
ATOM     38  C   UNL     1     -42.967  43.398  24.521  1.00  0.00     0.072 A 
ATOM     39  H   UNL     1     -41.627  41.887  25.468  1.00  0.00     0.084 H 
ATOM     40  C   UNL     1     -44.209  43.907  24.967  1.00  0.00     0.080 A 
ATOM     41  N   UNL     1     -45.591  43.512  26.930  1.00  0.00    -0.218 NA
ATOM     42  Cl  UNL     1     -42.153  43.834  23.093  1.00  0.00    -0.082 Cl
ATOM     43  C   UNL     1     -45.148  44.839  24.498  1.00  0.00     0.137 A 
ATOM     44  C   UNL     1     -46.407  44.423  26.385  1.00  0.00     0.120 A 
ATOM     45  N   UNL     1     -46.245  45.091  25.233  1.00  0.00    -0.219 NA
ATOM     46  H   UNL     1     -47.310  44.651  26.943  1.00  0.00     0.106 H 
BRANCH  43  47
ATOM     47  N   UNL     1     -45.017  45.542  23.312  1.00  0.00    -0.383 N 
ATOM     48  H   UNL     1     -45.801  46.162  23.149  1.00  0.00     0.158 HD
ATOM     49  H   UNL     1     -44.092  45.894  23.102  1.00  0.00     0.158 HD
ENDBRANCH  43  47
ENDBRANCH  31  35
ENDBRANCH   1  26
TORSDOF 7
ENDMDL
MODEL 7
REMARK VINA RESULT:      -9.3      1.909      2.970
REMARK SMILES CNc1ccc2ccc(OCc3cccc(-n4cc(Cl)c5c(N)ncnc54)n3)cc2n1
REMARK SMILES IDX 11 1 10 4 9 5 3 6 4 7 31 8 5 9 30 11 6 12 29 14 7 15 8 17
REMARK SMILES IDX 2 20 1 22 12 26 13 27 28 28 14 29 16 31 15 32 17 35 18 36
REMARK SMILES IDX 27 37 19 38 21 40 26 41 20 42 22 43 25 44 24 45 23 47
REMARK H PARENT 11 2 11 3 4 10 5 13 29 16 7 18 8 19 2 21 1 23 1 24 1 25 13 30
REMARK H PARENT 14 33 15 34 18 39 25 46 23 48 23 49
REMARK Flexibility Score: inf
ROOT
ATOM      1  C   UNL     1     -46.781  36.364  28.447  1.00  0.00     0.130 C 
ATOM      2  H   UNL     1     -46.582  35.379  28.887  1.00  0.00     0.078 H 
ATOM      3  H   UNL     1     -47.747  36.680  28.860  1.00  0.00     0.078 H 
ENDROOT
BRANCH   1   4
ATOM      4  O   UNL     1     -46.946  36.282  27.026  1.00  0.00    -0.487 OA
BRANCH   4   5
ATOM      5  C   UNL     1     -47.310  35.081  26.481  1.00  0.00     0.122 A 
ATOM      6  C   UNL     1     -46.621  31.145  23.892  1.00  0.00     0.126 A 
ATOM      7  C   UNL     1     -47.920  30.706  24.121  1.00  0.00    -0.019 A 
ATOM      8  N   UNL     1     -46.167  32.302  24.410  1.00  0.00    -0.231 NA
ATOM      9  C   UNL     1     -48.773  31.475  24.909  1.00  0.00    -0.049 A 
ATOM     10  H   UNL     1     -48.275  29.784  23.675  1.00  0.00     0.066 H 
ATOM     11  C   UNL     1     -46.985  33.053  25.170  1.00  0.00     0.076 A 
ATOM     12  C   UNL     1     -48.311  32.677  25.449  1.00  0.00     0.001 A 
ATOM     13  H   UNL     1     -49.789  31.136  25.083  1.00  0.00     0.063 H 
ATOM     14  C   UNL     1     -46.509  34.246  25.699  1.00  0.00     0.007 A 
ATOM     15  C   UNL     1     -49.126  33.500  26.242  1.00  0.00    -0.049 A 
ATOM     16  H   UNL     1     -45.482  34.502  25.458  1.00  0.00     0.069 H 
ATOM     17  C   UNL     1     -48.623  34.698  26.750  1.00  0.00    -0.019 A 
ATOM     18  H   UNL     1     -50.153  33.219  26.461  1.00  0.00     0.063 H 
ATOM     19  H   UNL     1     -49.261  35.336  27.357  1.00  0.00     0.066 H 
BRANCH   6  20
ATOM     20  N   UNL     1     -45.799  30.364  23.059  1.00  0.00    -0.373 N 
ATOM     21  H   UNL     1     -45.783  30.774  22.131  1.00  0.00     0.161 HD
BRANCH  20  22
ATOM     22  C   UNL     1     -46.154  28.953  23.025  1.00  0.00     0.005 C 
ATOM     23  H   UNL     1     -47.180  28.806  22.669  1.00  0.00     0.045 H 
ATOM     24  H   UNL     1     -45.460  28.377  22.404  1.00  0.00     0.045 H 
ATOM     25  H   UNL     1     -46.101  28.549  24.042  1.00  0.00     0.045 H 
ENDBRANCH  20  22
ENDBRANCH   6  20
ENDBRANCH   4   5
ENDBRANCH   1   4
BRANCH   1  26
ATOM     26  C   UNL     1     -45.744  37.388  28.853  1.00  0.00     0.080 A 
ATOM     27  C   UNL     1     -45.038  37.247  30.040  1.00  0.00    -0.037 A 
ATOM     28  N   UNL     1     -45.560  38.448  28.025  1.00  0.00    -0.232 NA
ATOM     29  C   UNL     1     -44.115  38.227  30.385  1.00  0.00    -0.057 A 
ATOM     30  H   UNL     1     -45.210  36.396  30.692  1.00  0.00     0.064 H 
ATOM     31  C   UNL     1     -44.675  39.419  28.384  1.00  0.00     0.138 A 
ATOM     32  C   UNL     1     -43.930  39.330  29.552  1.00  0.00    -0.019 A 
ATOM     33  H   UNL     1     -43.552  38.145  31.311  1.00  0.00     0.062 H 
ATOM     34  H   UNL     1     -43.224  40.090  29.862  1.00  0.00     0.066 H 
BRANCH  31  35
ATOM     35  N   UNL     1     -44.580  40.546  27.504  1.00  0.00    -0.284 N 
ATOM     36  C   UNL     1     -43.368  41.042  27.043  1.00  0.00     0.032 A 
ATOM     37  C   UNL     1     -45.591  41.330  26.954  1.00  0.00     0.152 A 
ATOM     38  C   UNL     1     -43.606  42.096  26.198  1.00  0.00     0.072 A 
ATOM     39  H   UNL     1     -42.438  40.581  27.346  1.00  0.00     0.084 H 
ATOM     40  C   UNL     1     -45.005  42.294  26.132  1.00  0.00     0.080 A 
ATOM     41  N   UNL     1     -46.917  41.205  27.168  1.00  0.00    -0.218 NA
ATOM     42  Cl  UNL     1     -42.419  43.004  25.387  1.00  0.00    -0.082 Cl
ATOM     43  C   UNL     1     -45.870  43.182  25.475  1.00  0.00     0.137 A 
ATOM     44  C   UNL     1     -47.639  42.111  26.495  1.00  0.00     0.120 A 
ATOM     45  N   UNL     1     -47.195  43.079  25.679  1.00  0.00    -0.219 NA
ATOM     46  H   UNL     1     -48.716  42.057  26.626  1.00  0.00     0.106 H 
BRANCH  43  47
ATOM     47  N   UNL     1     -45.448  44.189  24.622  1.00  0.00    -0.383 N 
ATOM     48  H   UNL     1     -44.717  43.875  23.996  1.00  0.00     0.158 HD
ATOM     49  H   UNL     1     -46.174  44.778  24.234  1.00  0.00     0.158 HD
ENDBRANCH  43  47
ENDBRANCH  31  35
ENDBRANCH   1  26
TORSDOF 7
ENDMDL
