MODEL 1
REMARK VINA RESULT:     -10.9      0.000      0.000
REMARK SMILES c1cc(-c2cn(Cc3cnc4cc(CNCC5CCC5)[nH]c4c3)nn2)c2cn[nH]c2c1
REMARK SMILES IDX 8 1 9 2 10 3 11 4 12 5 13 6 21 7 22 8 23 9 7 14 6 17 4 18
REMARK SMILES IDX 5 19 25 20 24 22 3 23 1 24 2 25 31 26 30 29 26 31 29 32
REMARK SMILES IDX 27 33 28 34 14 37 15 40 16 42 17 45 18 46 20 47 19 49
REMARK H PARENT 9 10 12 11 21 12 23 13 7 15 7 16 5 21 1 27 2 28 31 30 29 35
REMARK H PARENT 27 36 14 38 14 39 15 41 16 43 16 44 17 48 18 50 18 51 20 52
REMARK H PARENT 20 53 19 54 19 55
REMARK Flexibility Score: inf
ROOT
ATOM      1  C   UNL     1     -47.691  36.034  27.409  1.00  0.00    -0.006 A 
ATOM      2  C   UNL     1     -46.390  35.533  27.464  1.00  0.00     0.033 A 
ATOM      3  N   UNL     1     -45.999  34.294  27.095  1.00  0.00    -0.254 NA
ATOM      4  C   UNL     1     -46.995  33.499  26.635  1.00  0.00     0.088 A 
ATOM      5  C   UNL     1     -46.929  32.166  26.169  1.00  0.00    -0.014 A 
ATOM      6  C   UNL     1     -48.206  31.786  25.795  1.00  0.00     0.031 A 
ATOM      7  N   UNL     1     -49.037  32.857  26.043  1.00  0.00    -0.356 N 
ATOM      8  C   UNL     1     -48.319  33.912  26.550  1.00  0.00     0.065 A 
ATOM      9  C   UNL     1     -48.709  35.193  26.940  1.00  0.00    -0.030 A 
ATOM     10  H   UNL     1     -45.571  36.150  27.829  1.00  0.00     0.084 H 
ATOM     11  H   UNL     1     -46.039  31.557  26.108  1.00  0.00     0.067 H 
ATOM     12  H   UNL     1     -50.034  32.868  25.869  1.00  0.00     0.166 HD
ATOM     13  H   UNL     1     -49.742  35.521  26.871  1.00  0.00     0.065 H 
ENDROOT
BRANCH   1  14
ATOM     14  C   UNL     1     -47.987  37.440  27.850  1.00  0.00     0.069 C 
ATOM     15  H   UNL     1     -48.191  37.496  28.926  1.00  0.00     0.057 H 
ATOM     16  H   UNL     1     -48.871  37.825  27.326  1.00  0.00     0.057 H 
BRANCH  14  17
ATOM     17  N   UNL     1     -46.869  38.328  27.588  1.00  0.00    -0.247 N 
ATOM     18  C   UNL     1     -45.108  39.579  27.697  1.00  0.00     0.113 A 
ATOM     19  C   UNL     1     -45.918  38.767  28.463  1.00  0.00     0.054 A 
ATOM     20  N   UNL     1     -45.604  39.613  26.417  1.00  0.00    -0.130 NA
ATOM     21  H   UNL     1     -45.894  38.457  29.496  1.00  0.00     0.086 H 
ATOM     22  N   UNL     1     -46.684  38.847  26.362  1.00  0.00    -0.066 NA
BRANCH  18  23
ATOM     23  C   UNL     1     -43.925  40.289  28.140  1.00  0.00     0.015 A 
ATOM     24  C   UNL     1     -42.120  40.666  29.750  1.00  0.00    -0.059 A 
ATOM     25  C   UNL     1     -43.262  39.972  29.342  1.00  0.00    -0.052 A 
ATOM     26  C   UNL     1     -41.593  41.702  28.977  1.00  0.00    -0.036 A 
ATOM     27  H   UNL     1     -41.634  40.396  30.686  1.00  0.00     0.062 H 
ATOM     28  H   UNL     1     -43.635  39.178  29.986  1.00  0.00     0.063 H 
ATOM     29  C   UNL     1     -42.256  42.010  27.787  1.00  0.00     0.066 A 
ATOM     30  H   UNL     1     -40.705  42.241  29.294  1.00  0.00     0.065 H 
ATOM     31  C   UNL     1     -43.398  41.339  27.351  1.00  0.00     0.029 A 
ATOM     32  N   UNL     1     -41.994  42.952  26.827  1.00  0.00    -0.278 N 
ATOM     33  C   UNL     1     -43.712  41.974  26.122  1.00  0.00     0.057 A 
ATOM     34  N   UNL     1     -42.859  42.950  25.801  1.00  0.00    -0.183 NA
ATOM     35  H   UNL     1     -41.236  43.625  26.814  1.00  0.00     0.190 HD
ATOM     36  H   UNL     1     -44.531  41.758  25.446  1.00  0.00     0.087 H 
ENDBRANCH  18  23
ENDBRANCH  14  17
ENDBRANCH   1  14
BRANCH   6  37
ATOM     37  C   UNL     1     -48.718  30.504  25.237  1.00  0.00     0.036 C 
ATOM     38  H   UNL     1     -48.212  30.303  24.285  1.00  0.00     0.049 H 
ATOM     39  H   UNL     1     -49.787  30.581  24.998  1.00  0.00     0.049 H 
BRANCH  37  40
ATOM     40  N   UNL     1     -48.457  29.385  26.135  1.00  0.00    -0.311 NA
ATOM     41  H   UNL     1     -49.129  29.397  26.901  1.00  0.00     0.123 HD
BRANCH  40  42
ATOM     42  C   UNL     1     -48.527  28.090  25.454  1.00  0.00    -0.002 C 
ATOM     43  H   UNL     1     -47.935  28.123  24.532  1.00  0.00     0.043 H 
ATOM     44  H   UNL     1     -49.559  27.845  25.182  1.00  0.00     0.043 H 
BRANCH  42  45
ATOM     45  C   UNL     1     -47.956  27.005  26.361  1.00  0.00    -0.029 C 
ATOM     46  C   UNL     1     -48.764  25.684  26.491  1.00  0.00    -0.049 C 
ATOM     47  C   UNL     1     -46.822  26.140  25.746  1.00  0.00    -0.049 C 
ATOM     48  H   UNL     1     -47.664  27.411  27.341  1.00  0.00     0.032 H 
ATOM     49  C   UNL     1     -47.411  24.945  26.521  1.00  0.00    -0.053 C 
ATOM     50  H   UNL     1     -49.379  25.438  25.617  1.00  0.00     0.027 H 
ATOM     51  H   UNL     1     -49.375  25.589  27.393  1.00  0.00     0.027 H 
ATOM     52  H   UNL     1     -46.876  26.025  24.657  1.00  0.00     0.027 H 
ATOM     53  H   UNL     1     -45.804  26.427  26.022  1.00  0.00     0.027 H 
ATOM     54  H   UNL     1     -46.997  24.825  27.528  1.00  0.00     0.027 H 
ATOM     55  H   UNL     1     -47.384  23.982  26.006  1.00  0.00     0.027 H 
ENDBRANCH  42  45
ENDBRANCH  40  42
ENDBRANCH  37  40
ENDBRANCH   6  37
TORSDOF 7
ENDMDL
MODEL 2
REMARK VINA RESULT:     -10.7      1.380      2.027
REMARK SMILES c1cc(-c2cn(Cc3cnc4cc(CNCC5CCC5)[nH]c4c3)nn2)c2cn[nH]c2c1
REMARK SMILES IDX 8 1 9 2 10 3 11 4 12 5 13 6 21 7 22 8 23 9 7 14 6 17 4 18
REMARK SMILES IDX 5 19 25 20 24 22 3 23 1 24 2 25 31 26 30 29 26 31 29 32
REMARK SMILES IDX 27 33 28 34 14 37 15 40 16 42 17 45 18 46 20 47 19 49
REMARK H PARENT 9 10 12 11 21 12 23 13 7 15 7 16 5 21 1 27 2 28 31 30 29 35
REMARK H PARENT 27 36 14 38 14 39 15 41 16 43 16 44 17 48 18 50 18 51 20 52
REMARK H PARENT 20 53 19 54 19 55
REMARK Flexibility Score: inf
ROOT
ATOM      1  C   UNL     1     -47.788  35.385  26.825  1.00  0.00    -0.006 A 
ATOM      2  C   UNL     1     -46.509  35.170  26.310  1.00  0.00     0.033 A 
ATOM      3  N   UNL     1     -46.091  34.062  25.661  1.00  0.00    -0.254 NA
ATOM      4  C   UNL     1     -47.032  33.098  25.519  1.00  0.00     0.088 A 
ATOM      5  C   UNL     1     -46.927  31.835  24.895  1.00  0.00    -0.014 A 
ATOM      6  C   UNL     1     -48.159  31.212  24.993  1.00  0.00     0.031 A 
ATOM      7  N   UNL     1     -48.994  32.068  25.679  1.00  0.00    -0.356 N 
ATOM      8  C   UNL     1     -48.328  33.225  26.004  1.00  0.00     0.065 A 
ATOM      9  C   UNL     1     -48.745  34.372  26.678  1.00  0.00    -0.030 A 
ATOM     10  H   UNL     1     -45.734  35.927  26.409  1.00  0.00     0.084 H 
ATOM     11  H   UNL     1     -46.046  31.432  24.417  1.00  0.00     0.067 H 
ATOM     12  H   UNL     1     -49.961  31.876  25.904  1.00  0.00     0.166 HD
ATOM     13  H   UNL     1     -49.758  34.477  27.054  1.00  0.00     0.065 H 
ENDROOT
BRANCH   1  14
ATOM     14  C   UNL     1     -48.122  36.673  27.525  1.00  0.00     0.069 C 
ATOM     15  H   UNL     1     -48.607  36.497  28.493  1.00  0.00     0.057 H 
ATOM     16  H   UNL     1     -48.811  37.270  26.915  1.00  0.00     0.057 H 
BRANCH  14  17
ATOM     17  N   UNL     1     -46.933  37.461  27.790  1.00  0.00    -0.247 N 
ATOM     18  C   UNL     1     -45.327  38.909  27.785  1.00  0.00     0.113 A 
ATOM     19  C   UNL     1     -46.491  38.570  27.129  1.00  0.00     0.054 A 
ATOM     20  N   UNL     1     -45.105  37.996  28.787  1.00  0.00    -0.130 NA
ATOM     21  H   UNL     1     -47.034  39.009  26.306  1.00  0.00     0.086 H 
ATOM     22  N   UNL     1     -46.092  37.112  28.779  1.00  0.00    -0.066 NA
BRANCH  18  23
ATOM     23  C   UNL     1     -44.462  40.035  27.492  1.00  0.00     0.015 A 
ATOM     24  C   UNL     1     -43.725  41.856  26.033  1.00  0.00    -0.059 A 
ATOM     25  C   UNL     1     -44.565  40.772  26.296  1.00  0.00    -0.052 A 
ATOM     26  C   UNL     1     -42.749  42.250  26.950  1.00  0.00    -0.036 A 
ATOM     27  H   UNL     1     -43.830  42.403  25.098  1.00  0.00     0.062 H 
ATOM     28  H   UNL     1     -45.304  40.504  25.544  1.00  0.00     0.063 H 
ATOM     29  C   UNL     1     -42.652  41.513  28.133  1.00  0.00     0.066 A 
ATOM     30  H   UNL     1     -42.096  43.093  26.745  1.00  0.00     0.065 H 
ATOM     31  C   UNL     1     -43.474  40.425  28.427  1.00  0.00     0.029 A 
ATOM     32  N   UNL     1     -41.817  41.645  29.211  1.00  0.00    -0.278 N 
ATOM     33  C   UNL     1     -43.028  40.003  29.705  1.00  0.00     0.057 A 
ATOM     34  N   UNL     1     -42.025  40.744  30.184  1.00  0.00    -0.183 NA
ATOM     35  H   UNL     1     -41.084  42.332  29.344  1.00  0.00     0.190 HD
ATOM     36  H   UNL     1     -43.400  39.183  30.308  1.00  0.00     0.087 H 
ENDBRANCH  18  23
ENDBRANCH  14  17
ENDBRANCH   1  14
BRANCH   6  37
ATOM     37  C   UNL     1     -48.621  29.880  24.513  1.00  0.00     0.036 C 
ATOM     38  H   UNL     1     -48.973  29.978  23.479  1.00  0.00     0.049 H 
ATOM     39  H   UNL     1     -49.485  29.533  25.092  1.00  0.00     0.049 H 
BRANCH  37  40
ATOM     40  N   UNL     1     -47.542  28.898  24.533  1.00  0.00    -0.311 NA
ATOM     41  H   UNL     1     -46.995  29.009  25.386  1.00  0.00     0.123 HD
BRANCH  40  42
ATOM     42  C   UNL     1     -48.034  27.521  24.453  1.00  0.00    -0.002 C 
ATOM     43  H   UNL     1     -47.494  26.979  23.668  1.00  0.00     0.043 H 
ATOM     44  H   UNL     1     -49.100  27.500  24.202  1.00  0.00     0.043 H 
BRANCH  42  45
ATOM     45  C   UNL     1     -47.798  26.816  25.784  1.00  0.00    -0.029 C 
ATOM     46  C   UNL     1     -48.640  25.543  26.078  1.00  0.00    -0.049 C 
ATOM     47  C   UNL     1     -46.552  25.891  25.845  1.00  0.00    -0.049 C 
ATOM     48  H   UNL     1     -47.812  27.526  26.624  1.00  0.00     0.032 H 
ATOM     49  C   UNL     1     -47.382  24.954  26.745  1.00  0.00    -0.053 C 
ATOM     50  H   UNL     1     -48.962  24.994  25.185  1.00  0.00     0.027 H 
ATOM     51  H   UNL     1     -49.501  25.686  26.736  1.00  0.00     0.027 H 
ATOM     52  H   UNL     1     -46.271  25.440  24.885  1.00  0.00     0.027 H 
ATOM     53  H   UNL     1     -45.662  26.324  26.307  1.00  0.00     0.027 H 
ATOM     54  H   UNL     1     -47.300  25.182  27.814  1.00  0.00     0.027 H 
ATOM     55  H   UNL     1     -47.221  23.883  26.595  1.00  0.00     0.027 H 
ENDBRANCH  42  45
ENDBRANCH  40  42
ENDBRANCH  37  40
ENDBRANCH   6  37
TORSDOF 7
ENDMDL
MODEL 3
REMARK VINA RESULT:     -10.2      2.681      3.256
REMARK SMILES c1cc(-c2cn(Cc3cnc4cc(CNCC5CCC5)[nH]c4c3)nn2)c2cn[nH]c2c1
REMARK SMILES IDX 8 1 9 2 10 3 11 4 12 5 13 6 21 7 22 8 23 9 7 14 6 17 4 18
REMARK SMILES IDX 5 19 25 20 24 22 3 23 1 24 2 25 31 26 30 29 26 31 29 32
REMARK SMILES IDX 27 33 28 34 14 37 15 40 16 42 17 45 18 46 20 47 19 49
REMARK H PARENT 9 10 12 11 21 12 23 13 7 15 7 16 5 21 1 27 2 28 31 30 29 35
REMARK H PARENT 27 36 14 38 14 39 15 41 16 43 16 44 17 48 18 50 18 51 20 52
REMARK H PARENT 20 53 19 54 19 55
REMARK Flexibility Score: inf
ROOT
ATOM      1  C   UNL     1     -48.050  36.252  27.121  1.00  0.00    -0.006 A 
ATOM      2  C   UNL     1     -49.128  35.385  27.302  1.00  0.00     0.033 A 
ATOM      3  N   UNL     1     -49.234  34.136  26.801  1.00  0.00    -0.254 NA
ATOM      4  C   UNL     1     -48.175  33.728  26.063  1.00  0.00     0.088 A 
ATOM      5  C   UNL     1     -47.965  32.493  25.409  1.00  0.00    -0.014 A 
ATOM      6  C   UNL     1     -46.726  32.545  24.795  1.00  0.00     0.031 A 
ATOM      7  N   UNL     1     -46.197  33.791  25.052  1.00  0.00    -0.356 N 
ATOM      8  C   UNL     1     -47.061  34.526  25.827  1.00  0.00     0.065 A 
ATOM      9  C   UNL     1     -46.967  35.817  26.346  1.00  0.00    -0.030 A 
ATOM     10  H   UNL     1     -49.993  35.686  27.890  1.00  0.00     0.084 H 
ATOM     11  H   UNL     1     -48.647  31.655  25.398  1.00  0.00     0.067 H 
ATOM     12  H   UNL     1     -45.297  34.117  24.725  1.00  0.00     0.166 HD
ATOM     13  H   UNL     1     -46.097  36.441  26.169  1.00  0.00     0.065 H 
ENDROOT
BRANCH   1  14
ATOM     14  C   UNL     1     -48.059  37.622  27.742  1.00  0.00     0.069 C 
ATOM     15  H   UNL     1     -48.747  37.678  28.595  1.00  0.00     0.057 H 
ATOM     16  H   UNL     1     -48.382  38.370  27.008  1.00  0.00     0.057 H 
BRANCH  14  17
ATOM     17  N   UNL     1     -46.746  37.992  28.237  1.00  0.00    -0.247 N 
ATOM     18  C   UNL     1     -44.865  38.959  28.685  1.00  0.00     0.113 A 
ATOM     19  C   UNL     1     -46.028  39.119  27.963  1.00  0.00     0.054 A 
ATOM     20  N   UNL     1     -44.916  37.752  29.340  1.00  0.00    -0.130 NA
ATOM     21  H   UNL     1     -46.405  39.905  27.326  1.00  0.00     0.086 H 
ATOM     22  N   UNL     1     -46.071  37.167  29.056  1.00  0.00    -0.066 NA
BRANCH  18  23
ATOM     23  C   UNL     1     -43.755  39.889  28.761  1.00  0.00     0.015 A 
ATOM     24  C   UNL     1     -41.784  40.794  29.894  1.00  0.00    -0.059 A 
ATOM     25  C   UNL     1     -42.849  39.892  29.840  1.00  0.00    -0.052 A 
ATOM     26  C   UNL     1     -41.578  41.727  28.877  1.00  0.00    -0.036 A 
ATOM     27  H   UNL     1     -41.104  40.771  30.744  1.00  0.00     0.062 H 
ATOM     28  H   UNL     1     -42.968  39.191  30.664  1.00  0.00     0.063 H 
ATOM     29  C   UNL     1     -42.481  41.717  27.812  1.00  0.00     0.066 A 
ATOM     30  H   UNL     1     -40.750  42.428  28.920  1.00  0.00     0.065 H 
ATOM     31  C   UNL     1     -43.556  40.832  27.726  1.00  0.00     0.029 A 
ATOM     32  N   UNL     1     -42.549  42.489  26.681  1.00  0.00    -0.278 N 
ATOM     33  C   UNL     1     -44.180  41.178  26.501  1.00  0.00     0.057 A 
ATOM     34  N   UNL     1     -43.568  42.181  25.864  1.00  0.00    -0.183 NA
ATOM     35  H   UNL     1     -41.927  43.241  26.409  1.00  0.00     0.190 HD
ATOM     36  H   UNL     1     -45.057  40.734  26.046  1.00  0.00     0.087 H 
ENDBRANCH  18  23
ENDBRANCH  14  17
ENDBRANCH   1  14
BRANCH   6  37
ATOM     37  C   UNL     1     -45.999  31.535  23.977  1.00  0.00     0.036 C 
ATOM     38  H   UNL     1     -45.229  31.062  24.598  1.00  0.00     0.049 H 
ATOM     39  H   UNL     1     -45.463  32.015  23.148  1.00  0.00     0.049 H 
BRANCH  37  40
ATOM     40  N   UNL     1     -46.895  30.491  23.492  1.00  0.00    -0.311 NA
ATOM     41  H   UNL     1     -47.848  30.692  23.790  1.00  0.00     0.123 HD
BRANCH  40  42
ATOM     42  C   UNL     1     -46.865  30.358  22.033  1.00  0.00    -0.002 C 
ATOM     43  H   UNL     1     -46.283  29.472  21.753  1.00  0.00     0.043 H 
ATOM     44  H   UNL     1     -46.393  31.231  21.570  1.00  0.00     0.043 H 
BRANCH  42  45
ATOM     45  C   UNL     1     -48.287  30.194  21.506  1.00  0.00    -0.029 C 
ATOM     46  C   UNL     1     -49.408  31.007  22.211  1.00  0.00    -0.049 C 
ATOM     47  C   UNL     1     -48.630  31.006  20.228  1.00  0.00    -0.049 C 
ATOM     48  H   UNL     1     -48.553  29.133  21.390  1.00  0.00     0.032 H 
ATOM     49  C   UNL     1     -50.041  31.200  20.818  1.00  0.00    -0.053 C 
ATOM     50  H   UNL     1     -49.071  31.942  22.674  1.00  0.00     0.027 H 
ATOM     51  H   UNL     1     -50.015  30.452  22.932  1.00  0.00     0.027 H 
ATOM     52  H   UNL     1     -48.070  31.943  20.119  1.00  0.00     0.027 H 
ATOM     53  H   UNL     1     -48.584  30.453  19.287  1.00  0.00     0.027 H 
ATOM     54  H   UNL     1     -50.748  30.411  20.541  1.00  0.00     0.027 H 
ATOM     55  H   UNL     1     -50.504  32.174  20.637  1.00  0.00     0.027 H 
ENDBRANCH  42  45
ENDBRANCH  40  42
ENDBRANCH  37  40
ENDBRANCH   6  37
TORSDOF 7
ENDMDL
MODEL 4
REMARK VINA RESULT:     -10.1      1.851      2.388
REMARK SMILES c1cc(-c2cn(Cc3cnc4cc(CNCC5CCC5)[nH]c4c3)nn2)c2cn[nH]c2c1
REMARK SMILES IDX 8 1 9 2 10 3 11 4 12 5 13 6 21 7 22 8 23 9 7 14 6 17 4 18
REMARK SMILES IDX 5 19 25 20 24 22 3 23 1 24 2 25 31 26 30 29 26 31 29 32
REMARK SMILES IDX 27 33 28 34 14 37 15 40 16 42 17 45 18 46 20 47 19 49
REMARK H PARENT 9 10 12 11 21 12 23 13 7 15 7 16 5 21 1 27 2 28 31 30 29 35
REMARK H PARENT 27 36 14 38 14 39 15 41 16 43 16 44 17 48 18 50 18 51 20 52
REMARK H PARENT 20 53 19 54 19 55
REMARK Flexibility Score: inf
ROOT
ATOM      1  C   UNL     1     -47.952  34.871  26.707  1.00  0.00    -0.006 A 
ATOM      2  C   UNL     1     -46.660  34.915  26.184  1.00  0.00     0.033 A 
ATOM      3  N   UNL     1     -46.080  33.968  25.417  1.00  0.00    -0.254 NA
ATOM      4  C   UNL     1     -46.862  32.893  25.156  1.00  0.00     0.088 A 
ATOM      5  C   UNL     1     -46.568  31.741  24.392  1.00  0.00    -0.014 A 
ATOM      6  C   UNL     1     -47.688  30.928  24.405  1.00  0.00     0.031 A 
ATOM      7  N   UNL     1     -48.640  31.561  25.176  1.00  0.00    -0.356 N 
ATOM      8  C   UNL     1     -48.158  32.761  25.639  1.00  0.00     0.065 A 
ATOM      9  C   UNL     1     -48.743  33.746  26.435  1.00  0.00    -0.030 A 
ATOM     10  H   UNL     1     -46.010  35.767  26.378  1.00  0.00     0.084 H 
ATOM     11  H   UNL     1     -45.639  31.536  23.881  1.00  0.00     0.067 H 
ATOM     12  H   UNL     1     -49.564  31.198  25.367  1.00  0.00     0.166 HD
ATOM     13  H   UNL     1     -49.757  33.649  26.809  1.00  0.00     0.065 H 
ENDROOT
BRANCH   1  14
ATOM     14  C   UNL     1     -48.477  36.003  27.546  1.00  0.00     0.069 C 
ATOM     15  H   UNL     1     -48.771  35.665  28.547  1.00  0.00     0.057 H 
ATOM     16  H   UNL     1     -49.362  36.448  27.075  1.00  0.00     0.057 H 
BRANCH  14  17
ATOM     17  N   UNL     1     -47.477  37.038  27.729  1.00  0.00    -0.247 N 
ATOM     18  C   UNL     1     -46.149  38.735  27.541  1.00  0.00     0.113 A 
ATOM     19  C   UNL     1     -47.153  38.058  26.882  1.00  0.00     0.054 A 
ATOM     20  N   UNL     1     -45.897  38.097  28.732  1.00  0.00    -0.130 NA
ATOM     21  H   UNL     1     -47.660  38.213  25.942  1.00  0.00     0.086 H 
ATOM     22  N   UNL     1     -46.713  37.058  28.835  1.00  0.00    -0.066 NA
BRANCH  18  23
ATOM     23  C   UNL     1     -45.457  39.923  27.083  1.00  0.00     0.015 A 
ATOM     24  C   UNL     1     -43.402  41.154  26.579  1.00  0.00    -0.059 A 
ATOM     25  C   UNL     1     -44.051  40.001  27.027  1.00  0.00    -0.052 A 
ATOM     26  C   UNL     1     -44.126  42.273  26.167  1.00  0.00    -0.036 A 
ATOM     27  H   UNL     1     -42.314  41.181  26.551  1.00  0.00     0.062 H 
ATOM     28  H   UNL     1     -43.438  39.159  27.343  1.00  0.00     0.063 H 
ATOM     29  C   UNL     1     -45.519  42.188  26.225  1.00  0.00     0.066 A 
ATOM     30  H   UNL     1     -43.621  43.169  25.818  1.00  0.00     0.065 H 
ATOM     31  C   UNL     1     -46.199  41.054  26.669  1.00  0.00     0.029 A 
ATOM     32  N   UNL     1     -46.492  43.095  25.897  1.00  0.00    -0.278 N 
ATOM     33  C   UNL     1     -47.566  41.414  26.552  1.00  0.00     0.057 A 
ATOM     34  N   UNL     1     -47.745  42.651  26.080  1.00  0.00    -0.183 NA
ATOM     35  H   UNL     1     -46.365  44.034  25.539  1.00  0.00     0.190 HD
ATOM     36  H   UNL     1     -48.439  40.819  26.791  1.00  0.00     0.087 H 
ENDBRANCH  18  23
ENDBRANCH  14  17
ENDBRANCH   1  14
BRANCH   6  37
ATOM     37  C   UNL     1     -47.942  29.605  23.771  1.00  0.00     0.036 C 
ATOM     38  H   UNL     1     -47.380  29.548  22.831  1.00  0.00     0.049 H 
ATOM     39  H   UNL     1     -48.999  29.500  23.495  1.00  0.00     0.049 H 
BRANCH  37  40
ATOM     40  N   UNL     1     -47.507  28.507  24.627  1.00  0.00    -0.311 NA
ATOM     41  H   UNL     1     -46.809  28.844  25.287  1.00  0.00     0.123 HD
BRANCH  40  42
ATOM     42  C   UNL     1     -48.616  27.900  25.368  1.00  0.00    -0.002 C 
ATOM     43  H   UNL     1     -49.301  27.403  24.670  1.00  0.00     0.043 H 
ATOM     44  H   UNL     1     -49.185  28.659  25.914  1.00  0.00     0.043 H 
BRANCH  42  45
ATOM     45  C   UNL     1     -48.071  26.859  26.340  1.00  0.00    -0.029 C 
ATOM     46  C   UNL     1     -48.746  25.459  26.341  1.00  0.00    -0.049 C 
ATOM     47  C   UNL     1     -46.775  26.129  25.890  1.00  0.00    -0.049 C 
ATOM     48  H   UNL     1     -47.967  27.271  27.355  1.00  0.00     0.032 H 
ATOM     49  C   UNL     1     -47.342  24.863  26.563  1.00  0.00    -0.053 C 
ATOM     50  H   UNL     1     -49.199  25.171  25.385  1.00  0.00     0.027 H 
ATOM     51  H   UNL     1     -49.467  25.281  27.144  1.00  0.00     0.027 H 
ATOM     52  H   UNL     1     -46.660  26.033  24.804  1.00  0.00     0.027 H 
ATOM     53  H   UNL     1     -45.844  26.512  26.313  1.00  0.00     0.027 H 
ATOM     54  H   UNL     1     -47.066  24.763  27.618  1.00  0.00     0.027 H 
ATOM     55  H   UNL     1     -47.139  23.919  26.050  1.00  0.00     0.027 H 
ENDBRANCH  42  45
ENDBRANCH  40  42
ENDBRANCH  37  40
ENDBRANCH   6  37
TORSDOF 7
ENDMDL
MODEL 5
REMARK VINA RESULT:      -9.7      1.529      2.023
REMARK SMILES c1cc(-c2cn(Cc3cnc4cc(CNCC5CCC5)[nH]c4c3)nn2)c2cn[nH]c2c1
REMARK SMILES IDX 8 1 9 2 10 3 11 4 12 5 13 6 21 7 22 8 23 9 7 14 6 17 4 18
REMARK SMILES IDX 5 19 25 20 24 22 3 23 1 24 2 25 31 26 30 29 26 31 29 32
REMARK SMILES IDX 27 33 28 34 14 37 15 40 16 42 17 45 18 46 20 47 19 49
REMARK H PARENT 9 10 12 11 21 12 23 13 7 15 7 16 5 21 1 27 2 28 31 30 29 35
REMARK H PARENT 27 36 14 38 14 39 15 41 16 43 16 44 17 48 18 50 18 51 20 52
REMARK H PARENT 20 53 19 54 19 55
REMARK Flexibility Score: inf
ROOT
ATOM      1  C   UNL     1     -48.191  34.578  26.604  1.00  0.00    -0.006 A 
ATOM      2  C   UNL     1     -46.956  34.862  26.022  1.00  0.00     0.033 A 
ATOM      3  N   UNL     1     -46.263  34.052  25.195  1.00  0.00    -0.254 NA
ATOM      4  C   UNL     1     -46.859  32.865  24.932  1.00  0.00     0.088 A 
ATOM      5  C   UNL     1     -46.411  31.804  24.113  1.00  0.00    -0.014 A 
ATOM      6  C   UNL     1     -47.371  30.808  24.150  1.00  0.00     0.031 A 
ATOM      7  N   UNL     1     -48.376  31.242  24.987  1.00  0.00    -0.356 N 
ATOM      8  C   UNL     1     -48.085  32.495  25.471  1.00  0.00     0.065 A 
ATOM      9  C   UNL     1     -48.788  33.340  26.329  1.00  0.00    -0.030 A 
ATOM     10  H   UNL     1     -46.454  35.809  26.216  1.00  0.00     0.084 H 
ATOM     11  H   UNL     1     -45.489  31.779  23.551  1.00  0.00     0.067 H 
ATOM     12  H   UNL     1     -49.212  30.718  25.210  1.00  0.00     0.166 HD
ATOM     13  H   UNL     1     -49.749  33.057  26.748  1.00  0.00     0.065 H 
ENDROOT
BRANCH   1  14
ATOM     14  C   UNL     1     -48.858  35.577  27.508  1.00  0.00     0.069 C 
ATOM     15  H   UNL     1     -49.072  35.153  28.497  1.00  0.00     0.057 H 
ATOM     16  H   UNL     1     -49.812  35.904  27.077  1.00  0.00     0.057 H 
BRANCH  14  17
ATOM     17  N   UNL     1     -48.022  36.743  27.724  1.00  0.00    -0.247 N 
ATOM     18  C   UNL     1     -46.460  38.140  28.261  1.00  0.00     0.113 A 
ATOM     19  C   UNL     1     -46.795  36.804  28.318  1.00  0.00     0.054 A 
ATOM     20  N   UNL     1     -47.489  38.825  27.662  1.00  0.00    -0.130 NA
ATOM     21  H   UNL     1     -46.287  35.926  28.688  1.00  0.00     0.086 H 
ATOM     22  N   UNL     1     -48.442  37.962  27.341  1.00  0.00    -0.066 NA
BRANCH  18  23
ATOM     23  C   UNL     1     -45.236  38.749  28.741  1.00  0.00     0.015 A 
ATOM     24  C   UNL     1     -43.379  38.877  30.329  1.00  0.00    -0.059 A 
ATOM     25  C   UNL     1     -44.560  38.279  29.884  1.00  0.00    -0.052 A 
ATOM     26  C   UNL     1     -42.824  39.966  29.655  1.00  0.00    -0.036 A 
ATOM     27  H   UNL     1     -42.883  38.490  31.218  1.00  0.00     0.062 H 
ATOM     28  H   UNL     1     -44.952  37.438  30.452  1.00  0.00     0.063 H 
ATOM     29  C   UNL     1     -43.501  40.426  28.523  1.00  0.00     0.066 A 
ATOM     30  H   UNL     1     -41.906  40.431  30.001  1.00  0.00     0.065 H 
ATOM     31  C   UNL     1     -44.682  39.853  28.052  1.00  0.00     0.029 A 
ATOM     32  N   UNL     1     -43.219  41.452  27.660  1.00  0.00    -0.278 N 
ATOM     33  C   UNL     1     -44.996  40.626  26.905  1.00  0.00     0.057 A 
ATOM     34  N   UNL     1     -44.108  41.595  26.664  1.00  0.00    -0.183 NA
ATOM     35  H   UNL     1     -42.433  42.090  27.695  1.00  0.00     0.190 HD
ATOM     36  H   UNL     1     -45.840  40.518  26.234  1.00  0.00     0.087 H 
ENDBRANCH  18  23
ENDBRANCH  14  17
ENDBRANCH   1  14
BRANCH   6  37
ATOM     37  C   UNL     1     -47.426  29.479  23.480  1.00  0.00     0.036 C 
ATOM     38  H   UNL     1     -47.250  29.614  22.406  1.00  0.00     0.049 H 
ATOM     39  H   UNL     1     -48.427  29.037  23.567  1.00  0.00     0.049 H 
BRANCH  37  40
ATOM     40  N   UNL     1     -46.403  28.575  23.996  1.00  0.00    -0.311 NA
ATOM     41  H   UNL     1     -46.130  28.867  24.933  1.00  0.00     0.123 HD
BRANCH  40  42
ATOM     42  C   UNL     1     -46.854  27.182  24.039  1.00  0.00    -0.002 C 
ATOM     43  H   UNL     1     -46.018  26.513  23.803  1.00  0.00     0.043 H 
ATOM     44  H   UNL     1     -47.645  27.004  23.303  1.00  0.00     0.043 H 
BRANCH  42  45
ATOM     45  C   UNL     1     -47.362  26.853  25.439  1.00  0.00    -0.029 C 
ATOM     46  C   UNL     1     -48.833  26.369  25.570  1.00  0.00    -0.049 C 
ATOM     47  C   UNL     1     -46.953  25.461  25.994  1.00  0.00    -0.049 C 
ATOM     48  H   UNL     1     -47.123  27.655  26.153  1.00  0.00     0.032 H 
ATOM     49  C   UNL     1     -48.340  25.402  26.665  1.00  0.00    -0.053 C 
ATOM     50  H   UNL     1     -49.226  25.861  24.682  1.00  0.00     0.027 H 
ATOM     51  H   UNL     1     -49.554  27.124  25.895  1.00  0.00     0.027 H 
ATOM     52  H   UNL     1     -46.805  24.690  25.228  1.00  0.00     0.027 H 
ATOM     53  H   UNL     1     -46.098  25.454  26.674  1.00  0.00     0.027 H 
ATOM     54  H   UNL     1     -48.360  25.831  27.674  1.00  0.00     0.027 H 
ATOM     55  H   UNL     1     -48.819  24.420  26.685  1.00  0.00     0.027 H 
ENDBRANCH  42  45
ENDBRANCH  40  42
ENDBRANCH  37  40
ENDBRANCH   6  37
TORSDOF 7
ENDMDL
MODEL 6
REMARK VINA RESULT:      -9.6      2.072     11.136
REMARK SMILES c1cc(-c2cn(Cc3cnc4cc(CNCC5CCC5)[nH]c4c3)nn2)c2cn[nH]c2c1
REMARK SMILES IDX 8 1 9 2 10 3 11 4 12 5 13 6 21 7 22 8 23 9 7 14 6 17 4 18
REMARK SMILES IDX 5 19 25 20 24 22 3 23 1 24 2 25 31 26 30 29 26 31 29 32
REMARK SMILES IDX 27 33 28 34 14 37 15 40 16 42 17 45 18 46 20 47 19 49
REMARK H PARENT 9 10 12 11 21 12 23 13 7 15 7 16 5 21 1 27 2 28 31 30 29 35
REMARK H PARENT 27 36 14 38 14 39 15 41 16 43 16 44 17 48 18 50 18 51 20 52
REMARK H PARENT 20 53 19 54 19 55
REMARK Flexibility Score: inf
ROOT
ATOM      1  C   UNL     1     -47.360  36.432  27.655  1.00  0.00    -0.006 A 
ATOM      2  C   UNL     1     -46.837  36.033  28.885  1.00  0.00     0.033 A 
ATOM      3  N   UNL     1     -45.855  36.656  29.570  1.00  0.00    -0.254 NA
ATOM      4  C   UNL     1     -45.363  37.768  28.973  1.00  0.00     0.088 A 
ATOM      5  C   UNL     1     -44.348  38.645  29.417  1.00  0.00    -0.014 A 
ATOM      6  C   UNL     1     -44.207  39.643  28.469  1.00  0.00     0.031 A 
ATOM      7  N   UNL     1     -45.103  39.372  27.457  1.00  0.00    -0.356 N 
ATOM      8  C   UNL     1     -45.820  38.236  27.747  1.00  0.00     0.065 A 
ATOM      9  C   UNL     1     -46.831  37.579  27.047  1.00  0.00    -0.030 A 
ATOM     10  H   UNL     1     -47.214  35.144  29.388  1.00  0.00     0.084 H 
ATOM     11  H   UNL     1     -43.790  38.558  30.338  1.00  0.00     0.067 H 
ATOM     12  H   UNL     1     -45.221  39.932  26.624  1.00  0.00     0.166 HD
ATOM     13  H   UNL     1     -47.195  37.944  26.091  1.00  0.00     0.065 H 
ENDROOT
BRANCH   1  14
ATOM     14  C   UNL     1     -48.461  35.644  27.001  1.00  0.00     0.069 C 
ATOM     15  H   UNL     1     -49.010  36.245  26.266  1.00  0.00     0.057 H 
ATOM     16  H   UNL     1     -49.182  35.301  27.752  1.00  0.00     0.057 H 
BRANCH  14  17
ATOM     17  N   UNL     1     -47.941  34.489  26.293  1.00  0.00    -0.247 N 
ATOM     18  C   UNL     1     -47.614  32.558  25.376  1.00  0.00     0.113 A 
ATOM     19  C   UNL     1     -48.538  33.276  26.104  1.00  0.00     0.054 A 
ATOM     20  N   UNL     1     -46.506  33.344  25.173  1.00  0.00    -0.130 NA
ATOM     21  H   UNL     1     -49.530  33.056  26.469  1.00  0.00     0.086 H 
ATOM     22  N   UNL     1     -46.715  34.523  25.742  1.00  0.00    -0.066 NA
BRANCH  18  23
ATOM     23  C   UNL     1     -47.758  31.200  24.890  1.00  0.00     0.015 A 
ATOM     24  C   UNL     1     -48.674  28.937  25.073  1.00  0.00    -0.059 A 
ATOM     25  C   UNL     1     -48.544  30.240  25.559  1.00  0.00    -0.052 A 
ATOM     26  C   UNL     1     -48.028  28.538  23.902  1.00  0.00    -0.036 A 
ATOM     27  H   UNL     1     -49.287  28.220  25.616  1.00  0.00     0.062 H 
ATOM     28  H   UNL     1     -49.063  30.496  26.480  1.00  0.00     0.063 H 
ATOM     29  C   UNL     1     -47.251  29.495  23.245  1.00  0.00     0.066 A 
ATOM     30  H   UNL     1     -48.129  27.525  23.524  1.00  0.00     0.065 H 
ATOM     31  C   UNL     1     -47.098  30.803  23.703  1.00  0.00     0.029 A 
ATOM     32  N   UNL     1     -46.508  29.419  22.096  1.00  0.00    -0.278 N 
ATOM     33  C   UNL     1     -46.247  31.400  22.738  1.00  0.00     0.057 A 
ATOM     34  N   UNL     1     -45.891  30.562  21.761  1.00  0.00    -0.183 NA
ATOM     35  H   UNL     1     -46.385  28.613  21.493  1.00  0.00     0.190 HD
ATOM     36  H   UNL     1     -45.875  32.417  22.710  1.00  0.00     0.087 H 
ENDBRANCH  18  23
ENDBRANCH  14  17
ENDBRANCH   1  14
BRANCH   6  37
ATOM     37  C   UNL     1     -43.298  40.821  28.420  1.00  0.00     0.036 C 
ATOM     38  H   UNL     1     -42.393  40.596  28.997  1.00  0.00     0.049 H 
ATOM     39  H   UNL     1     -43.756  41.690  28.908  1.00  0.00     0.049 H 
BRANCH  37  40
ATOM     40  N   UNL     1     -42.897  41.133  27.052  1.00  0.00    -0.311 NA
ATOM     41  H   UNL     1     -43.653  40.895  26.412  1.00  0.00     0.123 HD
BRANCH  40  42
ATOM     42  C   UNL     1     -42.546  42.545  26.878  1.00  0.00    -0.002 C 
ATOM     43  H   UNL     1     -41.499  42.631  26.564  1.00  0.00     0.043 H 
ATOM     44  H   UNL     1     -42.662  43.096  27.818  1.00  0.00     0.043 H 
BRANCH  42  45
ATOM     45  C   UNL     1     -43.431  43.162  25.801  1.00  0.00    -0.029 C 
ATOM     46  C   UNL     1     -42.755  43.551  24.457  1.00  0.00    -0.049 C 
ATOM     47  C   UNL     1     -44.284  42.162  24.973  1.00  0.00    -0.049 C 
ATOM     48  H   UNL     1     -44.050  43.977  26.205  1.00  0.00     0.032 H 
ATOM     49  C   UNL     1     -44.042  43.075  23.755  1.00  0.00    -0.053 C 
ATOM     50  H   UNL     1     -41.870  42.955  24.202  1.00  0.00     0.027 H 
ATOM     51  H   UNL     1     -42.515  44.611  24.336  1.00  0.00     0.027 H 
ATOM     52  H   UNL     1     -43.840  41.164  24.867  1.00  0.00     0.027 H 
ATOM     53  H   UNL     1     -45.325  42.055  25.285  1.00  0.00     0.027 H 
ATOM     54  H   UNL     1     -44.796  43.860  23.636  1.00  0.00     0.027 H 
ATOM     55  H   UNL     1     -43.902  42.566  22.798  1.00  0.00     0.027 H 
ENDBRANCH  42  45
ENDBRANCH  40  42
ENDBRANCH  37  40
ENDBRANCH   6  37
TORSDOF 7
ENDMDL
MODEL 7
REMARK VINA RESULT:      -9.6      2.210      2.956
REMARK SMILES c1cc(-c2cn(Cc3cnc4cc(CNCC5CCC5)[nH]c4c3)nn2)c2cn[nH]c2c1
REMARK SMILES IDX 8 1 9 2 10 3 11 4 12 5 13 6 21 7 22 8 23 9 7 14 6 17 4 18
REMARK SMILES IDX 5 19 25 20 24 22 3 23 1 24 2 25 31 26 30 29 26 31 29 32
REMARK SMILES IDX 27 33 28 34 14 37 15 40 16 42 17 45 18 46 20 47 19 49
REMARK H PARENT 9 10 12 11 21 12 23 13 7 15 7 16 5 21 1 27 2 28 31 30 29 35
REMARK H PARENT 27 36 14 38 14 39 15 41 16 43 16 44 17 48 18 50 18 51 20 52
REMARK H PARENT 20 53 19 54 19 55
REMARK Flexibility Score: inf
ROOT
ATOM      1  C   UNL     1     -47.053  35.605  27.558  1.00  0.00    -0.006 A 
ATOM      2  C   UNL     1     -45.942  35.056  26.917  1.00  0.00     0.033 A 
ATOM      3  N   UNL     1     -45.956  34.020  26.052  1.00  0.00    -0.254 NA
ATOM      4  C   UNL     1     -47.181  33.495  25.814  1.00  0.00     0.088 A 
ATOM      5  C   UNL     1     -47.544  32.422  24.970  1.00  0.00    -0.014 A 
ATOM      6  C   UNL     1     -48.917  32.266  25.050  1.00  0.00     0.031 A 
ATOM      7  N   UNL     1     -49.382  33.212  25.938  1.00  0.00    -0.356 N 
ATOM      8  C   UNL     1     -48.341  33.974  26.412  1.00  0.00     0.065 A 
ATOM      9  C   UNL     1     -48.311  35.042  27.308  1.00  0.00    -0.030 A 
ATOM     10  H   UNL     1     -44.945  35.458  27.089  1.00  0.00     0.084 H 
ATOM     11  H   UNL     1     -46.871  31.834  24.363  1.00  0.00     0.067 H 
ATOM     12  H   UNL     1     -50.351  33.333  26.200  1.00  0.00     0.166 HD
ATOM     13  H   UNL     1     -49.216  35.422  27.773  1.00  0.00     0.065 H 
ENDROOT
BRANCH   1  14
ATOM     14  C   UNL     1     -46.895  36.767  28.498  1.00  0.00     0.069 C 
ATOM     15  H   UNL     1     -46.186  36.546  29.305  1.00  0.00     0.057 H 
ATOM     16  H   UNL     1     -47.857  37.014  28.963  1.00  0.00     0.057 H 
BRANCH  14  17
ATOM     17  N   UNL     1     -46.395  37.944  27.812  1.00  0.00    -0.247 N 
ATOM     18  C   UNL     1     -45.279  39.670  27.141  1.00  0.00     0.113 A 
ATOM     19  C   UNL     1     -45.274  38.671  28.090  1.00  0.00     0.054 A 
ATOM     20  N   UNL     1     -46.394  39.523  26.352  1.00  0.00    -0.130 NA
ATOM     21  H   UNL     1     -44.596  38.407  28.887  1.00  0.00     0.086 H 
ATOM     22  N   UNL     1     -47.073  38.465  26.774  1.00  0.00    -0.066 NA
BRANCH  18  23
ATOM     23  C   UNL     1     -44.288  40.715  26.975  1.00  0.00     0.015 A 
ATOM     24  C   UNL     1     -43.267  42.523  25.680  1.00  0.00    -0.059 A 
ATOM     25  C   UNL     1     -44.227  41.519  25.819  1.00  0.00    -0.052 A 
ATOM     26  C   UNL     1     -42.330  42.768  26.685  1.00  0.00    -0.036 A 
ATOM     27  H   UNL     1     -43.247  43.124  24.772  1.00  0.00     0.062 H 
ATOM     28  H   UNL     1     -44.929  41.365  25.002  1.00  0.00     0.063 H 
ATOM     29  C   UNL     1     -42.397  41.967  27.827  1.00  0.00     0.066 A 
ATOM     30  H   UNL     1     -41.584  43.550  26.576  1.00  0.00     0.065 H 
ATOM     31  C   UNL     1     -43.341  40.955  27.999  1.00  0.00     0.029 A 
ATOM     32  N   UNL     1     -41.638  41.959  28.968  1.00  0.00    -0.278 N 
ATOM     33  C   UNL     1     -43.038  40.426  29.279  1.00  0.00     0.057 A 
ATOM     34  N   UNL     1     -42.006  41.036  29.870  1.00  0.00    -0.183 NA
ATOM     35  H   UNL     1     -40.853  42.560  29.192  1.00  0.00     0.190 HD
ATOM     36  H   UNL     1     -43.533  39.619  29.805  1.00  0.00     0.087 H 
ENDBRANCH  18  23
ENDBRANCH  14  17
ENDBRANCH   1  14
BRANCH   6  37
ATOM     37  C   UNL     1     -49.831  31.301  24.379  1.00  0.00     0.036 C 
ATOM     38  H   UNL     1     -50.427  31.838  23.631  1.00  0.00     0.049 H 
ATOM     39  H   UNL     1     -50.552  30.883  25.093  1.00  0.00     0.049 H 
BRANCH  37  40
ATOM     40  N   UNL     1     -49.090  30.246  23.696  1.00  0.00    -0.311 NA
ATOM     41  H   UNL     1     -49.618  29.376  23.738  1.00  0.00     0.123 HD
BRANCH  40  42
ATOM     42  C   UNL     1     -48.810  30.572  22.296  1.00  0.00    -0.002 C 
ATOM     43  H   UNL     1     -48.747  31.660  22.173  1.00  0.00     0.043 H 
ATOM     44  H   UNL     1     -49.608  30.206  21.641  1.00  0.00     0.043 H 
BRANCH  42  45
ATOM     45  C   UNL     1     -47.477  29.957  21.885  1.00  0.00    -0.029 C 
ATOM     46  C   UNL     1     -46.266  30.917  21.726  1.00  0.00    -0.049 C 
ATOM     47  C   UNL     1     -46.668  29.278  23.024  1.00  0.00    -0.049 C 
ATOM     48  H   UNL     1     -47.591  29.285  21.021  1.00  0.00     0.032 H 
ATOM     49  C   UNL     1     -45.393  29.800  22.332  1.00  0.00    -0.053 C 
ATOM     50  H   UNL     1     -46.316  31.820  22.345  1.00  0.00     0.027 H 
ATOM     51  H   UNL     1     -46.020  31.204  20.699  1.00  0.00     0.027 H 
ATOM     52  H   UNL     1     -46.833  29.709  24.020  1.00  0.00     0.027 H 
ATOM     53  H   UNL     1     -46.759  28.191  23.089  1.00  0.00     0.027 H 
ATOM     54  H   UNL     1     -44.980  29.109  21.589  1.00  0.00     0.027 H 
ATOM     55  H   UNL     1     -44.591  30.131  22.997  1.00  0.00     0.027 H 
ENDBRANCH  42  45
ENDBRANCH  40  42
ENDBRANCH  37  40
ENDBRANCH   6  37
TORSDOF 7
ENDMDL
