MODEL 1
REMARK VINA RESULT:     -10.5      0.000      0.000
REMARK SMILES COc1cc(-c2cn(Cc3ccc4cc(CNCC5CCC5)[nH]c4c3)nn2)c2cncn2c1
REMARK SMILES IDX 10 1 11 2 12 3 13 4 14 5 15 6 23 7 24 8 25 9 9 15 8 18 6 19
REMARK SMILES IDX 7 20 27 21 26 23 5 24 3 25 4 26 33 27 32 29 28 31 31 32
REMARK SMILES IDX 29 33 30 34 2 37 1 38 16 42 17 45 18 47 19 50 20 51 22 52
REMARK SMILES IDX 21 54
REMARK H PARENT 11 10 12 11 14 12 23 13 25 14 9 16 9 17 7 22 4 28 33 30 31 35
REMARK H PARENT 29 36 1 39 1 40 1 41 16 43 16 44 17 46 18 48 18 49 19 53 20 55
REMARK H PARENT 20 56 22 57 22 58 21 59 21 60
REMARK Flexibility Score: inf
ROOT
ATOM      1  C   UNL     1     -47.799  35.204  26.835  1.00  0.00    -0.024 A 
ATOM      2  C   UNL     1     -46.506  35.102  26.305  1.00  0.00    -0.056 A 
ATOM      3  C   UNL     1     -46.124  33.998  25.531  1.00  0.00    -0.052 A 
ATOM      4  C   UNL     1     -47.057  32.974  25.283  1.00  0.00    -0.000 A 
ATOM      5  C   UNL     1     -47.013  31.749  24.561  1.00  0.00    -0.032 A 
ATOM      6  C   UNL     1     -48.251  31.148  24.664  1.00  0.00     0.030 A 
ATOM      7  N   UNL     1     -49.041  31.976  25.425  1.00  0.00    -0.357 N 
ATOM      8  C   UNL     1     -48.338  33.091  25.817  1.00  0.00     0.046 A 
ATOM      9  C   UNL     1     -48.738  34.183  26.596  1.00  0.00    -0.033 A 
ATOM     10  H   UNL     1     -45.771  35.884  26.485  1.00  0.00     0.063 H 
ATOM     11  H   UNL     1     -45.119  33.933  25.127  1.00  0.00     0.063 H 
ATOM     12  H   UNL     1     -46.164  31.354  24.020  1.00  0.00     0.065 H 
ATOM     13  H   UNL     1     -49.998  31.766  25.679  1.00  0.00     0.166 HD
ATOM     14  H   UNL     1     -49.748  34.242  26.995  1.00  0.00     0.065 H 
ENDROOT
BRANCH   1  15
ATOM     15  C   UNL     1     -48.191  36.406  27.662  1.00  0.00     0.068 C 
ATOM     16  H   UNL     1     -48.976  36.975  27.151  1.00  0.00     0.057 H 
ATOM     17  H   UNL     1     -48.578  36.112  28.644  1.00  0.00     0.057 H 
BRANCH  15  18
ATOM     18  N   UNL     1     -47.060  37.284  27.904  1.00  0.00    -0.247 N 
ATOM     19  C   UNL     1     -45.550  38.821  27.840  1.00  0.00     0.115 A 
ATOM     20  C   UNL     1     -46.690  38.396  27.202  1.00  0.00     0.054 A 
ATOM     21  N   UNL     1     -45.250  37.955  28.860  1.00  0.00    -0.130 NA
ATOM     22  H   UNL     1     -47.250  38.760  26.355  1.00  0.00     0.086 H 
ATOM     23  N   UNL     1     -46.184  37.012  28.889  1.00  0.00    -0.066 NA
BRANCH  19  24
ATOM     24  C   UNL     1     -44.720  39.955  27.540  1.00  0.00     0.033 A 
ATOM     25  C   UNL     1     -44.151  41.829  26.010  1.00  0.00     0.136 A 
ATOM     26  C   UNL     1     -44.918  40.650  26.390  1.00  0.00    -0.007 A 
ATOM     27  C   UNL     1     -43.186  42.259  26.841  1.00  0.00     0.053 A 
ATOM     28  H   UNL     1     -45.697  40.347  25.691  1.00  0.00     0.067 H 
ATOM     29  N   UNL     1     -42.954  41.557  28.016  1.00  0.00    -0.302 N 
ATOM     30  H   UNL     1     -42.561  43.122  26.658  1.00  0.00     0.086 H 
ATOM     31  C   UNL     1     -43.663  40.427  28.398  1.00  0.00     0.075 A 
ATOM     32  C   UNL     1     -42.028  41.795  29.001  1.00  0.00     0.099 A 
ATOM     33  C   UNL     1     -43.077  40.032  29.583  1.00  0.00     0.053 A 
ATOM     34  N   UNL     1     -42.077  40.895  29.957  1.00  0.00    -0.244 NA
ATOM     35  H   UNL     1     -41.345  42.632  28.960  1.00  0.00     0.105 H 
ATOM     36  H   UNL     1     -43.315  39.170  30.193  1.00  0.00     0.086 H 
BRANCH  25  37
ATOM     37  O   UNL     1     -44.535  42.369  24.809  1.00  0.00    -0.495 OA
BRANCH  37  38
ATOM     38  C   UNL     1     -43.546  43.063  24.059  1.00  0.00     0.078 C 
ATOM     39  H   UNL     1     -44.001  43.842  23.438  1.00  0.00     0.067 H 
ATOM     40  H   UNL     1     -42.961  42.368  23.448  1.00  0.00     0.067 H 
ATOM     41  H   UNL     1     -42.866  43.548  24.765  1.00  0.00     0.067 H 
ENDBRANCH  37  38
ENDBRANCH  25  37
ENDBRANCH  19  24
ENDBRANCH  15  18
ENDBRANCH   1  15
BRANCH   6  42
ATOM     42  C   UNL     1     -48.779  29.875  24.102  1.00  0.00     0.036 C 
ATOM     43  H   UNL     1     -48.675  29.883  23.010  1.00  0.00     0.049 H 
ATOM     44  H   UNL     1     -49.846  29.808  24.342  1.00  0.00     0.049 H 
BRANCH  42  45
ATOM     45  N   UNL     1     -48.035  28.756  24.679  1.00  0.00    -0.311 NA
ATOM     46  H   UNL     1     -47.137  28.712  24.197  1.00  0.00     0.123 HD
BRANCH  45  47
ATOM     47  C   UNL     1     -48.722  27.473  24.489  1.00  0.00    -0.002 C 
ATOM     48  H   UNL     1     -48.617  27.200  23.433  1.00  0.00     0.043 H 
ATOM     49  H   UNL     1     -49.798  27.575  24.676  1.00  0.00     0.043 H 
BRANCH  47  50
ATOM     50  C   UNL     1     -48.128  26.372  25.358  1.00  0.00    -0.029 C 
ATOM     51  C   UNL     1     -48.021  26.646  26.884  1.00  0.00    -0.049 C 
ATOM     52  C   UNL     1     -46.577  26.282  25.362  1.00  0.00    -0.049 C 
ATOM     53  H   UNL     1     -48.574  25.391  25.145  1.00  0.00     0.032 H 
ATOM     54  C   UNL     1     -46.675  25.895  26.851  1.00  0.00    -0.053 C 
ATOM     55  H   UNL     1     -48.800  26.193  27.503  1.00  0.00     0.027 H 
ATOM     56  H   UNL     1     -47.925  27.705  27.152  1.00  0.00     0.027 H 
ATOM     57  H   UNL     1     -46.063  27.236  25.192  1.00  0.00     0.027 H 
ATOM     58  H   UNL     1     -46.144  25.525  24.703  1.00  0.00     0.027 H 
ATOM     59  H   UNL     1     -46.768  24.815  27.021  1.00  0.00     0.027 H 
ATOM     60  H   UNL     1     -45.891  26.293  27.500  1.00  0.00     0.027 H 
ENDBRANCH  47  50
ENDBRANCH  45  47
ENDBRANCH  42  45
ENDBRANCH   6  42
TORSDOF 9
ENDMDL
MODEL 2
REMARK VINA RESULT:      -9.8      1.563      2.519
REMARK SMILES COc1cc(-c2cn(Cc3ccc4cc(CNCC5CCC5)[nH]c4c3)nn2)c2cncn2c1
REMARK SMILES IDX 10 1 11 2 12 3 13 4 14 5 15 6 23 7 24 8 25 9 9 15 8 18 6 19
REMARK SMILES IDX 7 20 27 21 26 23 5 24 3 25 4 26 33 27 32 29 28 31 31 32
REMARK SMILES IDX 29 33 30 34 2 37 1 38 16 42 17 45 18 47 19 50 20 51 22 52
REMARK SMILES IDX 21 54
REMARK H PARENT 11 10 12 11 14 12 23 13 25 14 9 16 9 17 7 22 4 28 33 30 31 35
REMARK H PARENT 29 36 1 39 1 40 1 41 16 43 16 44 17 46 18 48 18 49 19 53 20 55
REMARK H PARENT 20 56 22 57 22 58 21 59 21 60
REMARK Flexibility Score: inf
ROOT
ATOM      1  C   UNL     1     -48.131  34.641  26.568  1.00  0.00    -0.024 A 
ATOM      2  C   UNL     1     -46.810  34.656  26.102  1.00  0.00    -0.056 A 
ATOM      3  C   UNL     1     -46.313  33.622  25.298  1.00  0.00    -0.052 A 
ATOM      4  C   UNL     1     -47.156  32.550  24.952  1.00  0.00    -0.000 A 
ATOM      5  C   UNL     1     -46.990  31.370  24.176  1.00  0.00    -0.032 A 
ATOM      6  C   UNL     1     -48.185  30.680  24.186  1.00  0.00     0.030 A 
ATOM      7  N   UNL     1     -49.069  31.412  24.943  1.00  0.00    -0.357 N 
ATOM      8  C   UNL     1     -48.467  32.551  25.424  1.00  0.00     0.046 A 
ATOM      9  C   UNL     1     -48.982  33.571  26.233  1.00  0.00    -0.033 A 
ATOM     10  H   UNL     1     -46.142  35.477  26.358  1.00  0.00     0.063 H 
ATOM     11  H   UNL     1     -45.287  33.648  24.943  1.00  0.00     0.063 H 
ATOM     12  H   UNL     1     -46.089  31.063  23.662  1.00  0.00     0.065 H 
ATOM     13  H   UNL     1     -50.019  31.123  25.137  1.00  0.00     0.166 HD
ATOM     14  H   UNL     1     -50.011  33.539  26.580  1.00  0.00     0.065 H 
ENDROOT
BRANCH   1  15
ATOM     15  C   UNL     1     -48.648  35.769  27.430  1.00  0.00     0.068 C 
ATOM     16  H   UNL     1     -49.317  36.413  26.848  1.00  0.00     0.057 H 
ATOM     17  H   UNL     1     -49.213  35.394  28.291  1.00  0.00     0.057 H 
BRANCH  15  18
ATOM     18  N   UNL     1     -47.566  36.579  27.961  1.00  0.00    -0.247 N 
ATOM     19  C   UNL     1     -46.031  38.050  28.320  1.00  0.00     0.115 A 
ATOM     20  C   UNL     1     -47.028  37.718  27.433  1.00  0.00     0.054 A 
ATOM     21  N   UNL     1     -45.973  37.106  29.312  1.00  0.00    -0.130 NA
ATOM     22  H   UNL     1     -47.391  38.162  26.519  1.00  0.00     0.086 H 
ATOM     23  N   UNL     1     -46.919  36.204  29.081  1.00  0.00    -0.066 NA
BRANCH  19  24
ATOM     24  C   UNL     1     -45.125  39.164  28.279  1.00  0.00     0.033 A 
ATOM     25  C   UNL     1     -43.121  40.311  29.197  1.00  0.00     0.136 A 
ATOM     26  C   UNL     1     -44.107  39.240  29.175  1.00  0.00    -0.007 A 
ATOM     27  C   UNL     1     -43.219  41.289  28.280  1.00  0.00     0.053 A 
ATOM     28  H   UNL     1     -43.979  38.463  29.929  1.00  0.00     0.067 H 
ATOM     29  N   UNL     1     -44.259  41.243  27.362  1.00  0.00    -0.302 N 
ATOM     30  H   UNL     1     -42.541  42.128  28.205  1.00  0.00     0.086 H 
ATOM     31  C   UNL     1     -45.218  40.240  27.324  1.00  0.00     0.075 A 
ATOM     32  C   UNL     1     -44.567  42.123  26.354  1.00  0.00     0.099 A 
ATOM     33  C   UNL     1     -46.073  40.614  26.308  1.00  0.00     0.053 A 
ATOM     34  N   UNL     1     -45.653  41.772  25.702  1.00  0.00    -0.244 NA
ATOM     35  H   UNL     1     -43.969  43.000  26.151  1.00  0.00     0.105 H 
ATOM     36  H   UNL     1     -46.975  40.115  25.976  1.00  0.00     0.086 H 
BRANCH  25  37
ATOM     37  O   UNL     1     -42.182  40.172  30.186  1.00  0.00    -0.495 OA
BRANCH  37  38
ATOM     38  C   UNL     1     -41.200  41.194  30.304  1.00  0.00     0.078 C 
ATOM     39  H   UNL     1     -41.561  42.133  29.872  1.00  0.00     0.067 H 
ATOM     40  H   UNL     1     -40.258  40.887  29.839  1.00  0.00     0.067 H 
ATOM     41  H   UNL     1     -41.014  41.361  31.368  1.00  0.00     0.067 H 
ENDBRANCH  37  38
ENDBRANCH  25  37
ENDBRANCH  19  24
ENDBRANCH  15  18
ENDBRANCH   1  15
BRANCH   6  42
ATOM     42  C   UNL     1     -48.593  29.404  23.537  1.00  0.00     0.036 C 
ATOM     43  H   UNL     1     -47.721  28.939  23.058  1.00  0.00     0.049 H 
ATOM     44  H   UNL     1     -49.327  29.633  22.758  1.00  0.00     0.049 H 
BRANCH  42  45
ATOM     45  N   UNL     1     -49.156  28.514  24.551  1.00  0.00    -0.311 NA
ATOM     46  H   UNL     1     -48.896  28.893  25.462  1.00  0.00     0.123 HD
BRANCH  45  47
ATOM     47  C   UNL     1     -48.623  27.150  24.453  1.00  0.00    -0.002 C 
ATOM     48  H   UNL     1     -47.831  27.162  23.696  1.00  0.00     0.043 H 
ATOM     49  H   UNL     1     -49.390  26.457  24.086  1.00  0.00     0.043 H 
BRANCH  47  50
ATOM     50  C   UNL     1     -48.050  26.663  25.777  1.00  0.00    -0.029 C 
ATOM     51  C   UNL     1     -46.702  25.891  25.731  1.00  0.00    -0.049 C 
ATOM     52  C   UNL     1     -48.671  25.355  26.339  1.00  0.00    -0.049 C 
ATOM     53  H   UNL     1     -48.047  27.453  26.542  1.00  0.00     0.032 H 
ATOM     54  C   UNL     1     -47.263  24.990  26.850  1.00  0.00    -0.053 C 
ATOM     55  H   UNL     1     -45.813  26.471  25.992  1.00  0.00     0.027 H 
ATOM     56  H   UNL     1     -46.514  25.356  24.792  1.00  0.00     0.027 H 
ATOM     57  H   UNL     1     -49.050  24.664  25.577  1.00  0.00     0.027 H 
ATOM     58  H   UNL     1     -49.435  25.486  27.110  1.00  0.00     0.027 H 
ATOM     59  H   UNL     1     -47.051  25.359  27.861  1.00  0.00     0.027 H 
ATOM     60  H   UNL     1     -46.992  23.934  26.791  1.00  0.00     0.027 H 
ENDBRANCH  47  50
ENDBRANCH  45  47
ENDBRANCH  42  45
ENDBRANCH   6  42
TORSDOF 9
ENDMDL
MODEL 3
REMARK VINA RESULT:      -9.7      1.881      2.259
REMARK SMILES COc1cc(-c2cn(Cc3ccc4cc(CNCC5CCC5)[nH]c4c3)nn2)c2cncn2c1
REMARK SMILES IDX 10 1 11 2 12 3 13 4 14 5 15 6 23 7 24 8 25 9 9 15 8 18 6 19
REMARK SMILES IDX 7 20 27 21 26 23 5 24 3 25 4 26 33 27 32 29 28 31 31 32
REMARK SMILES IDX 29 33 30 34 2 37 1 38 16 42 17 45 18 47 19 50 20 51 22 52
REMARK SMILES IDX 21 54
REMARK H PARENT 11 10 12 11 14 12 23 13 25 14 9 16 9 17 7 22 4 28 33 30 31 35
REMARK H PARENT 29 36 1 39 1 40 1 41 16 43 16 44 17 46 18 48 18 49 19 53 20 55
REMARK H PARENT 20 56 22 57 22 58 21 59 21 60
REMARK Flexibility Score: inf
ROOT
ATOM      1  C   UNL     1     -47.269  35.404  27.468  1.00  0.00    -0.024 A 
ATOM      2  C   UNL     1     -46.082  34.973  26.861  1.00  0.00    -0.056 A 
ATOM      3  C   UNL     1     -46.080  33.916  25.941  1.00  0.00    -0.052 A 
ATOM      4  C   UNL     1     -47.291  33.277  25.622  1.00  0.00    -0.000 A 
ATOM      5  C   UNL     1     -47.647  32.204  24.758  1.00  0.00    -0.032 A 
ATOM      6  C   UNL     1     -49.010  32.011  24.855  1.00  0.00     0.030 A 
ATOM      7  N   UNL     1     -49.487  32.938  25.751  1.00  0.00    -0.357 N 
ATOM      8  C   UNL     1     -48.463  33.716  26.235  1.00  0.00     0.046 A 
ATOM      9  C   UNL     1     -48.486  34.767  27.160  1.00  0.00    -0.033 A 
ATOM     10  H   UNL     1     -45.135  35.457  27.094  1.00  0.00     0.063 H 
ATOM     11  H   UNL     1     -45.152  33.595  25.478  1.00  0.00     0.063 H 
ATOM     12  H   UNL     1     -46.973  31.638  24.128  1.00  0.00     0.065 H 
ATOM     13  H   UNL     1     -50.458  33.005  26.029  1.00  0.00     0.166 HD
ATOM     14  H   UNL     1     -49.420  35.086  27.616  1.00  0.00     0.065 H 
ENDROOT
BRANCH   1  15
ATOM     15  C   UNL     1     -47.249  36.549  28.453  1.00  0.00     0.068 C 
ATOM     16  H   UNL     1     -48.270  36.793  28.768  1.00  0.00     0.057 H 
ATOM     17  H   UNL     1     -46.675  36.299  29.352  1.00  0.00     0.057 H 
BRANCH  15  18
ATOM     18  N   UNL     1     -46.640  37.737  27.884  1.00  0.00    -0.247 N 
ATOM     19  C   UNL     1     -45.385  39.424  27.405  1.00  0.00     0.115 A 
ATOM     20  C   UNL     1     -45.467  38.338  28.244  1.00  0.00     0.054 A 
ATOM     21  N   UNL     1     -46.501  39.468  26.609  1.00  0.00    -0.130 NA
ATOM     22  H   UNL     1     -44.832  37.951  29.025  1.00  0.00     0.086 H 
ATOM     23  N   UNL     1     -47.267  38.428  26.913  1.00  0.00    -0.066 NA
BRANCH  19  24
ATOM     24  C   UNL     1     -44.356  40.423  27.324  1.00  0.00     0.033 A 
ATOM     25  C   UNL     1     -43.282  42.275  26.061  1.00  0.00     0.136 A 
ATOM     26  C   UNL     1     -44.269  41.216  26.224  1.00  0.00    -0.007 A 
ATOM     27  C   UNL     1     -42.400  42.485  27.053  1.00  0.00     0.053 A 
ATOM     28  H   UNL     1     -44.971  41.092  25.401  1.00  0.00     0.067 H 
ATOM     29  N   UNL     1     -42.458  41.678  28.182  1.00  0.00    -0.302 N 
ATOM     30  H   UNL     1     -41.630  43.243  27.037  1.00  0.00     0.086 H 
ATOM     31  C   UNL     1     -43.381  40.657  28.360  1.00  0.00     0.075 A 
ATOM     32  C   UNL     1     -41.666  41.695  29.302  1.00  0.00     0.099 A 
ATOM     33  C   UNL     1     -43.048  40.094  29.574  1.00  0.00     0.053 A 
ATOM     34  N   UNL     1     -41.996  40.754  30.159  1.00  0.00    -0.244 NA
ATOM     35  H   UNL     1     -40.864  42.409  29.432  1.00  0.00     0.105 H 
ATOM     36  H   UNL     1     -43.505  39.245  30.065  1.00  0.00     0.086 H 
BRANCH  25  37
ATOM     37  O   UNL     1     -43.393  42.949  24.873  1.00  0.00    -0.495 OA
BRANCH  37  38
ATOM     38  C   UNL     1     -42.317  43.800  24.502  1.00  0.00     0.078 C 
ATOM     39  H   UNL     1     -41.749  44.119  25.382  1.00  0.00     0.067 H 
ATOM     40  H   UNL     1     -42.679  44.666  23.937  1.00  0.00     0.067 H 
ATOM     41  H   UNL     1     -41.645  43.232  23.853  1.00  0.00     0.067 H 
ENDBRANCH  37  38
ENDBRANCH  25  37
ENDBRANCH  19  24
ENDBRANCH  15  18
ENDBRANCH   1  15
BRANCH   6  42
ATOM     42  C   UNL     1     -49.921  31.052  24.173  1.00  0.00     0.036 C 
ATOM     43  H   UNL     1     -50.949  31.435  24.203  1.00  0.00     0.049 H 
ATOM     44  H   UNL     1     -49.895  30.104  24.721  1.00  0.00     0.049 H 
BRANCH  42  45
ATOM     45  N   UNL     1     -49.479  30.877  22.790  1.00  0.00    -0.311 NA
ATOM     46  H   UNL     1     -50.254  31.159  22.189  1.00  0.00     0.123 HD
BRANCH  45  47
ATOM     47  C   UNL     1     -49.145  29.482  22.484  1.00  0.00    -0.002 C 
ATOM     48  H   UNL     1     -49.805  29.158  21.671  1.00  0.00     0.043 H 
ATOM     49  H   UNL     1     -49.366  28.831  23.339  1.00  0.00     0.043 H 
BRANCH  47  50
ATOM     50  C   UNL     1     -47.694  29.323  22.050  1.00  0.00    -0.029 C 
ATOM     51  C   UNL     1     -46.632  29.124  23.167  1.00  0.00    -0.049 C 
ATOM     52  C   UNL     1     -46.947  30.641  21.706  1.00  0.00    -0.049 C 
ATOM     53  H   UNL     1     -47.582  28.590  21.240  1.00  0.00     0.032 H 
ATOM     54  C   UNL     1     -45.686  30.004  22.325  1.00  0.00    -0.053 C 
ATOM     55  H   UNL     1     -46.300  28.095  23.329  1.00  0.00     0.027 H 
ATOM     56  H   UNL     1     -46.898  29.569  24.134  1.00  0.00     0.027 H 
ATOM     57  H   UNL     1     -47.302  31.524  22.251  1.00  0.00     0.027 H 
ATOM     58  H   UNL     1     -46.881  30.885  20.643  1.00  0.00     0.027 H 
ATOM     59  H   UNL     1     -45.080  29.438  21.606  1.00  0.00     0.027 H 
ATOM     60  H   UNL     1     -45.037  30.680  22.886  1.00  0.00     0.027 H 
ENDBRANCH  47  50
ENDBRANCH  45  47
ENDBRANCH  42  45
ENDBRANCH   6  42
TORSDOF 9
ENDMDL
MODEL 4
REMARK VINA RESULT:      -9.4      1.949      3.103
REMARK SMILES COc1cc(-c2cn(Cc3ccc4cc(CNCC5CCC5)[nH]c4c3)nn2)c2cncn2c1
REMARK SMILES IDX 10 1 11 2 12 3 13 4 14 5 15 6 23 7 24 8 25 9 9 15 8 18 6 19
REMARK SMILES IDX 7 20 27 21 26 23 5 24 3 25 4 26 33 27 32 29 28 31 31 32
REMARK SMILES IDX 29 33 30 34 2 37 1 38 16 42 17 45 18 47 19 50 20 51 22 52
REMARK SMILES IDX 21 54
REMARK H PARENT 11 10 12 11 14 12 23 13 25 14 9 16 9 17 7 22 4 28 33 30 31 35
REMARK H PARENT 29 36 1 39 1 40 1 41 16 43 16 44 17 46 18 48 18 49 19 53 20 55
REMARK H PARENT 20 56 22 57 22 58 21 59 21 60
REMARK Flexibility Score: inf
ROOT
ATOM      1  C   UNL     1     -47.412  36.705  27.686  1.00  0.00    -0.024 A 
ATOM      2  C   UNL     1     -46.160  36.227  28.092  1.00  0.00    -0.056 A 
ATOM      3  C   UNL     1     -45.730  34.937  27.754  1.00  0.00    -0.052 A 
ATOM      4  C   UNL     1     -46.573  34.107  26.993  1.00  0.00    -0.000 A 
ATOM      5  C   UNL     1     -46.462  32.783  26.485  1.00  0.00    -0.032 A 
ATOM      6  C   UNL     1     -47.622  32.491  25.796  1.00  0.00     0.030 A 
ATOM      7  N   UNL     1     -48.428  33.602  25.871  1.00  0.00    -0.357 N 
ATOM      8  C   UNL     1     -47.816  34.596  26.597  1.00  0.00     0.046 A 
ATOM      9  C   UNL     1     -48.265  35.880  26.928  1.00  0.00    -0.033 A 
ATOM     10  H   UNL     1     -45.493  36.855  28.681  1.00  0.00     0.063 H 
ATOM     11  H   UNL     1     -44.756  34.581  28.076  1.00  0.00     0.063 H 
ATOM     12  H   UNL     1     -45.618  32.117  26.609  1.00  0.00     0.065 H 
ATOM     13  H   UNL     1     -49.355  33.654  25.469  1.00  0.00     0.166 HD
ATOM     14  H   UNL     1     -49.241  36.230  26.599  1.00  0.00     0.065 H 
ENDROOT
BRANCH   1  15
ATOM     15  C   UNL     1     -47.853  38.102  28.057  1.00  0.00     0.068 C 
ATOM     16  H   UNL     1     -48.890  38.265  27.743  1.00  0.00     0.057 H 
ATOM     17  H   UNL     1     -47.803  38.267  29.139  1.00  0.00     0.057 H 
BRANCH  15  18
ATOM     18  N   UNL     1     -47.013  39.112  27.440  1.00  0.00    -0.247 N 
ATOM     19  C   UNL     1     -45.434  40.472  26.887  1.00  0.00     0.115 A 
ATOM     20  C   UNL     1     -45.730  39.455  27.763  1.00  0.00     0.054 A 
ATOM     21  N   UNL     1     -46.530  40.733  26.106  1.00  0.00    -0.130 NA
ATOM     22  H   UNL     1     -45.179  38.962  28.548  1.00  0.00     0.086 H 
ATOM     23  N   UNL     1     -47.497  39.893  26.456  1.00  0.00    -0.066 NA
BRANCH  19  24
ATOM     24  C   UNL     1     -44.215  41.222  26.759  1.00  0.00     0.033 A 
ATOM     25  C   UNL     1     -41.972  41.805  27.656  1.00  0.00     0.136 A 
ATOM     26  C   UNL     1     -43.251  41.110  27.710  1.00  0.00    -0.007 A 
ATOM     27  C   UNL     1     -41.724  42.608  26.607  1.00  0.00     0.053 A 
ATOM     28  H   UNL     1     -43.401  40.461  28.572  1.00  0.00     0.067 H 
ATOM     29  N   UNL     1     -42.699  42.750  25.629  1.00  0.00    -0.302 N 
ATOM     30  H   UNL     1     -40.809  43.166  26.467  1.00  0.00     0.086 H 
ATOM     31  C   UNL     1     -43.929  42.108  25.660  1.00  0.00     0.075 A 
ATOM     32  C   UNL     1     -42.679  43.514  24.489  1.00  0.00     0.099 A 
ATOM     33  C   UNL     1     -44.591  42.570  24.541  1.00  0.00     0.053 A 
ATOM     34  N   UNL     1     -43.803  43.427  23.813  1.00  0.00    -0.244 NA
ATOM     35  H   UNL     1     -41.824  44.114  24.211  1.00  0.00     0.105 H 
ATOM     36  H   UNL     1     -45.597  42.338  24.215  1.00  0.00     0.086 H 
BRANCH  25  37
ATOM     37  O   UNL     1     -41.154  41.531  28.722  1.00  0.00    -0.495 OA
BRANCH  37  38
ATOM     38  C   UNL     1     -41.744  40.907  29.855  1.00  0.00     0.078 C 
ATOM     39  H   UNL     1     -41.930  41.636  30.651  1.00  0.00     0.067 H 
ATOM     40  H   UNL     1     -41.120  40.084  30.217  1.00  0.00     0.067 H 
ATOM     41  H   UNL     1     -42.708  40.491  29.547  1.00  0.00     0.067 H 
ENDBRANCH  37  38
ENDBRANCH  25  37
ENDBRANCH  19  24
ENDBRANCH  15  18
ENDBRANCH   1  15
BRANCH   6  42
ATOM     42  C   UNL     1     -48.047  31.275  25.051  1.00  0.00     0.036 C 
ATOM     43  H   UNL     1     -47.231  30.937  24.400  1.00  0.00     0.049 H 
ATOM     44  H   UNL     1     -48.900  31.538  24.418  1.00  0.00     0.049 H 
BRANCH  42  45
ATOM     45  N   UNL     1     -48.401  30.230  26.011  1.00  0.00    -0.311 NA
ATOM     46  H   UNL     1     -47.529  29.821  26.347  1.00  0.00     0.123 HD
BRANCH  45  47
ATOM     47  C   UNL     1     -49.204  29.163  25.403  1.00  0.00    -0.002 C 
ATOM     48  H   UNL     1     -49.342  29.421  24.346  1.00  0.00     0.043 H 
ATOM     49  H   UNL     1     -50.207  29.128  25.846  1.00  0.00     0.043 H 
BRANCH  47  50
ATOM     50  C   UNL     1     -48.523  27.805  25.507  1.00  0.00    -0.029 C 
ATOM     51  C   UNL     1     -49.428  26.544  25.423  1.00  0.00    -0.049 C 
ATOM     52  C   UNL     1     -48.168  27.339  26.946  1.00  0.00    -0.049 C 
ATOM     53  H   UNL     1     -47.648  27.729  24.846  1.00  0.00     0.032 H 
ATOM     54  C   UNL     1     -48.514  25.907  26.490  1.00  0.00    -0.053 C 
ATOM     55  H   UNL     1     -49.448  26.037  24.455  1.00  0.00     0.027 H 
ATOM     56  H   UNL     1     -50.458  26.698  25.766  1.00  0.00     0.027 H 
ATOM     57  H   UNL     1     -48.836  27.721  27.728  1.00  0.00     0.027 H 
ATOM     58  H   UNL     1     -47.133  27.500  27.254  1.00  0.00     0.027 H 
ATOM     59  H   UNL     1     -47.662  25.359  26.071  1.00  0.00     0.027 H 
ATOM     60  H   UNL     1     -49.014  25.278  27.231  1.00  0.00     0.027 H 
ENDBRANCH  47  50
ENDBRANCH  45  47
ENDBRANCH  42  45
ENDBRANCH   6  42
TORSDOF 9
ENDMDL
MODEL 5
REMARK VINA RESULT:      -9.4      2.169      2.997
REMARK SMILES COc1cc(-c2cn(Cc3ccc4cc(CNCC5CCC5)[nH]c4c3)nn2)c2cncn2c1
REMARK SMILES IDX 10 1 11 2 12 3 13 4 14 5 15 6 23 7 24 8 25 9 9 15 8 18 6 19
REMARK SMILES IDX 7 20 27 21 26 23 5 24 3 25 4 26 33 27 32 29 28 31 31 32
REMARK SMILES IDX 29 33 30 34 2 37 1 38 16 42 17 45 18 47 19 50 20 51 22 52
REMARK SMILES IDX 21 54
REMARK H PARENT 11 10 12 11 14 12 23 13 25 14 9 16 9 17 7 22 4 28 33 30 31 35
REMARK H PARENT 29 36 1 39 1 40 1 41 16 43 16 44 17 46 18 48 18 49 19 53 20 55
REMARK H PARENT 20 56 22 57 22 58 21 59 21 60
REMARK Flexibility Score: inf
ROOT
ATOM      1  C   UNL     1     -46.382  35.459  27.508  1.00  0.00    -0.024 A 
ATOM      2  C   UNL     1     -47.701  35.900  27.341  1.00  0.00    -0.056 A 
ATOM      3  C   UNL     1     -48.682  35.064  26.791  1.00  0.00    -0.052 A 
ATOM      4  C   UNL     1     -48.335  33.758  26.400  1.00  0.00    -0.000 A 
ATOM      5  C   UNL     1     -49.053  32.673  25.825  1.00  0.00    -0.032 A 
ATOM      6  C   UNL     1     -48.176  31.620  25.661  1.00  0.00     0.030 A 
ATOM      7  N   UNL     1     -46.950  32.037  26.122  1.00  0.00    -0.357 N 
ATOM      8  C   UNL     1     -47.019  33.334  26.573  1.00  0.00     0.046 A 
ATOM      9  C   UNL     1     -46.023  34.155  27.116  1.00  0.00    -0.033 A 
ATOM     10  H   UNL     1     -47.989  36.907  27.638  1.00  0.00     0.063 H 
ATOM     11  H   UNL     1     -49.700  35.420  26.668  1.00  0.00     0.063 H 
ATOM     12  H   UNL     1     -50.103  32.666  25.565  1.00  0.00     0.065 H 
ATOM     13  H   UNL     1     -46.115  31.467  26.098  1.00  0.00     0.166 HD
ATOM     14  H   UNL     1     -45.007  33.790  27.239  1.00  0.00     0.065 H 
ENDROOT
BRANCH   1  15
ATOM     15  C   UNL     1     -45.342  36.375  28.108  1.00  0.00     0.068 C 
ATOM     16  H   UNL     1     -45.229  36.168  29.179  1.00  0.00     0.057 H 
ATOM     17  H   UNL     1     -44.361  36.237  27.638  1.00  0.00     0.057 H 
BRANCH  15  18
ATOM     18  N   UNL     1     -45.694  37.773  27.938  1.00  0.00    -0.247 N 
ATOM     19  C   UNL     1     -45.910  39.814  27.276  1.00  0.00     0.115 A 
ATOM     20  C   UNL     1     -45.321  38.620  26.933  1.00  0.00     0.054 A 
ATOM     21  N   UNL     1     -46.572  39.667  28.467  1.00  0.00    -0.130 NA
ATOM     22  H   UNL     1     -44.702  38.304  26.107  1.00  0.00     0.086 H 
ATOM     23  N   UNL     1     -46.431  38.409  28.867  1.00  0.00    -0.066 NA
BRANCH  19  24
ATOM     24  C   UNL     1     -45.865  41.071  26.583  1.00  0.00     0.033 A 
ATOM     25  C   UNL     1     -44.569  42.722  25.251  1.00  0.00     0.136 A 
ATOM     26  C   UNL     1     -44.708  41.480  26.001  1.00  0.00    -0.007 A 
ATOM     27  C   UNL     1     -45.646  43.517  25.126  1.00  0.00     0.053 A 
ATOM     28  H   UNL     1     -43.813  40.863  26.064  1.00  0.00     0.067 H 
ATOM     29  N   UNL     1     -46.838  43.128  25.724  1.00  0.00    -0.302 N 
ATOM     30  H   UNL     1     -45.655  44.455  24.590  1.00  0.00     0.086 H 
ATOM     31  C   UNL     1     -46.995  41.956  26.451  1.00  0.00     0.075 A 
ATOM     32  C   UNL     1     -48.049  43.772  25.743  1.00  0.00     0.099 A 
ATOM     33  C   UNL     1     -48.299  41.998  26.900  1.00  0.00     0.053 A 
ATOM     34  N   UNL     1     -48.949  43.117  26.443  1.00  0.00    -0.244 NA
ATOM     35  H   UNL     1     -48.211  44.714  25.238  1.00  0.00     0.105 H 
ATOM     36  H   UNL     1     -48.812  41.284  27.532  1.00  0.00     0.086 H 
BRANCH  25  37
ATOM     37  O   UNL     1     -43.310  42.920  24.747  1.00  0.00    -0.495 OA
BRANCH  37  38
ATOM     38  C   UNL     1     -42.298  43.326  25.659  1.00  0.00     0.078 C 
ATOM     39  H   UNL     1     -41.316  42.957  25.342  1.00  0.00     0.067 H 
ATOM     40  H   UNL     1     -42.530  42.992  26.675  1.00  0.00     0.067 H 
ATOM     41  H   UNL     1     -42.264  44.419  25.661  1.00  0.00     0.067 H 
ENDBRANCH  37  38
ENDBRANCH  25  37
ENDBRANCH  19  24
ENDBRANCH  15  18
ENDBRANCH   1  15
BRANCH   6  42
ATOM     42  C   UNL     1     -48.376  30.244  25.129  1.00  0.00     0.036 C 
ATOM     43  H   UNL     1     -47.593  30.014  24.397  1.00  0.00     0.049 H 
ATOM     44  H   UNL     1     -49.343  30.210  24.616  1.00  0.00     0.049 H 
BRANCH  42  45
ATOM     45  N   UNL     1     -48.334  29.294  26.240  1.00  0.00    -0.311 NA
ATOM     46  H   UNL     1     -47.354  29.184  26.504  1.00  0.00     0.123 HD
BRANCH  45  47
ATOM     47  C   UNL     1     -48.859  27.976  25.867  1.00  0.00    -0.002 C 
ATOM     48  H   UNL     1     -48.612  27.813  24.812  1.00  0.00     0.043 H 
ATOM     49  H   UNL     1     -49.954  27.959  25.935  1.00  0.00     0.043 H 
BRANCH  47  50
ATOM     50  C   UNL     1     -48.253  26.860  26.707  1.00  0.00    -0.029 C 
ATOM     51  C   UNL     1     -46.858  26.323  26.281  1.00  0.00    -0.049 C 
ATOM     52  C   UNL     1     -48.787  25.431  26.414  1.00  0.00    -0.049 C 
ATOM     53  H   UNL     1     -48.299  27.079  27.783  1.00  0.00     0.032 H 
ATOM     54  C   UNL     1     -47.357  24.919  26.679  1.00  0.00    -0.053 C 
ATOM     55  H   UNL     1     -46.008  26.702  26.854  1.00  0.00     0.027 H 
ATOM     56  H   UNL     1     -46.638  26.422  25.211  1.00  0.00     0.027 H 
ATOM     57  H   UNL     1     -49.123  25.271  25.383  1.00  0.00     0.027 H 
ATOM     58  H   UNL     1     -49.556  25.063  27.098  1.00  0.00     0.027 H 
ATOM     59  H   UNL     1     -47.167  24.665  27.729  1.00  0.00     0.027 H 
ATOM     60  H   UNL     1     -47.019  24.096  26.045  1.00  0.00     0.027 H 
ENDBRANCH  47  50
ENDBRANCH  45  47
ENDBRANCH  42  45
ENDBRANCH   6  42
TORSDOF 9
ENDMDL
MODEL 6
REMARK VINA RESULT:      -9.4      3.245     11.598
REMARK SMILES COc1cc(-c2cn(Cc3ccc4cc(CNCC5CCC5)[nH]c4c3)nn2)c2cncn2c1
REMARK SMILES IDX 10 1 11 2 12 3 13 4 14 5 15 6 23 7 24 8 25 9 9 15 8 18 6 19
REMARK SMILES IDX 7 20 27 21 26 23 5 24 3 25 4 26 33 27 32 29 28 31 31 32
REMARK SMILES IDX 29 33 30 34 2 37 1 38 16 42 17 45 18 47 19 50 20 51 22 52
REMARK SMILES IDX 21 54
REMARK H PARENT 11 10 12 11 14 12 23 13 25 14 9 16 9 17 7 22 4 28 33 30 31 35
REMARK H PARENT 29 36 1 39 1 40 1 41 16 43 16 44 17 46 18 48 18 49 19 53 20 55
REMARK H PARENT 20 56 22 57 22 58 21 59 21 60
REMARK Flexibility Score: inf
ROOT
ATOM      1  C   UNL     1     -47.427  36.478  27.902  1.00  0.00    -0.024 A 
ATOM      2  C   UNL     1     -46.869  36.254  29.168  1.00  0.00    -0.056 A 
ATOM      3  C   UNL     1     -45.842  37.068  29.663  1.00  0.00    -0.052 A 
ATOM      4  C   UNL     1     -45.362  38.129  28.874  1.00  0.00    -0.000 A 
ATOM      5  C   UNL     1     -44.361  39.124  29.055  1.00  0.00    -0.032 A 
ATOM      6  C   UNL     1     -44.333  39.913  27.923  1.00  0.00     0.030 A 
ATOM      7  N   UNL     1     -45.290  39.425  27.065  1.00  0.00    -0.357 N 
ATOM      8  C   UNL     1     -45.926  38.338  27.617  1.00  0.00     0.046 A 
ATOM      9  C   UNL     1     -46.950  37.534  27.103  1.00  0.00    -0.033 A 
ATOM     10  H   UNL     1     -47.228  35.439  29.794  1.00  0.00     0.063 H 
ATOM     11  H   UNL     1     -45.420  36.882  30.646  1.00  0.00     0.063 H 
ATOM     12  H   UNL     1     -43.732  39.249  29.926  1.00  0.00     0.065 H 
ATOM     13  H   UNL     1     -45.469  39.805  26.144  1.00  0.00     0.166 HD
ATOM     14  H   UNL     1     -47.369  37.729  26.118  1.00  0.00     0.065 H 
ENDROOT
BRANCH   1  15
ATOM     15  C   UNL     1     -48.538  35.591  27.391  1.00  0.00     0.068 C 
ATOM     16  H   UNL     1     -49.275  35.416  28.183  1.00  0.00     0.057 H 
ATOM     17  H   UNL     1     -49.062  36.048  26.544  1.00  0.00     0.057 H 
BRANCH  15  18
ATOM     18  N   UNL     1     -48.034  34.310  26.930  1.00  0.00    -0.247 N 
ATOM     19  C   UNL     1     -47.733  32.391  25.996  1.00  0.00     0.115 A 
ATOM     20  C   UNL     1     -48.619  33.440  26.054  1.00  0.00     0.054 A 
ATOM     21  N   UNL     1     -46.684  32.634  26.844  1.00  0.00    -0.130 NA
ATOM     22  H   UNL     1     -49.566  33.644  25.578  1.00  0.00     0.086 H 
ATOM     23  N   UNL     1     -46.880  33.816  27.416  1.00  0.00    -0.066 NA
BRANCH  19  24
ATOM     24  C   UNL     1     -47.822  31.180  25.228  1.00  0.00     0.033 A 
ATOM     25  C   UNL     1     -48.833  28.931  24.910  1.00  0.00     0.136 A 
ATOM     26  C   UNL     1     -48.650  30.182  25.634  1.00  0.00    -0.007 A 
ATOM     27  C   UNL     1     -48.141  28.744  23.772  1.00  0.00     0.053 A 
ATOM     28  H   UNL     1     -49.241  30.293  26.542  1.00  0.00     0.067 H 
ATOM     29  N   UNL     1     -47.277  29.743  23.343  1.00  0.00    -0.302 N 
ATOM     30  H   UNL     1     -48.203  27.858  23.157  1.00  0.00     0.086 H 
ATOM     31  C   UNL     1     -47.077  30.940  24.018  1.00  0.00     0.075 A 
ATOM     32  C   UNL     1     -46.468  29.774  22.235  1.00  0.00     0.099 A 
ATOM     33  C   UNL     1     -46.115  31.598  23.280  1.00  0.00     0.053 A 
ATOM     34  N   UNL     1     -45.756  30.877  22.169  1.00  0.00    -0.244 NA
ATOM     35  H   UNL     1     -46.436  28.962  21.521  1.00  0.00     0.105 H 
ATOM     36  H   UNL     1     -45.654  32.556  23.486  1.00  0.00     0.086 H 
BRANCH  25  37
ATOM     37  O   UNL     1     -49.726  28.079  25.505  1.00  0.00    -0.495 OA
BRANCH  37  38
ATOM     38  C   UNL     1     -49.478  26.684  25.383  1.00  0.00     0.078 C 
ATOM     39  H   UNL     1     -48.604  26.389  25.974  1.00  0.00     0.067 H 
ATOM     40  H   UNL     1     -49.354  26.399  24.333  1.00  0.00     0.067 H 
ATOM     41  H   UNL     1     -50.347  26.151  25.778  1.00  0.00     0.067 H 
ENDBRANCH  37  38
ENDBRANCH  25  37
ENDBRANCH  19  24
ENDBRANCH  15  18
ENDBRANCH   1  15
BRANCH   6  42
ATOM     42  C   UNL     1     -43.508  41.100  27.569  1.00  0.00     0.036 C 
ATOM     43  H   UNL     1     -42.903  40.876  26.681  1.00  0.00     0.049 H 
ATOM     44  H   UNL     1     -42.828  41.308  28.401  1.00  0.00     0.049 H 
BRANCH  42  45
ATOM     45  N   UNL     1     -44.393  42.235  27.313  1.00  0.00    -0.311 NA
ATOM     46  H   UNL     1     -45.120  41.911  26.674  1.00  0.00     0.123 HD
BRANCH  45  47
ATOM     47  C   UNL     1     -43.692  43.357  26.679  1.00  0.00    -0.002 C 
ATOM     48  H   UNL     1     -42.838  43.611  27.317  1.00  0.00     0.043 H 
ATOM     49  H   UNL     1     -44.330  44.249  26.648  1.00  0.00     0.043 H 
BRANCH  47  50
ATOM     50  C   UNL     1     -43.193  43.005  25.284  1.00  0.00    -0.029 C 
ATOM     51  C   UNL     1     -41.727  43.384  24.933  1.00  0.00    -0.049 C 
ATOM     52  C   UNL     1     -43.616  43.981  24.151  1.00  0.00    -0.049 C 
ATOM     53  H   UNL     1     -43.427  41.967  25.010  1.00  0.00     0.032 H 
ATOM     54  C   UNL     1     -42.233  43.733  23.518  1.00  0.00    -0.053 C 
ATOM     55  H   UNL     1     -41.000  42.570  24.987  1.00  0.00     0.027 H 
ATOM     56  H   UNL     1     -41.335  44.249  25.482  1.00  0.00     0.027 H 
ATOM     57  H   UNL     1     -43.768  45.018  24.474  1.00  0.00     0.027 H 
ATOM     58  H   UNL     1     -44.474  43.667  23.552  1.00  0.00     0.027 H 
ATOM     59  H   UNL     1     -42.212  42.886  22.821  1.00  0.00     0.027 H 
ATOM     60  H   UNL     1     -41.763  44.597  23.044  1.00  0.00     0.027 H 
ENDBRANCH  47  50
ENDBRANCH  45  47
ENDBRANCH  42  45
ENDBRANCH   6  42
TORSDOF 9
ENDMDL
MODEL 7
REMARK VINA RESULT:      -9.4      2.310      3.712
REMARK SMILES COc1cc(-c2cn(Cc3ccc4cc(CNCC5CCC5)[nH]c4c3)nn2)c2cncn2c1
REMARK SMILES IDX 10 1 11 2 12 3 13 4 14 5 15 6 23 7 24 8 25 9 9 15 8 18 6 19
REMARK SMILES IDX 7 20 27 21 26 23 5 24 3 25 4 26 33 27 32 29 28 31 31 32
REMARK SMILES IDX 29 33 30 34 2 37 1 38 16 42 17 45 18 47 19 50 20 51 22 52
REMARK SMILES IDX 21 54
REMARK H PARENT 11 10 12 11 14 12 23 13 25 14 9 16 9 17 7 22 4 28 33 30 31 35
REMARK H PARENT 29 36 1 39 1 40 1 41 16 43 16 44 17 46 18 48 18 49 19 53 20 55
REMARK H PARENT 20 56 22 57 22 58 21 59 21 60
REMARK Flexibility Score: inf
ROOT
ATOM      1  C   UNL     1     -47.567  36.755  27.497  1.00  0.00    -0.024 A 
ATOM      2  C   UNL     1     -46.235  36.368  27.302  1.00  0.00    -0.056 A 
ATOM      3  C   UNL     1     -45.913  35.099  26.803  1.00  0.00    -0.052 A 
ATOM      4  C   UNL     1     -46.947  34.197  26.493  1.00  0.00    -0.000 A 
ATOM      5  C   UNL     1     -46.983  32.869  25.984  1.00  0.00    -0.032 A 
ATOM      6  C   UNL     1     -48.306  32.487  25.881  1.00  0.00     0.030 A 
ATOM      7  N   UNL     1     -49.068  33.546  26.312  1.00  0.00    -0.357 N 
ATOM      8  C   UNL     1     -48.267  34.596  26.693  1.00  0.00     0.046 A 
ATOM      9  C   UNL     1     -48.609  35.858  27.195  1.00  0.00    -0.033 A 
ATOM     10  H   UNL     1     -45.421  37.052  27.535  1.00  0.00     0.063 H 
ATOM     11  H   UNL     1     -44.875  34.814  26.656  1.00  0.00     0.063 H 
ATOM     12  H   UNL     1     -46.129  32.261  25.717  1.00  0.00     0.065 H 
ATOM     13  H   UNL     1     -50.079  33.529  26.364  1.00  0.00     0.166 HD
ATOM     14  H   UNL     1     -49.651  36.137  27.335  1.00  0.00     0.065 H 
ENDROOT
BRANCH   1  15
ATOM     15  C   UNL     1     -47.891  38.130  28.031  1.00  0.00     0.068 C 
ATOM     16  H   UNL     1     -48.940  38.376  27.828  1.00  0.00     0.057 H 
ATOM     17  H   UNL     1     -47.739  38.190  29.115  1.00  0.00     0.057 H 
BRANCH  15  18
ATOM     18  N   UNL     1     -47.049  39.151  27.434  1.00  0.00    -0.247 N 
ATOM     19  C   UNL     1     -45.462  40.510  26.901  1.00  0.00     0.115 A 
ATOM     20  C   UNL     1     -45.757  39.468  27.747  1.00  0.00     0.054 A 
ATOM     21  N   UNL     1     -46.567  40.809  26.146  1.00  0.00    -0.130 NA
ATOM     22  H   UNL     1     -45.199  38.944  28.508  1.00  0.00     0.086 H 
ATOM     23  N   UNL     1     -47.538  39.969  26.483  1.00  0.00    -0.066 NA
BRANCH  19  24
ATOM     24  C   UNL     1     -44.237  41.250  26.778  1.00  0.00     0.033 A 
ATOM     25  C   UNL     1     -41.983  41.797  27.673  1.00  0.00     0.136 A 
ATOM     26  C   UNL     1     -43.270  41.114  27.722  1.00  0.00    -0.007 A 
ATOM     27  C   UNL     1     -41.732  42.613  26.635  1.00  0.00     0.053 A 
ATOM     28  H   UNL     1     -43.422  40.454  28.575  1.00  0.00     0.067 H 
ATOM     29  N   UNL     1     -42.711  42.780  25.663  1.00  0.00    -0.302 N 
ATOM     30  H   UNL     1     -40.813  43.165  26.498  1.00  0.00     0.086 H 
ATOM     31  C   UNL     1     -43.947  42.150  25.690  1.00  0.00     0.075 A 
ATOM     32  C   UNL     1     -42.689  43.560  24.534  1.00  0.00     0.099 A 
ATOM     33  C   UNL     1     -44.609  42.635  24.581  1.00  0.00     0.053 A 
ATOM     34  N   UNL     1     -43.817  43.494  23.862  1.00  0.00    -0.244 NA
ATOM     35  H   UNL     1     -41.829  44.156  24.261  1.00  0.00     0.105 H 
ATOM     36  H   UNL     1     -45.619  42.417  24.257  1.00  0.00     0.086 H 
BRANCH  25  37
ATOM     37  O   UNL     1     -41.164  41.500  28.730  1.00  0.00    -0.495 OA
BRANCH  37  38
ATOM     38  C   UNL     1     -41.740  40.804  29.828  1.00  0.00     0.078 C 
ATOM     39  H   UNL     1     -41.055  40.785  30.682  1.00  0.00     0.067 H 
ATOM     40  H   UNL     1     -42.032  39.790  29.539  1.00  0.00     0.067 H 
ATOM     41  H   UNL     1     -42.643  41.342  30.132  1.00  0.00     0.067 H 
ENDBRANCH  37  38
ENDBRANCH  25  37
ENDBRANCH  19  24
ENDBRANCH  15  18
ENDBRANCH   1  15
BRANCH   6  42
ATOM     42  C   UNL     1     -48.933  31.226  25.399  1.00  0.00     0.036 C 
ATOM     43  H   UNL     1     -49.460  31.414  24.456  1.00  0.00     0.049 H 
ATOM     44  H   UNL     1     -49.669  30.901  26.142  1.00  0.00     0.049 H 
BRANCH  42  45
ATOM     45  N   UNL     1     -47.890  30.218  25.211  1.00  0.00    -0.311 NA
ATOM     46  H   UNL     1     -46.993  30.705  25.239  1.00  0.00     0.123 HD
BRANCH  45  47
ATOM     47  C   UNL     1     -48.001  29.536  23.917  1.00  0.00    -0.002 C 
ATOM     48  H   UNL     1     -48.824  28.816  23.997  1.00  0.00     0.043 H 
ATOM     49  H   UNL     1     -47.098  28.951  23.705  1.00  0.00     0.043 H 
BRANCH  47  50
ATOM     50  C   UNL     1     -48.290  30.508  22.781  1.00  0.00    -0.029 C 
ATOM     51  C   UNL     1     -49.308  30.059  21.697  1.00  0.00    -0.049 C 
ATOM     52  C   UNL     1     -47.235  30.542  21.640  1.00  0.00    -0.049 C 
ATOM     53  H   UNL     1     -48.498  31.523  23.147  1.00  0.00     0.032 H 
ATOM     54  C   UNL     1     -48.406  30.759  20.661  1.00  0.00    -0.053 C 
ATOM     55  H   UNL     1     -50.318  30.466  21.796  1.00  0.00     0.027 H 
ATOM     56  H   UNL     1     -49.375  28.973  21.555  1.00  0.00     0.027 H 
ATOM     57  H   UNL     1     -46.704  29.596  21.480  1.00  0.00     0.027 H 
ATOM     58  H   UNL     1     -46.505  31.353  21.693  1.00  0.00     0.027 H 
ATOM     59  H   UNL     1     -48.657  31.815  20.501  1.00  0.00     0.027 H 
ATOM     60  H   UNL     1     -48.317  30.262  19.692  1.00  0.00     0.027 H 
ENDBRANCH  47  50
ENDBRANCH  45  47
ENDBRANCH  42  45
ENDBRANCH   6  42
TORSDOF 9
ENDMDL
