MODEL 1
REMARK VINA RESULT:     -11.1      0.000      0.000
REMARK SMILES Nc1ccc2cc(CC[C@H]3C[C@@H](n4ccc5c(N)ncnc54)[C@H](O)[C@@H]3O)ccc2n1
REMARK SMILES IDX 9 1 8 4 7 7 2 8 3 9 30 10 4 11 29 13 5 14 28 16 6 17 27 18
REMARK SMILES IDX 1 22 10 25 11 26 25 27 12 29 23 32 26 36 13 38 14 39 22 40
REMARK SMILES IDX 15 41 16 43 21 44 17 46 20 47 19 48 18 50 24 53
REMARK H PARENT 9 2 9 3 8 5 8 6 3 12 4 15 28 19 6 20 27 21 1 23 1 24 10 28
REMARK H PARENT 11 30 11 31 25 33 12 34 23 35 26 37 14 42 15 45 20 49 18 51
REMARK H PARENT 18 52 24 54
REMARK Flexibility Score: inf
ROOT
ATOM      1  C   UNL     1     -47.764  36.127  26.811  1.00  0.00    -0.044 C 
ATOM      2  H   UNL     1     -46.936  36.542  26.224  1.00  0.00     0.027 H 
ATOM      3  H   UNL     1     -48.669  36.314  26.217  1.00  0.00     0.027 H 
ENDROOT
BRANCH   1   4
ATOM      4  C   UNL     1     -47.932  36.917  28.118  1.00  0.00    -0.028 C 
ATOM      5  H   UNL     1     -48.385  36.285  28.890  1.00  0.00     0.032 H 
ATOM      6  H   UNL     1     -48.666  37.715  27.942  1.00  0.00     0.032 H 
BRANCH   4   7
ATOM      7  C   UNL     1     -46.682  37.581  28.639  1.00  0.00    -0.047 A 
ATOM      8  C   UNL     1     -42.683  40.442  29.483  1.00  0.00     0.124 A 
ATOM      9  C   UNL     1     -43.177  40.916  28.281  1.00  0.00    -0.019 A 
ATOM     10  N   UNL     1     -43.243  39.422  30.154  1.00  0.00    -0.231 NA
ATOM     11  C   UNL     1     -44.313  40.319  27.745  1.00  0.00    -0.049 A 
ATOM     12  H   UNL     1     -42.682  41.726  27.757  1.00  0.00     0.066 H 
ATOM     13  C   UNL     1     -44.343  38.843  29.639  1.00  0.00     0.073 A 
ATOM     14  C   UNL     1     -44.924  39.262  28.426  1.00  0.00     0.001 A 
ATOM     15  H   UNL     1     -44.709  40.682  26.801  1.00  0.00     0.063 H 
ATOM     16  C   UNL     1     -44.942  37.792  30.317  1.00  0.00    -0.035 A 
ATOM     17  C   UNL     1     -46.079  38.627  27.931  1.00  0.00    -0.050 A 
ATOM     18  C   UNL     1     -46.093  37.160  29.834  1.00  0.00    -0.057 A 
ATOM     19  H   UNL     1     -44.500  37.453  31.251  1.00  0.00     0.065 H 
ATOM     20  H   UNL     1     -46.516  38.964  26.994  1.00  0.00     0.063 H 
ATOM     21  H   UNL     1     -46.521  36.338  30.403  1.00  0.00     0.063 H 
BRANCH   8  22
ATOM     22  N   UNL     1     -41.536  40.997  30.044  1.00  0.00    -0.384 N 
ATOM     23  H   UNL     1     -40.855  40.285  30.279  1.00  0.00     0.158 HD
ATOM     24  H   UNL     1     -41.170  41.659  29.364  1.00  0.00     0.158 HD
ENDBRANCH   8  22
ENDBRANCH   4   7
ENDBRANCH   1   4
BRANCH   1  25
ATOM     25  C   UNL     1     -47.593  34.601  26.890  1.00  0.00    -0.010 C 
ATOM     26  C   UNL     1     -48.717  33.751  26.293  1.00  0.00    -0.024 C 
ATOM     27  C   UNL     1     -46.344  34.028  26.222  1.00  0.00     0.085 C 
ATOM     28  H   UNL     1     -47.542  34.373  27.966  1.00  0.00     0.033 H 
ATOM     29  C   UNL     1     -48.101  32.349  26.078  1.00  0.00     0.064 C 
ATOM     30  H   UNL     1     -49.573  33.703  26.973  1.00  0.00     0.029 H 
ATOM     31  H   UNL     1     -49.084  34.155  25.349  1.00  0.00     0.029 H 
ATOM     32  C   UNL     1     -46.584  32.511  26.302  1.00  0.00     0.101 C 
ATOM     33  H   UNL     1     -46.257  34.364  25.186  1.00  0.00     0.063 H 
ATOM     34  H   UNL     1     -48.499  31.671  26.846  1.00  0.00     0.056 H 
ATOM     35  H   UNL     1     -45.946  31.949  25.616  1.00  0.00     0.065 H 
BRANCH  27  36
ATOM     36  O   UNL     1     -45.166  34.393  26.932  1.00  0.00    -0.390 OA
ATOM     37  H   UNL     1     -45.028  33.714  27.618  1.00  0.00     0.211 HD
ENDBRANCH  27  36
BRANCH  29  38
ATOM     38  N   UNL     1     -48.500  31.775  24.799  1.00  0.00    -0.327 N 
ATOM     39  C   UNL     1     -49.811  31.711  24.375  1.00  0.00     0.007 A 
ATOM     40  C   UNL     1     -47.682  31.270  23.816  1.00  0.00     0.145 A 
ATOM     41  C   UNL     1     -49.828  31.160  23.113  1.00  0.00    -0.031 A 
ATOM     42  H   UNL     1     -50.619  32.065  25.004  1.00  0.00     0.082 H 
ATOM     43  C   UNL     1     -48.483  30.878  22.750  1.00  0.00     0.061 A 
ATOM     44  N   UNL     1     -46.342  31.165  23.872  1.00  0.00    -0.218 NA
ATOM     45  H   UNL     1     -50.713  30.975  22.519  1.00  0.00     0.065 H 
ATOM     46  C   UNL     1     -47.834  30.331  21.634  1.00  0.00     0.136 A 
ATOM     47  C   UNL     1     -45.837  30.607  22.759  1.00  0.00     0.120 A 
ATOM     48  N   UNL     1     -46.494  30.207  21.656  1.00  0.00    -0.219 NA
ATOM     49  H   UNL     1     -44.760  30.469  22.742  1.00  0.00     0.106 H 
BRANCH  46  50
ATOM     50  N   UNL     1     -48.494  29.915  20.489  1.00  0.00    -0.383 N 
ATOM     51  H   UNL     1     -48.314  28.961  20.211  1.00  0.00     0.158 HD
ATOM     52  H   UNL     1     -49.459  30.221  20.486  1.00  0.00     0.158 HD
ENDBRANCH  46  50
ENDBRANCH  29  38
BRANCH  32  53
ATOM     53  O   UNL     1     -46.250  32.050  27.626  1.00  0.00    -0.388 OA
ATOM     54  H   UNL     1     -46.852  31.298  27.807  1.00  0.00     0.211 HD
ENDBRANCH  32  53
ENDBRANCH   1  25
TORSDOF 8
ENDMDL
MODEL 2
REMARK VINA RESULT:     -10.7      2.116     10.196
REMARK SMILES Nc1ccc2cc(CC[C@H]3C[C@@H](n4ccc5c(N)ncnc54)[C@H](O)[C@@H]3O)ccc2n1
REMARK SMILES IDX 9 1 8 4 7 7 2 8 3 9 30 10 4 11 29 13 5 14 28 16 6 17 27 18
REMARK SMILES IDX 1 22 10 25 11 26 25 27 12 29 23 32 26 36 13 38 14 39 22 40
REMARK SMILES IDX 15 41 16 43 21 44 17 46 20 47 19 48 18 50 24 53
REMARK H PARENT 9 2 9 3 8 5 8 6 3 12 4 15 28 19 6 20 27 21 1 23 1 24 10 28
REMARK H PARENT 11 30 11 31 25 33 12 34 23 35 26 37 14 42 15 45 20 49 18 51
REMARK H PARENT 18 52 24 54
REMARK Flexibility Score: inf
ROOT
ATOM      1  C   UNL     1     -47.271  35.447  26.591  1.00  0.00    -0.044 C 
ATOM      2  H   UNL     1     -48.158  34.916  26.957  1.00  0.00     0.027 H 
ATOM      3  H   UNL     1     -47.640  36.155  25.837  1.00  0.00     0.027 H 
ENDROOT
BRANCH   1   4
ATOM      4  C   UNL     1     -46.339  34.473  25.854  1.00  0.00    -0.028 C 
ATOM      5  H   UNL     1     -45.423  34.310  26.432  1.00  0.00     0.032 H 
ATOM      6  H   UNL     1     -46.005  34.957  24.927  1.00  0.00     0.032 H 
BRANCH   4   7
ATOM      7  C   UNL     1     -46.960  33.157  25.459  1.00  0.00    -0.047 A 
ATOM      8  C   UNL     1     -48.112  28.711  23.511  1.00  0.00     0.124 A 
ATOM      9  C   UNL     1     -46.955  29.070  22.844  1.00  0.00    -0.019 A 
ATOM     10  N   UNL     1     -48.696  29.488  24.437  1.00  0.00    -0.231 NA
ATOM     11  C   UNL     1     -46.358  30.287  23.154  1.00  0.00    -0.049 A 
ATOM     12  H   UNL     1     -46.527  28.425  22.085  1.00  0.00     0.066 H 
ATOM     13  C   UNL     1     -48.121  30.666  24.740  1.00  0.00     0.073 A 
ATOM     14  C   UNL     1     -46.937  31.114  24.121  1.00  0.00     0.001 A 
ATOM     15  H   UNL     1     -45.450  30.581  22.636  1.00  0.00     0.063 H 
ATOM     16  C   UNL     1     -48.702  31.484  25.697  1.00  0.00    -0.035 A 
ATOM     17  C   UNL     1     -46.371  32.353  24.476  1.00  0.00    -0.050 A 
ATOM     18  C   UNL     1     -48.142  32.714  26.059  1.00  0.00    -0.057 A 
ATOM     19  H   UNL     1     -49.621  31.155  26.177  1.00  0.00     0.065 H 
ATOM     20  H   UNL     1     -45.455  32.683  23.990  1.00  0.00     0.063 H 
ATOM     21  H   UNL     1     -48.641  33.319  26.813  1.00  0.00     0.063 H 
BRANCH   8  22
ATOM     22  N   UNL     1     -48.754  27.509  23.217  1.00  0.00    -0.384 N 
ATOM     23  H   UNL     1     -49.084  27.050  24.057  1.00  0.00     0.158 HD
ATOM     24  H   UNL     1     -49.518  27.735  22.585  1.00  0.00     0.158 HD
ENDBRANCH   8  22
ENDBRANCH   4   7
ENDBRANCH   1   4
BRANCH   1  25
ATOM     25  C   UNL     1     -46.695  36.288  27.743  1.00  0.00    -0.010 C 
ATOM     26  C   UNL     1     -45.354  36.979  27.485  1.00  0.00    -0.024 C 
ATOM     27  C   UNL     1     -47.573  37.432  28.247  1.00  0.00     0.085 C 
ATOM     28  H   UNL     1     -46.547  35.577  28.570  1.00  0.00     0.033 H 
ATOM     29  C   UNL     1     -45.249  38.086  28.559  1.00  0.00     0.064 C 
ATOM     30  H   UNL     1     -44.525  36.268  27.571  1.00  0.00     0.029 H 
ATOM     31  H   UNL     1     -45.296  37.411  26.485  1.00  0.00     0.029 H 
ATOM     32  C   UNL     1     -46.640  38.170  29.220  1.00  0.00     0.101 C 
ATOM     33  H   UNL     1     -47.890  38.082  27.428  1.00  0.00     0.063 H 
ATOM     34  H   UNL     1     -44.519  37.769  29.317  1.00  0.00     0.056 H 
ATOM     35  H   UNL     1     -46.988  39.180  29.451  1.00  0.00     0.065 H 
BRANCH  27  36
ATOM     36  O   UNL     1     -48.723  36.939  28.923  1.00  0.00    -0.390 OA
ATOM     37  H   UNL     1     -49.434  37.593  28.786  1.00  0.00     0.211 HD
ENDBRANCH  27  36
BRANCH  29  38
ATOM     38  N   UNL     1     -44.728  39.328  28.005  1.00  0.00    -0.327 N 
ATOM     39  C   UNL     1     -45.213  39.901  26.847  1.00  0.00     0.007 A 
ATOM     40  C   UNL     1     -43.750  40.138  28.534  1.00  0.00     0.145 A 
ATOM     41  C   UNL     1     -44.537  41.082  26.637  1.00  0.00    -0.031 A 
ATOM     42  H   UNL     1     -45.996  39.422  26.273  1.00  0.00     0.082 H 
ATOM     43  C   UNL     1     -43.609  41.242  27.702  1.00  0.00     0.061 A 
ATOM     44  N   UNL     1     -43.046  39.904  29.656  1.00  0.00    -0.218 NA
ATOM     45  H   UNL     1     -44.691  41.756  25.805  1.00  0.00     0.065 H 
ATOM     46  C   UNL     1     -42.652  42.197  28.069  1.00  0.00     0.136 A 
ATOM     47  C   UNL     1     -42.146  40.874  29.893  1.00  0.00     0.120 A 
ATOM     48  N   UNL     1     -41.925  41.996  29.185  1.00  0.00    -0.219 NA
ATOM     49  H   UNL     1     -41.523  40.742  30.773  1.00  0.00     0.106 H 
BRANCH  46  50
ATOM     50  N   UNL     1     -42.411  43.359  27.354  1.00  0.00    -0.383 N 
ATOM     51  H   UNL     1     -41.922  43.233  26.479  1.00  0.00     0.158 HD
ATOM     52  H   UNL     1     -43.223  43.963  27.345  1.00  0.00     0.158 HD
ENDBRANCH  46  50
ENDBRANCH  29  38
BRANCH  32  53
ATOM     53  O   UNL     1     -46.611  37.462  30.475  1.00  0.00    -0.388 OA
ATOM     54  H   UNL     1     -46.371  36.538  30.254  1.00  0.00     0.211 HD
ENDBRANCH  32  53
ENDBRANCH   1  25
TORSDOF 8
ENDMDL
MODEL 3
REMARK VINA RESULT:     -10.3      1.349      2.279
REMARK SMILES Nc1ccc2cc(CC[C@H]3C[C@@H](n4ccc5c(N)ncnc54)[C@H](O)[C@@H]3O)ccc2n1
REMARK SMILES IDX 9 1 8 4 7 7 2 8 3 9 30 10 4 11 29 13 5 14 28 16 6 17 27 18
REMARK SMILES IDX 1 22 10 25 11 26 25 27 12 29 23 32 26 36 13 38 14 39 22 40
REMARK SMILES IDX 15 41 16 43 21 44 17 46 20 47 19 48 18 50 24 53
REMARK H PARENT 9 2 9 3 8 5 8 6 3 12 4 15 28 19 6 20 27 21 1 23 1 24 10 28
REMARK H PARENT 11 30 11 31 25 33 12 34 23 35 26 37 14 42 15 45 20 49 18 51
REMARK H PARENT 18 52 24 54
REMARK Flexibility Score: inf
ROOT
ATOM      1  C   UNL     1     -47.789  36.181  26.867  1.00  0.00    -0.044 C 
ATOM      2  H   UNL     1     -47.296  36.554  25.961  1.00  0.00     0.027 H 
ATOM      3  H   UNL     1     -48.866  36.271  26.675  1.00  0.00     0.027 H 
ENDROOT
BRANCH   1   4
ATOM      4  C   UNL     1     -47.481  37.107  28.054  1.00  0.00    -0.028 C 
ATOM      5  H   UNL     1     -47.153  36.522  28.920  1.00  0.00     0.032 H 
ATOM      6  H   UNL     1     -48.420  37.579  28.372  1.00  0.00     0.032 H 
BRANCH   4   7
ATOM      7  C   UNL     1     -46.508  38.224  27.769  1.00  0.00    -0.047 A 
ATOM      8  C   UNL     1     -42.802  41.563  27.759  1.00  0.00     0.124 A 
ATOM      9  C   UNL     1     -42.618  40.875  28.944  1.00  0.00    -0.019 A 
ATOM     10  N   UNL     1     -43.805  41.300  26.906  1.00  0.00    -0.231 NA
ATOM     11  C   UNL     1     -43.504  39.853  29.265  1.00  0.00    -0.049 A 
ATOM     12  H   UNL     1     -41.809  41.133  29.618  1.00  0.00     0.066 H 
ATOM     13  C   UNL     1     -44.664  40.311  27.213  1.00  0.00     0.073 A 
ATOM     14  C   UNL     1     -44.554  39.549  28.392  1.00  0.00     0.001 A 
ATOM     15  H   UNL     1     -43.372  39.306  30.194  1.00  0.00     0.063 H 
ATOM     16  C   UNL     1     -45.705  40.017  26.345  1.00  0.00    -0.035 A 
ATOM     17  C   UNL     1     -45.476  38.520  28.667  1.00  0.00    -0.050 A 
ATOM     18  C   UNL     1     -46.622  38.993  26.609  1.00  0.00    -0.057 A 
ATOM     19  H   UNL     1     -45.808  40.603  25.435  1.00  0.00     0.065 H 
ATOM     20  H   UNL     1     -45.375  37.939  29.581  1.00  0.00     0.063 H 
ATOM     21  H   UNL     1     -47.422  38.807  25.896  1.00  0.00     0.063 H 
BRANCH   8  22
ATOM     22  N   UNL     1     -41.949  42.608  27.409  1.00  0.00    -0.384 N 
ATOM     23  H   UNL     1     -41.024  42.479  27.800  1.00  0.00     0.158 HD
ATOM     24  H   UNL     1     -41.928  42.637  26.392  1.00  0.00     0.158 HD
ENDBRANCH   8  22
ENDBRANCH   4   7
ENDBRANCH   1   4
BRANCH   1  25
ATOM     25  C   UNL     1     -47.486  34.680  27.007  1.00  0.00    -0.010 C 
ATOM     26  C   UNL     1     -48.291  33.731  26.116  1.00  0.00    -0.024 C 
ATOM     27  C   UNL     1     -46.044  34.255  26.737  1.00  0.00     0.085 C 
ATOM     28  H   UNL     1     -47.727  34.435  28.053  1.00  0.00     0.033 H 
ATOM     29  C   UNL     1     -47.495  32.406  26.103  1.00  0.00     0.064 C 
ATOM     30  H   UNL     1     -49.299  33.579  26.518  1.00  0.00     0.029 H 
ATOM     31  H   UNL     1     -48.410  34.115  25.103  1.00  0.00     0.029 H 
ATOM     32  C   UNL     1     -46.134  32.721  26.757  1.00  0.00     0.101 C 
ATOM     33  H   UNL     1     -45.696  34.621  25.768  1.00  0.00     0.063 H 
ATOM     34  H   UNL     1     -48.024  31.674  26.728  1.00  0.00     0.056 H 
ATOM     35  H   UNL     1     -45.269  32.243  26.292  1.00  0.00     0.065 H 
BRANCH  27  36
ATOM     36  O   UNL     1     -45.169  34.726  27.755  1.00  0.00    -0.390 OA
ATOM     37  H   UNL     1     -45.064  33.998  28.396  1.00  0.00     0.211 HD
ENDBRANCH  27  36
BRANCH  29  38
ATOM     38  N   UNL     1     -47.442  31.822  24.769  1.00  0.00    -0.327 N 
ATOM     39  C   UNL     1     -46.288  31.762  24.015  1.00  0.00     0.007 A 
ATOM     40  C   UNL     1     -48.464  31.213  24.079  1.00  0.00     0.145 A 
ATOM     41  C   UNL     1     -46.579  31.110  22.837  1.00  0.00    -0.031 A 
ATOM     42  H   UNL     1     -45.361  32.184  24.380  1.00  0.00     0.082 H 
ATOM     43  C   UNL     1     -47.955  30.757  22.869  1.00  0.00     0.061 A 
ATOM     44  N   UNL     1     -49.737  31.083  24.496  1.00  0.00    -0.218 NA
ATOM     45  H   UNL     1     -45.878  30.914  22.037  1.00  0.00     0.065 H 
ATOM     46  C   UNL     1     -48.847  30.100  22.011  1.00  0.00     0.136 A 
ATOM     47  C   UNL     1     -50.500  30.459  23.582  1.00  0.00     0.120 A 
ATOM     48  N   UNL     1     -50.131  29.954  22.392  1.00  0.00    -0.219 NA
ATOM     49  H   UNL     1     -51.548  30.338  23.840  1.00  0.00     0.106 H 
BRANCH  46  50
ATOM     50  N   UNL     1     -48.484  29.572  20.782  1.00  0.00    -0.383 N 
ATOM     51  H   UNL     1     -48.041  28.665  20.817  1.00  0.00     0.158 HD
ATOM     52  H   UNL     1     -49.214  29.702  20.094  1.00  0.00     0.158 HD
ENDBRANCH  46  50
ENDBRANCH  29  38
BRANCH  32  53
ATOM     53  O   UNL     1     -46.152  32.268  28.125  1.00  0.00    -0.388 OA
ATOM     54  H   UNL     1     -46.992  32.600  28.506  1.00  0.00     0.211 HD
ENDBRANCH  32  53
ENDBRANCH   1  25
TORSDOF 8
ENDMDL
MODEL 4
REMARK VINA RESULT:      -9.9      2.151      3.049
REMARK SMILES Nc1ccc2cc(CC[C@H]3C[C@@H](n4ccc5c(N)ncnc54)[C@H](O)[C@@H]3O)ccc2n1
REMARK SMILES IDX 9 1 8 4 7 7 2 8 3 9 30 10 4 11 29 13 5 14 28 16 6 17 27 18
REMARK SMILES IDX 1 22 10 25 11 26 25 27 12 29 23 32 26 36 13 38 14 39 22 40
REMARK SMILES IDX 15 41 16 43 21 44 17 46 20 47 19 48 18 50 24 53
REMARK H PARENT 9 2 9 3 8 5 8 6 3 12 4 15 28 19 6 20 27 21 1 23 1 24 10 28
REMARK H PARENT 11 30 11 31 25 33 12 34 23 35 26 37 14 42 15 45 20 49 18 51
REMARK H PARENT 18 52 24 54
REMARK Flexibility Score: inf
ROOT
ATOM      1  C   UNL     1     -47.375  37.658  27.107  1.00  0.00    -0.044 C 
ATOM      2  H   UNL     1     -46.816  37.815  26.176  1.00  0.00     0.027 H 
ATOM      3  H   UNL     1     -48.431  37.806  26.845  1.00  0.00     0.027 H 
ENDROOT
BRANCH   1   4
ATOM      4  C   UNL     1     -47.022  38.753  28.125  1.00  0.00    -0.028 C 
ATOM      5  H   UNL     1     -46.896  38.320  29.123  1.00  0.00     0.032 H 
ATOM      6  H   UNL     1     -47.886  39.425  28.216  1.00  0.00     0.032 H 
BRANCH   4   7
ATOM      7  C   UNL     1     -45.837  39.614  27.766  1.00  0.00    -0.047 A 
ATOM      8  C   UNL     1     -42.598  42.855  25.792  1.00  0.00     0.124 A 
ATOM      9  C   UNL     1     -43.703  42.953  24.967  1.00  0.00    -0.019 A 
ATOM     10  N   UNL     1     -42.539  42.020  26.843  1.00  0.00    -0.231 NA
ATOM     11  C   UNL     1     -44.812  42.161  25.240  1.00  0.00    -0.049 A 
ATOM     12  H   UNL     1     -43.702  43.623  24.114  1.00  0.00     0.066 H 
ATOM     13  C   UNL     1     -43.611  41.252  27.111  1.00  0.00     0.073 A 
ATOM     14  C   UNL     1     -44.785  41.288  26.333  1.00  0.00     0.001 A 
ATOM     15  H   UNL     1     -45.685  42.228  24.598  1.00  0.00     0.063 H 
ATOM     16  C   UNL     1     -43.576  40.385  28.194  1.00  0.00    -0.035 A 
ATOM     17  C   UNL     1     -45.882  40.468  26.657  1.00  0.00    -0.050 A 
ATOM     18  C   UNL     1     -44.665  39.572  28.525  1.00  0.00    -0.057 A 
ATOM     19  H   UNL     1     -42.674  40.341  28.798  1.00  0.00     0.065 H 
ATOM     20  H   UNL     1     -46.782  40.510  26.048  1.00  0.00     0.063 H 
ATOM     21  H   UNL     1     -44.584  38.907  29.382  1.00  0.00     0.063 H 
BRANCH   8  22
ATOM     22  N   UNL     1     -41.458  43.616  25.542  1.00  0.00    -0.384 N 
ATOM     23  H   UNL     1     -40.645  43.031  25.397  1.00  0.00     0.158 HD
ATOM     24  H   UNL     1     -41.663  44.187  24.725  1.00  0.00     0.158 HD
ENDBRANCH   8  22
ENDBRANCH   4   7
ENDBRANCH   1   4
BRANCH   1  25
ATOM     25  C   UNL     1     -47.223  36.187  27.526  1.00  0.00    -0.010 C 
ATOM     26  C   UNL     1     -47.947  35.148  26.666  1.00  0.00    -0.024 C 
ATOM     27  C   UNL     1     -45.796  35.644  27.580  1.00  0.00     0.085 C 
ATOM     28  H   UNL     1     -47.650  36.132  28.539  1.00  0.00     0.033 H 
ATOM     29  C   UNL     1     -47.271  33.798  26.995  1.00  0.00     0.064 C 
ATOM     30  H   UNL     1     -49.016  35.121  26.904  1.00  0.00     0.029 H 
ATOM     31  H   UNL     1     -47.867  35.365  25.600  1.00  0.00     0.029 H 
ATOM     32  C   UNL     1     -46.014  34.142  27.821  1.00  0.00     0.101 C 
ATOM     33  H   UNL     1     -45.265  35.825  26.643  1.00  0.00     0.063 H 
ATOM     34  H   UNL     1     -47.953  33.209  27.624  1.00  0.00     0.056 H 
ATOM     35  H   UNL     1     -45.126  33.547  27.592  1.00  0.00     0.065 H 
BRANCH  27  36
ATOM     36  O   UNL     1     -45.063  36.228  28.651  1.00  0.00    -0.390 OA
ATOM     37  H   UNL     1     -44.245  35.708  28.750  1.00  0.00     0.211 HD
ENDBRANCH  27  36
BRANCH  29  38
ATOM     38  N   UNL     1     -47.049  32.999  25.797  1.00  0.00    -0.327 N 
ATOM     39  C   UNL     1     -46.191  33.376  24.786  1.00  0.00     0.007 A 
ATOM     40  C   UNL     1     -47.586  31.768  25.499  1.00  0.00     0.145 A 
ATOM     41  C   UNL     1     -46.182  32.379  23.836  1.00  0.00    -0.031 A 
ATOM     42  H   UNL     1     -45.659  34.318  24.827  1.00  0.00     0.082 H 
ATOM     43  C   UNL     1     -47.061  31.355  24.280  1.00  0.00     0.061 A 
ATOM     44  N   UNL     1     -48.467  31.083  26.249  1.00  0.00    -0.218 NA
ATOM     45  H   UNL     1     -45.608  32.388  22.919  1.00  0.00     0.065 H 
ATOM     46  C   UNL     1     -47.488  30.111  23.794  1.00  0.00     0.136 A 
ATOM     47  C   UNL     1     -48.817  29.921  25.672  1.00  0.00     0.120 A 
ATOM     48  N   UNL     1     -48.373  29.397  24.515  1.00  0.00    -0.219 NA
ATOM     49  H   UNL     1     -49.546  29.321  26.210  1.00  0.00     0.106 H 
BRANCH  46  50
ATOM     50  N   UNL     1     -47.039  29.555  22.606  1.00  0.00    -0.383 N 
ATOM     51  H   UNL     1     -47.754  29.134  22.031  1.00  0.00     0.158 HD
ATOM     52  H   UNL     1     -46.373  30.160  22.144  1.00  0.00     0.158 HD
ENDBRANCH  46  50
ENDBRANCH  29  38
BRANCH  32  53
ATOM     53  O   UNL     1     -46.292  33.923  29.218  1.00  0.00    -0.388 OA
ATOM     54  H   UNL     1     -45.559  33.364  29.552  1.00  0.00     0.211 HD
ENDBRANCH  32  53
ENDBRANCH   1  25
TORSDOF 8
ENDMDL
MODEL 5
REMARK VINA RESULT:      -9.9      3.708      5.298
REMARK SMILES Nc1ccc2cc(CC[C@H]3C[C@@H](n4ccc5c(N)ncnc54)[C@H](O)[C@@H]3O)ccc2n1
REMARK SMILES IDX 9 1 8 4 7 7 2 8 3 9 30 10 4 11 29 13 5 14 28 16 6 17 27 18
REMARK SMILES IDX 1 22 10 25 11 26 25 27 12 29 23 32 26 36 13 38 14 39 22 40
REMARK SMILES IDX 15 41 16 43 21 44 17 46 20 47 19 48 18 50 24 53
REMARK H PARENT 9 2 9 3 8 5 8 6 3 12 4 15 28 19 6 20 27 21 1 23 1 24 10 28
REMARK H PARENT 11 30 11 31 25 33 12 34 23 35 26 37 14 42 15 45 20 49 18 51
REMARK H PARENT 18 52 24 54
REMARK Flexibility Score: inf
ROOT
ATOM      1  C   UNL     1     -46.422  32.720  24.211  1.00  0.00    -0.044 C 
ATOM      2  H   UNL     1     -45.406  32.831  23.814  1.00  0.00     0.027 H 
ATOM      3  H   UNL     1     -46.963  33.622  23.893  1.00  0.00     0.027 H 
ENDROOT
BRANCH   1   4
ATOM      4  C   UNL     1     -46.394  32.751  25.747  1.00  0.00    -0.028 C 
ATOM      5  H   UNL     1     -45.408  32.453  26.118  1.00  0.00     0.032 H 
ATOM      6  H   UNL     1     -47.080  31.976  26.116  1.00  0.00     0.032 H 
BRANCH   4   7
ATOM      7  C   UNL     1     -46.828  34.051  26.377  1.00  0.00    -0.047 A 
ATOM      8  C   UNL     1     -47.169  38.542  28.522  1.00  0.00     0.124 A 
ATOM      9  C   UNL     1     -45.808  38.303  28.478  1.00  0.00    -0.019 A 
ATOM     10  N   UNL     1     -48.082  37.667  28.070  1.00  0.00    -0.231 NA
ATOM     11  C   UNL     1     -45.358  37.107  27.931  1.00  0.00    -0.049 A 
ATOM     12  H   UNL     1     -45.103  39.025  28.875  1.00  0.00     0.066 H 
ATOM     13  C   UNL     1     -47.650  36.508  27.538  1.00  0.00     0.073 A 
ATOM     14  C   UNL     1     -46.284  36.179  27.443  1.00  0.00     0.001 A 
ATOM     15  H   UNL     1     -44.291  36.907  27.893  1.00  0.00     0.063 H 
ATOM     16  C   UNL     1     -48.574  35.591  27.060  1.00  0.00    -0.035 A 
ATOM     17  C   UNL     1     -45.882  34.956  26.874  1.00  0.00    -0.050 A 
ATOM     18  C   UNL     1     -48.182  34.375  26.488  1.00  0.00    -0.057 A 
ATOM     19  H   UNL     1     -49.633  35.828  27.135  1.00  0.00     0.065 H 
ATOM     20  H   UNL     1     -44.824  34.718  26.805  1.00  0.00     0.063 H 
ATOM     21  H   UNL     1     -48.948  33.690  26.132  1.00  0.00     0.063 H 
BRANCH   8  22
ATOM     22  N   UNL     1     -47.663  39.719  29.080  1.00  0.00    -0.384 N 
ATOM     23  H   UNL     1     -48.322  39.528  29.825  1.00  0.00     0.158 HD
ATOM     24  H   UNL     1     -46.857  40.243  29.414  1.00  0.00     0.158 HD
ENDBRANCH   8  22
ENDBRANCH   4   7
ENDBRANCH   1   4
BRANCH   1  25
ATOM     25  C   UNL     1     -47.094  31.528  23.511  1.00  0.00    -0.010 C 
ATOM     26  C   UNL     1     -46.279  30.236  23.419  1.00  0.00    -0.024 C 
ATOM     27  C   UNL     1     -48.416  31.052  24.111  1.00  0.00     0.085 C 
ATOM     28  H   UNL     1     -47.287  31.871  22.483  1.00  0.00     0.033 H 
ATOM     29  C   UNL     1     -47.309  29.121  23.124  1.00  0.00     0.064 C 
ATOM     30  H   UNL     1     -45.533  30.301  22.620  1.00  0.00     0.029 H 
ATOM     31  H   UNL     1     -45.738  30.021  24.340  1.00  0.00     0.029 H 
ATOM     32  C   UNL     1     -48.698  29.761  23.325  1.00  0.00     0.101 C 
ATOM     33  H   UNL     1     -48.320  30.854  25.181  1.00  0.00     0.063 H 
ATOM     34  H   UNL     1     -47.210  28.823  22.071  1.00  0.00     0.056 H 
ATOM     35  H   UNL     1     -49.440  29.126  23.815  1.00  0.00     0.065 H 
BRANCH  27  36
ATOM     36  O   UNL     1     -49.450  32.007  23.904  1.00  0.00    -0.390 OA
ATOM     37  H   UNL     1     -50.105  31.874  24.615  1.00  0.00     0.211 HD
ENDBRANCH  27  36
BRANCH  29  38
ATOM     38  N   UNL     1     -47.041  27.920  23.903  1.00  0.00    -0.327 N 
ATOM     39  C   UNL     1     -45.844  27.236  23.850  1.00  0.00     0.007 A 
ATOM     40  C   UNL     1     -47.867  27.313  24.820  1.00  0.00     0.145 A 
ATOM     41  C   UNL     1     -45.910  26.186  24.740  1.00  0.00    -0.031 A 
ATOM     42  H   UNL     1     -45.049  27.554  23.188  1.00  0.00     0.082 H 
ATOM     43  C   UNL     1     -47.187  26.228  25.360  1.00  0.00     0.061 A 
ATOM     44  N   UNL     1     -49.117  27.696  25.139  1.00  0.00    -0.218 NA
ATOM     45  H   UNL     1     -45.125  25.464  24.920  1.00  0.00     0.065 H 
ATOM     46  C   UNL     1     -47.864  25.470  26.326  1.00  0.00     0.136 A 
ATOM     47  C   UNL     1     -49.670  26.883  26.055  1.00  0.00     0.120 A 
ATOM     48  N   UNL     1     -49.119  25.820  26.668  1.00  0.00    -0.219 NA
ATOM     49  H   UNL     1     -50.690  27.117  26.346  1.00  0.00     0.106 H 
BRANCH  46  50
ATOM     50  N   UNL     1     -47.311  24.374  26.969  1.00  0.00    -0.383 N 
ATOM     51  H   UNL     1     -47.951  23.615  27.153  1.00  0.00     0.158 HD
ATOM     52  H   UNL     1     -46.410  24.132  26.578  1.00  0.00     0.158 HD
ENDBRANCH  46  50
ENDBRANCH  29  38
BRANCH  32  53
ATOM     53  O   UNL     1     -49.252  30.103  22.039  1.00  0.00    -0.388 OA
ATOM     54  H   UNL     1     -50.127  30.502  22.223  1.00  0.00     0.211 HD
ENDBRANCH  32  53
ENDBRANCH   1  25
TORSDOF 8
ENDMDL
MODEL 6
REMARK VINA RESULT:      -9.8      2.619      9.557
REMARK SMILES Nc1ccc2cc(CC[C@H]3C[C@@H](n4ccc5c(N)ncnc54)[C@H](O)[C@@H]3O)ccc2n1
REMARK SMILES IDX 9 1 8 4 7 7 2 8 3 9 30 10 4 11 29 13 5 14 28 16 6 17 27 18
REMARK SMILES IDX 1 22 10 25 11 26 25 27 12 29 23 32 26 36 13 38 14 39 22 40
REMARK SMILES IDX 15 41 16 43 21 44 17 46 20 47 19 48 18 50 24 53
REMARK H PARENT 9 2 9 3 8 5 8 6 3 12 4 15 28 19 6 20 27 21 1 23 1 24 10 28
REMARK H PARENT 11 30 11 31 25 33 12 34 23 35 26 37 14 42 15 45 20 49 18 51
REMARK H PARENT 18 52 24 54
REMARK Flexibility Score: inf
ROOT
ATOM      1  C   UNL     1     -46.871  35.562  28.814  1.00  0.00    -0.044 C 
ATOM      2  H   UNL     1     -46.375  34.586  28.879  1.00  0.00     0.027 H 
ATOM      3  H   UNL     1     -47.507  35.628  29.708  1.00  0.00     0.027 H 
ENDROOT
BRANCH   1   4
ATOM      4  C   UNL     1     -47.818  35.594  27.604  1.00  0.00    -0.028 C 
ATOM      5  H   UNL     1     -47.788  36.577  27.123  1.00  0.00     0.032 H 
ATOM      6  H   UNL     1     -48.847  35.492  27.974  1.00  0.00     0.032 H 
BRANCH   4   7
ATOM      7  C   UNL     1     -47.609  34.498  26.590  1.00  0.00    -0.047 A 
ATOM      8  C   UNL     1     -47.991  30.663  23.422  1.00  0.00     0.124 A 
ATOM      9  C   UNL     1     -49.233  30.712  24.027  1.00  0.00    -0.019 A 
ATOM     10  N   UNL     1     -46.992  31.508  23.728  1.00  0.00    -0.231 NA
ATOM     11  C   UNL     1     -49.467  31.688  24.990  1.00  0.00    -0.049 A 
ATOM     12  H   UNL     1     -50.006  29.997  23.770  1.00  0.00     0.066 H 
ATOM     13  C   UNL     1     -47.216  32.454  24.658  1.00  0.00     0.073 A 
ATOM     14  C   UNL     1     -48.450  32.588  25.323  1.00  0.00     0.001 A 
ATOM     15  H   UNL     1     -50.439  31.736  25.473  1.00  0.00     0.063 H 
ATOM     16  C   UNL     1     -46.201  33.341  24.986  1.00  0.00    -0.035 A 
ATOM     17  C   UNL     1     -48.637  33.598  26.285  1.00  0.00    -0.050 A 
ATOM     18  C   UNL     1     -46.382  34.351  25.938  1.00  0.00    -0.057 A 
ATOM     19  H   UNL     1     -45.241  33.244  24.487  1.00  0.00     0.065 H 
ATOM     20  H   UNL     1     -49.597  33.690  26.787  1.00  0.00     0.063 H 
ATOM     21  H   UNL     1     -45.552  35.018  26.161  1.00  0.00     0.063 H 
BRANCH   8  22
ATOM     22  N   UNL     1     -47.707  29.688  22.468  1.00  0.00    -0.384 N 
ATOM     23  H   UNL     1     -47.938  30.005  21.534  1.00  0.00     0.158 HD
ATOM     24  H   UNL     1     -46.717  29.471  22.559  1.00  0.00     0.158 HD
ENDBRANCH   8  22
ENDBRANCH   4   7
ENDBRANCH   1   4
BRANCH   1  25
ATOM     25  C   UNL     1     -45.806  36.663  28.945  1.00  0.00    -0.010 C 
ATOM     26  C   UNL     1     -45.431  37.412  27.664  1.00  0.00    -0.024 C 
ATOM     27  C   UNL     1     -46.125  37.797  29.918  1.00  0.00     0.085 C 
ATOM     28  H   UNL     1     -44.902  36.147  29.303  1.00  0.00     0.033 H 
ATOM     29  C   UNL     1     -44.742  38.713  28.136  1.00  0.00     0.064 C 
ATOM     30  H   UNL     1     -44.754  36.812  27.046  1.00  0.00     0.029 H 
ATOM     31  H   UNL     1     -46.301  37.642  27.049  1.00  0.00     0.029 H 
ATOM     32  C   UNL     1     -44.986  38.797  29.657  1.00  0.00     0.101 C 
ATOM     33  H   UNL     1     -47.101  38.240  29.708  1.00  0.00     0.063 H 
ATOM     34  H   UNL     1     -43.662  38.622  27.959  1.00  0.00     0.056 H 
ATOM     35  H   UNL     1     -45.208  39.795  30.041  1.00  0.00     0.065 H 
BRANCH  27  36
ATOM     36  O   UNL     1     -46.100  37.342  31.266  1.00  0.00    -0.390 OA
ATOM     37  H   UNL     1     -46.507  38.043  31.809  1.00  0.00     0.211 HD
ENDBRANCH  27  36
BRANCH  29  38
ATOM     38  N   UNL     1     -45.175  39.865  27.356  1.00  0.00    -0.327 N 
ATOM     39  C   UNL     1     -46.479  40.057  26.949  1.00  0.00     0.007 A 
ATOM     40  C   UNL     1     -44.414  40.937  26.951  1.00  0.00     0.145 A 
ATOM     41  C   UNL     1     -46.548  41.258  26.279  1.00  0.00    -0.031 A 
ATOM     42  H   UNL     1     -47.246  39.325  27.172  1.00  0.00     0.082 H 
ATOM     43  C   UNL     1     -45.245  41.824  26.277  1.00  0.00     0.061 A 
ATOM     44  N   UNL     1     -43.095  41.101  27.162  1.00  0.00    -0.218 NA
ATOM     45  H   UNL     1     -47.439  41.681  25.835  1.00  0.00     0.065 H 
ATOM     46  C   UNL     1     -44.655  42.994  25.779  1.00  0.00     0.136 A 
ATOM     47  C   UNL     1     -42.641  42.244  26.622  1.00  0.00     0.120 A 
ATOM     48  N   UNL     1     -43.336  43.191  25.968  1.00  0.00    -0.219 NA
ATOM     49  H   UNL     1     -41.577  42.434  26.733  1.00  0.00     0.106 H 
BRANCH  46  50
ATOM     50  N   UNL     1     -45.356  43.982  25.105  1.00  0.00    -0.383 N 
ATOM     51  H   UNL     1     -46.262  44.206  25.491  1.00  0.00     0.158 HD
ATOM     52  H   UNL     1     -44.756  44.758  24.858  1.00  0.00     0.158 HD
ENDBRANCH  46  50
ENDBRANCH  29  38
BRANCH  32  53
ATOM     53  O   UNL     1     -43.803  38.356  30.350  1.00  0.00    -0.388 OA
ATOM     54  H   UNL     1     -43.913  37.391  30.480  1.00  0.00     0.211 HD
ENDBRANCH  32  53
ENDBRANCH   1  25
TORSDOF 8
ENDMDL
MODEL 7
REMARK VINA RESULT:      -9.8      3.121      9.591
REMARK SMILES Nc1ccc2cc(CC[C@H]3C[C@@H](n4ccc5c(N)ncnc54)[C@H](O)[C@@H]3O)ccc2n1
REMARK SMILES IDX 9 1 8 4 7 7 2 8 3 9 30 10 4 11 29 13 5 14 28 16 6 17 27 18
REMARK SMILES IDX 1 22 10 25 11 26 25 27 12 29 23 32 26 36 13 38 14 39 22 40
REMARK SMILES IDX 15 41 16 43 21 44 17 46 20 47 19 48 18 50 24 53
REMARK H PARENT 9 2 9 3 8 5 8 6 3 12 4 15 28 19 6 20 27 21 1 23 1 24 10 28
REMARK H PARENT 11 30 11 31 25 33 12 34 23 35 26 37 14 42 15 45 20 49 18 51
REMARK H PARENT 18 52 24 54
REMARK Flexibility Score: inf
ROOT
ATOM      1  C   UNL     1     -45.780  34.775  27.366  1.00  0.00    -0.044 C 
ATOM      2  H   UNL     1     -44.787  34.357  27.160  1.00  0.00     0.027 H 
ATOM      3  H   UNL     1     -46.272  34.053  28.031  1.00  0.00     0.027 H 
ENDROOT
BRANCH   1   4
ATOM      4  C   UNL     1     -46.613  34.816  26.076  1.00  0.00    -0.028 C 
ATOM      5  H   UNL     1     -46.063  35.333  25.282  1.00  0.00     0.032 H 
ATOM      6  H   UNL     1     -47.496  35.443  26.260  1.00  0.00     0.032 H 
BRANCH   4   7
ATOM      7  C   UNL     1     -47.120  33.482  25.590  1.00  0.00    -0.047 A 
ATOM      8  C   UNL     1     -47.831  29.040  23.433  1.00  0.00     0.124 A 
ATOM      9  C   UNL     1     -46.633  29.475  22.897  1.00  0.00    -0.019 A 
ATOM     10  N   UNL     1     -48.546  29.761  24.312  1.00  0.00    -0.231 NA
ATOM     11  C   UNL     1     -46.136  30.712  23.294  1.00  0.00    -0.049 A 
ATOM     12  H   UNL     1     -46.097  28.874  22.171  1.00  0.00     0.066 H 
ATOM     13  C   UNL     1     -48.068  30.957  24.699  1.00  0.00     0.073 A 
ATOM     14  C   UNL     1     -46.853  31.482  24.215  1.00  0.00     0.001 A 
ATOM     15  H   UNL     1     -45.197  31.066  22.878  1.00  0.00     0.063 H 
ATOM     16  C   UNL     1     -48.786  31.717  25.610  1.00  0.00    -0.035 A 
ATOM     17  C   UNL     1     -46.392  32.737  24.654  1.00  0.00    -0.050 A 
ATOM     18  C   UNL     1     -48.331  32.964  26.055  1.00  0.00    -0.057 A 
ATOM     19  H   UNL     1     -49.730  31.329  25.985  1.00  0.00     0.065 H 
ATOM     20  H   UNL     1     -45.451  33.126  24.273  1.00  0.00     0.063 H 
ATOM     21  H   UNL     1     -48.935  33.521  26.767  1.00  0.00     0.063 H 
BRANCH   8  22
ATOM     22  N   UNL     1     -48.375  27.816  23.047  1.00  0.00    -0.384 N 
ATOM     23  H   UNL     1     -49.003  27.450  23.752  1.00  0.00     0.158 HD
ATOM     24  H   UNL     1     -48.852  27.976  22.163  1.00  0.00     0.158 HD
ENDBRANCH   8  22
ENDBRANCH   4   7
ENDBRANCH   1   4
BRANCH   1  25
ATOM     25  C   UNL     1     -45.606  36.073  28.172  1.00  0.00    -0.010 C 
ATOM     26  C   UNL     1     -45.787  37.387  27.407  1.00  0.00    -0.024 C 
ATOM     27  C   UNL     1     -46.536  36.251  29.372  1.00  0.00     0.085 C 
ATOM     28  H   UNL     1     -44.570  36.046  28.541  1.00  0.00     0.033 H 
ATOM     29  C   UNL     1     -46.029  38.463  28.490  1.00  0.00     0.064 C 
ATOM     30  H   UNL     1     -44.896  37.619  26.815  1.00  0.00     0.029 H 
ATOM     31  H   UNL     1     -46.627  37.349  26.712  1.00  0.00     0.029 H 
ATOM     32  C   UNL     1     -46.248  37.696  29.810  1.00  0.00     0.101 C 
ATOM     33  H   UNL     1     -47.582  36.121  29.088  1.00  0.00     0.063 H 
ATOM     34  H   UNL     1     -45.120  39.073  28.586  1.00  0.00     0.056 H 
ATOM     35  H   UNL     1     -47.027  38.099  30.462  1.00  0.00     0.065 H 
BRANCH  27  36
ATOM     36  O   UNL     1     -46.216  35.333  30.411  1.00  0.00    -0.390 OA
ATOM     37  H   UNL     1     -47.040  35.170  30.907  1.00  0.00     0.211 HD
ENDBRANCH  27  36
BRANCH  29  38
ATOM     38  N   UNL     1     -47.087  39.387  28.105  1.00  0.00    -0.327 N 
ATOM     39  C   UNL     1     -48.399  39.245  28.507  1.00  0.00     0.007 A 
ATOM     40  C   UNL     1     -46.967  40.534  27.355  1.00  0.00     0.145 A 
ATOM     41  C   UNL     1     -49.119  40.308  28.008  1.00  0.00    -0.031 A 
ATOM     42  H   UNL     1     -48.708  38.403  29.113  1.00  0.00     0.082 H 
ATOM     43  C   UNL     1     -48.219  41.131  27.279  1.00  0.00     0.061 A 
ATOM     44  N   UNL     1     -45.838  40.999  26.788  1.00  0.00    -0.218 NA
ATOM     45  H   UNL     1     -50.178  40.472  28.150  1.00  0.00     0.065 H 
ATOM     46  C   UNL     1     -48.311  42.326  26.550  1.00  0.00     0.136 A 
ATOM     47  C   UNL     1     -46.055  42.133  26.100  1.00  0.00     0.120 A 
ATOM     48  N   UNL     1     -47.203  42.819  25.965  1.00  0.00    -0.219 NA
ATOM     49  H   UNL     1     -45.191  42.555  25.595  1.00  0.00     0.106 H 
BRANCH  46  50
ATOM     50  N   UNL     1     -49.484  43.048  26.402  1.00  0.00    -0.383 N 
ATOM     51  H   UNL     1     -50.256  42.537  25.996  1.00  0.00     0.158 HD
ATOM     52  H   UNL     1     -49.682  43.604  27.223  1.00  0.00     0.158 HD
ENDBRANCH  46  50
ENDBRANCH  29  38
BRANCH  32  53
ATOM     53  O   UNL     1     -45.031  37.723  30.580  1.00  0.00    -0.388 OA
ATOM     54  H   UNL     1     -44.822  38.671  30.716  1.00  0.00     0.211 HD
ENDBRANCH  32  53
ENDBRANCH   1  25
TORSDOF 8
ENDMDL
