MODEL 1
REMARK VINA RESULT:     -10.5      0.000      0.000
REMARK SMILES CNc1ccc2ccc(OCc3cccc(-c4c[nH]c5c(N)ncnc45)c3)cc2n1
REMARK SMILES IDX 11 1 10 4 9 5 3 6 4 7 30 8 5 9 29 11 6 12 28 14 7 15 8 17
REMARK SMILES IDX 2 20 1 22 12 26 13 27 27 28 14 29 16 31 15 33 17 36 18 37
REMARK SMILES IDX 26 38 19 39 20 41 25 42 21 44 24 45 23 46 22 48
REMARK H PARENT 11 2 11 3 4 10 5 13 28 16 7 18 8 19 2 21 1 23 1 24 1 25 13 30
REMARK H PARENT 27 32 14 34 15 35 18 40 19 43 24 47 22 49 22 50
REMARK Flexibility Score: inf
ROOT
ATOM      1  C   UNL     1     -47.318  35.129  26.731  1.00  0.00     0.113 C 
ATOM      2  H   UNL     1     -46.762  35.256  25.794  1.00  0.00     0.076 H 
ATOM      3  H   UNL     1     -48.354  35.415  26.506  1.00  0.00     0.076 H 
ENDROOT
BRANCH   1   4
ATOM      4  O   UNL     1     -47.230  33.742  27.072  1.00  0.00    -0.489 OA
BRANCH   4   5
ATOM      5  C   UNL     1     -47.379  32.816  26.078  1.00  0.00     0.122 A 
ATOM      6  C   UNL     1     -46.466  30.867  21.840  1.00  0.00     0.126 A 
ATOM      7  C   UNL     1     -47.383  29.846  22.045  1.00  0.00    -0.019 A 
ATOM      8  N   UNL     1     -46.230  31.821  22.759  1.00  0.00    -0.231 NA
ATOM      9  C   UNL     1     -48.102  29.817  23.235  1.00  0.00    -0.049 A 
ATOM     10  H   UNL     1     -47.526  29.071  21.302  1.00  0.00     0.066 H 
ATOM     11  C   UNL     1     -46.925  31.801  23.912  1.00  0.00     0.076 A 
ATOM     12  C   UNL     1     -47.882  30.808  24.196  1.00  0.00     0.001 A 
ATOM     13  H   UNL     1     -48.821  29.021  23.406  1.00  0.00     0.063 H 
ATOM     14  C   UNL     1     -46.695  32.791  24.861  1.00  0.00     0.007 A 
ATOM     15  C   UNL     1     -48.583  30.828  25.410  1.00  0.00    -0.049 A 
ATOM     16  H   UNL     1     -45.968  33.553  24.604  1.00  0.00     0.069 H 
ATOM     17  C   UNL     1     -48.332  31.832  26.342  1.00  0.00    -0.019 A 
ATOM     18  H   UNL     1     -49.326  30.068  25.637  1.00  0.00     0.063 H 
ATOM     19  H   UNL     1     -48.878  31.847  27.283  1.00  0.00     0.066 H 
BRANCH   6  20
ATOM     20  N   UNL     1     -45.702  30.956  20.674  1.00  0.00    -0.373 N 
ATOM     21  H   UNL     1     -44.787  31.258  21.013  1.00  0.00     0.161 HD
BRANCH  20  22
ATOM     22  C   UNL     1     -46.230  31.893  19.696  1.00  0.00     0.005 C 
ATOM     23  H   UNL     1     -45.778  32.885  19.803  1.00  0.00     0.045 H 
ATOM     24  H   UNL     1     -47.319  31.981  19.766  1.00  0.00     0.045 H 
ATOM     25  H   UNL     1     -45.998  31.527  18.691  1.00  0.00     0.045 H 
ENDBRANCH  20  22
ENDBRANCH   6  20
ENDBRANCH   4   5
ENDBRANCH   1   4
BRANCH   1  26
ATOM     26  C   UNL     1     -46.680  36.035  27.759  1.00  0.00    -0.010 A 
ATOM     27  C   UNL     1     -46.619  35.666  29.109  1.00  0.00    -0.056 A 
ATOM     28  C   UNL     1     -46.089  37.246  27.359  1.00  0.00    -0.048 A 
ATOM     29  C   UNL     1     -46.007  36.502  30.041  1.00  0.00    -0.061 A 
ATOM     30  H   UNL     1     -47.059  34.728  29.442  1.00  0.00     0.063 H 
ATOM     31  C   UNL     1     -45.467  38.095  28.288  1.00  0.00    -0.014 A 
ATOM     32  H   UNL     1     -46.135  37.535  26.311  1.00  0.00     0.063 H 
ATOM     33  C   UNL     1     -45.437  37.710  29.633  1.00  0.00    -0.054 A 
ATOM     34  H   UNL     1     -45.974  36.216  31.089  1.00  0.00     0.062 H 
ATOM     35  H   UNL     1     -44.964  38.343  30.380  1.00  0.00     0.063 H 
BRANCH  31  36
ATOM     36  C   UNL     1     -44.862  39.355  27.868  1.00  0.00     0.026 A 
ATOM     37  C   UNL     1     -45.223  40.028  26.712  1.00  0.00     0.011 A 
ATOM     38  C   UNL     1     -43.815  40.121  28.470  1.00  0.00     0.101 A 
ATOM     39  N   UNL     1     -44.451  41.157  26.609  1.00  0.00    -0.356 N 
ATOM     40  H   UNL     1     -45.946  39.793  25.942  1.00  0.00     0.082 H 
ATOM     41  C   UNL     1     -43.599  41.242  27.680  1.00  0.00     0.108 A 
ATOM     42  N   UNL     1     -43.108  39.892  29.601  1.00  0.00    -0.234 NA
ATOM     43  H   UNL     1     -44.475  41.819  25.845  1.00  0.00     0.166 HD
ATOM     44  C   UNL     1     -42.639  42.174  28.034  1.00  0.00     0.151 A 
ATOM     45  C   UNL     1     -42.195  40.839  29.857  1.00  0.00     0.118 A 
ATOM     46  N   UNL     1     -41.927  41.951  29.147  1.00  0.00    -0.218 NA
ATOM     47  H   UNL     1     -41.598  40.693  30.751  1.00  0.00     0.106 H 
BRANCH  44  48
ATOM     48  N   UNL     1     -42.385  43.333  27.312  1.00  0.00    -0.382 N 
ATOM     49  H   UNL     1     -42.526  43.137  26.325  1.00  0.00     0.158 HD
ATOM     50  H   UNL     1     -41.495  43.762  27.524  1.00  0.00     0.158 HD
ENDBRANCH  44  48
ENDBRANCH  31  36
ENDBRANCH   1  26
TORSDOF 7
ENDMDL
MODEL 2
REMARK VINA RESULT:     -10.3      1.670     10.342
REMARK SMILES CNc1ccc2ccc(OCc3cccc(-c4c[nH]c5c(N)ncnc45)c3)cc2n1
REMARK SMILES IDX 11 1 10 4 9 5 3 6 4 7 30 8 5 9 29 11 6 12 28 14 7 15 8 17
REMARK SMILES IDX 2 20 1 22 12 26 13 27 27 28 14 29 16 31 15 33 17 36 18 37
REMARK SMILES IDX 26 38 19 39 20 41 25 42 21 44 24 45 23 46 22 48
REMARK H PARENT 11 2 11 3 4 10 5 13 28 16 7 18 8 19 2 21 1 23 1 24 1 25 13 30
REMARK H PARENT 27 32 14 34 15 35 18 40 19 43 24 47 22 49 22 50
REMARK Flexibility Score: inf
ROOT
ATOM      1  C   UNL     1     -46.727  36.955  26.779  1.00  0.00     0.113 C 
ATOM      2  H   UNL     1     -47.692  37.176  26.306  1.00  0.00     0.076 H 
ATOM      3  H   UNL     1     -45.964  37.396  26.125  1.00  0.00     0.076 H 
ENDROOT
BRANCH   1   4
ATOM      4  O   UNL     1     -46.743  37.599  28.056  1.00  0.00    -0.489 OA
BRANCH   4   5
ATOM      5  C   UNL     1     -45.686  38.395  28.399  1.00  0.00     0.122 A 
ATOM      6  C   UNL     1     -42.756  42.105  27.905  1.00  0.00     0.126 A 
ATOM      7  C   UNL     1     -42.012  41.742  29.018  1.00  0.00    -0.019 A 
ATOM      8  N   UNL     1     -43.826  41.401  27.490  1.00  0.00    -0.231 NA
ATOM      9  C   UNL     1     -42.370  40.597  29.721  1.00  0.00    -0.049 A 
ATOM     10  H   UNL     1     -41.178  42.348  29.349  1.00  0.00     0.066 H 
ATOM     11  C   UNL     1     -44.175  40.290  28.164  1.00  0.00     0.076 A 
ATOM     12  C   UNL     1     -43.468  39.844  29.297  1.00  0.00     0.001 A 
ATOM     13  H   UNL     1     -41.795  40.305  30.595  1.00  0.00     0.063 H 
ATOM     14  C   UNL     1     -45.272  39.551  27.734  1.00  0.00     0.007 A 
ATOM     15  C   UNL     1     -43.868  38.678  29.967  1.00  0.00    -0.049 A 
ATOM     16  H   UNL     1     -45.782  39.908  26.846  1.00  0.00     0.069 H 
ATOM     17  C   UNL     1     -44.971  37.959  29.514  1.00  0.00    -0.019 A 
ATOM     18  H   UNL     1     -43.326  38.325  30.841  1.00  0.00     0.063 H 
ATOM     19  H   UNL     1     -45.279  37.054  30.034  1.00  0.00     0.066 H 
BRANCH   6  20
ATOM     20  N   UNL     1     -42.463  43.247  27.154  1.00  0.00    -0.373 N 
ATOM     21  H   UNL     1     -43.369  43.705  27.056  1.00  0.00     0.161 HD
BRANCH  20  22
ATOM     22  C   UNL     1     -41.880  42.960  25.854  1.00  0.00     0.005 C 
ATOM     23  H   UNL     1     -42.042  43.782  25.150  1.00  0.00     0.045 H 
ATOM     24  H   UNL     1     -42.277  42.033  25.428  1.00  0.00     0.045 H 
ATOM     25  H   UNL     1     -40.800  42.827  25.970  1.00  0.00     0.045 H 
ENDBRANCH  20  22
ENDBRANCH   6  20
ENDBRANCH   4   5
ENDBRANCH   1   4
BRANCH   1  26
ATOM     26  C   UNL     1     -46.607  35.451  26.874  1.00  0.00    -0.010 A 
ATOM     27  C   UNL     1     -45.885  34.848  27.911  1.00  0.00    -0.056 A 
ATOM     28  C   UNL     1     -47.268  34.632  25.942  1.00  0.00    -0.048 A 
ATOM     29  C   UNL     1     -45.802  33.459  27.997  1.00  0.00    -0.061 A 
ATOM     30  H   UNL     1     -45.373  35.459  28.652  1.00  0.00     0.063 H 
ATOM     31  C   UNL     1     -47.196  33.233  26.020  1.00  0.00    -0.014 A 
ATOM     32  H   UNL     1     -47.831  35.099  25.135  1.00  0.00     0.063 H 
ATOM     33  C   UNL     1     -46.452  32.657  27.056  1.00  0.00    -0.054 A 
ATOM     34  H   UNL     1     -45.230  32.997  28.798  1.00  0.00     0.062 H 
ATOM     35  H   UNL     1     -46.373  31.577  27.148  1.00  0.00     0.063 H 
BRANCH  31  36
ATOM     36  C   UNL     1     -47.877  32.388  25.045  1.00  0.00     0.026 A 
ATOM     37  C   UNL     1     -49.253  32.231  24.998  1.00  0.00     0.011 A 
ATOM     38  C   UNL     1     -47.342  31.556  24.011  1.00  0.00     0.101 A 
ATOM     39  N   UNL     1     -49.556  31.360  23.984  1.00  0.00    -0.356 N 
ATOM     40  H   UNL     1     -50.043  32.646  25.611  1.00  0.00     0.082 H 
ATOM     41  C   UNL     1     -48.407  30.951  23.358  1.00  0.00     0.108 A 
ATOM     42  N   UNL     1     -46.057  31.336  23.649  1.00  0.00    -0.234 NA
ATOM     43  H   UNL     1     -50.483  31.036  23.743  1.00  0.00     0.166 HD
ATOM     44  C   UNL     1     -48.180  30.092  22.296  1.00  0.00     0.151 A 
ATOM     45  C   UNL     1     -45.934  30.485  22.622  1.00  0.00     0.118 A 
ATOM     46  N   UNL     1     -46.910  29.861  21.935  1.00  0.00    -0.218 NA
ATOM     47  H   UNL     1     -44.919  30.271  22.301  1.00  0.00     0.106 H 
BRANCH  44  48
ATOM     48  N   UNL     1     -49.191  29.473  21.575  1.00  0.00    -0.382 N 
ATOM     49  H   UNL     1     -50.087  29.756  21.962  1.00  0.00     0.158 HD
ATOM     50  H   UNL     1     -49.079  28.473  21.485  1.00  0.00     0.158 HD
ENDBRANCH  44  48
ENDBRANCH  31  36
ENDBRANCH   1  26
TORSDOF 7
ENDMDL
MODEL 3
REMARK VINA RESULT:     -10.2      1.848     10.313
REMARK SMILES CNc1ccc2ccc(OCc3cccc(-c4c[nH]c5c(N)ncnc45)c3)cc2n1
REMARK SMILES IDX 11 1 10 4 9 5 3 6 4 7 30 8 5 9 29 11 6 12 28 14 7 15 8 17
REMARK SMILES IDX 2 20 1 22 12 26 13 27 27 28 14 29 16 31 15 33 17 36 18 37
REMARK SMILES IDX 26 38 19 39 20 41 25 42 21 44 24 45 23 46 22 48
REMARK H PARENT 11 2 11 3 4 10 5 13 28 16 7 18 8 19 2 21 1 23 1 24 1 25 13 30
REMARK H PARENT 27 32 14 34 15 35 18 40 19 43 24 47 22 49 22 50
REMARK Flexibility Score: inf
ROOT
ATOM      1  C   UNL     1     -46.991  37.644  27.315  1.00  0.00     0.113 C 
ATOM      2  H   UNL     1     -47.689  38.490  27.339  1.00  0.00     0.076 H 
ATOM      3  H   UNL     1     -46.287  37.858  26.502  1.00  0.00     0.076 H 
ENDROOT
BRANCH   1   4
ATOM      4  O   UNL     1     -46.326  37.631  28.582  1.00  0.00    -0.489 OA
BRANCH   4   5
ATOM      5  C   UNL     1     -45.286  38.497  28.781  1.00  0.00     0.122 A 
ATOM      6  C   UNL     1     -42.598  42.292  27.797  1.00  0.00     0.126 A 
ATOM      7  C   UNL     1     -41.752  42.044  28.867  1.00  0.00    -0.019 A 
ATOM      8  N   UNL     1     -43.660  41.511  27.519  1.00  0.00    -0.231 NA
ATOM      9  C   UNL     1     -41.994  40.938  29.673  1.00  0.00    -0.049 A 
ATOM     10  H   UNL     1     -40.926  42.710  29.086  1.00  0.00     0.066 H 
ATOM     11  C   UNL     1     -43.898  40.437  28.295  1.00  0.00     0.076 A 
ATOM     12  C   UNL     1     -43.082  40.107  29.394  1.00  0.00     0.001 A 
ATOM     13  H   UNL     1     -41.338  40.736  30.515  1.00  0.00     0.063 H 
ATOM     14  C   UNL     1     -44.986  39.620  28.007  1.00  0.00     0.007 A 
ATOM     15  C   UNL     1     -43.368  38.976  30.172  1.00  0.00    -0.049 A 
ATOM     16  H   UNL     1     -45.582  39.889  27.142  1.00  0.00     0.069 H 
ATOM     17  C   UNL     1     -44.465  38.176  29.861  1.00  0.00    -0.019 A 
ATOM     18  H   UNL     1     -42.742  38.711  31.020  1.00  0.00     0.063 H 
ATOM     19  H   UNL     1     -44.684  37.298  30.465  1.00  0.00     0.066 H 
BRANCH   6  20
ATOM     20  N   UNL     1     -42.424  43.388  26.948  1.00  0.00    -0.373 N 
ATOM     21  H   UNL     1     -43.378  43.697  26.760  1.00  0.00     0.161 HD
BRANCH  20  22
ATOM     22  C   UNL     1     -41.727  43.069  25.713  1.00  0.00     0.005 C 
ATOM     23  H   UNL     1     -40.764  42.585  25.908  1.00  0.00     0.045 H 
ATOM     24  H   UNL     1     -41.568  43.959  25.096  1.00  0.00     0.045 H 
ATOM     25  H   UNL     1     -42.338  42.374  25.129  1.00  0.00     0.045 H 
ENDBRANCH  20  22
ENDBRANCH   6  20
ENDBRANCH   4   5
ENDBRANCH   1   4
BRANCH   1  26
ATOM     26  C   UNL     1     -47.806  36.396  27.061  1.00  0.00    -0.010 A 
ATOM     27  C   UNL     1     -49.149  36.319  27.447  1.00  0.00    -0.056 A 
ATOM     28  C   UNL     1     -47.231  35.308  26.381  1.00  0.00    -0.048 A 
ATOM     29  C   UNL     1     -49.893  35.170  27.184  1.00  0.00    -0.061 A 
ATOM     30  H   UNL     1     -49.621  37.152  27.964  1.00  0.00     0.063 H 
ATOM     31  C   UNL     1     -47.971  34.147  26.107  1.00  0.00    -0.014 A 
ATOM     32  H   UNL     1     -46.186  35.366  26.079  1.00  0.00     0.063 H 
ATOM     33  C   UNL     1     -49.306  34.090  26.521  1.00  0.00    -0.054 A 
ATOM     34  H   UNL     1     -50.932  35.111  27.497  1.00  0.00     0.062 H 
ATOM     35  H   UNL     1     -49.909  33.206  26.327  1.00  0.00     0.063 H 
BRANCH  31  36
ATOM     36  C   UNL     1     -47.366  33.017  25.409  1.00  0.00     0.026 A 
ATOM     37  C   UNL     1     -46.016  32.938  25.108  1.00  0.00     0.011 A 
ATOM     38  C   UNL     1     -47.968  31.834  24.875  1.00  0.00     0.101 A 
ATOM     39  N   UNL     1     -45.791  31.764  24.435  1.00  0.00    -0.356 N 
ATOM     40  H   UNL     1     -45.199  33.623  25.294  1.00  0.00     0.082 H 
ATOM     41  C   UNL     1     -46.964  31.068  24.299  1.00  0.00     0.108 A 
ATOM     42  N   UNL     1     -49.261  31.435  24.883  1.00  0.00    -0.234 NA
ATOM     43  H   UNL     1     -44.901  31.461  24.063  1.00  0.00     0.166 HD
ATOM     44  C   UNL     1     -47.261  29.852  23.708  1.00  0.00     0.151 A 
ATOM     45  C   UNL     1     -49.456  30.255  24.281  1.00  0.00     0.118 A 
ATOM     46  N   UNL     1     -48.540  29.453  23.703  1.00  0.00    -0.218 NA
ATOM     47  H   UNL     1     -50.480  29.897  24.256  1.00  0.00     0.106 H 
BRANCH  44  48
ATOM     48  N   UNL     1     -46.310  29.017  23.138  1.00  0.00    -0.382 N 
ATOM     49  H   UNL     1     -45.608  29.591  22.680  1.00  0.00     0.158 HD
ATOM     50  H   UNL     1     -46.698  28.293  22.550  1.00  0.00     0.158 HD
ENDBRANCH  44  48
ENDBRANCH  31  36
ENDBRANCH   1  26
TORSDOF 7
ENDMDL
MODEL 4
REMARK VINA RESULT:     -10.0      1.508      2.277
REMARK SMILES CNc1ccc2ccc(OCc3cccc(-c4c[nH]c5c(N)ncnc45)c3)cc2n1
REMARK SMILES IDX 11 1 10 4 9 5 3 6 4 7 30 8 5 9 29 11 6 12 28 14 7 15 8 17
REMARK SMILES IDX 2 20 1 22 12 26 13 27 27 28 14 29 16 31 15 33 17 36 18 37
REMARK SMILES IDX 26 38 19 39 20 41 25 42 21 44 24 45 23 46 22 48
REMARK H PARENT 11 2 11 3 4 10 5 13 28 16 7 18 8 19 2 21 1 23 1 24 1 25 13 30
REMARK H PARENT 27 32 14 34 15 35 18 40 19 43 24 47 22 49 22 50
REMARK Flexibility Score: inf
ROOT
ATOM      1  C   UNL     1     -47.465  35.221  27.069  1.00  0.00     0.113 C 
ATOM      2  H   UNL     1     -47.096  35.431  26.057  1.00  0.00     0.076 H 
ATOM      3  H   UNL     1     -48.547  35.400  27.037  1.00  0.00     0.076 H 
ENDROOT
BRANCH   1   4
ATOM      4  O   UNL     1     -47.179  33.843  27.328  1.00  0.00    -0.489 OA
BRANCH   4   5
ATOM      5  C   UNL     1     -47.267  32.954  26.293  1.00  0.00     0.122 A 
ATOM      6  C   UNL     1     -49.084  29.234  23.958  1.00  0.00     0.126 A 
ATOM      7  C   UNL     1     -48.182  29.372  22.914  1.00  0.00    -0.019 A 
ATOM      8  N   UNL     1     -49.096  30.065  25.017  1.00  0.00    -0.231 NA
ATOM      9  C   UNL     1     -47.239  30.393  22.971  1.00  0.00    -0.049 A 
ATOM     10  H   UNL     1     -48.219  28.710  22.057  1.00  0.00     0.066 H 
ATOM     11  C   UNL     1     -48.185  31.053  25.080  1.00  0.00     0.076 A 
ATOM     12  C   UNL     1     -47.225  31.256  24.070  1.00  0.00     0.001 A 
ATOM     13  H   UNL     1     -46.528  30.510  22.158  1.00  0.00     0.063 H 
ATOM     14  C   UNL     1     -48.183  31.907  26.178  1.00  0.00     0.007 A 
ATOM     15  C   UNL     1     -46.293  32.298  24.180  1.00  0.00    -0.049 A 
ATOM     16  H   UNL     1     -48.920  31.711  26.949  1.00  0.00     0.069 H 
ATOM     17  C   UNL     1     -46.316  33.138  25.290  1.00  0.00    -0.019 A 
ATOM     18  H   UNL     1     -45.546  32.461  23.406  1.00  0.00     0.063 H 
ATOM     19  H   UNL     1     -45.591  33.945  25.374  1.00  0.00     0.066 H 
BRANCH   6  20
ATOM     20  N   UNL     1     -50.065  28.239  23.966  1.00  0.00    -0.373 N 
ATOM     21  H   UNL     1     -50.821  28.655  24.512  1.00  0.00     0.161 HD
BRANCH  20  22
ATOM     22  C   UNL     1     -49.625  26.986  24.556  1.00  0.00     0.005 C 
ATOM     23  H   UNL     1     -49.438  27.090  25.630  1.00  0.00     0.045 H 
ATOM     24  H   UNL     1     -48.724  26.602  24.067  1.00  0.00     0.045 H 
ATOM     25  H   UNL     1     -50.410  26.235  24.424  1.00  0.00     0.045 H 
ENDBRANCH  20  22
ENDBRANCH   6  20
ENDBRANCH   4   5
ENDBRANCH   1   4
BRANCH   1  26
ATOM     26  C   UNL     1     -46.752  36.162  28.012  1.00  0.00    -0.010 A 
ATOM     27  C   UNL     1     -46.638  35.869  29.377  1.00  0.00    -0.056 A 
ATOM     28  C   UNL     1     -46.145  37.329  27.516  1.00  0.00    -0.048 A 
ATOM     29  C   UNL     1     -45.958  36.736  30.230  1.00  0.00    -0.061 A 
ATOM     30  H   UNL     1     -47.089  34.966  29.784  1.00  0.00     0.063 H 
ATOM     31  C   UNL     1     -45.454  38.209  28.364  1.00  0.00    -0.014 A 
ATOM     32  H   UNL     1     -46.231  37.559  26.455  1.00  0.00     0.063 H 
ATOM     33  C   UNL     1     -45.372  37.900  29.727  1.00  0.00    -0.054 A 
ATOM     34  H   UNL     1     -45.883  36.510  31.290  1.00  0.00     0.062 H 
ATOM     35  H   UNL     1     -44.845  38.559  30.413  1.00  0.00     0.063 H 
BRANCH  31  36
ATOM     36  C   UNL     1     -44.832  39.423  27.845  1.00  0.00     0.026 A 
ATOM     37  C   UNL     1     -45.184  40.005  26.637  1.00  0.00     0.011 A 
ATOM     38  C   UNL     1     -43.776  40.221  28.384  1.00  0.00     0.101 A 
ATOM     39  N   UNL     1     -44.397  41.111  26.445  1.00  0.00    -0.356 N 
ATOM     40  H   UNL     1     -45.910  39.718  25.888  1.00  0.00     0.082 H 
ATOM     41  C   UNL     1     -43.544  41.271  27.506  1.00  0.00     0.108 A 
ATOM     42  N   UNL     1     -43.072  40.075  29.530  1.00  0.00    -0.234 NA
ATOM     43  H   UNL     1     -44.413  41.709  25.630  1.00  0.00     0.166 HD
ATOM     44  C   UNL     1     -42.572  42.216  27.784  1.00  0.00     0.151 A 
ATOM     45  C   UNL     1     -42.146  41.027  29.710  1.00  0.00     0.118 A 
ATOM     46  N   UNL     1     -41.863  42.075  28.913  1.00  0.00    -0.218 NA
ATOM     47  H   UNL     1     -41.551  40.946  30.614  1.00  0.00     0.106 H 
BRANCH  44  48
ATOM     48  N   UNL     1     -42.302  43.309  26.972  1.00  0.00    -0.382 N 
ATOM     49  H   UNL     1     -41.993  44.080  27.557  1.00  0.00     0.158 HD
ATOM     50  H   UNL     1     -43.054  43.547  26.341  1.00  0.00     0.158 HD
ENDBRANCH  44  48
ENDBRANCH  31  36
ENDBRANCH   1  26
TORSDOF 7
ENDMDL
MODEL 5
REMARK VINA RESULT:     -10.0      1.524      2.585
REMARK SMILES CNc1ccc2ccc(OCc3cccc(-c4c[nH]c5c(N)ncnc45)c3)cc2n1
REMARK SMILES IDX 11 1 10 4 9 5 3 6 4 7 30 8 5 9 29 11 6 12 28 14 7 15 8 17
REMARK SMILES IDX 2 20 1 22 12 26 13 27 27 28 14 29 16 31 15 33 17 36 18 37
REMARK SMILES IDX 26 38 19 39 20 41 25 42 21 44 24 45 23 46 22 48
REMARK H PARENT 11 2 11 3 4 10 5 13 28 16 7 18 8 19 2 21 1 23 1 24 1 25 13 30
REMARK H PARENT 27 32 14 34 15 35 18 40 19 43 24 47 22 49 22 50
REMARK Flexibility Score: inf
ROOT
ATOM      1  C   UNL     1     -46.544  36.571  26.978  1.00  0.00     0.113 C 
ATOM      2  H   UNL     1     -46.577  37.100  26.017  1.00  0.00     0.076 H 
ATOM      3  H   UNL     1     -47.588  36.456  27.294  1.00  0.00     0.076 H 
ENDROOT
BRANCH   1   4
ATOM      4  O   UNL     1     -45.942  35.298  26.720  1.00  0.00    -0.489 OA
BRANCH   4   5
ATOM      5  C   UNL     1     -46.713  34.312  26.169  1.00  0.00     0.122 A 
ATOM      6  C   UNL     1     -47.590  30.650  23.269  1.00  0.00     0.126 A 
ATOM      7  C   UNL     1     -48.898  30.532  23.715  1.00  0.00    -0.019 A 
ATOM      8  N   UNL     1     -46.741  31.575  23.755  1.00  0.00    -0.231 NA
ATOM      9  C   UNL     1     -49.359  31.415  24.686  1.00  0.00    -0.049 A 
ATOM     10  H   UNL     1     -49.547  29.755  23.332  1.00  0.00     0.066 H 
ATOM     11  C   UNL     1     -47.182  32.434  24.693  1.00  0.00     0.076 A 
ATOM     12  C   UNL     1     -48.498  32.392  25.193  1.00  0.00     0.001 A 
ATOM     13  H   UNL     1     -50.381  31.330  25.044  1.00  0.00     0.063 H 
ATOM     14  C   UNL     1     -46.314  33.400  25.190  1.00  0.00     0.007 A 
ATOM     15  C   UNL     1     -48.913  33.310  26.169  1.00  0.00    -0.049 A 
ATOM     16  H   UNL     1     -45.315  33.421  24.770  1.00  0.00     0.069 H 
ATOM     17  C   UNL     1     -48.022  34.266  26.649  1.00  0.00    -0.019 A 
ATOM     18  H   UNL     1     -49.928  33.286  26.558  1.00  0.00     0.063 H 
ATOM     19  H   UNL     1     -48.347  34.978  27.405  1.00  0.00     0.066 H 
BRANCH   6  20
ATOM     20  N   UNL     1     -47.054  29.795  22.303  1.00  0.00    -0.373 N 
ATOM     21  H   UNL     1     -47.439  28.883  22.553  1.00  0.00     0.161 HD
BRANCH  20  22
ATOM     22  C   UNL     1     -45.601  29.761  22.291  1.00  0.00     0.005 C 
ATOM     23  H   UNL     1     -45.213  28.902  22.848  1.00  0.00     0.045 H 
ATOM     24  H   UNL     1     -45.171  30.682  22.697  1.00  0.00     0.045 H 
ATOM     25  H   UNL     1     -45.256  29.671  21.256  1.00  0.00     0.045 H 
ENDBRANCH  20  22
ENDBRANCH   6  20
ENDBRANCH   4   5
ENDBRANCH   1   4
BRANCH   1  26
ATOM     26  C   UNL     1     -45.741  37.423  27.934  1.00  0.00    -0.010 A 
ATOM     27  C   UNL     1     -45.486  36.997  29.243  1.00  0.00    -0.056 A 
ATOM     28  C   UNL     1     -45.193  38.642  27.498  1.00  0.00    -0.048 A 
ATOM     29  C   UNL     1     -44.725  37.785  30.105  1.00  0.00    -0.061 A 
ATOM     30  H   UNL     1     -45.889  36.052  29.601  1.00  0.00     0.063 H 
ATOM     31  C   UNL     1     -44.422  39.443  28.356  1.00  0.00    -0.014 A 
ATOM     32  H   UNL     1     -45.389  38.976  26.481  1.00  0.00     0.063 H 
ATOM     33  C   UNL     1     -44.199  39.001  29.665  1.00  0.00    -0.054 A 
ATOM     34  H   UNL     1     -44.541  37.454  31.124  1.00  0.00     0.062 H 
ATOM     35  H   UNL     1     -43.608  39.596  30.357  1.00  0.00     0.063 H 
BRANCH  31  36
ATOM     36  C   UNL     1     -43.863  40.712  27.901  1.00  0.00     0.026 A 
ATOM     37  C   UNL     1     -42.606  41.167  28.264  1.00  0.00     0.011 A 
ATOM     38  C   UNL     1     -44.435  41.728  27.073  1.00  0.00     0.101 A 
ATOM     39  N   UNL     1     -42.404  42.392  27.682  1.00  0.00    -0.356 N 
ATOM     40  H   UNL     1     -41.844  40.737  28.902  1.00  0.00     0.082 H 
ATOM     41  C   UNL     1     -43.500  42.744  26.937  1.00  0.00     0.108 A 
ATOM     42  N   UNL     1     -45.648  41.783  26.475  1.00  0.00    -0.234 NA
ATOM     43  H   UNL     1     -41.586  42.974  27.803  1.00  0.00     0.166 HD
ATOM     44  C   UNL     1     -43.785  43.862  26.172  1.00  0.00     0.151 A 
ATOM     45  C   UNL     1     -45.840  42.903  25.766  1.00  0.00     0.118 A 
ATOM     46  N   UNL     1     -44.988  43.930  25.584  1.00  0.00    -0.218 NA
ATOM     47  H   UNL     1     -46.803  42.996  25.275  1.00  0.00     0.106 H 
BRANCH  44  48
ATOM     48  N   UNL     1     -42.893  44.905  25.965  1.00  0.00    -0.382 N 
ATOM     49  H   UNL     1     -42.684  45.335  26.862  1.00  0.00     0.158 HD
ATOM     50  H   UNL     1     -43.183  45.559  25.252  1.00  0.00     0.158 HD
ENDBRANCH  44  48
ENDBRANCH  31  36
ENDBRANCH   1  26
TORSDOF 7
ENDMDL
MODEL 6
REMARK VINA RESULT:      -9.8      2.418      4.316
REMARK SMILES CNc1ccc2ccc(OCc3cccc(-c4c[nH]c5c(N)ncnc45)c3)cc2n1
REMARK SMILES IDX 11 1 10 4 9 5 3 6 4 7 30 8 5 9 29 11 6 12 28 14 7 15 8 17
REMARK SMILES IDX 2 20 1 22 12 26 13 27 27 28 14 29 16 31 15 33 17 36 18 37
REMARK SMILES IDX 26 38 19 39 20 41 25 42 21 44 24 45 23 46 22 48
REMARK H PARENT 11 2 11 3 4 10 5 13 28 16 7 18 8 19 2 21 1 23 1 24 1 25 13 30
REMARK H PARENT 27 32 14 34 15 35 18 40 19 43 24 47 22 49 22 50
REMARK Flexibility Score: inf
ROOT
ATOM      1  C   UNL     1     -45.447  37.969  28.994  1.00  0.00     0.113 C 
ATOM      2  H   UNL     1     -45.841  37.988  30.018  1.00  0.00     0.076 H 
ATOM      3  H   UNL     1     -44.913  37.016  28.896  1.00  0.00     0.076 H 
ENDROOT
BRANCH   1   4
ATOM      4  O   UNL     1     -46.580  38.015  28.122  1.00  0.00    -0.489 OA
BRANCH   4   5
ATOM      5  C   UNL     1     -47.036  36.843  27.583  1.00  0.00     0.122 A 
ATOM      6  C   UNL     1     -46.604  32.725  25.249  1.00  0.00     0.126 A 
ATOM      7  C   UNL     1     -47.955  32.442  25.377  1.00  0.00    -0.019 A 
ATOM      8  N   UNL     1     -46.048  33.842  25.756  1.00  0.00    -0.231 NA
ATOM      9  C   UNL     1     -48.774  33.354  26.035  1.00  0.00    -0.049 A 
ATOM     10  H   UNL     1     -48.368  31.518  24.990  1.00  0.00     0.066 H 
ATOM     11  C   UNL     1     -46.835  34.730  26.391  1.00  0.00     0.076 A 
ATOM     12  C   UNL     1     -48.219  34.526  26.556  1.00  0.00     0.001 A 
ATOM     13  H   UNL     1     -49.833  33.140  26.143  1.00  0.00     0.063 H 
ATOM     14  C   UNL     1     -46.270  35.891  26.907  1.00  0.00     0.007 A 
ATOM     15  C   UNL     1     -49.000  35.480  27.224  1.00  0.00    -0.049 A 
ATOM     16  H   UNL     1     -45.207  36.029  26.745  1.00  0.00     0.069 H 
ATOM     17  C   UNL     1     -48.407  36.634  27.730  1.00  0.00    -0.019 A 
ATOM     18  H   UNL     1     -50.069  35.333  27.353  1.00  0.00     0.063 H 
ATOM     19  H   UNL     1     -49.015  37.374  28.247  1.00  0.00     0.066 H 
BRANCH   6  20
ATOM     20  N   UNL     1     -45.718  31.854  24.609  1.00  0.00    -0.373 N 
ATOM     21  H   UNL     1     -44.962  32.467  24.302  1.00  0.00     0.161 HD
BRANCH  20  22
ATOM     22  C   UNL     1     -46.304  31.145  23.483  1.00  0.00     0.005 C 
ATOM     23  H   UNL     1     -45.759  31.343  22.555  1.00  0.00     0.045 H 
ATOM     24  H   UNL     1     -47.359  31.402  23.347  1.00  0.00     0.045 H 
ATOM     25  H   UNL     1     -46.255  30.069  23.677  1.00  0.00     0.045 H 
ENDBRANCH  20  22
ENDBRANCH   6  20
ENDBRANCH   4   5
ENDBRANCH   1   4
BRANCH   1  26
ATOM     26  C   UNL     1     -44.532  39.162  28.841  1.00  0.00    -0.010 A 
ATOM     27  C   UNL     1     -43.446  39.355  29.703  1.00  0.00    -0.056 A 
ATOM     28  C   UNL     1     -44.735  40.074  27.790  1.00  0.00    -0.048 A 
ATOM     29  C   UNL     1     -42.598  40.449  29.535  1.00  0.00    -0.061 A 
ATOM     30  H   UNL     1     -43.260  38.657  30.518  1.00  0.00     0.063 H 
ATOM     31  C   UNL     1     -43.886  41.177  27.608  1.00  0.00    -0.014 A 
ATOM     32  H   UNL     1     -45.579  39.926  27.119  1.00  0.00     0.063 H 
ATOM     33  C   UNL     1     -42.819  41.355  28.496  1.00  0.00    -0.054 A 
ATOM     34  H   UNL     1     -41.763  40.599  30.215  1.00  0.00     0.062 H 
ATOM     35  H   UNL     1     -42.142  42.199  28.386  1.00  0.00     0.063 H 
BRANCH  31  36
ATOM     36  C   UNL     1     -44.106  42.124  26.520  1.00  0.00     0.026 A 
ATOM     37  C   UNL     1     -44.249  41.747  25.195  1.00  0.00     0.011 A 
ATOM     38  C   UNL     1     -44.184  43.552  26.543  1.00  0.00     0.101 A 
ATOM     39  N   UNL     1     -44.419  42.877  24.438  1.00  0.00    -0.356 N 
ATOM     40  H   UNL     1     -44.223  40.774  24.720  1.00  0.00     0.082 H 
ATOM     41  C   UNL     1     -44.401  43.988  25.243  1.00  0.00     0.108 A 
ATOM     42  N   UNL     1     -44.088  44.414  27.582  1.00  0.00    -0.234 NA
ATOM     43  H   UNL     1     -44.513  42.903  23.432  1.00  0.00     0.166 HD
ATOM     44  C   UNL     1     -44.529  45.338  24.968  1.00  0.00     0.151 A 
ATOM     45  C   UNL     1     -44.212  45.697  27.221  1.00  0.00     0.118 A 
ATOM     46  N   UNL     1     -44.425  46.199  25.989  1.00  0.00    -0.218 NA
ATOM     47  H   UNL     1     -44.133  46.426  28.021  1.00  0.00     0.106 H 
BRANCH  44  48
ATOM     48  N   UNL     1     -44.775  45.848  23.701  1.00  0.00    -0.382 N 
ATOM     49  H   UNL     1     -44.574  45.126  23.015  1.00  0.00     0.158 HD
ATOM     50  H   UNL     1     -44.318  46.730  23.516  1.00  0.00     0.158 HD
ENDBRANCH  44  48
ENDBRANCH  31  36
ENDBRANCH   1  26
TORSDOF 7
ENDMDL
MODEL 7
REMARK VINA RESULT:      -9.5      2.677     10.671
REMARK SMILES CNc1ccc2ccc(OCc3cccc(-c4c[nH]c5c(N)ncnc45)c3)cc2n1
REMARK SMILES IDX 11 1 10 4 9 5 3 6 4 7 30 8 5 9 29 11 6 12 28 14 7 15 8 17
REMARK SMILES IDX 2 20 1 22 12 26 13 27 27 28 14 29 16 31 15 33 17 36 18 37
REMARK SMILES IDX 26 38 19 39 20 41 25 42 21 44 24 45 23 46 22 48
REMARK H PARENT 11 2 11 3 4 10 5 13 28 16 7 18 8 19 2 21 1 23 1 24 1 25 13 30
REMARK H PARENT 27 32 14 34 15 35 18 40 19 43 24 47 22 49 22 50
REMARK Flexibility Score: inf
ROOT
ATOM      1  C   UNL     1     -48.641  35.023  26.982  1.00  0.00     0.113 C 
ATOM      2  H   UNL     1     -49.631  34.669  27.296  1.00  0.00     0.076 H 
ATOM      3  H   UNL     1     -48.816  35.965  26.446  1.00  0.00     0.076 H 
ENDROOT
BRANCH   1   4
ATOM      4  O   UNL     1     -47.890  35.245  28.179  1.00  0.00    -0.489 OA
BRANCH   4   5
ATOM      5  C   UNL     1     -47.031  36.308  28.223  1.00  0.00     0.122 A 
ATOM      6  C   UNL     1     -45.095  40.344  26.625  1.00  0.00     0.126 A 
ATOM      7  C   UNL     1     -44.219  40.419  27.698  1.00  0.00    -0.019 A 
ATOM      8  N   UNL     1     -45.992  39.349  26.493  1.00  0.00    -0.231 NA
ATOM      9  C   UNL     1     -44.252  39.419  28.664  1.00  0.00    -0.049 A 
ATOM     10  H   UNL     1     -43.532  41.250  27.797  1.00  0.00     0.066 H 
ATOM     11  C   UNL     1     -46.028  38.377  27.423  1.00  0.00     0.076 A 
ATOM     12  C   UNL     1     -45.166  38.369  28.537  1.00  0.00     0.001 A 
ATOM     13  H   UNL     1     -43.572  39.469  29.508  1.00  0.00     0.063 H 
ATOM     14  C   UNL     1     -46.944  37.339  27.286  1.00  0.00     0.007 A 
ATOM     15  C   UNL     1     -45.238  37.333  29.479  1.00  0.00    -0.049 A 
ATOM     16  H   UNL     1     -47.578  37.362  26.406  1.00  0.00     0.069 H 
ATOM     17  C   UNL     1     -46.166  36.307  29.316  1.00  0.00    -0.019 A 
ATOM     18  H   UNL     1     -44.575  37.317  30.340  1.00  0.00     0.063 H 
ATOM     19  H   UNL     1     -46.219  35.504  30.047  1.00  0.00     0.066 H 
BRANCH   6  20
ATOM     20  N   UNL     1     -45.127  41.316  25.622  1.00  0.00    -0.373 N 
ATOM     21  H   UNL     1     -44.946  40.783  24.770  1.00  0.00     0.161 HD
BRANCH  20  22
ATOM     22  C   UNL     1     -44.142  42.371  25.795  1.00  0.00     0.005 C 
ATOM     23  H   UNL     1     -44.160  42.775  26.813  1.00  0.00     0.045 H 
ATOM     24  H   UNL     1     -44.289  43.184  25.078  1.00  0.00     0.045 H 
ATOM     25  H   UNL     1     -43.144  41.958  25.617  1.00  0.00     0.045 H 
ENDBRANCH  20  22
ENDBRANCH   6  20
ENDBRANCH   4   5
ENDBRANCH   1   4
BRANCH   1  26
ATOM     26  C   UNL     1     -48.042  33.956  26.095  1.00  0.00    -0.010 A 
ATOM     27  C   UNL     1     -46.673  33.947  25.799  1.00  0.00    -0.056 A 
ATOM     28  C   UNL     1     -48.852  32.923  25.592  1.00  0.00    -0.048 A 
ATOM     29  C   UNL     1     -46.132  32.943  24.998  1.00  0.00    -0.061 A 
ATOM     30  H   UNL     1     -46.022  34.729  26.185  1.00  0.00     0.063 H 
ATOM     31  C   UNL     1     -48.318  31.904  24.787  1.00  0.00    -0.014 A 
ATOM     32  H   UNL     1     -49.916  32.928  25.820  1.00  0.00     0.063 H 
ATOM     33  C   UNL     1     -46.950  31.930  24.493  1.00  0.00    -0.054 A 
ATOM     34  H   UNL     1     -45.070  32.948  24.762  1.00  0.00     0.062 H 
ATOM     35  H   UNL     1     -46.502  31.158  23.872  1.00  0.00     0.063 H 
BRANCH  31  36
ATOM     36  C   UNL     1     -49.165  30.838  24.261  1.00  0.00     0.026 A 
ATOM     37  C   UNL     1     -50.010  30.999  23.175  1.00  0.00     0.011 A 
ATOM     38  C   UNL     1     -49.346  29.495  24.718  1.00  0.00     0.101 A 
ATOM     39  N   UNL     1     -50.670  29.816  22.962  1.00  0.00    -0.356 N 
ATOM     40  H   UNL     1     -50.216  31.857  22.548  1.00  0.00     0.082 H 
ATOM     41  C   UNL     1     -50.267  28.881  23.880  1.00  0.00     0.108 A 
ATOM     42  N   UNL     1     -48.772  28.843  25.755  1.00  0.00    -0.234 NA
ATOM     43  H   UNL     1     -51.375  29.655  22.255  1.00  0.00     0.166 HD
ATOM     44  C   UNL     1     -50.628  27.560  24.083  1.00  0.00     0.151 A 
ATOM     45  C   UNL     1     -49.189  27.576  25.882  1.00  0.00     0.118 A 
ATOM     46  N   UNL     1     -50.071  26.909  25.113  1.00  0.00    -0.218 NA
ATOM     47  H   UNL     1     -48.761  27.015  26.706  1.00  0.00     0.106 H 
BRANCH  44  48
ATOM     48  N   UNL     1     -51.517  26.870  23.272  1.00  0.00    -0.382 N 
ATOM     49  H   UNL     1     -51.612  25.922  23.627  1.00  0.00     0.158 HD
ATOM     50  H   UNL     1     -51.300  26.920  22.287  1.00  0.00     0.158 HD
ENDBRANCH  44  48
ENDBRANCH  31  36
ENDBRANCH   1  26
TORSDOF 7
ENDMDL
