MODEL 1
REMARK VINA RESULT:     -10.7      0.000      0.000
REMARK SMILES Cn1ccc(-c2cn(-c3cncc(COc4ccc(C(=O)N5CCNCC5)c(N)c4)c3)c3ncnc(N)c23)n1
REMARK SMILES IDX 9 1 10 2 11 3 12 4 13 5 31 6 8 10 6 11 7 12 38 13 32 15
REMARK SMILES IDX 36 16 33 17 35 18 34 19 5 21 2 22 3 23 39 24 4 25 1 28 37 32
REMARK SMILES IDX 14 35 15 38 16 39 17 40 30 41 18 42 28 44 19 46 29 48 20 51
REMARK SMILES IDX 21 52 22 53 23 54 27 55 24 56 26 59 25 62
REMARK H PARENT 10 7 12 8 31 9 7 14 34 20 3 26 4 27 1 29 1 30 1 31 37 33 37 34
REMARK H PARENT 14 36 14 37 17 43 30 45 18 47 29 49 29 50 23 57 23 58 27 60
REMARK H PARENT 27 61 24 63 24 64 26 65 26 66 25 67
REMARK Flexibility Score: inf
ROOT
ATOM      1  C   UNL     1     -45.268  38.057  28.775  1.00  0.00     0.066 A 
ATOM      2  C   UNL     1     -45.804  37.982  30.057  1.00  0.00     0.051 A 
ATOM      3  N   UNL     1     -46.311  36.852  30.609  1.00  0.00    -0.262 NA
ATOM      4  C   UNL     1     -46.297  35.739  29.848  1.00  0.00     0.034 A 
ATOM      5  C   UNL     1     -45.788  35.692  28.557  1.00  0.00     0.010 A 
ATOM      6  C   UNL     1     -45.253  36.875  28.027  1.00  0.00    -0.028 A 
ATOM      7  H   UNL     1     -45.883  38.840  30.718  1.00  0.00     0.086 H 
ATOM      8  H   UNL     1     -46.720  34.855  30.321  1.00  0.00     0.084 H 
ATOM      9  H   UNL     1     -44.818  36.835  27.034  1.00  0.00     0.065 H 
ENDROOT
BRANCH   1  10
ATOM     10  N   UNL     1     -44.758  39.292  28.263  1.00  0.00    -0.299 N 
ATOM     11  C   UNL     1     -44.564  41.135  26.978  1.00  0.00     0.033 A 
ATOM     12  C   UNL     1     -45.270  39.967  27.171  1.00  0.00     0.021 A 
ATOM     13  C   UNL     1     -43.519  41.172  27.936  1.00  0.00     0.071 A 
ATOM     14  H   UNL     1     -46.130  39.611  26.620  1.00  0.00     0.083 H 
ATOM     15  C   UNL     1     -43.675  40.039  28.738  1.00  0.00     0.150 A 
ATOM     16  C   UNL     1     -42.428  42.008  28.234  1.00  0.00     0.137 A 
ATOM     17  N   UNL     1     -42.874  39.710  29.774  1.00  0.00    -0.218 NA
ATOM     18  N   UNL     1     -41.631  41.707  29.274  1.00  0.00    -0.219 NA
ATOM     19  C   UNL     1     -41.895  40.599  29.979  1.00  0.00     0.120 A 
ATOM     20  H   UNL     1     -41.227  40.394  30.810  1.00  0.00     0.106 H 
BRANCH  11  21
ATOM     21  C   UNL     1     -44.861  42.127  25.951  1.00  0.00     0.095 A 
ATOM     22  N   UNL     1     -44.667  43.322  24.221  1.00  0.00    -0.275 N 
ATOM     23  C   UNL     1     -45.906  43.623  24.707  1.00  0.00     0.025 A 
ATOM     24  N   UNL     1     -44.012  42.406  24.957  1.00  0.00    -0.173 NA
ATOM     25  C   UNL     1     -46.069  42.847  25.831  1.00  0.00    -0.016 A 
ATOM     26  H   UNL     1     -46.558  44.336  24.221  1.00  0.00     0.084 H 
ATOM     27  H   UNL     1     -46.940  42.806  26.471  1.00  0.00     0.066 H 
BRANCH  22  28
ATOM     28  C   UNL     1     -44.040  43.867  23.042  1.00  0.00     0.030 C 
ATOM     29  H   UNL     1     -44.345  44.910  22.940  1.00  0.00     0.048 H 
ATOM     30  H   UNL     1     -44.356  43.297  22.165  1.00  0.00     0.048 H 
ATOM     31  H   UNL     1     -42.956  43.793  23.163  1.00  0.00     0.048 H 
ENDBRANCH  22  28
ENDBRANCH  11  21
BRANCH  16  32
ATOM     32  N   UNL     1     -42.067  43.130  27.498  1.00  0.00    -0.383 N 
ATOM     33  H   UNL     1     -41.940  43.965  28.059  1.00  0.00     0.158 HD
ATOM     34  H   UNL     1     -42.696  43.237  26.709  1.00  0.00     0.158 HD
ENDBRANCH  16  32
ENDBRANCH   1  10
BRANCH   5  35
ATOM     35  C   UNL     1     -45.769  34.408  27.773  1.00  0.00     0.115 C 
ATOM     36  H   UNL     1     -44.832  33.851  27.893  1.00  0.00     0.076 H 
ATOM     37  H   UNL     1     -46.552  33.758  28.184  1.00  0.00     0.076 H 
BRANCH  35  38
ATOM     38  O   UNL     1     -46.081  34.604  26.392  1.00  0.00    -0.489 OA
BRANCH  38  39
ATOM     39  C   UNL     1     -46.728  33.607  25.716  1.00  0.00     0.121 A 
ATOM     40  C   UNL     1     -48.108  33.568  25.930  1.00  0.00    -0.019 A 
ATOM     41  C   UNL     1     -46.142  32.672  24.858  1.00  0.00     0.004 A 
ATOM     42  C   UNL     1     -48.891  32.586  25.326  1.00  0.00    -0.044 A 
ATOM     43  H   UNL     1     -48.574  34.303  26.583  1.00  0.00     0.066 H 
ATOM     44  C   UNL     1     -46.921  31.713  24.189  1.00  0.00     0.048 A 
ATOM     45  H   UNL     1     -45.074  32.672  24.672  1.00  0.00     0.068 H 
ATOM     46  C   UNL     1     -48.292  31.634  24.490  1.00  0.00     0.063 A 
ATOM     47  H   UNL     1     -49.963  32.562  25.508  1.00  0.00     0.063 H 
BRANCH  44  48
ATOM     48  N   UNL     1     -46.265  30.728  23.416  1.00  0.00    -0.398 N 
ATOM     49  H   UNL     1     -45.756  30.054  23.981  1.00  0.00     0.156 HD
ATOM     50  H   UNL     1     -45.640  31.167  22.729  1.00  0.00     0.156 HD
ENDBRANCH  44  48
BRANCH  46  51
ATOM     51  C   UNL     1     -49.142  30.592  23.861  1.00  0.00     0.256 C 
ATOM     52  O   UNL     1     -49.429  30.717  22.671  1.00  0.00    -0.269 OA
ATOM     53  N   UNL     1     -49.588  29.528  24.651  1.00  0.00    -0.336 N 
ATOM     54  C   UNL     1     -48.728  28.925  25.679  1.00  0.00     0.033 C 
ATOM     55  C   UNL     1     -50.460  28.542  24.011  1.00  0.00     0.033 C 
ATOM     56  C   UNL     1     -47.906  27.765  25.075  1.00  0.00     0.013 C 
ATOM     57  H   UNL     1     -49.379  28.555  26.479  1.00  0.00     0.051 H 
ATOM     58  H   UNL     1     -48.043  29.654  26.116  1.00  0.00     0.051 H 
ATOM     59  C   UNL     1     -49.629  27.389  23.412  1.00  0.00     0.013 C 
ATOM     60  H   UNL     1     -51.068  29.013  23.233  1.00  0.00     0.051 H 
ATOM     61  H   UNL     1     -51.143  28.157  24.778  1.00  0.00     0.051 H 
ATOM     62  N   UNL     1     -48.750  26.750  24.415  1.00  0.00    -0.313 NA
ATOM     63  H   UNL     1     -47.186  28.161  24.349  1.00  0.00     0.045 H 
ATOM     64  H   UNL     1     -47.331  27.279  25.872  1.00  0.00     0.045 H 
ATOM     65  H   UNL     1     -50.305  26.631  23.003  1.00  0.00     0.045 H 
ATOM     66  H   UNL     1     -49.015  27.762  22.582  1.00  0.00     0.045 H 
ATOM     67  H   UNL     1     -48.150  26.074  23.942  1.00  0.00     0.122 HD
ENDBRANCH  46  51
ENDBRANCH  38  39
ENDBRANCH  35  38
ENDBRANCH   5  35
TORSDOF 9
ENDMDL
MODEL 2
REMARK VINA RESULT:      -9.9      1.779      2.100
REMARK SMILES Cn1ccc(-c2cn(-c3cncc(COc4ccc(C(=O)N5CCNCC5)c(N)c4)c3)c3ncnc(N)c23)n1
REMARK SMILES IDX 9 1 10 2 11 3 12 4 13 5 31 6 8 10 6 11 7 12 38 13 32 15
REMARK SMILES IDX 36 16 33 17 35 18 34 19 5 21 2 22 3 23 39 24 4 25 1 28 37 32
REMARK SMILES IDX 14 35 15 38 16 39 17 40 30 41 18 42 28 44 19 46 29 48 20 51
REMARK SMILES IDX 21 52 22 53 23 54 27 55 24 56 26 59 25 62
REMARK H PARENT 10 7 12 8 31 9 7 14 34 20 3 26 4 27 1 29 1 30 1 31 37 33 37 34
REMARK H PARENT 14 36 14 37 17 43 30 45 18 47 29 49 29 50 23 57 23 58 27 60
REMARK H PARENT 27 61 24 63 24 64 26 65 26 66 25 67
REMARK Flexibility Score: inf
ROOT
ATOM      1  C   UNL     1     -46.358  38.253  27.509  1.00  0.00     0.066 A 
ATOM      2  C   UNL     1     -47.694  38.358  27.888  1.00  0.00     0.051 A 
ATOM      3  N   UNL     1     -48.514  37.300  28.100  1.00  0.00    -0.262 NA
ATOM      4  C   UNL     1     -47.989  36.071  27.916  1.00  0.00     0.034 A 
ATOM      5  C   UNL     1     -46.672  35.843  27.539  1.00  0.00     0.010 A 
ATOM      6  C   UNL     1     -45.848  36.961  27.350  1.00  0.00    -0.028 A 
ATOM      7  H   UNL     1     -48.198  39.310  28.023  1.00  0.00     0.086 H 
ATOM      8  H   UNL     1     -48.679  35.248  28.086  1.00  0.00     0.084 H 
ATOM      9  H   UNL     1     -44.808  36.786  27.094  1.00  0.00     0.065 H 
ENDROOT
BRANCH   1  10
ATOM     10  N   UNL     1     -45.560  39.421  27.299  1.00  0.00    -0.299 N 
ATOM     11  C   UNL     1     -44.800  41.330  26.371  1.00  0.00     0.033 A 
ATOM     12  C   UNL     1     -45.707  40.301  26.243  1.00  0.00     0.021 A 
ATOM     13  C   UNL     1     -43.997  41.062  27.509  1.00  0.00     0.071 A 
ATOM     14  H   UNL     1     -46.470  40.176  25.487  1.00  0.00     0.083 H 
ATOM     15  C   UNL     1     -44.503  39.894  28.084  1.00  0.00     0.150 A 
ATOM     16  C   UNL     1     -42.880  41.641  28.137  1.00  0.00     0.137 A 
ATOM     17  N   UNL     1     -44.011  39.306  29.195  1.00  0.00    -0.218 NA
ATOM     18  N   UNL     1     -42.388  41.079  29.255  1.00  0.00    -0.219 NA
ATOM     19  C   UNL     1     -42.972  39.966  29.719  1.00  0.00     0.120 A 
ATOM     20  H   UNL     1     -42.544  39.547  30.625  1.00  0.00     0.106 H 
BRANCH  11  21
ATOM     21  C   UNL     1     -44.704  42.472  25.467  1.00  0.00     0.095 A 
ATOM     22  N   UNL     1     -43.958  43.790  23.996  1.00  0.00    -0.275 N 
ATOM     23  C   UNL     1     -45.194  44.279  24.298  1.00  0.00     0.025 A 
ATOM     24  N   UNL     1     -43.636  42.682  24.689  1.00  0.00    -0.173 NA
ATOM     25  C   UNL     1     -45.715  43.431  25.248  1.00  0.00    -0.016 A 
ATOM     26  H   UNL     1     -45.598  45.160  23.817  1.00  0.00     0.084 H 
ATOM     27  H   UNL     1     -46.689  43.496  25.712  1.00  0.00     0.066 H 
BRANCH  22  28
ATOM     28  C   UNL     1     -43.020  44.324  23.039  1.00  0.00     0.030 C 
ATOM     29  H   UNL     1     -43.370  45.311  22.728  1.00  0.00     0.048 H 
ATOM     30  H   UNL     1     -42.962  43.659  22.174  1.00  0.00     0.048 H 
ATOM     31  H   UNL     1     -42.041  44.397  23.519  1.00  0.00     0.048 H 
ENDBRANCH  22  28
ENDBRANCH  11  21
BRANCH  16  32
ATOM     32  N   UNL     1     -42.193  42.752  27.665  1.00  0.00    -0.383 N 
ATOM     33  H   UNL     1     -41.227  42.796  27.967  1.00  0.00     0.158 HD
ATOM     34  H   UNL     1     -42.737  43.590  27.845  1.00  0.00     0.158 HD
ENDBRANCH  16  32
ENDBRANCH   1  10
BRANCH   5  35
ATOM     35  C   UNL     1     -46.138  34.444  27.386  1.00  0.00     0.115 C 
ATOM     36  H   UNL     1     -45.438  34.347  26.548  1.00  0.00     0.076 H 
ATOM     37  H   UNL     1     -45.554  34.213  28.286  1.00  0.00     0.076 H 
BRANCH  35  38
ATOM     38  O   UNL     1     -47.177  33.466  27.308  1.00  0.00    -0.489 OA
BRANCH  38  39
ATOM     39  C   UNL     1     -47.294  32.720  26.168  1.00  0.00     0.121 A 
ATOM     40  C   UNL     1     -48.368  31.827  26.173  1.00  0.00    -0.019 A 
ATOM     41  C   UNL     1     -46.464  32.786  25.045  1.00  0.00     0.004 A 
ATOM     42  C   UNL     1     -48.593  30.982  25.087  1.00  0.00    -0.044 A 
ATOM     43  H   UNL     1     -49.029  31.782  27.036  1.00  0.00     0.066 H 
ATOM     44  C   UNL     1     -46.709  31.990  23.914  1.00  0.00     0.048 A 
ATOM     45  H   UNL     1     -45.620  33.465  25.009  1.00  0.00     0.068 H 
ATOM     46  C   UNL     1     -47.739  31.034  23.977  1.00  0.00     0.063 A 
ATOM     47  H   UNL     1     -49.428  30.286  25.108  1.00  0.00     0.063 H 
BRANCH  44  48
ATOM     48  N   UNL     1     -45.779  32.021  22.850  1.00  0.00    -0.398 N 
ATOM     49  H   UNL     1     -45.917  31.269  22.180  1.00  0.00     0.156 HD
ATOM     50  H   UNL     1     -44.819  32.009  23.212  1.00  0.00     0.156 HD
ENDBRANCH  44  48
BRANCH  46  51
ATOM     51  C   UNL     1     -47.990  30.121  22.833  1.00  0.00     0.256 C 
ATOM     52  O   UNL     1     -47.406  29.038  22.815  1.00  0.00    -0.269 OA
ATOM     53  N   UNL     1     -48.861  30.541  21.823  1.00  0.00    -0.336 N 
ATOM     54  C   UNL     1     -50.076  31.310  22.132  1.00  0.00     0.033 C 
ATOM     55  C   UNL     1     -49.052  29.637  20.688  1.00  0.00     0.033 C 
ATOM     56  C   UNL     1     -51.265  30.355  22.376  1.00  0.00     0.013 C 
ATOM     57  H   UNL     1     -50.280  31.962  21.276  1.00  0.00     0.051 H 
ATOM     58  H   UNL     1     -49.945  31.943  23.012  1.00  0.00     0.051 H 
ATOM     59  C   UNL     1     -50.241  28.689  20.942  1.00  0.00     0.013 C 
ATOM     60  H   UNL     1     -48.141  29.060  20.499  1.00  0.00     0.051 H 
ATOM     61  H   UNL     1     -49.243  30.255  19.802  1.00  0.00     0.051 H 
ATOM     62  N   UNL     1     -51.488  29.422  21.253  1.00  0.00    -0.313 NA
ATOM     63  H   UNL     1     -51.095  29.779  23.293  1.00  0.00     0.045 H 
ATOM     64  H   UNL     1     -52.176  30.946  22.527  1.00  0.00     0.045 H 
ATOM     65  H   UNL     1     -50.409  28.073  20.053  1.00  0.00     0.045 H 
ATOM     66  H   UNL     1     -50.007  28.010  21.772  1.00  0.00     0.045 H 
ATOM     67  H   UNL     1     -52.207  28.749  21.517  1.00  0.00     0.122 HD
ENDBRANCH  46  51
ENDBRANCH  38  39
ENDBRANCH  35  38
ENDBRANCH   5  35
TORSDOF 9
ENDMDL
MODEL 3
REMARK VINA RESULT:      -9.8      1.626      2.702
REMARK SMILES Cn1ccc(-c2cn(-c3cncc(COc4ccc(C(=O)N5CCNCC5)c(N)c4)c3)c3ncnc(N)c23)n1
REMARK SMILES IDX 9 1 10 2 11 3 12 4 13 5 31 6 8 10 6 11 7 12 38 13 32 15
REMARK SMILES IDX 36 16 33 17 35 18 34 19 5 21 2 22 3 23 39 24 4 25 1 28 37 32
REMARK SMILES IDX 14 35 15 38 16 39 17 40 30 41 18 42 28 44 19 46 29 48 20 51
REMARK SMILES IDX 21 52 22 53 23 54 27 55 24 56 26 59 25 62
REMARK H PARENT 10 7 12 8 31 9 7 14 34 20 3 26 4 27 1 29 1 30 1 31 37 33 37 34
REMARK H PARENT 14 36 14 37 17 43 30 45 18 47 29 49 29 50 23 57 23 58 27 60
REMARK H PARENT 27 61 24 63 24 64 26 65 26 66 25 67
REMARK Flexibility Score: inf
ROOT
ATOM      1  C   UNL     1     -45.628  38.807  27.836  1.00  0.00     0.066 A 
ATOM      2  C   UNL     1     -44.952  38.643  29.042  1.00  0.00     0.051 A 
ATOM      3  N   UNL     1     -44.969  37.505  29.779  1.00  0.00    -0.262 NA
ATOM      4  C   UNL     1     -45.702  36.478  29.304  1.00  0.00     0.034 A 
ATOM      5  C   UNL     1     -46.418  36.525  28.114  1.00  0.00     0.010 A 
ATOM      6  C   UNL     1     -46.360  37.710  27.369  1.00  0.00    -0.028 A 
ATOM      7  H   UNL     1     -44.369  39.432  29.506  1.00  0.00     0.086 H 
ATOM      8  H   UNL     1     -45.699  35.586  29.926  1.00  0.00     0.084 H 
ATOM      9  H   UNL     1     -46.885  37.739  26.419  1.00  0.00     0.065 H 
ENDROOT
BRANCH   1  10
ATOM     10  N   UNL     1     -45.565  40.044  27.121  1.00  0.00    -0.299 N 
ATOM     11  C   UNL     1     -44.721  41.765  25.933  1.00  0.00     0.033 A 
ATOM     12  C   UNL     1     -44.415  40.589  26.582  1.00  0.00     0.021 A 
ATOM     13  C   UNL     1     -46.104  42.018  26.124  1.00  0.00     0.071 A 
ATOM     14  H   UNL     1     -43.454  40.097  26.648  1.00  0.00     0.083 H 
ATOM     15  C   UNL     1     -46.611  40.928  26.835  1.00  0.00     0.150 A 
ATOM     16  C   UNL     1     -47.014  43.042  25.808  1.00  0.00     0.137 A 
ATOM     17  N   UNL     1     -47.899  40.787  27.214  1.00  0.00    -0.218 NA
ATOM     18  N   UNL     1     -48.304  42.910  26.161  1.00  0.00    -0.219 NA
ATOM     19  C   UNL     1     -48.672  41.808  26.828  1.00  0.00     0.120 A 
ATOM     20  H   UNL     1     -49.723  41.741  27.092  1.00  0.00     0.106 H 
BRANCH  11  21
ATOM     21  C   UNL     1     -43.763  42.585  25.199  1.00  0.00     0.095 A 
ATOM     22  N   UNL     1     -42.916  43.774  23.674  1.00  0.00    -0.275 N 
ATOM     23  C   UNL     1     -41.995  43.801  24.679  1.00  0.00     0.025 A 
ATOM     24  N   UNL     1     -44.008  43.045  23.968  1.00  0.00    -0.173 NA
ATOM     25  C   UNL     1     -42.525  43.044  25.698  1.00  0.00    -0.016 A 
ATOM     26  H   UNL     1     -41.068  44.352  24.597  1.00  0.00     0.084 H 
ATOM     27  H   UNL     1     -42.081  42.854  26.665  1.00  0.00     0.066 H 
BRANCH  22  28
ATOM     28  C   UNL     1     -42.827  44.434  22.394  1.00  0.00     0.030 C 
ATOM     29  H   UNL     1     -43.797  44.882  22.170  1.00  0.00     0.048 H 
ATOM     30  H   UNL     1     -42.565  43.704  21.625  1.00  0.00     0.048 H 
ATOM     31  H   UNL     1     -42.053  45.204  22.456  1.00  0.00     0.048 H 
ENDBRANCH  22  28
ENDBRANCH  11  21
BRANCH  16  32
ATOM     32  N   UNL     1     -46.676  44.235  25.180  1.00  0.00    -0.383 N 
ATOM     33  H   UNL     1     -46.850  44.235  24.181  1.00  0.00     0.158 HD
ATOM     34  H   UNL     1     -45.737  44.508  25.450  1.00  0.00     0.158 HD
ENDBRANCH  16  32
ENDBRANCH   1  10
BRANCH   5  35
ATOM     35  C   UNL     1     -47.189  35.330  27.622  1.00  0.00     0.115 C 
ATOM     36  H   UNL     1     -47.818  34.880  28.399  1.00  0.00     0.076 H 
ATOM     37  H   UNL     1     -47.884  35.681  26.847  1.00  0.00     0.076 H 
BRANCH  35  38
ATOM     38  O   UNL     1     -46.349  34.352  27.006  1.00  0.00    -0.489 OA
BRANCH  38  39
ATOM     39  C   UNL     1     -46.915  33.432  26.167  1.00  0.00     0.121 A 
ATOM     40  C   UNL     1     -48.311  33.413  26.193  1.00  0.00    -0.019 A 
ATOM     41  C   UNL     1     -46.234  32.557  25.316  1.00  0.00     0.004 A 
ATOM     42  C   UNL     1     -49.023  32.507  25.409  1.00  0.00    -0.044 A 
ATOM     43  H   UNL     1     -48.849  34.104  26.840  1.00  0.00     0.066 H 
ATOM     44  C   UNL     1     -46.932  31.678  24.470  1.00  0.00     0.048 A 
ATOM     45  H   UNL     1     -45.152  32.543  25.273  1.00  0.00     0.068 H 
ATOM     46  C   UNL     1     -48.332  31.612  24.580  1.00  0.00     0.063 A 
ATOM     47  H   UNL     1     -50.109  32.497  25.445  1.00  0.00     0.063 H 
BRANCH  44  48
ATOM     48  N   UNL     1     -46.194  30.744  23.708  1.00  0.00    -0.398 N 
ATOM     49  H   UNL     1     -45.994  29.886  24.217  1.00  0.00     0.156 HD
ATOM     50  H   UNL     1     -45.325  31.168  23.362  1.00  0.00     0.156 HD
ENDBRANCH  44  48
BRANCH  46  51
ATOM     51  C   UNL     1     -49.106  30.649  23.757  1.00  0.00     0.256 C 
ATOM     52  O   UNL     1     -49.226  30.878  22.554  1.00  0.00    -0.269 OA
ATOM     53  N   UNL     1     -49.676  29.538  24.388  1.00  0.00    -0.336 N 
ATOM     54  C   UNL     1     -48.976  28.830  25.468  1.00  0.00     0.033 C 
ATOM     55  C   UNL     1     -50.469  28.633  23.555  1.00  0.00     0.033 C 
ATOM     56  C   UNL     1     -48.100  27.698  24.886  1.00  0.00     0.013 C 
ATOM     57  H   UNL     1     -49.737  28.416  26.139  1.00  0.00     0.051 H 
ATOM     58  H   UNL     1     -48.344  29.501  26.053  1.00  0.00     0.051 H 
ATOM     59  C   UNL     1     -49.586  27.509  22.980  1.00  0.00     0.013 C 
ATOM     60  H   UNL     1     -50.957  29.184  22.745  1.00  0.00     0.051 H 
ATOM     61  H   UNL     1     -51.259  28.208  24.188  1.00  0.00     0.051 H 
ATOM     62  N   UNL     1     -48.864  26.765  24.035  1.00  0.00    -0.313 NA
ATOM     63  H   UNL     1     -47.280  28.131  24.299  1.00  0.00     0.045 H 
ATOM     64  H   UNL     1     -47.648  27.133  25.710  1.00  0.00     0.045 H 
ATOM     65  H   UNL     1     -50.213  26.806  22.421  1.00  0.00     0.045 H 
ATOM     66  H   UNL     1     -48.857  27.929  22.275  1.00  0.00     0.045 H 
ATOM     67  H   UNL     1     -48.218  26.112  23.593  1.00  0.00     0.122 HD
ENDBRANCH  46  51
ENDBRANCH  38  39
ENDBRANCH  35  38
ENDBRANCH   5  35
TORSDOF 9
ENDMDL
MODEL 4
REMARK VINA RESULT:      -9.3      2.467      3.560
REMARK SMILES Cn1ccc(-c2cn(-c3cncc(COc4ccc(C(=O)N5CCNCC5)c(N)c4)c3)c3ncnc(N)c23)n1
REMARK SMILES IDX 9 1 10 2 11 3 12 4 13 5 31 6 8 10 6 11 7 12 38 13 32 15
REMARK SMILES IDX 36 16 33 17 35 18 34 19 5 21 2 22 3 23 39 24 4 25 1 28 37 32
REMARK SMILES IDX 14 35 15 38 16 39 17 40 30 41 18 42 28 44 19 46 29 48 20 51
REMARK SMILES IDX 21 52 22 53 23 54 27 55 24 56 26 59 25 62
REMARK H PARENT 10 7 12 8 31 9 7 14 34 20 3 26 4 27 1 29 1 30 1 31 37 33 37 34
REMARK H PARENT 14 36 14 37 17 43 30 45 18 47 29 49 29 50 23 57 23 58 27 60
REMARK H PARENT 27 61 24 63 24 64 26 65 26 66 25 67
REMARK Flexibility Score: inf
ROOT
ATOM      1  C   UNL     1     -46.756  36.871  27.472  1.00  0.00     0.066 A 
ATOM      2  C   UNL     1     -46.828  36.291  28.736  1.00  0.00     0.051 A 
ATOM      3  N   UNL     1     -46.670  34.968  28.980  1.00  0.00    -0.262 NA
ATOM      4  C   UNL     1     -46.439  34.172  27.915  1.00  0.00     0.034 A 
ATOM      5  C   UNL     1     -46.346  34.636  26.610  1.00  0.00     0.010 A 
ATOM      6  C   UNL     1     -46.493  36.014  26.399  1.00  0.00    -0.028 A 
ATOM      7  H   UNL     1     -47.044  36.858  29.636  1.00  0.00     0.086 H 
ATOM      8  H   UNL     1     -46.327  33.115  28.149  1.00  0.00     0.084 H 
ATOM      9  H   UNL     1     -46.382  36.386  25.386  1.00  0.00     0.065 H 
ENDROOT
BRANCH   1  10
ATOM     10  N   UNL     1     -46.941  38.279  27.298  1.00  0.00    -0.299 N 
ATOM     11  C   UNL     1     -46.508  40.421  26.743  1.00  0.00     0.033 A 
ATOM     12  C   UNL     1     -45.983  39.149  26.814  1.00  0.00     0.021 A 
ATOM     13  C   UNL     1     -47.825  40.376  27.267  1.00  0.00     0.071 A 
ATOM     14  H   UNL     1     -45.001  38.817  26.505  1.00  0.00     0.083 H 
ATOM     15  C   UNL     1     -48.082  39.038  27.577  1.00  0.00     0.150 A 
ATOM     16  C   UNL     1     -48.851  41.296  27.549  1.00  0.00     0.137 A 
ATOM     17  N   UNL     1     -49.238  38.576  28.100  1.00  0.00    -0.218 NA
ATOM     18  N   UNL     1     -50.015  40.851  28.053  1.00  0.00    -0.219 NA
ATOM     19  C   UNL     1     -50.146  39.539  28.291  1.00  0.00     0.120 A 
ATOM     20  H   UNL     1     -51.103  39.224  28.697  1.00  0.00     0.106 H 
BRANCH  11  21
ATOM     21  C   UNL     1     -45.799  41.587  26.225  1.00  0.00     0.095 A 
ATOM     22  N   UNL     1     -45.437  43.441  25.282  1.00  0.00    -0.275 N 
ATOM     23  C   UNL     1     -44.229  43.081  25.802  1.00  0.00     0.025 A 
ATOM     24  N   UNL     1     -46.415  42.551  25.532  1.00  0.00    -0.173 NA
ATOM     25  C   UNL     1     -44.435  41.878  26.438  1.00  0.00    -0.016 A 
ATOM     26  H   UNL     1     -43.348  43.698  25.692  1.00  0.00     0.084 H 
ATOM     27  H   UNL     1     -43.703  41.297  26.982  1.00  0.00     0.066 H 
BRANCH  22  28
ATOM     28  C   UNL     1     -45.741  44.637  24.535  1.00  0.00     0.030 C 
ATOM     29  H   UNL     1     -46.580  45.142  25.020  1.00  0.00     0.048 H 
ATOM     30  H   UNL     1     -46.009  44.368  23.511  1.00  0.00     0.048 H 
ATOM     31  H   UNL     1     -44.855  45.277  24.534  1.00  0.00     0.048 H 
ENDBRANCH  22  28
ENDBRANCH  11  21
BRANCH  16  32
ATOM     32  N   UNL     1     -48.746  42.672  27.385  1.00  0.00    -0.383 N 
ATOM     33  H   UNL     1     -47.918  42.962  26.878  1.00  0.00     0.158 HD
ATOM     34  H   UNL     1     -48.884  43.132  28.279  1.00  0.00     0.158 HD
ENDBRANCH  16  32
ENDBRANCH   1  10
BRANCH   5  35
ATOM     35  C   UNL     1     -46.050  33.699  25.469  1.00  0.00     0.115 C 
ATOM     36  H   UNL     1     -45.255  34.069  24.811  1.00  0.00     0.076 H 
ATOM     37  H   UNL     1     -45.665  32.765  25.900  1.00  0.00     0.076 H 
BRANCH  35  38
ATOM     38  O   UNL     1     -47.221  33.356  24.725  1.00  0.00    -0.489 OA
BRANCH  38  39
ATOM     39  C   UNL     1     -47.579  32.040  24.632  1.00  0.00     0.121 A 
ATOM     40  C   UNL     1     -48.862  31.758  25.107  1.00  0.00    -0.019 A 
ATOM     41  C   UNL     1     -46.798  31.003  24.112  1.00  0.00     0.004 A 
ATOM     42  C   UNL     1     -49.350  30.452  25.100  1.00  0.00    -0.044 A 
ATOM     43  H   UNL     1     -49.482  32.563  25.497  1.00  0.00     0.066 H 
ATOM     44  C   UNL     1     -47.294  29.690  24.037  1.00  0.00     0.048 A 
ATOM     45  H   UNL     1     -45.798  31.185  23.739  1.00  0.00     0.068 H 
ATOM     46  C   UNL     1     -48.550  29.414  24.605  1.00  0.00     0.063 A 
ATOM     47  H   UNL     1     -50.347  30.246  25.481  1.00  0.00     0.063 H 
BRANCH  44  48
ATOM     48  N   UNL     1     -46.426  28.663  23.600  1.00  0.00    -0.398 N 
ATOM     49  H   UNL     1     -45.611  28.552  24.197  1.00  0.00     0.156 HD
ATOM     50  H   UNL     1     -46.140  28.825  22.627  1.00  0.00     0.156 HD
ENDBRANCH  44  48
BRANCH  46  51
ATOM     51  C   UNL     1     -49.084  28.028  24.611  1.00  0.00     0.256 C 
ATOM     52  O   UNL     1     -49.310  27.488  23.529  1.00  0.00    -0.269 OA
ATOM     53  N   UNL     1     -49.320  27.409  25.843  1.00  0.00    -0.336 N 
ATOM     54  C   UNL     1     -48.414  27.607  26.983  1.00  0.00     0.033 C 
ATOM     55  C   UNL     1     -49.887  26.060  25.814  1.00  0.00     0.033 C 
ATOM     56  C   UNL     1     -47.301  26.535  26.975  1.00  0.00     0.013 C 
ATOM     57  H   UNL     1     -49.013  27.527  27.898  1.00  0.00     0.051 H 
ATOM     58  H   UNL     1     -47.952  28.596  26.971  1.00  0.00     0.051 H 
ATOM     59  C   UNL     1     -48.769  25.000  25.805  1.00  0.00     0.013 C 
ATOM     60  H   UNL     1     -50.535  25.934  24.941  1.00  0.00     0.051 H 
ATOM     61  H   UNL     1     -50.512  25.945  26.708  1.00  0.00     0.051 H 
ATOM     62  N   UNL     1     -47.834  25.159  26.941  1.00  0.00    -0.313 NA
ATOM     63  H   UNL     1     -46.647  26.689  26.108  1.00  0.00     0.045 H 
ATOM     64  H   UNL     1     -46.684  26.651  27.873  1.00  0.00     0.045 H 
ATOM     65  H   UNL     1     -49.216  24.001  25.856  1.00  0.00     0.045 H 
ATOM     66  H   UNL     1     -48.205  25.058  24.866  1.00  0.00     0.045 H 
ATOM     67  H   UNL     1     -47.061  24.505  26.824  1.00  0.00     0.122 HD
ENDBRANCH  46  51
ENDBRANCH  38  39
ENDBRANCH  35  38
ENDBRANCH   5  35
TORSDOF 9
ENDMDL
