MODEL 1
REMARK VINA RESULT:      -9.5      0.000      0.000
REMARK SMILES CCOC1CN(Cc2cc3ccc(CNC(=O)c4cc(=O)n5ccccc5n4)cc3[nH]2)C1
REMARK SMILES IDX 7 1 6 4 4 5 5 6 32 7 3 13 2 14 1 17 8 21 9 22 31 23 10 24
REMARK SMILES IDX 30 26 11 28 29 29 12 30 13 32 14 35 15 38 16 39 17 41 18 42
REMARK SMILES IDX 19 43 28 44 20 45 27 47 21 48 22 49 26 50 23 51 25 52 24 54
REMARK H PARENT 7 2 7 3 4 8 5 9 5 10 32 11 32 12 2 15 2 16 1 18 1 19 1 20 9 25
REMARK H PARENT 31 27 11 31 29 33 12 34 14 36 14 37 15 40 19 46 26 53 23 55
REMARK H PARENT 25 56 24 57
REMARK Flexibility Score: inf
ROOT
ATOM      1  C   UNL     1     -49.397  30.104  23.613  1.00  0.00     0.039 C 
ATOM      2  H   UNL     1     -50.236  29.727  24.214  1.00  0.00     0.050 H 
ATOM      3  H   UNL     1     -49.831  30.481  22.677  1.00  0.00     0.050 H 
ENDROOT
BRANCH   1   4
ATOM      4  N   UNL     1     -48.412  29.064  23.295  1.00  0.00    -0.292 NA
ATOM      5  C   UNL     1     -48.587  27.500  24.752  1.00  0.00     0.083 C 
ATOM      6  C   UNL     1     -47.621  28.676  24.485  1.00  0.00     0.026 C 
ATOM      7  C   UNL     1     -49.049  27.728  23.295  1.00  0.00     0.026 C 
ATOM      8  H   UNL     1     -49.374  27.745  25.478  1.00  0.00     0.063 H 
ATOM      9  H   UNL     1     -47.551  29.410  25.296  1.00  0.00     0.046 H 
ATOM     10  H   UNL     1     -46.601  28.362  24.232  1.00  0.00     0.046 H 
ATOM     11  H   UNL     1     -50.134  27.703  23.139  1.00  0.00     0.046 H 
ATOM     12  H   UNL     1     -48.593  27.037  22.575  1.00  0.00     0.046 H 
BRANCH   5  13
ATOM     13  O   UNL     1     -48.007  26.208  25.044  1.00  0.00    -0.376 OA
BRANCH  13  14
ATOM     14  C   UNL     1     -48.498  25.559  26.213  1.00  0.00     0.044 C 
ATOM     15  H   UNL     1     -47.996  24.595  26.334  1.00  0.00     0.056 H 
ATOM     16  H   UNL     1     -48.290  26.182  27.088  1.00  0.00     0.056 H 
BRANCH  14  17
ATOM     17  C   UNL     1     -49.991  25.354  26.060  1.00  0.00    -0.042 C 
ATOM     18  H   UNL     1     -50.216  24.827  25.127  1.00  0.00     0.025 H 
ATOM     19  H   UNL     1     -50.381  24.735  26.876  1.00  0.00     0.025 H 
ATOM     20  H   UNL     1     -50.519  26.312  26.060  1.00  0.00     0.025 H 
ENDBRANCH  14  17
ENDBRANCH  13  14
ENDBRANCH   5  13
ENDBRANCH   1   4
BRANCH   1  21
ATOM     21  C   UNL     1     -48.744  31.260  24.300  1.00  0.00     0.030 A 
ATOM     22  C   UNL     1     -47.447  31.734  24.233  1.00  0.00    -0.032 A 
ATOM     23  N   UNL     1     -49.428  32.082  25.163  1.00  0.00    -0.357 N 
ATOM     24  C   UNL     1     -47.346  32.871  25.078  1.00  0.00    -0.000 A 
ATOM     25  H   UNL     1     -46.654  31.297  23.639  1.00  0.00     0.065 H 
ATOM     26  C   UNL     1     -48.601  33.069  25.650  1.00  0.00     0.046 A 
ATOM     27  H   UNL     1     -50.401  31.985  25.415  1.00  0.00     0.166 HD
ATOM     28  C   UNL     1     -46.301  33.751  25.415  1.00  0.00    -0.052 A 
ATOM     29  C   UNL     1     -48.868  34.110  26.547  1.00  0.00    -0.033 A 
ATOM     30  C   UNL     1     -46.549  34.799  26.311  1.00  0.00    -0.057 A 
ATOM     31  H   UNL     1     -45.312  33.617  24.988  1.00  0.00     0.063 H 
ATOM     32  C   UNL     1     -47.819  34.990  26.869  1.00  0.00    -0.027 A 
ATOM     33  H   UNL     1     -49.853  34.234  26.986  1.00  0.00     0.065 H 
ATOM     34  H   UNL     1     -45.731  35.469  26.570  1.00  0.00     0.063 H 
BRANCH  32  35
ATOM     35  C   UNL     1     -48.053  36.102  27.857  1.00  0.00     0.043 C 
ATOM     36  H   UNL     1     -49.034  36.565  27.699  1.00  0.00     0.054 H 
ATOM     37  H   UNL     1     -48.048  35.718  28.885  1.00  0.00     0.054 H 
BRANCH  35  38
ATOM     38  N   UNL     1     -47.047  37.121  27.727  1.00  0.00    -0.347 N 
ATOM     39  C   UNL     1     -46.168  37.412  28.739  1.00  0.00     0.270 C 
ATOM     40  H   UNL     1     -47.080  37.770  26.947  1.00  0.00     0.164 HD
ATOM     41  O   UNL     1     -46.090  36.779  29.785  1.00  0.00    -0.268 OA
BRANCH  39  42
ATOM     42  C   UNL     1     -45.309  38.613  28.429  1.00  0.00     0.136 A 
ATOM     43  C   UNL     1     -45.617  39.295  27.323  1.00  0.00     0.035 A 
ATOM     44  N   UNL     1     -44.278  38.928  29.285  1.00  0.00    -0.225 NA
ATOM     45  C   UNL     1     -44.805  40.471  26.984  1.00  0.00     0.258 A 
ATOM     46  H   UNL     1     -46.430  39.038  26.657  1.00  0.00     0.071 H 
ATOM     47  C   UNL     1     -43.562  39.967  28.980  1.00  0.00     0.140 A 
ATOM     48  O   UNL     1     -45.083  41.108  25.969  1.00  0.00    -0.269 OA
ATOM     49  N   UNL     1     -43.772  40.766  27.862  1.00  0.00    -0.268 N 
ATOM     50  C   UNL     1     -42.434  40.344  29.877  1.00  0.00    -0.019 A 
ATOM     51  C   UNL     1     -42.958  41.864  27.606  1.00  0.00     0.014 A 
ATOM     52  C   UNL     1     -41.678  41.410  29.589  1.00  0.00    -0.057 A 
ATOM     53  H   UNL     1     -42.263  39.727  30.751  1.00  0.00     0.066 H 
ATOM     54  C   UNL     1     -41.946  42.197  28.416  1.00  0.00    -0.045 A 
ATOM     55  H   UNL     1     -43.179  42.445  26.713  1.00  0.00     0.082 H 
ATOM     56  H   UNL     1     -40.852  41.701  30.230  1.00  0.00     0.062 H 
ATOM     57  H   UNL     1     -41.317  43.057  28.206  1.00  0.00     0.064 H 
ENDBRANCH  39  42
ENDBRANCH  35  38
ENDBRANCH  32  35
ENDBRANCH   1  21
TORSDOF 8
ENDMDL
MODEL 2
REMARK VINA RESULT:      -9.2      2.130     11.915
REMARK SMILES CCOC1CN(Cc2cc3ccc(CNC(=O)c4cc(=O)n5ccccc5n4)cc3[nH]2)C1
REMARK SMILES IDX 7 1 6 4 4 5 5 6 32 7 3 13 2 14 1 17 8 21 9 22 31 23 10 24
REMARK SMILES IDX 30 26 11 28 29 29 12 30 13 32 14 35 15 38 16 39 17 41 18 42
REMARK SMILES IDX 19 43 28 44 20 45 27 47 21 48 22 49 26 50 23 51 25 52 24 54
REMARK H PARENT 7 2 7 3 4 8 5 9 5 10 32 11 32 12 2 15 2 16 1 18 1 19 1 20 9 25
REMARK H PARENT 31 27 11 31 29 33 12 34 14 36 14 37 15 40 19 46 26 53 23 55
REMARK H PARENT 25 56 24 57
REMARK Flexibility Score: inf
ROOT
ATOM      1  C   UNL     1     -45.489  39.629  27.781  1.00  0.00     0.039 C 
ATOM      2  H   UNL     1     -46.219  40.273  27.271  1.00  0.00     0.050 H 
ATOM      3  H   UNL     1     -45.553  39.874  28.850  1.00  0.00     0.050 H 
ENDROOT
BRANCH   1   4
ATOM      4  N   UNL     1     -44.113  39.855  27.324  1.00  0.00    -0.292 NA
ATOM      5  C   UNL     1     -43.861  41.951  26.950  1.00  0.00     0.083 C 
ATOM      6  C   UNL     1     -44.073  40.682  26.096  1.00  0.00     0.026 C 
ATOM      7  C   UNL     1     -43.491  40.965  28.080  1.00  0.00     0.026 C 
ATOM      8  H   UNL     1     -44.796  42.489  27.162  1.00  0.00     0.063 H 
ATOM      9  H   UNL     1     -44.973  40.688  25.472  1.00  0.00     0.046 H 
ATOM     10  H   UNL     1     -43.221  40.438  25.448  1.00  0.00     0.046 H 
ATOM     11  H   UNL     1     -43.923  41.192  29.061  1.00  0.00     0.046 H 
ATOM     12  H   UNL     1     -42.409  40.835  28.215  1.00  0.00     0.046 H 
BRANCH   5  13
ATOM     13  O   UNL     1     -42.825  42.872  26.540  1.00  0.00    -0.376 OA
BRANCH  13  14
ATOM     14  C   UNL     1     -43.259  43.992  25.774  1.00  0.00     0.044 C 
ATOM     15  H   UNL     1     -44.352  43.998  25.724  1.00  0.00     0.056 H 
ATOM     16  H   UNL     1     -42.919  44.914  26.254  1.00  0.00     0.056 H 
BRANCH  14  17
ATOM     17  C   UNL     1     -42.675  43.881  24.381  1.00  0.00    -0.042 C 
ATOM     18  H   UNL     1     -41.924  43.084  24.339  1.00  0.00     0.025 H 
ATOM     19  H   UNL     1     -43.453  43.622  23.655  1.00  0.00     0.025 H 
ATOM     20  H   UNL     1     -42.207  44.821  24.078  1.00  0.00     0.025 H 
ENDBRANCH  14  17
ENDBRANCH  13  14
ENDBRANCH   5  13
ENDBRANCH   1   4
BRANCH   1  21
ATOM     21  C   UNL     1     -45.869  38.192  27.629  1.00  0.00     0.030 A 
ATOM     22  C   UNL     1     -45.211  37.039  28.015  1.00  0.00    -0.032 A 
ATOM     23  N   UNL     1     -47.044  37.802  27.034  1.00  0.00    -0.357 N 
ATOM     24  C   UNL     1     -46.010  35.926  27.643  1.00  0.00    -0.000 A 
ATOM     25  H   UNL     1     -44.248  37.007  28.510  1.00  0.00     0.065 H 
ATOM     26  C   UNL     1     -47.154  36.430  27.030  1.00  0.00     0.046 A 
ATOM     27  H   UNL     1     -47.739  38.426  26.648  1.00  0.00     0.166 HD
ATOM     28  C   UNL     1     -45.866  34.531  27.766  1.00  0.00    -0.052 A 
ATOM     29  C   UNL     1     -48.171  35.606  26.530  1.00  0.00    -0.033 A 
ATOM     30  C   UNL     1     -46.872  33.691  27.273  1.00  0.00    -0.057 A 
ATOM     31  H   UNL     1     -44.981  34.110  28.235  1.00  0.00     0.063 H 
ATOM     32  C   UNL     1     -48.022  34.215  26.668  1.00  0.00    -0.027 A 
ATOM     33  H   UNL     1     -49.047  36.027  26.047  1.00  0.00     0.065 H 
ATOM     34  H   UNL     1     -46.746  32.614  27.367  1.00  0.00     0.063 H 
BRANCH  32  35
ATOM     35  C   UNL     1     -49.074  33.292  26.113  1.00  0.00     0.043 C 
ATOM     36  H   UNL     1     -49.927  33.215  26.797  1.00  0.00     0.054 H 
ATOM     37  H   UNL     1     -49.466  33.675  25.162  1.00  0.00     0.054 H 
BRANCH  35  38
ATOM     38  N   UNL     1     -48.539  31.972  25.909  1.00  0.00    -0.347 N 
ATOM     39  C   UNL     1     -48.623  31.330  24.700  1.00  0.00     0.270 C 
ATOM     40  H   UNL     1     -48.246  31.415  26.706  1.00  0.00     0.164 HD
ATOM     41  O   UNL     1     -49.056  31.846  23.676  1.00  0.00    -0.268 OA
BRANCH  39  42
ATOM     42  C   UNL     1     -48.130  29.905  24.769  1.00  0.00     0.136 A 
ATOM     43  C   UNL     1     -47.173  29.564  23.903  1.00  0.00     0.035 A 
ATOM     44  N   UNL     1     -48.687  29.057  25.699  1.00  0.00    -0.225 NA
ATOM     45  C   UNL     1     -46.666  28.187  23.936  1.00  0.00     0.258 A 
ATOM     46  H   UNL     1     -46.744  30.240  23.176  1.00  0.00     0.071 H 
ATOM     47  C   UNL     1     -48.237  27.840  25.723  1.00  0.00     0.140 A 
ATOM     48  O   UNL     1     -45.781  27.864  23.144  1.00  0.00    -0.269 OA
ATOM     49  N   UNL     1     -47.244  27.352  24.881  1.00  0.00    -0.268 N 
ATOM     50  C   UNL     1     -48.812  26.886  26.713  1.00  0.00    -0.019 A 
ATOM     51  C   UNL     1     -46.816  26.032  24.970  1.00  0.00     0.014 A 
ATOM     52  C   UNL     1     -48.368  25.625  26.761  1.00  0.00    -0.057 A 
ATOM     53  H   UNL     1     -49.586  27.257  27.373  1.00  0.00     0.066 H 
ATOM     54  C   UNL     1     -47.338  25.180  25.862  1.00  0.00    -0.045 A 
ATOM     55  H   UNL     1     -46.037  25.717  24.281  1.00  0.00     0.082 H 
ATOM     56  H   UNL     1     -48.774  24.915  27.475  1.00  0.00     0.062 H 
ATOM     57  H   UNL     1     -46.996  24.151  25.923  1.00  0.00     0.064 H 
ENDBRANCH  39  42
ENDBRANCH  35  38
ENDBRANCH  32  35
ENDBRANCH   1  21
TORSDOF 8
ENDMDL
MODEL 3
REMARK VINA RESULT:      -9.2      2.440      3.758
REMARK SMILES CCOC1CN(Cc2cc3ccc(CNC(=O)c4cc(=O)n5ccccc5n4)cc3[nH]2)C1
REMARK SMILES IDX 7 1 6 4 4 5 5 6 32 7 3 13 2 14 1 17 8 21 9 22 31 23 10 24
REMARK SMILES IDX 30 26 11 28 29 29 12 30 13 32 14 35 15 38 16 39 17 41 18 42
REMARK SMILES IDX 19 43 28 44 20 45 27 47 21 48 22 49 26 50 23 51 25 52 24 54
REMARK H PARENT 7 2 7 3 4 8 5 9 5 10 32 11 32 12 2 15 2 16 1 18 1 19 1 20 9 25
REMARK H PARENT 31 27 11 31 29 33 12 34 14 36 14 37 15 40 19 46 26 53 23 55
REMARK H PARENT 25 56 24 57
REMARK Flexibility Score: inf
ROOT
ATOM      1  C   UNL     1     -46.322  31.734  24.115  1.00  0.00     0.039 C 
ATOM      2  H   UNL     1     -46.278  32.237  23.139  1.00  0.00     0.050 H 
ATOM      3  H   UNL     1     -45.365  31.210  24.239  1.00  0.00     0.050 H 
ENDROOT
BRANCH   1   4
ATOM      4  N   UNL     1     -47.413  30.755  24.202  1.00  0.00    -0.292 NA
ATOM      5  C   UNL     1     -48.310  30.571  22.263  1.00  0.00     0.083 C 
ATOM      6  C   UNL     1     -48.661  31.271  23.594  1.00  0.00     0.026 C 
ATOM      7  C   UNL     1     -47.305  29.760  23.111  1.00  0.00     0.026 C 
ATOM      8  H   UNL     1     -47.805  31.234  21.547  1.00  0.00     0.063 H 
ATOM      9  H   UNL     1     -48.770  32.360  23.531  1.00  0.00     0.046 H 
ATOM     10  H   UNL     1     -49.563  30.875  24.078  1.00  0.00     0.046 H 
ATOM     11  H   UNL     1     -46.313  29.630  22.664  1.00  0.00     0.046 H 
ATOM     12  H   UNL     1     -47.673  28.768  23.402  1.00  0.00     0.046 H 
BRANCH   5  13
ATOM     13  O   UNL     1     -49.352  29.812  21.608  1.00  0.00    -0.376 OA
BRANCH  13  14
ATOM     14  C   UNL     1     -49.274  29.752  20.187  1.00  0.00     0.044 C 
ATOM     15  H   UNL     1     -48.548  28.987  19.894  1.00  0.00     0.056 H 
ATOM     16  H   UNL     1     -50.255  29.487  19.780  1.00  0.00     0.056 H 
BRANCH  14  17
ATOM     17  C   UNL     1     -48.841  31.107  19.669  1.00  0.00    -0.042 C 
ATOM     18  H   UNL     1     -49.426  31.390  18.787  1.00  0.00     0.025 H 
ATOM     19  H   UNL     1     -49.012  31.882  20.425  1.00  0.00     0.025 H 
ATOM     20  H   UNL     1     -47.781  31.103  19.401  1.00  0.00     0.025 H 
ENDBRANCH  14  17
ENDBRANCH  13  14
ENDBRANCH   5  13
ENDBRANCH   1   4
BRANCH   1  21
ATOM     21  C   UNL     1     -46.426  32.741  25.215  1.00  0.00     0.030 A 
ATOM     22  C   UNL     1     -46.220  32.616  26.576  1.00  0.00    -0.032 A 
ATOM     23  N   UNL     1     -46.765  34.052  24.979  1.00  0.00    -0.357 N 
ATOM     24  C   UNL     1     -46.441  33.883  27.177  1.00  0.00    -0.000 A 
ATOM     25  H   UNL     1     -45.946  31.699  27.082  1.00  0.00     0.065 H 
ATOM     26  C   UNL     1     -46.781  34.767  26.155  1.00  0.00     0.046 A 
ATOM     27  H   UNL     1     -46.976  34.447  24.074  1.00  0.00     0.166 HD
ATOM     28  C   UNL     1     -46.388  34.363  28.498  1.00  0.00    -0.052 A 
ATOM     29  C   UNL     1     -47.071  36.117  26.388  1.00  0.00    -0.033 A 
ATOM     30  C   UNL     1     -46.675  35.711  28.751  1.00  0.00    -0.057 A 
ATOM     31  H   UNL     1     -46.130  33.695  29.315  1.00  0.00     0.063 H 
ATOM     32  C   UNL     1     -47.005  36.589  27.711  1.00  0.00    -0.027 A 
ATOM     33  H   UNL     1     -47.344  36.780  25.573  1.00  0.00     0.065 H 
ATOM     34  H   UNL     1     -46.637  36.070  29.778  1.00  0.00     0.063 H 
BRANCH  32  35
ATOM     35  C   UNL     1     -47.344  38.025  28.010  1.00  0.00     0.043 C 
ATOM     36  H   UNL     1     -48.282  38.315  27.523  1.00  0.00     0.054 H 
ATOM     37  H   UNL     1     -47.489  38.175  29.087  1.00  0.00     0.054 H 
BRANCH  35  38
ATOM     38  N   UNL     1     -46.304  38.903  27.544  1.00  0.00    -0.347 N 
ATOM     39  C   UNL     1     -45.196  39.186  28.302  1.00  0.00     0.270 C 
ATOM     40  H   UNL     1     -46.453  39.473  26.718  1.00  0.00     0.164 HD
ATOM     41  O   UNL     1     -44.942  38.652  29.375  1.00  0.00    -0.268 OA
BRANCH  39  42
ATOM     42  C   UNL     1     -44.322  40.244  27.672  1.00  0.00     0.136 A 
ATOM     43  C   UNL     1     -43.230  40.596  28.354  1.00  0.00     0.035 A 
ATOM     44  N   UNL     1     -44.696  40.774  26.458  1.00  0.00    -0.225 NA
ATOM     45  C   UNL     1     -42.353  41.622  27.777  1.00  0.00     0.258 A 
ATOM     46  H   UNL     1     -42.947  40.172  29.308  1.00  0.00     0.071 H 
ATOM     47  C   UNL     1     -43.919  41.682  25.953  1.00  0.00     0.140 A 
ATOM     48  O   UNL     1     -41.342  41.951  28.396  1.00  0.00    -0.269 OA
ATOM     49  N   UNL     1     -42.752  42.141  26.555  1.00  0.00    -0.268 N 
ATOM     50  C   UNL     1     -44.285  42.286  24.641  1.00  0.00    -0.019 A 
ATOM     51  C   UNL     1     -41.972  43.119  25.947  1.00  0.00     0.014 A 
ATOM     52  C   UNL     1     -43.502  43.224  24.096  1.00  0.00    -0.057 A 
ATOM     53  H   UNL     1     -45.192  41.934  24.165  1.00  0.00     0.066 H 
ATOM     54  C   UNL     1     -42.307  43.657  24.767  1.00  0.00    -0.045 A 
ATOM     55  H   UNL     1     -41.073  43.432  26.473  1.00  0.00     0.082 H 
ATOM     56  H   UNL     1     -43.752  43.676  23.141  1.00  0.00     0.062 H 
ATOM     57  H   UNL     1     -41.691  44.420  24.302  1.00  0.00     0.064 H 
ENDBRANCH  39  42
ENDBRANCH  35  38
ENDBRANCH  32  35
ENDBRANCH   1  21
TORSDOF 8
ENDMDL
MODEL 4
REMARK VINA RESULT:      -9.2      2.025      3.176
REMARK SMILES CCOC1CN(Cc2cc3ccc(CNC(=O)c4cc(=O)n5ccccc5n4)cc3[nH]2)C1
REMARK SMILES IDX 7 1 6 4 4 5 5 6 32 7 3 13 2 14 1 17 8 21 9 22 31 23 10 24
REMARK SMILES IDX 30 26 11 28 29 29 12 30 13 32 14 35 15 38 16 39 17 41 18 42
REMARK SMILES IDX 19 43 28 44 20 45 27 47 21 48 22 49 26 50 23 51 25 52 24 54
REMARK H PARENT 7 2 7 3 4 8 5 9 5 10 32 11 32 12 2 15 2 16 1 18 1 19 1 20 9 25
REMARK H PARENT 31 27 11 31 29 33 12 34 14 36 14 37 15 40 19 46 26 53 23 55
REMARK H PARENT 25 56 24 57
REMARK Flexibility Score: inf
ROOT
ATOM      1  C   UNL     1     -48.687  29.298  24.449  1.00  0.00     0.039 C 
ATOM      2  H   UNL     1     -47.854  28.733  24.008  1.00  0.00     0.050 H 
ATOM      3  H   UNL     1     -48.963  28.774  25.374  1.00  0.00     0.050 H 
ENDROOT
BRANCH   1   4
ATOM      4  N   UNL     1     -49.861  29.361  23.571  1.00  0.00    -0.292 NA
ATOM      5  C   UNL     1     -49.208  29.933  21.610  1.00  0.00     0.083 C 
ATOM      6  C   UNL     1     -49.904  30.626  22.803  1.00  0.00     0.026 C 
ATOM      7  C   UNL     1     -49.610  28.619  22.315  1.00  0.00     0.026 C 
ATOM      8  H   UNL     1     -48.120  30.081  21.602  1.00  0.00     0.063 H 
ATOM      9  H   UNL     1     -49.362  31.481  23.223  1.00  0.00     0.046 H 
ATOM     10  H   UNL     1     -50.928  30.957  22.587  1.00  0.00     0.046 H 
ATOM     11  H   UNL     1     -48.831  27.849  22.349  1.00  0.00     0.046 H 
ATOM     12  H   UNL     1     -50.517  28.157  21.904  1.00  0.00     0.046 H 
BRANCH   5  13
ATOM     13  O   UNL     1     -49.763  30.148  20.292  1.00  0.00    -0.376 OA
BRANCH  13  14
ATOM     14  C   UNL     1     -49.073  31.090  19.476  1.00  0.00     0.044 C 
ATOM     15  H   UNL     1     -49.012  30.710  18.452  1.00  0.00     0.056 H 
ATOM     16  H   UNL     1     -49.620  32.037  19.473  1.00  0.00     0.056 H 
BRANCH  14  17
ATOM     17  C   UNL     1     -47.682  31.291  20.041  1.00  0.00    -0.042 C 
ATOM     18  H   UNL     1     -46.931  31.249  19.245  1.00  0.00     0.025 H 
ATOM     19  H   UNL     1     -47.594  32.278  20.509  1.00  0.00     0.025 H 
ATOM     20  H   UNL     1     -47.449  30.525  20.786  1.00  0.00     0.025 H 
ENDBRANCH  14  17
ENDBRANCH  13  14
ENDBRANCH   5  13
ENDBRANCH   1   4
BRANCH   1  21
ATOM     21  C   UNL     1     -48.238  30.672  24.831  1.00  0.00     0.030 A 
ATOM     22  C   UNL     1     -47.081  31.362  24.523  1.00  0.00    -0.032 A 
ATOM     23  N   UNL     1     -49.006  31.505  25.609  1.00  0.00    -0.357 N 
ATOM     24  C   UNL     1     -47.153  32.644  25.130  1.00  0.00    -0.000 A 
ATOM     25  H   UNL     1     -46.266  30.975  23.925  1.00  0.00     0.065 H 
ATOM     26  C   UNL     1     -48.370  32.709  25.806  1.00  0.00     0.046 A 
ATOM     27  H   UNL     1     -49.914  31.275  25.991  1.00  0.00     0.166 HD
ATOM     28  C   UNL     1     -46.294  33.757  25.174  1.00  0.00    -0.052 A 
ATOM     29  C   UNL     1     -48.776  33.839  26.527  1.00  0.00    -0.033 A 
ATOM     30  C   UNL     1     -46.682  34.897  25.890  1.00  0.00    -0.057 A 
ATOM     31  H   UNL     1     -45.337  33.732  24.661  1.00  0.00     0.063 H 
ATOM     32  C   UNL     1     -47.914  34.950  26.555  1.00  0.00    -0.027 A 
ATOM     33  H   UNL     1     -49.725  33.857  27.053  1.00  0.00     0.065 H 
ATOM     34  H   UNL     1     -46.006  35.750  25.922  1.00  0.00     0.063 H 
BRANCH  32  35
ATOM     35  C   UNL     1     -48.296  36.172  27.348  1.00  0.00     0.043 C 
ATOM     36  H   UNL     1     -49.156  36.678  26.896  1.00  0.00     0.054 H 
ATOM     37  H   UNL     1     -48.592  35.897  28.368  1.00  0.00     0.054 H 
BRANCH  35  38
ATOM     38  N   UNL     1     -47.202  37.105  27.405  1.00  0.00    -0.347 N 
ATOM     39  C   UNL     1     -46.415  37.238  28.520  1.00  0.00     0.270 C 
ATOM     40  H   UNL     1     -47.101  37.812  26.684  1.00  0.00     0.164 HD
ATOM     41  O   UNL     1     -46.499  36.521  29.510  1.00  0.00    -0.268 OA
BRANCH  39  42
ATOM     42  C   UNL     1     -45.434  38.378  28.400  1.00  0.00     0.136 A 
ATOM     43  C   UNL     1     -44.589  38.546  29.420  1.00  0.00     0.035 A 
ATOM     44  N   UNL     1     -45.469  39.166  27.271  1.00  0.00    -0.225 NA
ATOM     45  C   UNL     1     -43.619  39.644  29.344  1.00  0.00     0.258 A 
ATOM     46  H   UNL     1     -44.572  37.921  30.303  1.00  0.00     0.071 H 
ATOM     47  C   UNL     1     -44.611  40.136  27.209  1.00  0.00     0.140 A 
ATOM     48  O   UNL     1     -42.833  39.804  30.277  1.00  0.00    -0.269 OA
ATOM     49  N   UNL     1     -43.675  40.423  28.197  1.00  0.00    -0.268 N 
ATOM     50  C   UNL     1     -44.613  41.015  26.006  1.00  0.00    -0.019 A 
ATOM     51  C   UNL     1     -42.788  41.484  28.054  1.00  0.00     0.014 A 
ATOM     52  C   UNL     1     -43.739  42.025  25.914  1.00  0.00    -0.057 A 
ATOM     53  H   UNL     1     -45.338  40.800  25.231  1.00  0.00     0.066 H 
ATOM     54  C   UNL     1     -42.795  42.270  26.970  1.00  0.00    -0.045 A 
ATOM     55  H   UNL     1     -42.083  41.652  28.866  1.00  0.00     0.082 H 
ATOM     56  H   UNL     1     -43.725  42.676  25.046  1.00  0.00     0.062 H 
ATOM     57  H   UNL     1     -42.098  43.096  26.870  1.00  0.00     0.064 H 
ENDBRANCH  39  42
ENDBRANCH  35  38
ENDBRANCH  32  35
ENDBRANCH   1  21
TORSDOF 8
ENDMDL
MODEL 5
REMARK VINA RESULT:      -9.1      2.324      3.763
REMARK SMILES CCOC1CN(Cc2cc3ccc(CNC(=O)c4cc(=O)n5ccccc5n4)cc3[nH]2)C1
REMARK SMILES IDX 7 1 6 4 4 5 5 6 32 7 3 13 2 14 1 17 8 21 9 22 31 23 10 24
REMARK SMILES IDX 30 26 11 28 29 29 12 30 13 32 14 35 15 38 16 39 17 41 18 42
REMARK SMILES IDX 19 43 28 44 20 45 27 47 21 48 22 49 26 50 23 51 25 52 24 54
REMARK H PARENT 7 2 7 3 4 8 5 9 5 10 32 11 32 12 2 15 2 16 1 18 1 19 1 20 9 25
REMARK H PARENT 31 27 11 31 29 33 12 34 14 36 14 37 15 40 19 46 26 53 23 55
REMARK H PARENT 25 56 24 57
REMARK Flexibility Score: inf
ROOT
ATOM      1  C   UNL     1     -46.442  32.269  24.911  1.00  0.00     0.039 C 
ATOM      2  H   UNL     1     -45.635  32.480  24.196  1.00  0.00     0.050 H 
ATOM      3  H   UNL     1     -46.166  31.338  25.425  1.00  0.00     0.050 H 
ENDROOT
BRANCH   1   4
ATOM      4  N   UNL     1     -47.744  32.082  24.259  1.00  0.00    -0.292 NA
ATOM      5  C   UNL     1     -48.466  30.122  24.743  1.00  0.00     0.083 C 
ATOM      6  C   UNL     1     -47.808  30.800  23.521  1.00  0.00     0.026 C 
ATOM      7  C   UNL     1     -48.739  31.564  25.226  1.00  0.00     0.026 C 
ATOM      8  H   UNL     1     -47.744  29.600  25.387  1.00  0.00     0.063 H 
ATOM      9  H   UNL     1     -46.856  30.361  23.204  1.00  0.00     0.046 H 
ATOM     10  H   UNL     1     -48.460  30.851  22.639  1.00  0.00     0.046 H 
ATOM     11  H   UNL     1     -48.533  31.749  26.286  1.00  0.00     0.046 H 
ATOM     12  H   UNL     1     -49.758  31.914  25.018  1.00  0.00     0.046 H 
BRANCH   5  13
ATOM     13  O   UNL     1     -49.630  29.296  24.507  1.00  0.00    -0.376 OA
BRANCH  13  14
ATOM     14  C   UNL     1     -49.528  27.945  24.946  1.00  0.00     0.044 C 
ATOM     15  H   UNL     1     -50.530  27.542  25.121  1.00  0.00     0.056 H 
ATOM     16  H   UNL     1     -49.034  27.348  24.173  1.00  0.00     0.056 H 
BRANCH  14  17
ATOM     17  C   UNL     1     -48.722  27.912  26.227  1.00  0.00    -0.042 C 
ATOM     18  H   UNL     1     -48.993  28.751  26.877  1.00  0.00     0.025 H 
ATOM     19  H   UNL     1     -48.928  26.995  26.790  1.00  0.00     0.025 H 
ATOM     20  H   UNL     1     -47.650  27.963  26.016  1.00  0.00     0.025 H 
ENDBRANCH  14  17
ENDBRANCH  13  14
ENDBRANCH   5  13
ENDBRANCH   1   4
BRANCH   1  21
ATOM     21  C   UNL     1     -46.517  33.345  25.945  1.00  0.00     0.030 A 
ATOM     22  C   UNL     1     -46.234  33.318  27.298  1.00  0.00    -0.032 A 
ATOM     23  N   UNL     1     -46.908  34.627  25.642  1.00  0.00    -0.357 N 
ATOM     24  C   UNL     1     -46.460  34.618  27.824  1.00  0.00    -0.000 A 
ATOM     25  H   UNL     1     -45.905  32.446  27.848  1.00  0.00     0.065 H 
ATOM     26  C   UNL     1     -46.882  35.420  26.767  1.00  0.00     0.046 A 
ATOM     27  H   UNL     1     -47.180  34.954  24.726  1.00  0.00     0.166 HD
ATOM     28  C   UNL     1     -46.351  35.188  29.106  1.00  0.00    -0.052 A 
ATOM     29  C   UNL     1     -47.201  36.775  26.925  1.00  0.00    -0.033 A 
ATOM     30  C   UNL     1     -46.665  36.541  29.284  1.00  0.00    -0.057 A 
ATOM     31  H   UNL     1     -46.029  34.584  29.950  1.00  0.00     0.063 H 
ATOM     32  C   UNL     1     -47.077  37.337  28.208  1.00  0.00    -0.027 A 
ATOM     33  H   UNL     1     -47.537  37.374  26.085  1.00  0.00     0.065 H 
ATOM     34  H   UNL     1     -46.583  36.970  30.281  1.00  0.00     0.063 H 
BRANCH  32  35
ATOM     35  C   UNL     1     -47.444  38.781  28.429  1.00  0.00     0.043 C 
ATOM     36  H   UNL     1     -48.361  39.039  27.889  1.00  0.00     0.054 H 
ATOM     37  H   UNL     1     -47.639  38.975  29.492  1.00  0.00     0.054 H 
BRANCH  35  38
ATOM     38  N   UNL     1     -46.392  39.650  27.974  1.00  0.00    -0.347 N 
ATOM     39  C   UNL     1     -46.513  40.406  26.836  1.00  0.00     0.270 C 
ATOM     40  H   UNL     1     -45.467  39.587  28.387  1.00  0.00     0.164 HD
ATOM     41  O   UNL     1     -47.540  40.492  26.173  1.00  0.00    -0.268 OA
BRANCH  39  42
ATOM     42  C   UNL     1     -45.231  41.118  26.478  1.00  0.00     0.136 A 
ATOM     43  C   UNL     1     -44.226  41.008  27.350  1.00  0.00     0.035 A 
ATOM     44  N   UNL     1     -45.175  41.828  25.300  1.00  0.00    -0.225 NA
ATOM     45  C   UNL     1     -42.961  41.685  27.040  1.00  0.00     0.258 A 
ATOM     46  H   UNL     1     -44.282  40.447  28.273  1.00  0.00     0.071 H 
ATOM     47  C   UNL     1     -44.056  42.427  25.032  1.00  0.00     0.140 A 
ATOM     48  O   UNL     1     -42.028  41.586  27.835  1.00  0.00    -0.269 OA
ATOM     49  N   UNL     1     -42.931  42.395  25.848  1.00  0.00    -0.268 N 
ATOM     50  C   UNL     1     -43.950  43.209  23.767  1.00  0.00    -0.019 A 
ATOM     51  C   UNL     1     -41.767  43.065  25.488  1.00  0.00     0.014 A 
ATOM     52  C   UNL     1     -42.808  43.837  23.464  1.00  0.00    -0.057 A 
ATOM     53  H   UNL     1     -44.821  43.240  23.125  1.00  0.00     0.066 H 
ATOM     54  C   UNL     1     -41.679  43.766  24.351  1.00  0.00    -0.045 A 
ATOM     55  H   UNL     1     -40.925  42.998  26.174  1.00  0.00     0.082 H 
ATOM     56  H   UNL     1     -42.712  44.412  22.548  1.00  0.00     0.062 H 
ATOM     57  H   UNL     1     -40.765  44.285  24.079  1.00  0.00     0.064 H 
ENDBRANCH  39  42
ENDBRANCH  35  38
ENDBRANCH  32  35
ENDBRANCH   1  21
TORSDOF 8
ENDMDL
MODEL 6
REMARK VINA RESULT:      -8.9      1.659      2.297
REMARK SMILES CCOC1CN(Cc2cc3ccc(CNC(=O)c4cc(=O)n5ccccc5n4)cc3[nH]2)C1
REMARK SMILES IDX 7 1 6 4 4 5 5 6 32 7 3 13 2 14 1 17 8 21 9 22 31 23 10 24
REMARK SMILES IDX 30 26 11 28 29 29 12 30 13 32 14 35 15 38 16 39 17 41 18 42
REMARK SMILES IDX 19 43 28 44 20 45 27 47 21 48 22 49 26 50 23 51 25 52 24 54
REMARK H PARENT 7 2 7 3 4 8 5 9 5 10 32 11 32 12 2 15 2 16 1 18 1 19 1 20 9 25
REMARK H PARENT 31 27 11 31 29 33 12 34 14 36 14 37 15 40 19 46 26 53 23 55
REMARK H PARENT 25 56 24 57
REMARK Flexibility Score: inf
ROOT
ATOM      1  C   UNL     1     -49.212  30.357  24.851  1.00  0.00     0.039 C 
ATOM      2  H   UNL     1     -50.143  30.184  25.407  1.00  0.00     0.050 H 
ATOM      3  H   UNL     1     -49.497  30.475  23.797  1.00  0.00     0.050 H 
ENDROOT
BRANCH   1   4
ATOM      4  N   UNL     1     -48.264  29.242  24.965  1.00  0.00    -0.292 NA
ATOM      5  C   UNL     1     -49.380  27.413  25.035  1.00  0.00     0.083 C 
ATOM      6  C   UNL     1     -48.643  28.311  26.053  1.00  0.00     0.026 C 
ATOM      7  C   UNL     1     -48.577  28.192  23.970  1.00  0.00     0.026 C 
ATOM      8  H   UNL     1     -50.457  27.623  24.976  1.00  0.00     0.063 H 
ATOM      9  H   UNL     1     -49.270  28.714  26.856  1.00  0.00     0.046 H 
ATOM     10  H   UNL     1     -47.774  27.830  26.520  1.00  0.00     0.046 H 
ATOM     11  H   UNL     1     -49.149  28.506  23.090  1.00  0.00     0.046 H 
ATOM     12  H   UNL     1     -47.685  27.661  23.615  1.00  0.00     0.046 H 
BRANCH   5  13
ATOM     13  O   UNL     1     -49.142  25.988  25.101  1.00  0.00    -0.376 OA
BRANCH  13  14
ATOM     14  C   UNL     1     -48.814  25.474  26.388  1.00  0.00     0.044 C 
ATOM     15  H   UNL     1     -48.945  26.259  27.139  1.00  0.00     0.056 H 
ATOM     16  H   UNL     1     -49.480  24.639  26.626  1.00  0.00     0.056 H 
BRANCH  14  17
ATOM     17  C   UNL     1     -47.374  25.006  26.370  1.00  0.00    -0.042 C 
ATOM     18  H   UNL     1     -47.172  24.342  27.217  1.00  0.00     0.025 H 
ATOM     19  H   UNL     1     -47.166  24.432  25.460  1.00  0.00     0.025 H 
ATOM     20  H   UNL     1     -46.686  25.855  26.416  1.00  0.00     0.025 H 
ENDBRANCH  14  17
ENDBRANCH  13  14
ENDBRANCH   5  13
ENDBRANCH   1   4
BRANCH   1  21
ATOM     21  C   UNL     1     -48.577  31.638  25.287  1.00  0.00     0.030 A 
ATOM     22  C   UNL     1     -47.267  32.072  25.199  1.00  0.00    -0.032 A 
ATOM     23  N   UNL     1     -49.295  32.649  25.879  1.00  0.00    -0.357 N 
ATOM     24  C   UNL     1     -47.194  33.377  25.754  1.00  0.00    -0.000 A 
ATOM     25  H   UNL     1     -46.448  31.499  24.783  1.00  0.00     0.065 H 
ATOM     26  C   UNL     1     -48.478  33.716  26.174  1.00  0.00     0.046 A 
ATOM     27  H   UNL     1     -50.285  32.622  26.078  1.00  0.00     0.166 HD
ATOM     28  C   UNL     1     -46.152  34.303  25.945  1.00  0.00    -0.052 A 
ATOM     29  C   UNL     1     -48.778  34.944  26.777  1.00  0.00    -0.033 A 
ATOM     30  C   UNL     1     -46.431  35.537  26.546  1.00  0.00    -0.057 A 
ATOM     31  H   UNL     1     -45.140  34.063  25.632  1.00  0.00     0.063 H 
ATOM     32  C   UNL     1     -47.731  35.867  26.952  1.00  0.00    -0.027 A 
ATOM     33  H   UNL     1     -49.786  35.177  27.104  1.00  0.00     0.065 H 
ATOM     34  H   UNL     1     -45.617  36.243  26.694  1.00  0.00     0.063 H 
BRANCH  32  35
ATOM     35  C   UNL     1     -48.002  37.185  27.628  1.00  0.00     0.043 C 
ATOM     36  H   UNL     1     -48.868  37.684  27.179  1.00  0.00     0.054 H 
ATOM     37  H   UNL     1     -48.240  37.037  28.690  1.00  0.00     0.054 H 
BRANCH  35  38
ATOM     38  N   UNL     1     -46.866  38.060  27.515  1.00  0.00    -0.347 N 
ATOM     39  C   UNL     1     -46.864  39.324  28.045  1.00  0.00     0.270 C 
ATOM     40  H   UNL     1     -46.106  37.825  26.884  1.00  0.00     0.164 HD
ATOM     41  O   UNL     1     -47.765  39.781  28.739  1.00  0.00    -0.268 OA
BRANCH  39  42
ATOM     42  C   UNL     1     -45.628  40.105  27.670  1.00  0.00     0.136 A 
ATOM     43  C   UNL     1     -44.574  39.973  28.478  1.00  0.00     0.035 A 
ATOM     44  N   UNL     1     -45.660  40.893  26.542  1.00  0.00    -0.225 NA
ATOM     45  C   UNL     1     -43.350  40.715  28.150  1.00  0.00     0.258 A 
ATOM     46  H   UNL     1     -44.561  39.350  29.363  1.00  0.00     0.071 H 
ATOM     47  C   UNL     1     -44.577  41.549  26.258  1.00  0.00     0.140 A 
ATOM     48  O   UNL     1     -42.372  40.597  28.887  1.00  0.00    -0.269 OA
ATOM     49  N   UNL     1     -43.409  41.503  27.010  1.00  0.00    -0.268 N 
ATOM     50  C   UNL     1     -44.566  42.417  25.046  1.00  0.00    -0.019 A 
ATOM     51  C   UNL     1     -42.288  42.237  26.636  1.00  0.00     0.014 A 
ATOM     52  C   UNL     1     -43.464  43.105  24.727  1.00  0.00    -0.057 A 
ATOM     53  H   UNL     1     -45.472  42.459  24.454  1.00  0.00     0.066 H 
ATOM     54  C   UNL     1     -42.285  43.015  25.546  1.00  0.00    -0.045 A 
ATOM     55  H   UNL     1     -41.409  42.155  27.271  1.00  0.00     0.082 H 
ATOM     56  H   UNL     1     -43.436  43.743  23.849  1.00  0.00     0.062 H 
ATOM     57  H   UNL     1     -41.405  43.584  25.264  1.00  0.00     0.064 H 
ENDBRANCH  39  42
ENDBRANCH  35  38
ENDBRANCH  32  35
ENDBRANCH   1  21
TORSDOF 8
ENDMDL
MODEL 7
REMARK VINA RESULT:      -8.9      3.732      7.491
REMARK SMILES CCOC1CN(Cc2cc3ccc(CNC(=O)c4cc(=O)n5ccccc5n4)cc3[nH]2)C1
REMARK SMILES IDX 7 1 6 4 4 5 5 6 32 7 3 13 2 14 1 17 8 21 9 22 31 23 10 24
REMARK SMILES IDX 30 26 11 28 29 29 12 30 13 32 14 35 15 38 16 39 17 41 18 42
REMARK SMILES IDX 19 43 28 44 20 45 27 47 21 48 22 49 26 50 23 51 25 52 24 54
REMARK H PARENT 7 2 7 3 4 8 5 9 5 10 32 11 32 12 2 15 2 16 1 18 1 19 1 20 9 25
REMARK H PARENT 31 27 11 31 29 33 12 34 14 36 14 37 15 40 19 46 26 53 23 55
REMARK H PARENT 25 56 24 57
REMARK Flexibility Score: inf
ROOT
ATOM      1  C   UNL     1     -47.123  36.929  26.826  1.00  0.00     0.039 C 
ATOM      2  H   UNL     1     -47.954  37.574  26.508  1.00  0.00     0.050 H 
ATOM      3  H   UNL     1     -46.664  36.539  25.907  1.00  0.00     0.050 H 
ENDROOT
BRANCH   1   4
ATOM      4  N   UNL     1     -47.564  35.799  27.653  1.00  0.00    -0.292 NA
ATOM      5  C   UNL     1     -47.645  34.049  26.416  1.00  0.00     0.083 C 
ATOM      6  C   UNL     1     -48.664  35.046  27.009  1.00  0.00     0.026 C 
ATOM      7  C   UNL     1     -46.668  34.636  27.460  1.00  0.00     0.026 C 
ATOM      8  H   UNL     1     -47.347  34.297  25.388  1.00  0.00     0.063 H 
ATOM      9  H   UNL     1     -49.270  35.584  26.271  1.00  0.00     0.046 H 
ATOM     10  H   UNL     1     -49.351  34.596  27.737  1.00  0.00     0.046 H 
ATOM     11  H   UNL     1     -45.660  34.850  27.090  1.00  0.00     0.046 H 
ATOM     12  H   UNL     1     -46.568  34.021  28.364  1.00  0.00     0.046 H 
BRANCH   5  13
ATOM     13  O   UNL     1     -47.937  32.638  26.537  1.00  0.00    -0.376 OA
BRANCH  13  14
ATOM     14  C   UNL     1     -47.903  31.893  25.323  1.00  0.00     0.044 C 
ATOM     15  H   UNL     1     -47.940  30.824  25.549  1.00  0.00     0.056 H 
ATOM     16  H   UNL     1     -48.769  32.159  24.709  1.00  0.00     0.056 H 
BRANCH  14  17
ATOM     17  C   UNL     1     -46.620  32.226  24.588  1.00  0.00    -0.042 C 
ATOM     18  H   UNL     1     -46.013  32.928  25.169  1.00  0.00     0.025 H 
ATOM     19  H   UNL     1     -46.013  31.325  24.444  1.00  0.00     0.025 H 
ATOM     20  H   UNL     1     -46.833  32.668  23.612  1.00  0.00     0.025 H 
ENDBRANCH  14  17
ENDBRANCH  13  14
ENDBRANCH   5  13
ENDBRANCH   1   4
BRANCH   1  21
ATOM     21  C   UNL     1     -46.083  37.732  27.537  1.00  0.00     0.030 A 
ATOM     22  C   UNL     1     -45.468  37.533  28.759  1.00  0.00    -0.032 A 
ATOM     23  N   UNL     1     -45.551  38.881  27.003  1.00  0.00    -0.357 N 
ATOM     24  C   UNL     1     -44.541  38.589  28.967  1.00  0.00    -0.000 A 
ATOM     25  H   UNL     1     -45.675  36.712  29.434  1.00  0.00     0.065 H 
ATOM     26  C   UNL     1     -44.612  39.421  27.852  1.00  0.00     0.046 A 
ATOM     27  H   UNL     1     -45.806  39.284  26.112  1.00  0.00     0.166 HD
ATOM     28  C   UNL     1     -43.649  38.919  30.004  1.00  0.00    -0.052 A 
ATOM     29  C   UNL     1     -43.829  40.574  27.718  1.00  0.00    -0.033 A 
ATOM     30  C   UNL     1     -42.858  40.069  29.888  1.00  0.00    -0.057 A 
ATOM     31  H   UNL     1     -43.577  38.291  30.887  1.00  0.00     0.063 H 
ATOM     32  C   UNL     1     -42.933  40.889  28.755  1.00  0.00    -0.027 A 
ATOM     33  H   UNL     1     -43.912  41.210  26.842  1.00  0.00     0.065 H 
ATOM     34  H   UNL     1     -42.176  40.318  30.699  1.00  0.00     0.063 H 
BRANCH  32  35
ATOM     35  C   UNL     1     -42.098  42.139  28.667  1.00  0.00     0.043 C 
ATOM     36  H   UNL     1     -42.398  42.864  29.432  1.00  0.00     0.054 H 
ATOM     37  H   UNL     1     -41.039  41.914  28.845  1.00  0.00     0.054 H 
BRANCH  35  38
ATOM     38  N   UNL     1     -42.242  42.759  27.377  1.00  0.00    -0.347 N 
ATOM     39  C   UNL     1     -43.199  43.709  27.127  1.00  0.00     0.270 C 
ATOM     40  H   UNL     1     -41.752  42.378  26.574  1.00  0.00     0.164 HD
ATOM     41  O   UNL     1     -43.937  44.184  27.983  1.00  0.00    -0.268 OA
BRANCH  39  42
ATOM     42  C   UNL     1     -43.256  44.101  25.671  1.00  0.00     0.136 A 
ATOM     43  C   UNL     1     -42.275  43.639  24.892  1.00  0.00     0.035 A 
ATOM     44  N   UNL     1     -44.292  44.898  25.240  1.00  0.00    -0.225 NA
ATOM     45  C   UNL     1     -42.292  43.997  23.469  1.00  0.00     0.258 A 
ATOM     46  H   UNL     1     -41.465  43.014  25.243  1.00  0.00     0.071 H 
ATOM     47  C   UNL     1     -44.302  45.214  23.981  1.00  0.00     0.140 A 
ATOM     48  O   UNL     1     -41.394  43.574  22.742  1.00  0.00    -0.269 OA
ATOM     49  N   UNL     1     -43.345  44.802  23.060  1.00  0.00    -0.268 N 
ATOM     50  C   UNL     1     -45.404  46.077  23.471  1.00  0.00    -0.019 A 
ATOM     51  C   UNL     1     -43.427  45.185  21.726  1.00  0.00     0.014 A 
ATOM     52  C   UNL     1     -45.440  46.419  22.178  1.00  0.00    -0.057 A 
ATOM     53  H   UNL     1     -46.154  46.402  24.181  1.00  0.00     0.066 H 
ATOM     54  C   UNL     1     -44.421  45.960  21.273  1.00  0.00    -0.045 A 
ATOM     55  H   UNL     1     -42.645  44.827  21.060  1.00  0.00     0.082 H 
ATOM     56  H   UNL     1     -46.235  47.046  21.786  1.00  0.00     0.062 H 
ATOM     57  H   UNL     1     -44.475  46.253  20.229  1.00  0.00     0.064 H 
ENDBRANCH  39  42
ENDBRANCH  35  38
ENDBRANCH  32  35
ENDBRANCH   1  21
TORSDOF 8
ENDMDL
