MODEL 1
REMARK VINA RESULT:      -8.8      0.000      0.000
REMARK SMILES CC1(C)CCN(Cc2ccc(N3CC(=O)NC4(CCN(c5cc(NCc6ccccc6)ncn5)CC4)C3)cc2)CC1
REMARK SMILES IDX 12 1 13 2 14 3 15 4 16 5 17 6 18 7 19 8 20 9 35 10 36 11
REMARK SMILES IDX 37 12 11 26 8 27 9 28 39 29 10 30 38 32 7 36 6 39 2 40 4 41
REMARK SMILES IDX 41 42 5 43 40 46 1 53 3 57 21 61 22 62 34 63 23 64 33 66
REMARK SMILES IDX 32 67 24 69 25 71 26 74 27 75 31 76 28 77 30 79 29 81
REMARK H PARENT 13 13 13 14 16 15 18 16 18 17 19 18 19 19 35 20 35 21 36 22
REMARK H PARENT 36 23 37 24 37 25 9 31 39 33 10 34 38 35 7 37 7 38 4 44 4 45
REMARK H PARENT 41 47 41 48 5 49 5 50 40 51 40 52 1 54 1 55 1 56 3 58 3 59
REMARK H PARENT 3 60 22 65 33 68 24 70 25 72 25 73 27 78 31 80 28 82 30 83
REMARK H PARENT 29 84
REMARK Flexibility Score: inf
ROOT
ATOM      1  N   UNL     1     -44.843  46.120  25.321  1.00  0.00    -0.360 N 
ATOM      2  C   UNL     1     -44.747  46.626  23.941  1.00  0.00     0.097 C 
ATOM      3  C   UNL     1     -44.372  45.547  22.919  1.00  0.00     0.240 C 
ATOM      4  O   UNL     1     -44.699  45.611  21.734  1.00  0.00    -0.273 OA
ATOM      5  N   UNL     1     -43.530  44.542  23.334  1.00  0.00    -0.347 N 
ATOM      6  C   UNL     1     -43.490  44.064  24.735  1.00  0.00     0.061 C 
ATOM      7  C   UNL     1     -44.562  42.954  24.910  1.00  0.00    -0.010 C 
ATOM      8  C   UNL     1     -44.120  41.805  25.820  1.00  0.00     0.021 C 
ATOM      9  N   UNL     1     -43.239  42.325  26.865  1.00  0.00    -0.356 N 
ATOM     10  C   UNL     1     -41.956  42.860  26.395  1.00  0.00     0.021 C 
ATOM     11  C   UNL     1     -42.095  43.449  24.986  1.00  0.00    -0.010 C 
ATOM     12  C   UNL     1     -43.712  45.258  25.729  1.00  0.00     0.042 C 
ATOM     13  H   UNL     1     -43.947  47.375  23.908  1.00  0.00     0.060 H 
ATOM     14  H   UNL     1     -45.661  47.136  23.617  1.00  0.00     0.060 H 
ATOM     15  H   UNL     1     -43.359  43.867  22.600  1.00  0.00     0.164 HD
ATOM     16  H   UNL     1     -44.834  42.518  23.939  1.00  0.00     0.031 H 
ATOM     17  H   UNL     1     -45.493  43.367  25.303  1.00  0.00     0.031 H 
ATOM     18  H   UNL     1     -45.025  41.346  26.237  1.00  0.00     0.049 H 
ATOM     19  H   UNL     1     -43.602  41.036  25.231  1.00  0.00     0.049 H 
ATOM     20  H   UNL     1     -41.178  42.086  26.377  1.00  0.00     0.049 H 
ATOM     21  H   UNL     1     -41.619  43.650  27.077  1.00  0.00     0.049 H 
ATOM     22  H   UNL     1     -41.915  42.652  24.249  1.00  0.00     0.031 H 
ATOM     23  H   UNL     1     -41.301  44.187  24.817  1.00  0.00     0.031 H 
ATOM     24  H   UNL     1     -42.816  45.894  25.719  1.00  0.00     0.052 H 
ATOM     25  H   UNL     1     -43.809  44.904  26.760  1.00  0.00     0.052 H 
ENDROOT
BRANCH   1  26
ATOM     26  C   UNL     1     -46.082  45.854  25.901  1.00  0.00     0.037 A 
ATOM     27  C   UNL     1     -48.540  45.187  27.181  1.00  0.00    -0.034 A 
ATOM     28  C   UNL     1     -48.449  45.238  25.787  1.00  0.00    -0.056 A 
ATOM     29  C   UNL     1     -47.412  45.528  27.931  1.00  0.00    -0.056 A 
ATOM     30  C   UNL     1     -47.238  45.572  25.160  1.00  0.00    -0.038 A 
ATOM     31  H   UNL     1     -49.312  44.999  25.170  1.00  0.00     0.063 H 
ATOM     32  C   UNL     1     -46.208  45.850  27.298  1.00  0.00    -0.038 A 
ATOM     33  H   UNL     1     -47.456  45.520  29.018  1.00  0.00     0.063 H 
ATOM     34  H   UNL     1     -47.218  45.556  24.074  1.00  0.00     0.064 H 
ATOM     35  H   UNL     1     -45.358  46.109  27.924  1.00  0.00     0.064 H 
BRANCH  27  36
ATOM     36  C   UNL     1     -49.836  44.799  27.864  1.00  0.00     0.023 C 
ATOM     37  H   UNL     1     -49.800  45.245  28.867  1.00  0.00     0.048 H 
ATOM     38  H   UNL     1     -50.693  45.249  27.345  1.00  0.00     0.048 H 
BRANCH  36  39
ATOM     39  N   UNL     1     -50.017  43.345  27.970  1.00  0.00    -0.299 NA
ATOM     40  C   UNL     1     -50.497  40.597  28.378  1.00  0.00    -0.033 C 
ATOM     41  C   UNL     1     -50.384  41.491  29.630  1.00  0.00    -0.035 C 
ATOM     42  C   UNL     1     -51.284  41.354  27.276  1.00  0.00    -0.035 C 
ATOM     43  C   UNL     1     -49.767  42.870  29.336  1.00  0.00    -0.001 C 
ATOM     44  H   UNL     1     -51.388  41.643  30.049  1.00  0.00     0.029 H 
ATOM     45  H   UNL     1     -49.799  40.992  30.413  1.00  0.00     0.029 H 
ATOM     46  C   UNL     1     -51.308  42.880  27.465  1.00  0.00    -0.001 C 
ATOM     47  H   UNL     1     -50.862  41.120  26.291  1.00  0.00     0.029 H 
ATOM     48  H   UNL     1     -52.327  41.013  27.244  1.00  0.00     0.029 H 
ATOM     49  H   UNL     1     -48.683  42.816  29.489  1.00  0.00     0.043 H 
ATOM     50  H   UNL     1     -50.157  43.575  30.081  1.00  0.00     0.043 H 
ATOM     51  H   UNL     1     -52.117  43.167  28.149  1.00  0.00     0.043 H 
ATOM     52  H   UNL     1     -51.552  43.325  26.494  1.00  0.00     0.043 H 
BRANCH  40  53
ATOM     53  C   UNL     1     -51.234  39.296  28.740  1.00  0.00    -0.060 C 
ATOM     54  H   UNL     1     -51.996  39.052  27.991  1.00  0.00     0.024 H 
ATOM     55  H   UNL     1     -50.540  38.451  28.799  1.00  0.00     0.024 H 
ATOM     56  H   UNL     1     -51.736  39.381  29.710  1.00  0.00     0.024 H 
ENDBRANCH  40  53
BRANCH  40  57
ATOM     57  C   UNL     1     -49.093  40.216  27.863  1.00  0.00    -0.060 C 
ATOM     58  H   UNL     1     -48.349  40.294  28.663  1.00  0.00     0.024 H 
ATOM     59  H   UNL     1     -48.778  40.881  27.051  1.00  0.00     0.024 H 
ATOM     60  H   UNL     1     -49.053  39.190  27.484  1.00  0.00     0.024 H 
ENDBRANCH  40  57
ENDBRANCH  36  39
ENDBRANCH  27  36
ENDBRANCH   1  26
BRANCH   9  61
ATOM     61  C   UNL     1     -43.105  41.463  27.972  1.00  0.00     0.134 A 
ATOM     62  C   UNL     1     -44.028  40.447  28.161  1.00  0.00     0.023 A 
ATOM     63  N   UNL     1     -42.067  41.614  28.809  1.00  0.00    -0.219 NA
ATOM     64  C   UNL     1     -43.845  39.582  29.225  1.00  0.00     0.131 A 
ATOM     65  H   UNL     1     -44.836  40.292  27.458  1.00  0.00     0.070 H 
ATOM     66  C   UNL     1     -41.974  40.733  29.813  1.00  0.00     0.120 A 
ATOM     67  N   UNL     1     -42.819  39.728  30.072  1.00  0.00    -0.219 NA
ATOM     68  H   UNL     1     -41.132  40.848  30.486  1.00  0.00     0.106 H 
BRANCH  64  69
ATOM     69  N   UNL     1     -44.759  38.524  29.375  1.00  0.00    -0.366 N 
ATOM     70  H   UNL     1     -44.258  37.644  29.326  1.00  0.00     0.162 HD
BRANCH  69  71
ATOM     71  C   UNL     1     -45.921  38.541  28.493  1.00  0.00     0.041 C 
ATOM     72  H   UNL     1     -45.713  39.233  27.666  1.00  0.00     0.054 H 
ATOM     73  H   UNL     1     -46.816  38.943  28.983  1.00  0.00     0.054 H 
BRANCH  71  74
ATOM     74  C   UNL     1     -46.170  37.177  27.888  1.00  0.00    -0.029 A 
ATOM     75  C   UNL     1     -47.278  36.957  27.056  1.00  0.00    -0.057 A 
ATOM     76  C   UNL     1     -45.294  36.112  28.141  1.00  0.00    -0.057 A 
ATOM     77  C   UNL     1     -47.509  35.697  26.500  1.00  0.00    -0.062 A 
ATOM     78  H   UNL     1     -47.958  37.775  26.828  1.00  0.00     0.063 H 
ATOM     79  C   UNL     1     -45.526  34.854  27.583  1.00  0.00    -0.062 A 
ATOM     80  H   UNL     1     -44.414  36.266  28.762  1.00  0.00     0.063 H 
ATOM     81  C   UNL     1     -46.635  34.646  26.766  1.00  0.00    -0.062 A 
ATOM     82  H   UNL     1     -48.366  35.540  25.850  1.00  0.00     0.062 H 
ATOM     83  H   UNL     1     -44.834  34.038  27.779  1.00  0.00     0.062 H 
ATOM     84  H   UNL     1     -46.810  33.668  26.325  1.00  0.00     0.062 H 
ENDBRANCH  71  74
ENDBRANCH  69  71
ENDBRANCH  64  69
ENDBRANCH   9  61
TORSDOF 9
ENDMDL
MODEL 2
REMARK VINA RESULT:      -7.7      1.225      2.102
REMARK SMILES CC1(C)CCN(Cc2ccc(N3CC(=O)NC4(CCN(c5cc(NCc6ccccc6)ncn5)CC4)C3)cc2)CC1
REMARK SMILES IDX 12 1 13 2 14 3 15 4 16 5 17 6 18 7 19 8 20 9 35 10 36 11
REMARK SMILES IDX 37 12 11 26 8 27 9 28 39 29 10 30 38 32 7 36 6 39 2 40 4 41
REMARK SMILES IDX 41 42 5 43 40 46 1 53 3 57 21 61 22 62 34 63 23 64 33 66
REMARK SMILES IDX 32 67 24 69 25 71 26 74 27 75 31 76 28 77 30 79 29 81
REMARK H PARENT 13 13 13 14 16 15 18 16 18 17 19 18 19 19 35 20 35 21 36 22
REMARK H PARENT 36 23 37 24 37 25 9 31 39 33 10 34 38 35 7 37 7 38 4 44 4 45
REMARK H PARENT 41 47 41 48 5 49 5 50 40 51 40 52 1 54 1 55 1 56 3 58 3 59
REMARK H PARENT 3 60 22 65 33 68 24 70 25 72 25 73 27 78 31 80 28 82 30 83
REMARK H PARENT 29 84
REMARK Flexibility Score: inf
ROOT
ATOM      1  N   UNL     1     -45.026  45.854  24.440  1.00  0.00    -0.360 N 
ATOM      2  C   UNL     1     -44.884  46.240  23.025  1.00  0.00     0.097 C 
ATOM      3  C   UNL     1     -44.340  45.117  22.136  1.00  0.00     0.240 C 
ATOM      4  O   UNL     1     -44.591  45.040  20.934  1.00  0.00    -0.273 OA
ATOM      5  N   UNL     1     -43.437  44.243  22.695  1.00  0.00    -0.347 N 
ATOM      6  C   UNL     1     -43.447  43.899  24.135  1.00  0.00     0.061 C 
ATOM      7  C   UNL     1     -44.419  42.707  24.353  1.00  0.00    -0.010 C 
ATOM      8  C   UNL     1     -43.933  41.696  25.394  1.00  0.00     0.021 C 
ATOM      9  N   UNL     1     -43.179  42.393  26.434  1.00  0.00    -0.356 N 
ATOM     10  C   UNL     1     -41.923  43.010  25.991  1.00  0.00     0.021 C 
ATOM     11  C   UNL     1     -42.021  43.452  24.526  1.00  0.00    -0.010 C 
ATOM     12  C   UNL     1     -43.849  45.149  24.994  1.00  0.00     0.042 C 
ATOM     13  H   UNL     1     -44.158  47.060  22.967  1.00  0.00     0.060 H 
ATOM     14  H   UNL     1     -45.818  46.624  22.601  1.00  0.00     0.060 H 
ATOM     15  H   UNL     1     -43.154  43.524  22.041  1.00  0.00     0.164 HD
ATOM     16  H   UNL     1     -44.582  42.161  23.415  1.00  0.00     0.031 H 
ATOM     17  H   UNL     1     -45.409  43.059  24.649  1.00  0.00     0.031 H 
ATOM     18  H   UNL     1     -44.817  41.187  25.799  1.00  0.00     0.049 H 
ATOM     19  H   UNL     1     -43.306  40.932  24.913  1.00  0.00     0.049 H 
ATOM     20  H   UNL     1     -41.076  42.320  26.093  1.00  0.00     0.049 H 
ATOM     21  H   UNL     1     -41.709  43.889  26.612  1.00  0.00     0.049 H 
ATOM     22  H   UNL     1     -41.716  42.615  23.881  1.00  0.00     0.031 H 
ATOM     23  H   UNL     1     -41.291  44.249  24.333  1.00  0.00     0.031 H 
ATOM     24  H   UNL     1     -43.018  45.869  24.977  1.00  0.00     0.052 H 
ATOM     25  H   UNL     1     -43.982  44.882  26.047  1.00  0.00     0.052 H 
ENDROOT
BRANCH   1  26
ATOM     26  C   UNL     1     -46.270  45.518  24.968  1.00  0.00     0.037 A 
ATOM     27  C   UNL     1     -48.865  44.994  26.026  1.00  0.00    -0.034 A 
ATOM     28  C   UNL     1     -47.716  44.642  26.740  1.00  0.00    -0.056 A 
ATOM     29  C   UNL     1     -48.710  45.557  24.756  1.00  0.00    -0.056 A 
ATOM     30  C   UNL     1     -46.440  44.897  26.213  1.00  0.00    -0.038 A 
ATOM     31  H   UNL     1     -47.797  44.185  27.722  1.00  0.00     0.063 H 
ATOM     32  C   UNL     1     -47.435  45.815  24.244  1.00  0.00    -0.038 A 
ATOM     33  H   UNL     1     -49.584  45.821  24.166  1.00  0.00     0.063 H 
ATOM     34  H   UNL     1     -45.585  44.638  26.831  1.00  0.00     0.064 H 
ATOM     35  H   UNL     1     -47.364  46.252  23.252  1.00  0.00     0.064 H 
BRANCH  27  36
ATOM     36  C   UNL     1     -50.246  44.749  26.601  1.00  0.00     0.023 C 
ATOM     37  H   UNL     1     -50.824  45.664  26.413  1.00  0.00     0.048 H 
ATOM     38  H   UNL     1     -50.748  43.937  26.059  1.00  0.00     0.048 H 
BRANCH  36  39
ATOM     39  N   UNL     1     -50.226  44.458  28.041  1.00  0.00    -0.299 NA
ATOM     40  C   UNL     1     -49.976  43.780  30.766  1.00  0.00    -0.033 C 
ATOM     41  C   UNL     1     -49.415  42.783  29.732  1.00  0.00    -0.035 C 
ATOM     42  C   UNL     1     -49.659  45.228  30.307  1.00  0.00    -0.035 C 
ATOM     43  C   UNL     1     -49.914  43.048  28.302  1.00  0.00    -0.001 C 
ATOM     44  H   UNL     1     -48.318  42.850  29.735  1.00  0.00     0.029 H 
ATOM     45  H   UNL     1     -49.658  41.751  30.015  1.00  0.00     0.029 H 
ATOM     46  C   UNL     1     -49.358  45.353  28.804  1.00  0.00    -0.001 C 
ATOM     47  H   UNL     1     -50.496  45.890  30.563  1.00  0.00     0.029 H 
ATOM     48  H   UNL     1     -48.789  45.622  30.848  1.00  0.00     0.029 H 
ATOM     49  H   UNL     1     -50.820  42.456  28.124  1.00  0.00     0.043 H 
ATOM     50  H   UNL     1     -49.150  42.674  27.607  1.00  0.00     0.043 H 
ATOM     51  H   UNL     1     -48.301  45.128  28.607  1.00  0.00     0.043 H 
ATOM     52  H   UNL     1     -49.507  46.403  28.528  1.00  0.00     0.043 H 
BRANCH  40  53
ATOM     53  C   UNL     1     -49.330  43.518  32.137  1.00  0.00    -0.060 C 
ATOM     54  H   UNL     1     -49.753  42.623  32.609  1.00  0.00     0.024 H 
ATOM     55  H   UNL     1     -48.249  43.367  32.043  1.00  0.00     0.024 H 
ATOM     56  H   UNL     1     -49.489  44.360  32.819  1.00  0.00     0.024 H 
ENDBRANCH  40  53
BRANCH  40  57
ATOM     57  C   UNL     1     -51.500  43.593  30.919  1.00  0.00    -0.060 C 
ATOM     58  H   UNL     1     -51.772  42.534  30.852  1.00  0.00     0.024 H 
ATOM     59  H   UNL     1     -52.043  44.125  30.130  1.00  0.00     0.024 H 
ATOM     60  H   UNL     1     -51.871  43.960  31.881  1.00  0.00     0.024 H 
ENDBRANCH  40  57
ENDBRANCH  36  39
ENDBRANCH  27  36
ENDBRANCH   1  26
BRANCH   9  61
ATOM     61  C   UNL     1     -43.039  41.653  27.625  1.00  0.00     0.134 A 
ATOM     62  C   UNL     1     -43.951  40.651  27.916  1.00  0.00     0.023 A 
ATOM     63  N   UNL     1     -42.006  41.901  28.444  1.00  0.00    -0.219 NA
ATOM     64  C   UNL     1     -43.762  39.903  29.064  1.00  0.00     0.131 A 
ATOM     65  H   UNL     1     -44.754  40.415  27.230  1.00  0.00     0.070 H 
ATOM     66  C   UNL     1     -41.908  41.131  29.535  1.00  0.00     0.120 A 
ATOM     67  N   UNL     1     -42.742  40.149  29.895  1.00  0.00    -0.219 NA
ATOM     68  H   UNL     1     -41.069  41.325  30.194  1.00  0.00     0.106 H 
BRANCH  64  69
ATOM     69  N   UNL     1     -44.665  38.856  29.321  1.00  0.00    -0.366 N 
ATOM     70  H   UNL     1     -44.158  37.978  29.336  1.00  0.00     0.162 HD
BRANCH  69  71
ATOM     71  C   UNL     1     -45.844  38.791  28.464  1.00  0.00     0.041 C 
ATOM     72  H   UNL     1     -45.690  39.475  27.618  1.00  0.00     0.054 H 
ATOM     73  H   UNL     1     -46.750  39.156  28.964  1.00  0.00     0.054 H 
BRANCH  71  74
ATOM     74  C   UNL     1     -46.031  37.403  27.892  1.00  0.00    -0.029 A 
ATOM     75  C   UNL     1     -45.291  36.321  28.392  1.00  0.00    -0.057 A 
ATOM     76  C   UNL     1     -46.952  37.172  26.860  1.00  0.00    -0.057 A 
ATOM     77  C   UNL     1     -45.461  35.040  27.862  1.00  0.00    -0.062 A 
ATOM     78  H   UNL     1     -44.588  36.473  29.206  1.00  0.00     0.063 H 
ATOM     79  C   UNL     1     -47.122  35.892  26.333  1.00  0.00    -0.062 A 
ATOM     80  H   UNL     1     -47.556  37.992  26.475  1.00  0.00     0.063 H 
ATOM     81  C   UNL     1     -46.374  34.827  26.831  1.00  0.00    -0.062 A 
ATOM     82  H   UNL     1     -44.888  34.208  28.261  1.00  0.00     0.062 H 
ATOM     83  H   UNL     1     -47.846  35.724  25.539  1.00  0.00     0.062 H 
ATOM     84  H   UNL     1     -46.513  33.828  26.426  1.00  0.00     0.062 H 
ENDBRANCH  71  74
ENDBRANCH  69  71
ENDBRANCH  64  69
ENDBRANCH   9  61
TORSDOF 9
ENDMDL
MODEL 3
REMARK VINA RESULT:      -7.3      2.026      2.837
REMARK SMILES CC1(C)CCN(Cc2ccc(N3CC(=O)NC4(CCN(c5cc(NCc6ccccc6)ncn5)CC4)C3)cc2)CC1
REMARK SMILES IDX 12 1 13 2 14 3 15 4 16 5 17 6 18 7 19 8 20 9 35 10 36 11
REMARK SMILES IDX 37 12 11 26 8 27 9 28 39 29 10 30 38 32 7 36 6 39 2 40 4 41
REMARK SMILES IDX 41 42 5 43 40 46 1 53 3 57 21 61 22 62 34 63 23 64 33 66
REMARK SMILES IDX 32 67 24 69 25 71 26 74 27 75 31 76 28 77 30 79 29 81
REMARK H PARENT 13 13 13 14 16 15 18 16 18 17 19 18 19 19 35 20 35 21 36 22
REMARK H PARENT 36 23 37 24 37 25 9 31 39 33 10 34 38 35 7 37 7 38 4 44 4 45
REMARK H PARENT 41 47 41 48 5 49 5 50 40 51 40 52 1 54 1 55 1 56 3 58 3 59
REMARK H PARENT 3 60 22 65 33 68 24 70 25 72 25 73 27 78 31 80 28 82 30 83
REMARK H PARENT 29 84
REMARK Flexibility Score: inf
ROOT
ATOM      1  N   UNL     1     -44.100  45.123  26.139  1.00  0.00    -0.360 N 
ATOM      2  C   UNL     1     -44.254  45.715  24.799  1.00  0.00     0.097 C 
ATOM      3  C   UNL     1     -45.027  44.823  23.822  1.00  0.00     0.240 C 
ATOM      4  O   UNL     1     -45.670  45.276  22.875  1.00  0.00    -0.273 OA
ATOM      5  N   UNL     1     -44.881  43.462  23.950  1.00  0.00    -0.347 N 
ATOM      6  C   UNL     1     -44.607  42.809  25.250  1.00  0.00     0.061 C 
ATOM      7  C   UNL     1     -45.960  42.520  25.954  1.00  0.00    -0.010 C 
ATOM      8  C   UNL     1     -45.993  41.188  26.709  1.00  0.00     0.021 C 
ATOM      9  N   UNL     1     -44.664  40.902  27.247  1.00  0.00    -0.356 N 
ATOM     10  C   UNL     1     -43.620  40.665  26.244  1.00  0.00     0.021 C 
ATOM     11  C   UNL     1     -43.900  41.464  24.966  1.00  0.00    -0.010 C 
ATOM     12  C   UNL     1     -43.668  43.708  26.129  1.00  0.00     0.042 C 
ATOM     13  H   UNL     1     -43.254  45.851  24.370  1.00  0.00     0.060 H 
ATOM     14  H   UNL     1     -44.713  46.709  24.831  1.00  0.00     0.060 H 
ATOM     15  H   UNL     1     -45.446  42.957  23.279  1.00  0.00     0.164 HD
ATOM     16  H   UNL     1     -46.783  42.506  25.227  1.00  0.00     0.031 H 
ATOM     17  H   UNL     1     -46.217  43.319  26.653  1.00  0.00     0.031 H 
ATOM     18  H   UNL     1     -46.747  41.276  27.502  1.00  0.00     0.049 H 
ATOM     19  H   UNL     1     -46.316  40.382  26.036  1.00  0.00     0.049 H 
ATOM     20  H   UNL     1     -43.545  39.601  25.983  1.00  0.00     0.049 H 
ATOM     21  H   UNL     1     -42.648  40.974  26.649  1.00  0.00     0.049 H 
ATOM     22  H   UNL     1     -44.532  40.859  24.300  1.00  0.00     0.031 H 
ATOM     23  H   UNL     1     -42.963  41.619  24.417  1.00  0.00     0.031 H 
ATOM     24  H   UNL     1     -42.659  43.694  25.693  1.00  0.00     0.052 H 
ATOM     25  H   UNL     1     -43.556  43.300  27.138  1.00  0.00     0.052 H 
ENDROOT
BRANCH   1  26
ATOM     26  C   UNL     1     -44.910  45.529  27.198  1.00  0.00     0.037 A 
ATOM     27  C   UNL     1     -46.491  46.239  29.461  1.00  0.00    -0.034 A 
ATOM     28  C   UNL     1     -47.089  45.945  28.232  1.00  0.00    -0.056 A 
ATOM     29  C   UNL     1     -45.096  46.232  29.536  1.00  0.00    -0.056 A 
ATOM     30  C   UNL     1     -46.307  45.601  27.119  1.00  0.00    -0.038 A 
ATOM     31  H   UNL     1     -48.172  45.959  28.130  1.00  0.00     0.063 H 
ATOM     32  C   UNL     1     -44.326  45.880  28.424  1.00  0.00    -0.038 A 
ATOM     33  H   UNL     1     -44.598  46.479  30.472  1.00  0.00     0.063 H 
ATOM     34  H   UNL     1     -46.831  45.343  26.203  1.00  0.00     0.064 H 
ATOM     35  H   UNL     1     -43.244  45.890  28.531  1.00  0.00     0.064 H 
BRANCH  27  36
ATOM     36  C   UNL     1     -47.330  46.583  30.675  1.00  0.00     0.023 C 
ATOM     37  H   UNL     1     -46.639  46.614  31.528  1.00  0.00     0.048 H 
ATOM     38  H   UNL     1     -47.758  47.589  30.574  1.00  0.00     0.048 H 
BRANCH  36  39
ATOM     39  N   UNL     1     -48.396  45.605  30.933  1.00  0.00    -0.299 NA
ATOM     40  C   UNL     1     -50.410  43.775  31.668  1.00  0.00    -0.033 C 
ATOM     41  C   UNL     1     -49.224  43.952  32.638  1.00  0.00    -0.035 C 
ATOM     42  C   UNL     1     -50.810  45.158  31.088  1.00  0.00    -0.035 C 
ATOM     43  C   UNL     1     -48.022  44.669  32.000  1.00  0.00    -0.001 C 
ATOM     44  H   UNL     1     -49.559  44.539  33.504  1.00  0.00     0.029 H 
ATOM     45  H   UNL     1     -48.898  42.982  33.035  1.00  0.00     0.029 H 
ATOM     46  C   UNL     1     -49.699  46.217  31.185  1.00  0.00    -0.001 C 
ATOM     47  H   UNL     1     -51.112  45.047  30.039  1.00  0.00     0.029 H 
ATOM     48  H   UNL     1     -51.688  45.556  31.612  1.00  0.00     0.029 H 
ATOM     49  H   UNL     1     -47.342  43.920  31.578  1.00  0.00     0.043 H 
ATOM     50  H   UNL     1     -47.474  45.179  32.802  1.00  0.00     0.043 H 
ATOM     51  H   UNL     1     -49.717  46.699  32.171  1.00  0.00     0.043 H 
ATOM     52  H   UNL     1     -49.933  47.000  30.455  1.00  0.00     0.043 H 
BRANCH  40  53
ATOM     53  C   UNL     1     -51.605  43.165  32.423  1.00  0.00    -0.060 C 
ATOM     54  H   UNL     1     -52.205  42.527  31.763  1.00  0.00     0.024 H 
ATOM     55  H   UNL     1     -51.269  42.552  33.266  1.00  0.00     0.024 H 
ATOM     56  H   UNL     1     -52.263  43.945  32.821  1.00  0.00     0.024 H 
ENDBRANCH  40  53
BRANCH  40  57
ATOM     57  C   UNL     1     -50.031  42.809  30.526  1.00  0.00    -0.060 C 
ATOM     58  H   UNL     1     -50.861  42.132  30.297  1.00  0.00     0.024 H 
ATOM     59  H   UNL     1     -49.168  42.193  30.803  1.00  0.00     0.024 H 
ATOM     60  H   UNL     1     -49.779  43.335  29.601  1.00  0.00     0.024 H 
ENDBRANCH  40  57
ENDBRANCH  36  39
ENDBRANCH  27  36
ENDBRANCH   1  26
BRANCH   9  61
ATOM     61  C   UNL     1     -44.666  39.943  28.279  1.00  0.00     0.134 A 
ATOM     62  C   UNL     1     -45.740  39.075  28.401  1.00  0.00     0.023 A 
ATOM     63  N   UNL     1     -43.614  39.856  29.107  1.00  0.00    -0.219 NA
ATOM     64  C   UNL     1     -45.693  38.108  29.389  1.00  0.00     0.131 A 
ATOM     65  H   UNL     1     -46.564  39.109  27.702  1.00  0.00     0.070 H 
ATOM     66  C   UNL     1     -43.660  38.893  30.036  1.00  0.00     0.120 A 
ATOM     67  N   UNL     1     -44.655  38.018  30.228  1.00  0.00    -0.219 NA
ATOM     68  H   UNL     1     -42.808  38.816  30.701  1.00  0.00     0.106 H 
BRANCH  64  69
ATOM     69  N   UNL     1     -46.765  37.201  29.470  1.00  0.00    -0.366 N 
ATOM     70  H   UNL     1     -46.439  36.340  29.896  1.00  0.00     0.162 HD
BRANCH  69  71
ATOM     71  C   UNL     1     -47.501  36.954  28.234  1.00  0.00     0.041 C 
ATOM     72  H   UNL     1     -47.296  37.783  27.543  1.00  0.00     0.054 H 
ATOM     73  H   UNL     1     -48.588  36.967  28.380  1.00  0.00     0.054 H 
BRANCH  71  74
ATOM     74  C   UNL     1     -47.033  35.682  27.562  1.00  0.00    -0.029 A 
ATOM     75  C   UNL     1     -47.239  35.484  26.188  1.00  0.00    -0.057 A 
ATOM     76  C   UNL     1     -46.380  34.683  28.298  1.00  0.00    -0.057 A 
ATOM     77  C   UNL     1     -46.810  34.308  25.569  1.00  0.00    -0.062 A 
ATOM     78  H   UNL     1     -47.723  36.255  25.594  1.00  0.00     0.063 H 
ATOM     79  C   UNL     1     -45.951  33.509  27.677  1.00  0.00    -0.062 A 
ATOM     80  H   UNL     1     -46.187  34.826  29.359  1.00  0.00     0.063 H 
ATOM     81  C   UNL     1     -46.170  33.320  26.314  1.00  0.00    -0.062 A 
ATOM     82  H   UNL     1     -46.967  34.169  24.502  1.00  0.00     0.062 H 
ATOM     83  H   UNL     1     -45.438  32.746  28.256  1.00  0.00     0.062 H 
ATOM     84  H   UNL     1     -45.827  32.410  25.829  1.00  0.00     0.062 H 
ENDBRANCH  71  74
ENDBRANCH  69  71
ENDBRANCH  64  69
ENDBRANCH   9  61
TORSDOF 9
ENDMDL
MODEL 4
REMARK VINA RESULT:      -7.2      2.931      6.868
REMARK SMILES CC1(C)CCN(Cc2ccc(N3CC(=O)NC4(CCN(c5cc(NCc6ccccc6)ncn5)CC4)C3)cc2)CC1
REMARK SMILES IDX 12 1 13 2 14 3 15 4 16 5 17 6 18 7 19 8 20 9 35 10 36 11
REMARK SMILES IDX 37 12 11 26 8 27 9 28 39 29 10 30 38 32 7 36 6 39 2 40 4 41
REMARK SMILES IDX 41 42 5 43 40 46 1 53 3 57 21 61 22 62 34 63 23 64 33 66
REMARK SMILES IDX 32 67 24 69 25 71 26 74 27 75 31 76 28 77 30 79 29 81
REMARK H PARENT 13 13 13 14 16 15 18 16 18 17 19 18 19 19 35 20 35 21 36 22
REMARK H PARENT 36 23 37 24 37 25 9 31 39 33 10 34 38 35 7 37 7 38 4 44 4 45
REMARK H PARENT 41 47 41 48 5 49 5 50 40 51 40 52 1 54 1 55 1 56 3 58 3 59
REMARK H PARENT 3 60 22 65 33 68 24 70 25 72 25 73 27 78 31 80 28 82 30 83
REMARK H PARENT 29 84
REMARK Flexibility Score: inf
ROOT
ATOM      1  N   UNL     1     -50.607  43.020  26.626  1.00  0.00    -0.360 N 
ATOM      2  C   UNL     1     -51.688  43.805  27.246  1.00  0.00     0.097 C 
ATOM      3  C   UNL     1     -51.956  43.430  28.707  1.00  0.00     0.240 C 
ATOM      4  O   UNL     1     -52.425  44.224  29.522  1.00  0.00    -0.273 OA
ATOM      5  N   UNL     1     -51.779  42.115  29.070  1.00  0.00    -0.347 N 
ATOM      6  C   UNL     1     -50.791  41.233  28.408  1.00  0.00     0.061 C 
ATOM      7  C   UNL     1     -49.423  41.397  29.123  1.00  0.00    -0.010 C 
ATOM      8  C   UNL     1     -48.634  40.092  29.258  1.00  0.00     0.021 C 
ATOM      9  N   UNL     1     -48.904  39.240  28.101  1.00  0.00    -0.356 N 
ATOM     10  C   UNL     1     -50.286  38.758  27.986  1.00  0.00     0.021 C 
ATOM     11  C   UNL     1     -51.268  39.773  28.582  1.00  0.00    -0.010 C 
ATOM     12  C   UNL     1     -50.698  41.564  26.877  1.00  0.00     0.042 C 
ATOM     13  H   UNL     1     -52.616  43.600  26.698  1.00  0.00     0.060 H 
ATOM     14  H   UNL     1     -51.517  44.885  27.170  1.00  0.00     0.060 H 
ATOM     15  H   UNL     1     -51.956  41.969  30.055  1.00  0.00     0.164 HD
ATOM     16  H   UNL     1     -49.558  41.805  30.134  1.00  0.00     0.031 H 
ATOM     17  H   UNL     1     -48.796  42.127  28.607  1.00  0.00     0.031 H 
ATOM     18  H   UNL     1     -47.571  40.354  29.335  1.00  0.00     0.049 H 
ATOM     19  H   UNL     1     -48.915  39.577  30.187  1.00  0.00     0.049 H 
ATOM     20  H   UNL     1     -50.421  37.796  28.498  1.00  0.00     0.049 H 
ATOM     21  H   UNL     1     -50.532  38.606  26.928  1.00  0.00     0.049 H 
ATOM     22  H   UNL     1     -51.392  39.560  29.653  1.00  0.00     0.031 H 
ATOM     23  H   UNL     1     -52.261  39.627  28.139  1.00  0.00     0.031 H 
ATOM     24  H   UNL     1     -51.619  41.220  26.386  1.00  0.00     0.052 H 
ATOM     25  H   UNL     1     -49.886  41.008  26.398  1.00  0.00     0.052 H 
ENDROOT
BRANCH   1  26
ATOM     26  C   UNL     1     -49.331  43.556  26.471  1.00  0.00     0.037 A 
ATOM     27  C   UNL     1     -46.663  44.541  26.272  1.00  0.00    -0.034 A 
ATOM     28  C   UNL     1     -47.731  45.409  26.516  1.00  0.00    -0.056 A 
ATOM     29  C   UNL     1     -46.943  43.186  26.071  1.00  0.00    -0.056 A 
ATOM     30  C   UNL     1     -49.043  44.921  26.608  1.00  0.00    -0.038 A 
ATOM     31  H   UNL     1     -47.554  46.472  26.657  1.00  0.00     0.063 H 
ATOM     32  C   UNL     1     -48.253  42.709  26.173  1.00  0.00    -0.038 A 
ATOM     33  H   UNL     1     -46.137  42.488  25.856  1.00  0.00     0.063 H 
ATOM     34  H   UNL     1     -49.826  45.638  26.840  1.00  0.00     0.064 H 
ATOM     35  H   UNL     1     -48.422  41.648  26.008  1.00  0.00     0.064 H 
BRANCH  27  36
ATOM     36  C   UNL     1     -45.240  45.056  26.199  1.00  0.00     0.023 C 
ATOM     37  H   UNL     1     -45.102  45.436  25.178  1.00  0.00     0.048 H 
ATOM     38  H   UNL     1     -45.104  45.907  26.878  1.00  0.00     0.048 H 
BRANCH  36  39
ATOM     39  N   UNL     1     -44.238  44.019  26.484  1.00  0.00    -0.299 NA
ATOM     40  C   UNL     1     -42.146  42.188  26.950  1.00  0.00    -0.033 C 
ATOM     41  C   UNL     1     -41.981  43.169  25.772  1.00  0.00    -0.035 C 
ATOM     42  C   UNL     1     -42.792  42.931  28.150  1.00  0.00    -0.035 C 
ATOM     43  C   UNL     1     -43.295  43.861  25.371  1.00  0.00    -0.001 C 
ATOM     44  H   UNL     1     -41.253  43.944  26.054  1.00  0.00     0.029 H 
ATOM     45  H   UNL     1     -41.558  42.659  24.897  1.00  0.00     0.029 H 
ATOM     46  C   UNL     1     -43.544  44.213  27.755  1.00  0.00    -0.001 C 
ATOM     47  H   UNL     1     -43.479  42.258  28.677  1.00  0.00     0.029 H 
ATOM     48  H   UNL     1     -42.028  43.214  28.885  1.00  0.00     0.029 H 
ATOM     49  H   UNL     1     -43.784  43.271  24.586  1.00  0.00     0.043 H 
ATOM     50  H   UNL     1     -43.039  44.831  24.925  1.00  0.00     0.043 H 
ATOM     51  H   UNL     1     -42.847  45.059  27.691  1.00  0.00     0.043 H 
ATOM     52  H   UNL     1     -44.238  44.447  28.570  1.00  0.00     0.043 H 
BRANCH  40  53
ATOM     53  C   UNL     1     -40.767  41.642  27.361  1.00  0.00    -0.060 C 
ATOM     54  H   UNL     1     -40.564  41.839  28.421  1.00  0.00     0.024 H 
ATOM     55  H   UNL     1     -40.707  40.559  27.205  1.00  0.00     0.024 H 
ATOM     56  H   UNL     1     -39.965  42.106  26.777  1.00  0.00     0.024 H 
ENDBRANCH  40  53
BRANCH  40  57
ATOM     57  C   UNL     1     -43.022  40.990  26.532  1.00  0.00    -0.060 C 
ATOM     58  H   UNL     1     -43.011  40.859  25.445  1.00  0.00     0.024 H 
ATOM     59  H   UNL     1     -44.064  41.139  26.838  1.00  0.00     0.024 H 
ATOM     60  H   UNL     1     -42.680  40.049  26.973  1.00  0.00     0.024 H 
ENDBRANCH  40  57
ENDBRANCH  36  39
ENDBRANCH  27  36
ENDBRANCH   1  26
BRANCH   9  61
ATOM     61  C   UNL     1     -47.947  38.223  27.911  1.00  0.00     0.134 A 
ATOM     62  C   UNL     1     -48.339  37.013  27.361  1.00  0.00     0.023 A 
ATOM     63  N   UNL     1     -46.664  38.450  28.231  1.00  0.00    -0.219 NA
ATOM     64  C   UNL     1     -47.371  36.050  27.136  1.00  0.00     0.131 A 
ATOM     65  H   UNL     1     -49.363  36.847  27.055  1.00  0.00     0.070 H 
ATOM     66  C   UNL     1     -45.800  37.458  27.982  1.00  0.00     0.120 A 
ATOM     67  N   UNL     1     -46.090  36.261  27.460  1.00  0.00    -0.219 NA
ATOM     68  H   UNL     1     -44.761  37.643  28.232  1.00  0.00     0.106 H 
BRANCH  64  69
ATOM     69  N   UNL     1     -47.772  34.846  26.530  1.00  0.00    -0.366 N 
ATOM     70  H   UNL     1     -48.138  34.223  27.241  1.00  0.00     0.162 HD
BRANCH  69  71
ATOM     71  C   UNL     1     -46.786  34.187  25.680  1.00  0.00     0.041 C 
ATOM     72  H   UNL     1     -45.891  33.990  26.286  1.00  0.00     0.054 H 
ATOM     73  H   UNL     1     -46.440  34.827  24.860  1.00  0.00     0.054 H 
BRANCH  71  74
ATOM     74  C   UNL     1     -47.295  32.852  25.183  1.00  0.00    -0.029 A 
ATOM     75  C   UNL     1     -48.566  32.390  25.556  1.00  0.00    -0.057 A 
ATOM     76  C   UNL     1     -46.509  32.057  24.335  1.00  0.00    -0.057 A 
ATOM     77  C   UNL     1     -49.034  31.156  25.099  1.00  0.00    -0.062 A 
ATOM     78  H   UNL     1     -49.201  32.999  26.194  1.00  0.00     0.063 H 
ATOM     79  C   UNL     1     -46.980  30.826  23.880  1.00  0.00    -0.062 A 
ATOM     80  H   UNL     1     -45.530  32.407  24.013  1.00  0.00     0.063 H 
ATOM     81  C   UNL     1     -48.240  30.373  24.264  1.00  0.00    -0.062 A 
ATOM     82  H   UNL     1     -50.024  30.811  25.388  1.00  0.00     0.062 H 
ATOM     83  H   UNL     1     -46.365  30.223  23.215  1.00  0.00     0.062 H 
ATOM     84  H   UNL     1     -48.609  29.418  23.901  1.00  0.00     0.062 H 
ENDBRANCH  71  74
ENDBRANCH  69  71
ENDBRANCH  64  69
ENDBRANCH   9  61
TORSDOF 9
ENDMDL
MODEL 5
REMARK VINA RESULT:      -7.0      2.624      6.922
REMARK SMILES CC1(C)CCN(Cc2ccc(N3CC(=O)NC4(CCN(c5cc(NCc6ccccc6)ncn5)CC4)C3)cc2)CC1
REMARK SMILES IDX 12 1 13 2 14 3 15 4 16 5 17 6 18 7 19 8 20 9 35 10 36 11
REMARK SMILES IDX 37 12 11 26 8 27 9 28 39 29 10 30 38 32 7 36 6 39 2 40 4 41
REMARK SMILES IDX 41 42 5 43 40 46 1 53 3 57 21 61 22 62 34 63 23 64 33 66
REMARK SMILES IDX 32 67 24 69 25 71 26 74 27 75 31 76 28 77 30 79 29 81
REMARK H PARENT 13 13 13 14 16 15 18 16 18 17 19 18 19 19 35 20 35 21 36 22
REMARK H PARENT 36 23 37 24 37 25 9 31 39 33 10 34 38 35 7 37 7 38 4 44 4 45
REMARK H PARENT 41 47 41 48 5 49 5 50 40 51 40 52 1 54 1 55 1 56 3 58 3 59
REMARK H PARENT 3 60 22 65 33 68 24 70 25 72 25 73 27 78 31 80 28 82 30 83
REMARK H PARENT 29 84
REMARK Flexibility Score: inf
ROOT
ATOM      1  N   UNL     1     -50.076  44.686  26.863  1.00  0.00    -0.360 N 
ATOM      2  C   UNL     1     -50.270  46.015  27.468  1.00  0.00     0.097 C 
ATOM      3  C   UNL     1     -50.397  45.979  28.995  1.00  0.00     0.240 C 
ATOM      4  O   UNL     1     -50.083  46.930  29.710  1.00  0.00    -0.273 OA
ATOM      5  N   UNL     1     -51.006  44.882  29.557  1.00  0.00    -0.347 N 
ATOM      6  C   UNL     1     -50.951  43.537  28.941  1.00  0.00     0.061 C 
ATOM      7  C   UNL     1     -49.667  42.817  29.435  1.00  0.00    -0.010 C 
ATOM      8  C   UNL     1     -49.858  41.321  29.695  1.00  0.00     0.021 C 
ATOM      9  N   UNL     1     -50.836  40.785  28.750  1.00  0.00    -0.356 N 
ATOM     10  C   UNL     1     -52.201  41.303  28.900  1.00  0.00     0.021 C 
ATOM     11  C   UNL     1     -52.183  42.742  29.428  1.00  0.00    -0.010 C 
ATOM     12  C   UNL     1     -50.998  43.649  27.376  1.00  0.00     0.042 C 
ATOM     13  H   UNL     1     -51.212  46.428  27.088  1.00  0.00     0.060 H 
ATOM     14  H   UNL     1     -49.485  46.724  27.182  1.00  0.00     0.060 H 
ATOM     15  H   UNL     1     -51.023  44.937  30.568  1.00  0.00     0.164 HD
ATOM     16  H   UNL     1     -49.301  43.269  30.366  1.00  0.00     0.031 H 
ATOM     17  H   UNL     1     -48.850  42.942  28.722  1.00  0.00     0.031 H 
ATOM     18  H   UNL     1     -48.878  40.839  29.588  1.00  0.00     0.049 H 
ATOM     19  H   UNL     1     -50.194  41.158  30.728  1.00  0.00     0.049 H 
ATOM     20  H   UNL     1     -52.794  40.684  29.586  1.00  0.00     0.049 H 
ATOM     21  H   UNL     1     -52.705  41.290  27.926  1.00  0.00     0.049 H 
ATOM     22  H   UNL     1     -52.183  42.716  30.528  1.00  0.00     0.031 H 
ATOM     23  H   UNL     1     -53.116  43.247  29.149  1.00  0.00     0.031 H 
ATOM     24  H   UNL     1     -52.010  43.955  27.075  1.00  0.00     0.052 H 
ATOM     25  H   UNL     1     -50.834  42.676  26.903  1.00  0.00     0.052 H 
ENDROOT
BRANCH   1  26
ATOM     26  C   UNL     1     -48.813  44.264  26.454  1.00  0.00     0.037 A 
ATOM     27  C   UNL     1     -46.257  43.478  25.467  1.00  0.00    -0.034 A 
ATOM     28  C   UNL     1     -47.140  42.535  26.001  1.00  0.00    -0.056 A 
ATOM     29  C   UNL     1     -46.636  44.823  25.482  1.00  0.00    -0.056 A 
ATOM     30  C   UNL     1     -48.395  42.926  26.491  1.00  0.00    -0.038 A 
ATOM     31  H   UNL     1     -46.871  41.482  26.025  1.00  0.00     0.063 H 
ATOM     32  C   UNL     1     -47.892  45.202  25.964  1.00  0.00    -0.038 A 
ATOM     33  H   UNL     1     -45.962  45.584  25.095  1.00  0.00     0.063 H 
ATOM     34  H   UNL     1     -49.054  42.144  26.856  1.00  0.00     0.064 H 
ATOM     35  H   UNL     1     -48.141  46.260  25.957  1.00  0.00     0.064 H 
BRANCH  27  36
ATOM     36  C   UNL     1     -44.911  43.059  24.910  1.00  0.00     0.023 C 
ATOM     37  H   UNL     1     -45.115  42.266  24.178  1.00  0.00     0.048 H 
ATOM     38  H   UNL     1     -44.447  43.889  24.362  1.00  0.00     0.048 H 
BRANCH  36  39
ATOM     39  N   UNL     1     -43.992  42.560  25.943  1.00  0.00    -0.299 NA
ATOM     40  C   UNL     1     -42.358  41.734  28.086  1.00  0.00    -0.033 C 
ATOM     41  C   UNL     1     -42.977  43.144  28.169  1.00  0.00    -0.035 C 
ATOM     42  C   UNL     1     -43.402  40.748  27.498  1.00  0.00    -0.035 C 
ATOM     43  C   UNL     1     -43.533  43.641  26.823  1.00  0.00    -0.001 C 
ATOM     44  H   UNL     1     -43.799  43.128  28.899  1.00  0.00     0.029 H 
ATOM     45  H   UNL     1     -42.246  43.868  28.549  1.00  0.00     0.029 H 
ATOM     46  C   UNL     1     -44.527  41.434  26.704  1.00  0.00    -0.001 C 
ATOM     47  H   UNL     1     -42.900  40.017  26.851  1.00  0.00     0.029 H 
ATOM     48  H   UNL     1     -43.876  40.165  28.298  1.00  0.00     0.029 H 
ATOM     49  H   UNL     1     -42.751  44.203  26.300  1.00  0.00     0.043 H 
ATOM     50  H   UNL     1     -44.343  44.350  27.038  1.00  0.00     0.043 H 
ATOM     51  H   UNL     1     -45.323  41.769  27.383  1.00  0.00     0.043 H 
ATOM     52  H   UNL     1     -44.976  40.675  26.054  1.00  0.00     0.043 H 
BRANCH  40  53
ATOM     53  C   UNL     1     -41.945  41.270  29.494  1.00  0.00    -0.060 C 
ATOM     54  H   UNL     1     -42.650  41.632  30.252  1.00  0.00     0.024 H 
ATOM     55  H   UNL     1     -41.916  40.177  29.559  1.00  0.00     0.024 H 
ATOM     56  H   UNL     1     -40.950  41.644  29.759  1.00  0.00     0.024 H 
ENDBRANCH  40  53
BRANCH  40  57
ATOM     57  C   UNL     1     -41.091  41.755  27.206  1.00  0.00    -0.060 C 
ATOM     58  H   UNL     1     -40.988  42.718  26.693  1.00  0.00     0.024 H 
ATOM     59  H   UNL     1     -41.133  40.974  26.438  1.00  0.00     0.024 H 
ATOM     60  H   UNL     1     -40.177  41.599  27.786  1.00  0.00     0.024 H 
ENDBRANCH  40  57
ENDBRANCH  36  39
ENDBRANCH  27  36
ENDBRANCH   1  26
BRANCH   9  61
ATOM     61  C   UNL     1     -50.789  39.382  28.622  1.00  0.00     0.134 A 
ATOM     62  C   UNL     1     -49.681  38.787  28.041  1.00  0.00     0.023 A 
ATOM     63  N   UNL     1     -51.800  38.637  29.096  1.00  0.00    -0.219 NA
ATOM     64  C   UNL     1     -49.635  37.407  27.975  1.00  0.00     0.131 A 
ATOM     65  H   UNL     1     -48.842  39.383  27.706  1.00  0.00     0.070 H 
ATOM     66  C   UNL     1     -51.670  37.310  28.983  1.00  0.00     0.120 A 
ATOM     67  N   UNL     1     -50.641  36.654  28.434  1.00  0.00    -0.219 NA
ATOM     68  H   UNL     1     -52.482  36.706  29.372  1.00  0.00     0.106 H 
BRANCH  64  69
ATOM     69  N   UNL     1     -48.482  36.814  27.430  1.00  0.00    -0.366 N 
ATOM     70  H   UNL     1     -48.734  36.316  26.583  1.00  0.00     0.162 HD
BRANCH  69  71
ATOM     71  C   UNL     1     -47.688  35.988  28.333  1.00  0.00     0.041 C 
ATOM     72  H   UNL     1     -47.247  35.169  27.749  1.00  0.00     0.054 H 
ATOM     73  H   UNL     1     -48.298  35.495  29.100  1.00  0.00     0.054 H 
BRANCH  71  74
ATOM     74  C   UNL     1     -46.546  36.776  28.936  1.00  0.00    -0.029 A 
ATOM     75  C   UNL     1     -45.703  37.546  28.122  1.00  0.00    -0.057 A 
ATOM     76  C   UNL     1     -46.315  36.756  30.319  1.00  0.00    -0.057 A 
ATOM     77  C   UNL     1     -44.647  38.271  28.678  1.00  0.00    -0.062 A 
ATOM     78  H   UNL     1     -45.877  37.594  27.050  1.00  0.00     0.063 H 
ATOM     79  C   UNL     1     -45.260  37.481  30.874  1.00  0.00    -0.062 A 
ATOM     80  H   UNL     1     -46.972  36.185  30.973  1.00  0.00     0.063 H 
ATOM     81  C   UNL     1     -44.424  38.235  30.053  1.00  0.00    -0.062 A 
ATOM     82  H   UNL     1     -44.005  38.871  28.039  1.00  0.00     0.062 H 
ATOM     83  H   UNL     1     -45.097  37.465  31.949  1.00  0.00     0.062 H 
ATOM     84  H   UNL     1     -43.608  38.808  30.486  1.00  0.00     0.062 H 
ENDBRANCH  71  74
ENDBRANCH  69  71
ENDBRANCH  64  69
ENDBRANCH   9  61
TORSDOF 9
ENDMDL
MODEL 6
REMARK VINA RESULT:      -7.0      2.442      7.233
REMARK SMILES CC1(C)CCN(Cc2ccc(N3CC(=O)NC4(CCN(c5cc(NCc6ccccc6)ncn5)CC4)C3)cc2)CC1
REMARK SMILES IDX 12 1 13 2 14 3 15 4 16 5 17 6 18 7 19 8 20 9 35 10 36 11
REMARK SMILES IDX 37 12 11 26 8 27 9 28 39 29 10 30 38 32 7 36 6 39 2 40 4 41
REMARK SMILES IDX 41 42 5 43 40 46 1 53 3 57 21 61 22 62 34 63 23 64 33 66
REMARK SMILES IDX 32 67 24 69 25 71 26 74 27 75 31 76 28 77 30 79 29 81
REMARK H PARENT 13 13 13 14 16 15 18 16 18 17 19 18 19 19 35 20 35 21 36 22
REMARK H PARENT 36 23 37 24 37 25 9 31 39 33 10 34 38 35 7 37 7 38 4 44 4 45
REMARK H PARENT 41 47 41 48 5 49 5 50 40 51 40 52 1 54 1 55 1 56 3 58 3 59
REMARK H PARENT 3 60 22 65 33 68 24 70 25 72 25 73 27 78 31 80 28 82 30 83
REMARK H PARENT 29 84
REMARK Flexibility Score: inf
ROOT
ATOM      1  N   UNL     1     -43.583  41.296  26.579  1.00  0.00    -0.360 N 
ATOM      2  C   UNL     1     -42.476  41.490  27.531  1.00  0.00     0.097 C 
ATOM      3  C   UNL     1     -42.547  42.819  28.290  1.00  0.00     0.240 C 
ATOM      4  O   UNL     1     -42.059  42.973  29.409  1.00  0.00    -0.273 OA
ATOM      5  N   UNL     1     -43.069  43.904  27.626  1.00  0.00    -0.347 N 
ATOM      6  C   UNL     1     -44.102  43.773  26.573  1.00  0.00     0.061 C 
ATOM      7  C   UNL     1     -45.500  43.776  27.247  1.00  0.00    -0.010 C 
ATOM      8  C   UNL     1     -46.569  44.530  26.451  1.00  0.00     0.021 C 
ATOM      9  N   UNL     1     -46.303  44.384  25.021  1.00  0.00    -0.356 N 
ATOM     10  C   UNL     1     -45.063  45.010  24.547  1.00  0.00     0.021 C 
ATOM     11  C   UNL     1     -43.996  45.006  25.647  1.00  0.00    -0.010 C 
ATOM     12  C   UNL     1     -43.860  42.473  25.727  1.00  0.00     0.042 C 
ATOM     13  H   UNL     1     -41.538  41.508  26.963  1.00  0.00     0.060 H 
ATOM     14  H   UNL     1     -42.388  40.664  28.245  1.00  0.00     0.060 H 
ATOM     15  H   UNL     1     -43.097  44.728  28.213  1.00  0.00     0.164 HD
ATOM     16  H   UNL     1     -45.451  44.232  28.245  1.00  0.00     0.031 H 
ATOM     17  H   UNL     1     -45.854  42.758  27.421  1.00  0.00     0.031 H 
ATOM     18  H   UNL     1     -47.545  44.114  26.732  1.00  0.00     0.049 H 
ATOM     19  H   UNL     1     -46.570  45.591  26.735  1.00  0.00     0.049 H 
ATOM     20  H   UNL     1     -45.232  46.046  24.226  1.00  0.00     0.049 H 
ATOM     21  H   UNL     1     -44.682  44.455  23.682  1.00  0.00     0.049 H 
ATOM     22  H   UNL     1     -44.104  45.919  26.251  1.00  0.00     0.031 H 
ATOM     23  H   UNL     1     -42.999  45.074  25.193  1.00  0.00     0.031 H 
ATOM     24  H   UNL     1     -42.969  42.621  25.101  1.00  0.00     0.052 H 
ATOM     25  H   UNL     1     -44.682  42.295  25.027  1.00  0.00     0.052 H 
ENDROOT
BRANCH   1  26
ATOM     26  C   UNL     1     -44.664  40.477  26.897  1.00  0.00     0.037 A 
ATOM     27  C   UNL     1     -46.766  38.671  27.567  1.00  0.00    -0.034 A 
ATOM     28  C   UNL     1     -46.830  39.446  26.405  1.00  0.00    -0.056 A 
ATOM     29  C   UNL     1     -45.674  38.847  28.421  1.00  0.00    -0.056 A 
ATOM     30  C   UNL     1     -45.796  40.337  26.082  1.00  0.00    -0.038 A 
ATOM     31  H   UNL     1     -47.674  39.351  25.727  1.00  0.00     0.063 H 
ATOM     32  C   UNL     1     -44.644  39.731  28.086  1.00  0.00    -0.038 A 
ATOM     33  H   UNL     1     -45.605  38.276  29.345  1.00  0.00     0.063 H 
ATOM     34  H   UNL     1     -45.882  40.882  25.146  1.00  0.00     0.064 H 
ATOM     35  H   UNL     1     -43.816  39.834  28.781  1.00  0.00     0.064 H 
BRANCH  27  36
ATOM     36  C   UNL     1     -47.865  37.685  27.909  1.00  0.00     0.023 C 
ATOM     37  H   UNL     1     -47.895  37.626  29.005  1.00  0.00     0.048 H 
ATOM     38  H   UNL     1     -48.840  38.069  27.583  1.00  0.00     0.048 H 
BRANCH  36  39
ATOM     39  N   UNL     1     -47.634  36.349  27.344  1.00  0.00    -0.299 NA
ATOM     40  C   UNL     1     -47.170  33.703  26.490  1.00  0.00    -0.033 C 
ATOM     41  C   UNL     1     -46.473  34.162  27.787  1.00  0.00    -0.035 C 
ATOM     42  C   UNL     1     -48.611  34.275  26.451  1.00  0.00    -0.035 C 
ATOM     43  C   UNL     1     -46.483  35.690  27.971  1.00  0.00    -0.001 C 
ATOM     44  H   UNL     1     -46.986  33.706  28.646  1.00  0.00     0.029 H 
ATOM     45  H   UNL     1     -45.438  33.800  27.823  1.00  0.00     0.029 H 
ATOM     46  C   UNL     1     -48.821  35.496  27.363  1.00  0.00    -0.001 C 
ATOM     47  H   UNL     1     -48.875  34.547  25.421  1.00  0.00     0.029 H 
ATOM     48  H   UNL     1     -49.338  33.512  26.755  1.00  0.00     0.029 H 
ATOM     49  H   UNL     1     -45.568  36.108  27.536  1.00  0.00     0.043 H 
ATOM     50  H   UNL     1     -46.445  35.896  29.049  1.00  0.00     0.043 H 
ATOM     51  H   UNL     1     -49.048  35.171  28.387  1.00  0.00     0.043 H 
ATOM     52  H   UNL     1     -49.711  36.023  27.002  1.00  0.00     0.043 H 
BRANCH  40  53
ATOM     53  C   UNL     1     -47.222  32.165  26.452  1.00  0.00    -0.060 C 
ATOM     54  H   UNL     1     -47.971  31.813  25.732  1.00  0.00     0.024 H 
ATOM     55  H   UNL     1     -46.254  31.743  26.161  1.00  0.00     0.024 H 
ATOM     56  H   UNL     1     -47.483  31.752  27.432  1.00  0.00     0.024 H 
ENDBRANCH  40  53
BRANCH  40  57
ATOM     57  C   UNL     1     -46.374  34.178  25.257  1.00  0.00    -0.060 C 
ATOM     58  H   UNL     1     -45.349  33.794  25.282  1.00  0.00     0.024 H 
ATOM     59  H   UNL     1     -46.318  35.272  25.222  1.00  0.00     0.024 H 
ATOM     60  H   UNL     1     -46.821  33.840  24.317  1.00  0.00     0.024 H 
ENDBRANCH  40  57
ENDBRANCH  36  39
ENDBRANCH  27  36
ENDBRANCH   1  26
BRANCH   9  61
ATOM     61  C   UNL     1     -47.415  44.675  24.206  1.00  0.00     0.134 A 
ATOM     62  C   UNL     1     -48.692  44.403  24.672  1.00  0.00     0.023 A 
ATOM     63  N   UNL     1     -47.228  45.245  23.006  1.00  0.00    -0.219 NA
ATOM     64  C   UNL     1     -49.769  44.747  23.875  1.00  0.00     0.131 A 
ATOM     65  H   UNL     1     -48.847  43.992  25.660  1.00  0.00     0.070 H 
ATOM     66  C   UNL     1     -48.329  45.537  22.303  1.00  0.00     0.120 A 
ATOM     67  N   UNL     1     -49.594  45.306  22.672  1.00  0.00    -0.219 NA
ATOM     68  H   UNL     1     -48.181  46.005  21.337  1.00  0.00     0.106 H 
BRANCH  64  69
ATOM     69  N   UNL     1     -51.060  44.513  24.381  1.00  0.00    -0.366 N 
ATOM     70  H   UNL     1     -51.216  45.114  25.182  1.00  0.00     0.162 HD
BRANCH  69  71
ATOM     71  C   UNL     1     -51.403  43.123  24.667  1.00  0.00     0.041 C 
ATOM     72  H   UNL     1     -50.707  42.479  24.113  1.00  0.00     0.054 H 
ATOM     73  H   UNL     1     -52.399  42.850  24.298  1.00  0.00     0.054 H 
BRANCH  71  74
ATOM     74  C   UNL     1     -51.235  42.808  26.137  1.00  0.00    -0.029 A 
ATOM     75  C   UNL     1     -51.884  43.582  27.110  1.00  0.00    -0.057 A 
ATOM     76  C   UNL     1     -50.436  41.733  26.551  1.00  0.00    -0.057 A 
ATOM     77  C   UNL     1     -51.727  43.294  28.467  1.00  0.00    -0.062 A 
ATOM     78  H   UNL     1     -52.527  44.406  26.810  1.00  0.00     0.063 H 
ATOM     79  C   UNL     1     -50.281  41.446  27.907  1.00  0.00    -0.062 A 
ATOM     80  H   UNL     1     -49.943  41.104  25.812  1.00  0.00     0.063 H 
ATOM     81  C   UNL     1     -50.922  42.228  28.865  1.00  0.00    -0.062 A 
ATOM     82  H   UNL     1     -52.241  43.895  29.213  1.00  0.00     0.062 H 
ATOM     83  H   UNL     1     -49.665  40.604  28.216  1.00  0.00     0.062 H 
ATOM     84  H   UNL     1     -50.809  41.998  29.921  1.00  0.00     0.062 H 
ENDBRANCH  71  74
ENDBRANCH  69  71
ENDBRANCH  64  69
ENDBRANCH   9  61
TORSDOF 9
ENDMDL
MODEL 7
REMARK VINA RESULT:      -7.0      2.123      6.419
REMARK SMILES CC1(C)CCN(Cc2ccc(N3CC(=O)NC4(CCN(c5cc(NCc6ccccc6)ncn5)CC4)C3)cc2)CC1
REMARK SMILES IDX 12 1 13 2 14 3 15 4 16 5 17 6 18 7 19 8 20 9 35 10 36 11
REMARK SMILES IDX 37 12 11 26 8 27 9 28 39 29 10 30 38 32 7 36 6 39 2 40 4 41
REMARK SMILES IDX 41 42 5 43 40 46 1 53 3 57 21 61 22 62 34 63 23 64 33 66
REMARK SMILES IDX 32 67 24 69 25 71 26 74 27 75 31 76 28 77 30 79 29 81
REMARK H PARENT 13 13 13 14 16 15 18 16 18 17 19 18 19 19 35 20 35 21 36 22
REMARK H PARENT 36 23 37 24 37 25 9 31 39 33 10 34 38 35 7 37 7 38 4 44 4 45
REMARK H PARENT 41 47 41 48 5 49 5 50 40 51 40 52 1 54 1 55 1 56 3 58 3 59
REMARK H PARENT 3 60 22 65 33 68 24 70 25 72 25 73 27 78 31 80 28 82 30 83
REMARK H PARENT 29 84
REMARK Flexibility Score: inf
ROOT
ATOM      1  N   UNL     1     -44.891  42.759  24.692  1.00  0.00    -0.360 N 
ATOM      2  C   UNL     1     -43.527  42.914  24.160  1.00  0.00     0.097 C 
ATOM      3  C   UNL     1     -42.742  44.058  24.812  1.00  0.00     0.240 C 
ATOM      4  O   UNL     1     -41.514  44.062  24.889  1.00  0.00    -0.273 OA
ATOM      5  N   UNL     1     -43.448  45.171  25.205  1.00  0.00    -0.347 N 
ATOM      6  C   UNL     1     -44.861  45.106  25.641  1.00  0.00     0.061 C 
ATOM      7  C   UNL     1     -44.897  44.802  27.163  1.00  0.00    -0.010 C 
ATOM      8  C   UNL     1     -46.002  45.546  27.917  1.00  0.00     0.021 C 
ATOM      9  N   UNL     1     -47.163  45.705  27.043  1.00  0.00    -0.356 N 
ATOM     10  C   UNL     1     -46.953  46.564  25.872  1.00  0.00     0.021 C 
ATOM     11  C   UNL     1     -45.497  46.493  25.398  1.00  0.00    -0.010 C 
ATOM     12  C   UNL     1     -45.642  44.029  24.808  1.00  0.00     0.042 C 
ATOM     13  H   UNL     1     -43.603  43.159  23.094  1.00  0.00     0.060 H 
ATOM     14  H   UNL     1     -42.946  41.988  24.223  1.00  0.00     0.060 H 
ATOM     15  H   UNL     1     -42.850  45.860  25.644  1.00  0.00     0.164 HD
ATOM     16  H   UNL     1     -43.941  45.066  27.635  1.00  0.00     0.031 H 
ATOM     17  H   UNL     1     -45.014  43.732  27.346  1.00  0.00     0.031 H 
ATOM     18  H   UNL     1     -46.241  44.962  28.815  1.00  0.00     0.049 H 
ATOM     19  H   UNL     1     -45.636  46.527  28.250  1.00  0.00     0.049 H 
ATOM     20  H   UNL     1     -47.201  47.611  26.090  1.00  0.00     0.049 H 
ATOM     21  H   UNL     1     -47.607  46.234  25.055  1.00  0.00     0.049 H 
ATOM     22  H   UNL     1     -44.912  47.255  25.933  1.00  0.00     0.031 H 
ATOM     23  H   UNL     1     -45.441  46.773  24.339  1.00  0.00     0.031 H 
ATOM     24  H   UNL     1     -45.776  44.406  23.784  1.00  0.00     0.052 H 
ATOM     25  H   UNL     1     -46.653  43.880  25.199  1.00  0.00     0.052 H 
ENDROOT
BRANCH   1  26
ATOM     26  C   UNL     1     -45.189  41.762  25.619  1.00  0.00     0.037 A 
ATOM     27  C   UNL     1     -45.872  39.844  27.614  1.00  0.00    -0.034 A 
ATOM     28  C   UNL     1     -44.560  39.956  27.147  1.00  0.00    -0.056 A 
ATOM     29  C   UNL     1     -46.852  40.656  27.036  1.00  0.00    -0.056 A 
ATOM     30  C   UNL     1     -44.228  40.898  26.161  1.00  0.00    -0.038 A 
ATOM     31  H   UNL     1     -43.774  39.326  27.557  1.00  0.00     0.063 H 
ATOM     32  C   UNL     1     -46.510  41.598  26.062  1.00  0.00    -0.038 A 
ATOM     33  H   UNL     1     -47.887  40.578  27.361  1.00  0.00     0.063 H 
ATOM     34  H   UNL     1     -43.184  40.966  25.868  1.00  0.00     0.064 H 
ATOM     35  H   UNL     1     -47.306  42.207  25.641  1.00  0.00     0.064 H 
BRANCH  27  36
ATOM     36  C   UNL     1     -46.233  38.848  28.698  1.00  0.00     0.023 C 
ATOM     37  H   UNL     1     -45.366  38.800  29.371  1.00  0.00     0.048 H 
ATOM     38  H   UNL     1     -47.078  39.217  29.292  1.00  0.00     0.048 H 
BRANCH  36  39
ATOM     39  N   UNL     1     -46.531  37.509  28.173  1.00  0.00    -0.299 NA
ATOM     40  C   UNL     1     -47.342  35.005  27.163  1.00  0.00    -0.033 C 
ATOM     41  C   UNL     1     -48.319  35.741  28.102  1.00  0.00    -0.035 C 
ATOM     42  C   UNL     1     -46.673  36.032  26.211  1.00  0.00    -0.035 C 
ATOM     43  C   UNL     1     -47.659  36.892  28.881  1.00  0.00    -0.001 C 
ATOM     44  H   UNL     1     -49.142  36.155  27.503  1.00  0.00     0.029 H 
ATOM     45  H   UNL     1     -48.780  35.041  28.811  1.00  0.00     0.029 H 
ATOM     46  C   UNL     1     -46.724  37.481  26.724  1.00  0.00    -0.001 C 
ATOM     47  H   UNL     1     -45.627  35.748  26.036  1.00  0.00     0.029 H 
ATOM     48  H   UNL     1     -47.157  36.017  25.226  1.00  0.00     0.029 H 
ATOM     49  H   UNL     1     -47.295  36.510  29.842  1.00  0.00     0.043 H 
ATOM     50  H   UNL     1     -48.439  37.631  29.109  1.00  0.00     0.043 H 
ATOM     51  H   UNL     1     -47.679  37.948  26.451  1.00  0.00     0.043 H 
ATOM     52  H   UNL     1     -45.944  38.040  26.196  1.00  0.00     0.043 H 
BRANCH  40  53
ATOM     53  C   UNL     1     -48.112  33.959  26.338  1.00  0.00    -0.060 C 
ATOM     54  H   UNL     1     -47.652  33.817  25.352  1.00  0.00     0.024 H 
ATOM     55  H   UNL     1     -48.125  32.987  26.843  1.00  0.00     0.024 H 
ATOM     56  H   UNL     1     -49.151  34.265  26.179  1.00  0.00     0.024 H 
ENDBRANCH  40  53
BRANCH  40  57
ATOM     57  C   UNL     1     -46.268  34.261  27.983  1.00  0.00    -0.060 C 
ATOM     58  H   UNL     1     -46.708  33.422  28.533  1.00  0.00     0.024 H 
ATOM     59  H   UNL     1     -45.799  34.928  28.715  1.00  0.00     0.024 H 
ATOM     60  H   UNL     1     -45.473  33.850  27.353  1.00  0.00     0.024 H 
ENDBRANCH  40  57
ENDBRANCH  36  39
ENDBRANCH  27  36
ENDBRANCH   1  26
BRANCH   9  61
ATOM     61  C   UNL     1     -48.356  45.997  27.734  1.00  0.00     0.134 A 
ATOM     62  C   UNL     1     -48.738  45.199  28.801  1.00  0.00     0.023 A 
ATOM     63  N   UNL     1     -49.088  47.063  27.376  1.00  0.00    -0.219 NA
ATOM     64  C   UNL     1     -49.885  45.538  29.497  1.00  0.00     0.131 A 
ATOM     65  H   UNL     1     -48.122  44.371  29.124  1.00  0.00     0.070 H 
ATOM     66  C   UNL     1     -50.184  47.309  28.104  1.00  0.00     0.120 A 
ATOM     67  N   UNL     1     -50.628  46.592  29.142  1.00  0.00    -0.219 NA
ATOM     68  H   UNL     1     -50.772  48.175  27.821  1.00  0.00     0.106 H 
BRANCH  64  69
ATOM     69  N   UNL     1     -50.233  44.751  30.609  1.00  0.00    -0.366 N 
ATOM     70  H   UNL     1     -50.260  45.338  31.435  1.00  0.00     0.162 HD
BRANCH  69  71
ATOM     71  C   UNL     1     -49.443  43.543  30.823  1.00  0.00     0.041 C 
ATOM     72  H   UNL     1     -49.325  43.399  31.905  1.00  0.00     0.054 H 
ATOM     73  H   UNL     1     -48.422  43.633  30.433  1.00  0.00     0.054 H 
BRANCH  71  74
ATOM     74  C   UNL     1     -50.152  42.321  30.281  1.00  0.00    -0.029 A 
ATOM     75  C   UNL     1     -49.573  41.557  29.255  1.00  0.00    -0.057 A 
ATOM     76  C   UNL     1     -51.394  41.926  30.798  1.00  0.00    -0.057 A 
ATOM     77  C   UNL     1     -50.230  40.432  28.753  1.00  0.00    -0.062 A 
ATOM     78  H   UNL     1     -48.601  41.832  28.855  1.00  0.00     0.063 H 
ATOM     79  C   UNL     1     -52.047  40.801  30.295  1.00  0.00    -0.062 A 
ATOM     80  H   UNL     1     -51.849  42.489  31.611  1.00  0.00     0.063 H 
ATOM     81  C   UNL     1     -51.467  40.056  29.271  1.00  0.00    -0.062 A 
ATOM     82  H   UNL     1     -49.769  39.843  27.964  1.00  0.00     0.062 H 
ATOM     83  H   UNL     1     -53.006  40.500  30.711  1.00  0.00     0.062 H 
ATOM     84  H   UNL     1     -51.972  39.174  28.886  1.00  0.00     0.062 H 
ENDBRANCH  71  74
ENDBRANCH  69  71
ENDBRANCH  64  69
ENDBRANCH   9  61
TORSDOF 9
ENDMDL
