MODEL 1
REMARK VINA RESULT:      -9.6      0.000      0.000
REMARK SMILES CNc1ccc2ccc(OCc3cccc(-n4cc(CCN(C)C)c5c(N)ncnc54)c3)cc2n1
REMARK SMILES IDX 12 1 13 2 14 3 15 4 16 5 32 6 11 11 10 14 9 15 3 16 4 17
REMARK SMILES IDX 35 18 5 19 34 21 6 22 33 24 7 25 8 27 2 30 1 32 17 36 18 37
REMARK SMILES IDX 31 38 19 39 25 41 30 42 26 43 29 44 28 45 20 47 21 50 22 53
REMARK SMILES IDX 23 54 24 58 27 62
REMARK H PARENT 13 7 14 8 15 9 32 10 11 12 11 13 4 20 5 23 33 26 7 28 8 29
REMARK H PARENT 2 31 1 33 1 34 1 35 18 40 29 46 20 48 20 49 21 51 21 52 23 55
REMARK H PARENT 23 56 23 57 24 59 24 60 24 61 27 63 27 64
REMARK Flexibility Score: inf
ROOT
ATOM      1  C   UNL     1     -47.305  36.563  27.865  1.00  0.00    -0.009 A 
ATOM      2  C   UNL     1     -46.987  36.085  29.141  1.00  0.00    -0.055 A 
ATOM      3  C   UNL     1     -46.029  36.736  29.915  1.00  0.00    -0.060 A 
ATOM      4  C   UNL     1     -45.370  37.863  29.418  1.00  0.00    -0.038 A 
ATOM      5  C   UNL     1     -45.658  38.359  28.136  1.00  0.00     0.047 A 
ATOM      6  C   UNL     1     -46.625  37.691  27.369  1.00  0.00    -0.031 A 
ATOM      7  H   UNL     1     -47.488  35.207  29.544  1.00  0.00     0.063 H 
ATOM      8  H   UNL     1     -45.798  36.369  30.912  1.00  0.00     0.062 H 
ATOM      9  H   UNL     1     -44.657  38.346  30.079  1.00  0.00     0.064 H 
ATOM     10  H   UNL     1     -46.866  38.012  26.360  1.00  0.00     0.065 H 
ENDROOT
BRANCH   1  11
ATOM     11  C   UNL     1     -48.323  35.832  27.018  1.00  0.00     0.113 C 
ATOM     12  H   UNL     1     -48.162  35.985  25.944  1.00  0.00     0.076 H 
ATOM     13  H   UNL     1     -49.304  36.270  27.239  1.00  0.00     0.076 H 
BRANCH  11  14
ATOM     14  O   UNL     1     -48.422  34.438  27.325  1.00  0.00    -0.489 OA
BRANCH  14  15
ATOM     15  C   UNL     1     -47.974  33.528  26.409  1.00  0.00     0.122 A 
ATOM     16  C   UNL     1     -48.043  29.408  24.039  1.00  0.00     0.126 A 
ATOM     17  C   UNL     1     -46.927  29.752  23.291  1.00  0.00    -0.019 A 
ATOM     18  N   UNL     1     -48.561  30.221  24.978  1.00  0.00    -0.231 NA
ATOM     19  C   UNL     1     -46.331  30.990  23.503  1.00  0.00    -0.049 A 
ATOM     20  H   UNL     1     -46.511  29.062  22.566  1.00  0.00     0.066 H 
ATOM     21  C   UNL     1     -47.991  31.422  25.186  1.00  0.00     0.076 A 
ATOM     22  C   UNL     1     -46.862  31.855  24.462  1.00  0.00     0.001 A 
ATOM     23  H   UNL     1     -45.456  31.267  22.922  1.00  0.00     0.063 H 
ATOM     24  C   UNL     1     -48.527  32.273  26.147  1.00  0.00     0.007 A 
ATOM     25  C   UNL     1     -46.301  33.115  24.713  1.00  0.00    -0.049 A 
ATOM     26  H   UNL     1     -49.404  31.917  26.676  1.00  0.00     0.069 H 
ATOM     27  C   UNL     1     -46.859  33.945  25.682  1.00  0.00    -0.019 A 
ATOM     28  H   UNL     1     -45.432  33.458  24.157  1.00  0.00     0.063 H 
ATOM     29  H   UNL     1     -46.426  34.924  25.873  1.00  0.00     0.066 H 
BRANCH  16  30
ATOM     30  N   UNL     1     -48.689  28.178  23.889  1.00  0.00    -0.373 N 
ATOM     31  H   UNL     1     -48.538  27.949  22.905  1.00  0.00     0.161 HD
BRANCH  30  32
ATOM     32  C   UNL     1     -48.165  27.133  24.753  1.00  0.00     0.005 C 
ATOM     33  H   UNL     1     -48.412  27.375  25.792  1.00  0.00     0.045 H 
ATOM     34  H   UNL     1     -47.075  27.062  24.687  1.00  0.00     0.045 H 
ATOM     35  H   UNL     1     -48.608  26.158  24.523  1.00  0.00     0.045 H 
ENDBRANCH  30  32
ENDBRANCH  16  30
ENDBRANCH  14  15
ENDBRANCH  11  14
ENDBRANCH   1  11
BRANCH   5  36
ATOM     36  N   UNL     1     -44.967  39.515  27.633  1.00  0.00    -0.301 N 
ATOM     37  C   UNL     1     -45.259  40.152  26.439  1.00  0.00     0.015 A 
ATOM     38  C   UNL     1     -43.905  40.211  28.217  1.00  0.00     0.150 A 
ATOM     39  C   UNL     1     -44.411  41.227  26.245  1.00  0.00    -0.015 A 
ATOM     40  H   UNL     1     -46.053  39.806  25.794  1.00  0.00     0.083 H 
ATOM     41  C   UNL     1     -43.555  41.276  27.386  1.00  0.00     0.065 A 
ATOM     42  N   UNL     1     -43.283  39.902  29.373  1.00  0.00    -0.218 NA
ATOM     43  C   UNL     1     -42.493  42.092  27.820  1.00  0.00     0.136 A 
ATOM     44  C   UNL     1     -42.279  40.732  29.666  1.00  0.00     0.120 A 
ATOM     45  N   UNL     1     -41.861  41.800  28.970  1.00  0.00    -0.219 NA
ATOM     46  H   UNL     1     -41.736  40.520  30.582  1.00  0.00     0.106 H 
BRANCH  39  47
ATOM     47  C   UNL     1     -44.410  42.122  25.043  1.00  0.00    -0.013 C 
ATOM     48  H   UNL     1     -44.556  41.514  24.142  1.00  0.00     0.033 H 
ATOM     49  H   UNL     1     -43.418  42.573  24.918  1.00  0.00     0.033 H 
BRANCH  47  50
ATOM     50  C   UNL     1     -45.499  43.213  25.084  1.00  0.00     0.002 C 
ATOM     51  H   UNL     1     -45.156  44.078  24.500  1.00  0.00     0.043 H 
ATOM     52  H   UNL     1     -46.382  42.820  24.562  1.00  0.00     0.043 H 
BRANCH  50  53
ATOM     53  N   UNL     1     -45.894  43.646  26.440  1.00  0.00    -0.309 NA
BRANCH  53  54
ATOM     54  C   UNL     1     -47.346  43.822  26.508  1.00  0.00    -0.014 C 
ATOM     55  H   UNL     1     -47.858  43.368  25.651  1.00  0.00     0.039 H 
ATOM     56  H   UNL     1     -47.747  43.376  27.425  1.00  0.00     0.039 H 
ATOM     57  H   UNL     1     -47.606  44.886  26.542  1.00  0.00     0.039 H 
ENDBRANCH  53  54
BRANCH  53  58
ATOM     58  C   UNL     1     -45.224  44.884  26.840  1.00  0.00    -0.014 C 
ATOM     59  H   UNL     1     -44.180  44.715  27.126  1.00  0.00     0.039 H 
ATOM     60  H   UNL     1     -45.239  45.611  26.020  1.00  0.00     0.039 H 
ATOM     61  H   UNL     1     -45.740  45.364  27.676  1.00  0.00     0.039 H 
ENDBRANCH  53  58
ENDBRANCH  50  53
ENDBRANCH  47  50
ENDBRANCH  39  47
BRANCH  43  62
ATOM     62  N   UNL     1     -42.042  43.225  27.148  1.00  0.00    -0.383 N 
ATOM     63  H   UNL     1     -41.435  43.745  27.773  1.00  0.00     0.158 HD
ATOM     64  H   UNL     1     -42.792  43.769  26.748  1.00  0.00     0.158 HD
ENDBRANCH  43  62
ENDBRANCH   5  36
TORSDOF 12
ENDMDL
MODEL 2
REMARK VINA RESULT:      -9.6      1.685      2.504
REMARK SMILES CNc1ccc2ccc(OCc3cccc(-n4cc(CCN(C)C)c5c(N)ncnc54)c3)cc2n1
REMARK SMILES IDX 12 1 13 2 14 3 15 4 16 5 32 6 11 11 10 14 9 15 3 16 4 17
REMARK SMILES IDX 35 18 5 19 34 21 6 22 33 24 7 25 8 27 2 30 1 32 17 36 18 37
REMARK SMILES IDX 31 38 19 39 25 41 30 42 26 43 29 44 28 45 20 47 21 50 22 53
REMARK SMILES IDX 23 54 24 58 27 62
REMARK H PARENT 13 7 14 8 15 9 32 10 11 12 11 13 4 20 5 23 33 26 7 28 8 29
REMARK H PARENT 2 31 1 33 1 34 1 35 18 40 29 46 20 48 20 49 21 51 21 52 23 55
REMARK H PARENT 23 56 23 57 24 59 24 60 24 61 27 63 27 64
REMARK Flexibility Score: inf
ROOT
ATOM      1  C   UNL     1     -46.724  35.792  27.252  1.00  0.00    -0.009 A 
ATOM      2  C   UNL     1     -48.075  36.075  27.480  1.00  0.00    -0.055 A 
ATOM      3  C   UNL     1     -48.487  37.387  27.701  1.00  0.00    -0.060 A 
ATOM      4  C   UNL     1     -47.554  38.427  27.710  1.00  0.00    -0.038 A 
ATOM      5  C   UNL     1     -46.190  38.171  27.498  1.00  0.00     0.047 A 
ATOM      6  C   UNL     1     -45.790  36.845  27.277  1.00  0.00    -0.031 A 
ATOM      7  H   UNL     1     -48.816  35.279  27.479  1.00  0.00     0.063 H 
ATOM      8  H   UNL     1     -49.541  37.604  27.862  1.00  0.00     0.062 H 
ATOM      9  H   UNL     1     -47.939  39.431  27.856  1.00  0.00     0.064 H 
ATOM     10  H   UNL     1     -44.745  36.584  27.137  1.00  0.00     0.065 H 
ENDROOT
BRANCH   1  11
ATOM     11  C   UNL     1     -46.279  34.360  27.045  1.00  0.00     0.113 C 
ATOM     12  H   UNL     1     -45.477  34.067  27.733  1.00  0.00     0.076 H 
ATOM     13  H   UNL     1     -45.848  34.297  26.039  1.00  0.00     0.076 H 
BRANCH  11  14
ATOM     14  O   UNL     1     -47.355  33.419  27.085  1.00  0.00    -0.489 OA
BRANCH  14  15
ATOM     15  C   UNL     1     -47.505  32.544  26.045  1.00  0.00     0.122 A 
ATOM     16  C   UNL     1     -46.535  30.747  21.752  1.00  0.00     0.126 A 
ATOM     17  C   UNL     1     -47.488  29.750  21.890  1.00  0.00    -0.019 A 
ATOM     18  N   UNL     1     -46.313  31.671  22.707  1.00  0.00    -0.231 NA
ATOM     19  C   UNL     1     -48.228  29.684  23.064  1.00  0.00    -0.049 A 
ATOM     20  H   UNL     1     -47.669  29.041  21.090  1.00  0.00     0.066 H 
ATOM     21  C   UNL     1     -47.025  31.611  23.848  1.00  0.00     0.076 A 
ATOM     22  C   UNL     1     -48.004  30.623  24.074  1.00  0.00     0.001 A 
ATOM     23  H   UNL     1     -48.978  28.906  23.181  1.00  0.00     0.063 H 
ATOM     24  C   UNL     1     -46.793  32.554  24.844  1.00  0.00     0.007 A 
ATOM     25  C   UNL     1     -48.721  30.601  25.278  1.00  0.00    -0.049 A 
ATOM     26  H   UNL     1     -46.024  33.292  24.646  1.00  0.00     0.069 H 
ATOM     27  C   UNL     1     -48.469  31.558  26.257  1.00  0.00    -0.019 A 
ATOM     28  H   UNL     1     -49.476  29.840  25.462  1.00  0.00     0.063 H 
ATOM     29  H   UNL     1     -49.023  31.538  27.192  1.00  0.00     0.066 H 
BRANCH  16  30
ATOM     30  N   UNL     1     -45.760  30.882  20.597  1.00  0.00    -0.373 N 
ATOM     31  H   UNL     1     -45.869  29.980  20.133  1.00  0.00     0.161 HD
BRANCH  30  32
ATOM     32  C   UNL     1     -46.184  31.970  19.732  1.00  0.00     0.005 C 
ATOM     33  H   UNL     1     -47.071  32.443  20.164  1.00  0.00     0.045 H 
ATOM     34  H   UNL     1     -46.461  31.610  18.736  1.00  0.00     0.045 H 
ATOM     35  H   UNL     1     -45.408  32.737  19.639  1.00  0.00     0.045 H 
ENDBRANCH  30  32
ENDBRANCH  16  30
ENDBRANCH  14  15
ENDBRANCH  11  14
ENDBRANCH   1  11
BRANCH   5  36
ATOM     36  N   UNL     1     -45.238  39.248  27.518  1.00  0.00    -0.301 N 
ATOM     37  C   UNL     1     -45.128  40.224  26.541  1.00  0.00     0.015 A 
ATOM     38  C   UNL     1     -44.268  39.529  28.484  1.00  0.00     0.150 A 
ATOM     39  C   UNL     1     -44.115  41.110  26.855  1.00  0.00    -0.015 A 
ATOM     40  H   UNL     1     -45.776  40.233  25.677  1.00  0.00     0.083 H 
ATOM     41  C   UNL     1     -43.574  40.678  28.104  1.00  0.00     0.065 A 
ATOM     42  N   UNL     1     -44.005  38.805  29.591  1.00  0.00    -0.218 NA
ATOM     43  C   UNL     1     -42.549  41.111  28.966  1.00  0.00     0.136 A 
ATOM     44  C   UNL     1     -42.998  39.300  30.315  1.00  0.00     0.120 A 
ATOM     45  N   UNL     1     -42.273  40.402  30.074  1.00  0.00    -0.219 NA
ATOM     46  H   UNL     1     -42.738  38.746  31.212  1.00  0.00     0.106 H 
BRANCH  39  47
ATOM     47  C   UNL     1     -43.686  42.271  26.008  1.00  0.00    -0.013 C 
ATOM     48  H   UNL     1     -42.656  42.107  25.671  1.00  0.00     0.033 H 
ATOM     49  H   UNL     1     -43.638  43.179  26.620  1.00  0.00     0.033 H 
BRANCH  47  50
ATOM     50  C   UNL     1     -44.580  42.498  24.772  1.00  0.00     0.002 C 
ATOM     51  H   UNL     1     -44.064  42.107  23.885  1.00  0.00     0.043 H 
ATOM     52  H   UNL     1     -45.482  41.884  24.899  1.00  0.00     0.043 H 
BRANCH  50  53
ATOM     53  N   UNL     1     -44.981  43.901  24.545  1.00  0.00    -0.309 NA
BRANCH  53  54
ATOM     54  C   UNL     1     -43.973  44.808  25.100  1.00  0.00    -0.014 C 
ATOM     55  H   UNL     1     -44.097  44.951  26.180  1.00  0.00     0.039 H 
ATOM     56  H   UNL     1     -42.964  44.422  24.916  1.00  0.00     0.039 H 
ATOM     57  H   UNL     1     -44.024  45.787  24.612  1.00  0.00     0.039 H 
ENDBRANCH  53  54
BRANCH  53  58
ATOM     58  C   UNL     1     -46.291  44.200  25.124  1.00  0.00    -0.014 C 
ATOM     59  H   UNL     1     -47.068  44.302  24.358  1.00  0.00     0.039 H 
ATOM     60  H   UNL     1     -46.596  43.406  25.815  1.00  0.00     0.039 H 
ATOM     61  H   UNL     1     -46.265  45.119  25.716  1.00  0.00     0.039 H 
ENDBRANCH  53  58
ENDBRANCH  50  53
ENDBRANCH  47  50
ENDBRANCH  39  47
BRANCH  43  62
ATOM     62  N   UNL     1     -41.788  42.261  28.774  1.00  0.00    -0.383 N 
ATOM     63  H   UNL     1     -42.147  42.748  27.959  1.00  0.00     0.158 HD
ATOM     64  H   UNL     1     -40.796  42.075  28.743  1.00  0.00     0.158 HD
ENDBRANCH  43  62
ENDBRANCH   5  36
TORSDOF 12
ENDMDL
MODEL 3
REMARK VINA RESULT:      -9.2      1.815     11.609
REMARK SMILES CNc1ccc2ccc(OCc3cccc(-n4cc(CCN(C)C)c5c(N)ncnc54)c3)cc2n1
REMARK SMILES IDX 12 1 13 2 14 3 15 4 16 5 32 6 11 11 10 14 9 15 3 16 4 17
REMARK SMILES IDX 35 18 5 19 34 21 6 22 33 24 7 25 8 27 2 30 1 32 17 36 18 37
REMARK SMILES IDX 31 38 19 39 25 41 30 42 26 43 29 44 28 45 20 47 21 50 22 53
REMARK SMILES IDX 23 54 24 58 27 62
REMARK H PARENT 13 7 14 8 15 9 32 10 11 12 11 13 4 20 5 23 33 26 7 28 8 29
REMARK H PARENT 2 31 1 33 1 34 1 35 18 40 29 46 20 48 20 49 21 51 21 52 23 55
REMARK H PARENT 23 56 23 57 24 59 24 60 24 61 27 63 27 64
REMARK Flexibility Score: inf
ROOT
ATOM      1  C   UNL     1     -48.060  34.623  26.411  1.00  0.00    -0.009 A 
ATOM      2  C   UNL     1     -46.709  34.954  26.262  1.00  0.00    -0.055 A 
ATOM      3  C   UNL     1     -45.827  34.051  25.673  1.00  0.00    -0.060 A 
ATOM      4  C   UNL     1     -46.283  32.804  25.237  1.00  0.00    -0.038 A 
ATOM      5  C   UNL     1     -47.631  32.439  25.385  1.00  0.00     0.047 A 
ATOM      6  C   UNL     1     -48.506  33.359  25.982  1.00  0.00    -0.031 A 
ATOM      7  H   UNL     1     -46.335  35.919  26.597  1.00  0.00     0.063 H 
ATOM      8  H   UNL     1     -44.782  34.320  25.545  1.00  0.00     0.062 H 
ATOM      9  H   UNL     1     -45.557  32.156  24.757  1.00  0.00     0.064 H 
ATOM     10  H   UNL     1     -49.552  33.118  26.149  1.00  0.00     0.065 H 
ENDROOT
BRANCH   1  11
ATOM     11  C   UNL     1     -49.005  35.596  27.082  1.00  0.00     0.113 C 
ATOM     12  H   UNL     1     -50.048  35.260  27.046  1.00  0.00     0.076 H 
ATOM     13  H   UNL     1     -48.972  36.529  26.508  1.00  0.00     0.076 H 
BRANCH  11  14
ATOM     14  O   UNL     1     -48.623  35.929  28.420  1.00  0.00    -0.489 OA
BRANCH  14  15
ATOM     15  C   UNL     1     -47.518  36.710  28.615  1.00  0.00     0.122 A 
ATOM     16  C   UNL     1     -44.621  40.374  27.729  1.00  0.00     0.126 A 
ATOM     17  C   UNL     1     -43.748  40.004  28.740  1.00  0.00    -0.019 A 
ATOM     18  N   UNL     1     -45.731  39.669  27.440  1.00  0.00    -0.231 NA
ATOM     19  C   UNL     1     -44.038  38.877  29.500  1.00  0.00    -0.049 A 
ATOM     20  H   UNL     1     -42.843  40.570  28.927  1.00  0.00     0.066 H 
ATOM     21  C   UNL     1     -46.020  38.579  28.174  1.00  0.00     0.076 A 
ATOM     22  C   UNL     1     -45.194  38.140  29.228  1.00  0.00     0.001 A 
ATOM     23  H   UNL     1     -43.359  38.579  30.295  1.00  0.00     0.063 H 
ATOM     24  C   UNL     1     -47.172  37.852  27.890  1.00  0.00     0.007 A 
ATOM     25  C   UNL     1     -45.534  36.997  29.965  1.00  0.00    -0.049 A 
ATOM     26  H   UNL     1     -47.794  38.224  27.083  1.00  0.00     0.069 H 
ATOM     27  C   UNL     1     -46.693  36.290  29.657  1.00  0.00    -0.019 A 
ATOM     28  H   UNL     1     -44.903  36.654  30.782  1.00  0.00     0.063 H 
ATOM     29  H   UNL     1     -46.958  35.406  30.232  1.00  0.00     0.066 H 
BRANCH  16  30
ATOM     30  N   UNL     1     -44.390  41.488  26.918  1.00  0.00    -0.373 N 
ATOM     31  H   UNL     1     -43.418  41.727  27.115  1.00  0.00     0.161 HD
BRANCH  30  32
ATOM     32  C   UNL     1     -44.587  41.231  25.501  1.00  0.00     0.005 C 
ATOM     33  H   UNL     1     -45.560  40.750  25.358  1.00  0.00     0.045 H 
ATOM     34  H   UNL     1     -43.828  40.549  25.104  1.00  0.00     0.045 H 
ATOM     35  H   UNL     1     -44.584  42.157  24.918  1.00  0.00     0.045 H 
ENDBRANCH  30  32
ENDBRANCH  16  30
ENDBRANCH  14  15
ENDBRANCH  11  14
ENDBRANCH   1  11
BRANCH   5  36
ATOM     36  N   UNL     1     -48.086  31.150  24.941  1.00  0.00    -0.301 N 
ATOM     37  C   UNL     1     -48.555  30.146  25.773  1.00  0.00     0.015 A 
ATOM     38  C   UNL     1     -48.152  30.658  23.634  1.00  0.00     0.150 A 
ATOM     39  C   UNL     1     -48.910  29.033  25.035  1.00  0.00    -0.015 A 
ATOM     40  H   UNL     1     -48.609  30.281  26.843  1.00  0.00     0.083 H 
ATOM     41  C   UNL     1     -48.669  29.362  23.667  1.00  0.00     0.065 A 
ATOM     42  N   UNL     1     -47.756  31.298  22.515  1.00  0.00    -0.218 NA
ATOM     43  C   UNL     1     -48.805  28.706  22.430  1.00  0.00     0.136 A 
ATOM     44  C   UNL     1     -47.912  30.566  21.409  1.00  0.00     0.120 A 
ATOM     45  N   UNL     1     -48.417  29.328  21.303  1.00  0.00    -0.219 NA
ATOM     46  H   UNL     1     -47.597  31.032  20.481  1.00  0.00     0.106 H 
BRANCH  39  47
ATOM     47  C   UNL     1     -49.421  27.744  25.605  1.00  0.00    -0.013 C 
ATOM     48  H   UNL     1     -49.296  26.948  24.862  1.00  0.00     0.033 H 
ATOM     49  H   UNL     1     -50.504  27.811  25.761  1.00  0.00     0.033 H 
BRANCH  47  50
ATOM     50  C   UNL     1     -48.712  27.320  26.907  1.00  0.00     0.002 C 
ATOM     51  H   UNL     1     -47.930  28.055  27.141  1.00  0.00     0.043 H 
ATOM     52  H   UNL     1     -49.448  27.384  27.721  1.00  0.00     0.043 H 
BRANCH  50  53
ATOM     53  N   UNL     1     -48.135  25.960  26.886  1.00  0.00    -0.309 NA
BRANCH  53  54
ATOM     54  C   UNL     1     -46.722  26.020  26.508  1.00  0.00    -0.014 C 
ATOM     55  H   UNL     1     -46.058  25.941  27.377  1.00  0.00     0.039 H 
ATOM     56  H   UNL     1     -46.474  25.212  25.810  1.00  0.00     0.039 H 
ATOM     57  H   UNL     1     -46.500  26.957  25.987  1.00  0.00     0.039 H 
ENDBRANCH  53  54
BRANCH  53  58
ATOM     58  C   UNL     1     -48.856  25.070  25.976  1.00  0.00    -0.014 C 
ATOM     59  H   UNL     1     -48.574  25.232  24.929  1.00  0.00     0.039 H 
ATOM     60  H   UNL     1     -48.655  24.021  26.225  1.00  0.00     0.039 H 
ATOM     61  H   UNL     1     -49.938  25.198  26.067  1.00  0.00     0.039 H 
ENDBRANCH  53  58
ENDBRANCH  50  53
ENDBRANCH  47  50
ENDBRANCH  39  47
BRANCH  43  62
ATOM     62  N   UNL     1     -49.347  27.433  22.265  1.00  0.00    -0.383 N 
ATOM     63  H   UNL     1     -48.596  26.796  22.022  1.00  0.00     0.158 HD
ATOM     64  H   UNL     1     -50.128  27.419  21.626  1.00  0.00     0.158 HD
ENDBRANCH  43  62
ENDBRANCH   5  36
TORSDOF 12
ENDMDL
MODEL 4
REMARK VINA RESULT:      -9.0      2.158      3.492
REMARK SMILES CNc1ccc2ccc(OCc3cccc(-n4cc(CCN(C)C)c5c(N)ncnc54)c3)cc2n1
REMARK SMILES IDX 12 1 13 2 14 3 15 4 16 5 32 6 11 11 10 14 9 15 3 16 4 17
REMARK SMILES IDX 35 18 5 19 34 21 6 22 33 24 7 25 8 27 2 30 1 32 17 36 18 37
REMARK SMILES IDX 31 38 19 39 25 41 30 42 26 43 29 44 28 45 20 47 21 50 22 53
REMARK SMILES IDX 23 54 24 58 27 62
REMARK H PARENT 13 7 14 8 15 9 32 10 11 12 11 13 4 20 5 23 33 26 7 28 8 29
REMARK H PARENT 2 31 1 33 1 34 1 35 18 40 29 46 20 48 20 49 21 51 21 52 23 55
REMARK H PARENT 23 56 23 57 24 59 24 60 24 61 27 63 27 64
REMARK Flexibility Score: inf
ROOT
ATOM      1  C   UNL     1     -46.907  36.129  27.482  1.00  0.00    -0.009 A 
ATOM      2  C   UNL     1     -46.122  35.811  28.596  1.00  0.00    -0.055 A 
ATOM      3  C   UNL     1     -45.296  36.776  29.168  1.00  0.00    -0.060 A 
ATOM      4  C   UNL     1     -45.235  38.063  28.627  1.00  0.00    -0.038 A 
ATOM      5  C   UNL     1     -46.002  38.406  27.502  1.00  0.00     0.047 A 
ATOM      6  C   UNL     1     -46.829  37.424  26.936  1.00  0.00    -0.031 A 
ATOM      7  H   UNL     1     -46.154  34.814  29.030  1.00  0.00     0.063 H 
ATOM      8  H   UNL     1     -44.700  36.528  30.043  1.00  0.00     0.062 H 
ATOM      9  H   UNL     1     -44.598  38.779  29.134  1.00  0.00     0.064 H 
ATOM     10  H   UNL     1     -47.420  37.625  26.048  1.00  0.00     0.065 H 
ENDROOT
BRANCH   1  11
ATOM     11  C   UNL     1     -47.778  35.067  26.847  1.00  0.00     0.113 C 
ATOM     12  H   UNL     1     -47.961  35.257  25.782  1.00  0.00     0.076 H 
ATOM     13  H   UNL     1     -48.760  35.119  27.332  1.00  0.00     0.076 H 
BRANCH  11  14
ATOM     14  O   UNL     1     -47.294  33.737  27.051  1.00  0.00    -0.489 OA
BRANCH  14  15
ATOM     15  C   UNL     1     -47.452  32.817  26.053  1.00  0.00     0.122 A 
ATOM     16  C   UNL     1     -46.495  30.811  21.851  1.00  0.00     0.126 A 
ATOM     17  C   UNL     1     -47.461  29.833  22.031  1.00  0.00    -0.019 A 
ATOM     18  N   UNL     1     -46.264  31.774  22.762  1.00  0.00    -0.231 NA
ATOM     19  C   UNL     1     -48.205  29.831  23.205  1.00  0.00    -0.049 A 
ATOM     20  H   UNL     1     -47.650  29.091  21.265  1.00  0.00     0.066 H 
ATOM     21  C   UNL     1     -46.979  31.777  23.902  1.00  0.00     0.076 A 
ATOM     22  C   UNL     1     -47.971  30.813  24.171  1.00  0.00     0.001 A 
ATOM     23  H   UNL     1     -48.965  29.069  23.355  1.00  0.00     0.063 H 
ATOM     24  C   UNL     1     -46.738  32.762  24.854  1.00  0.00     0.007 A 
ATOM     25  C   UNL     1     -48.691  30.856  25.373  1.00  0.00    -0.049 A 
ATOM     26  H   UNL     1     -45.958  33.480  24.624  1.00  0.00     0.069 H 
ATOM     27  C   UNL     1     -48.429  31.854  26.307  1.00  0.00    -0.019 A 
ATOM     28  H   UNL     1     -49.457  30.114  25.589  1.00  0.00     0.063 H 
ATOM     29  H   UNL     1     -48.986  31.884  27.240  1.00  0.00     0.066 H 
BRANCH  16  30
ATOM     30  N   UNL     1     -45.716  30.881  20.693  1.00  0.00    -0.373 N 
ATOM     31  H   UNL     1     -45.809  29.949  20.287  1.00  0.00     0.161 HD
BRANCH  30  32
ATOM     32  C   UNL     1     -46.150  31.905  19.756  1.00  0.00     0.005 C 
ATOM     33  H   UNL     1     -46.230  32.860  20.285  1.00  0.00     0.045 H 
ATOM     34  H   UNL     1     -47.139  31.680  19.342  1.00  0.00     0.045 H 
ATOM     35  H   UNL     1     -45.434  32.034  18.938  1.00  0.00     0.045 H 
ENDBRANCH  30  32
ENDBRANCH  16  30
ENDBRANCH  14  15
ENDBRANCH  11  14
ENDBRANCH   1  11
BRANCH   5  36
ATOM     36  N   UNL     1     -45.925  39.731  26.949  1.00  0.00    -0.301 N 
ATOM     37  C   UNL     1     -44.774  40.310  26.439  1.00  0.00     0.015 A 
ATOM     38  C   UNL     1     -46.948  40.673  26.812  1.00  0.00     0.150 A 
ATOM     39  C   UNL     1     -45.036  41.590  25.989  1.00  0.00    -0.015 A 
ATOM     40  H   UNL     1     -43.834  39.778  26.426  1.00  0.00     0.083 H 
ATOM     41  C   UNL     1     -46.427  41.820  26.211  1.00  0.00     0.065 A 
ATOM     42  N   UNL     1     -48.227  40.532  27.216  1.00  0.00    -0.218 NA
ATOM     43  C   UNL     1     -47.324  42.882  25.995  1.00  0.00     0.136 A 
ATOM     44  C   UNL     1     -48.975  41.614  26.980  1.00  0.00     0.120 A 
ATOM     45  N   UNL     1     -48.603  42.761  26.391  1.00  0.00    -0.219 NA
ATOM     46  H   UNL     1     -50.010  41.557  27.297  1.00  0.00     0.106 H 
BRANCH  39  47
ATOM     47  C   UNL     1     -44.019  42.529  25.411  1.00  0.00    -0.013 C 
ATOM     48  H   UNL     1     -43.015  42.175  25.672  1.00  0.00     0.033 H 
ATOM     49  H   UNL     1     -44.103  43.509  25.895  1.00  0.00     0.033 H 
BRANCH  47  50
ATOM     50  C   UNL     1     -44.111  42.671  23.878  1.00  0.00     0.002 C 
ATOM     51  H   UNL     1     -43.664  41.783  23.412  1.00  0.00     0.043 H 
ATOM     52  H   UNL     1     -45.175  42.659  23.608  1.00  0.00     0.043 H 
BRANCH  50  53
ATOM     53  N   UNL     1     -43.489  43.893  23.330  1.00  0.00    -0.309 NA
BRANCH  53  54
ATOM     54  C   UNL     1     -42.061  43.670  23.097  1.00  0.00    -0.014 C 
ATOM     55  H   UNL     1     -41.656  42.880  23.742  1.00  0.00     0.039 H 
ATOM     56  H   UNL     1     -41.878  43.390  22.053  1.00  0.00     0.039 H 
ATOM     57  H   UNL     1     -41.491  44.588  23.276  1.00  0.00     0.039 H 
ENDBRANCH  53  54
BRANCH  53  58
ATOM     58  C   UNL     1     -43.675  45.048  24.209  1.00  0.00    -0.014 C 
ATOM     59  H   UNL     1     -44.401  44.849  25.006  1.00  0.00     0.039 H 
ATOM     60  H   UNL     1     -42.724  45.330  24.678  1.00  0.00     0.039 H 
ATOM     61  H   UNL     1     -44.005  45.927  23.649  1.00  0.00     0.039 H 
ENDBRANCH  53  58
ENDBRANCH  50  53
ENDBRANCH  47  50
ENDBRANCH  39  47
BRANCH  43  62
ATOM     62  N   UNL     1     -46.994  44.080  25.365  1.00  0.00    -0.383 N 
ATOM     63  H   UNL     1     -47.377  44.062  24.426  1.00  0.00     0.158 HD
ATOM     64  H   UNL     1     -46.007  44.286  25.408  1.00  0.00     0.158 HD
ENDBRANCH  43  62
ENDBRANCH   5  36
TORSDOF 12
ENDMDL
MODEL 5
REMARK VINA RESULT:      -8.9      2.052     11.570
REMARK SMILES CNc1ccc2ccc(OCc3cccc(-n4cc(CCN(C)C)c5c(N)ncnc54)c3)cc2n1
REMARK SMILES IDX 12 1 13 2 14 3 15 4 16 5 32 6 11 11 10 14 9 15 3 16 4 17
REMARK SMILES IDX 35 18 5 19 34 21 6 22 33 24 7 25 8 27 2 30 1 32 17 36 18 37
REMARK SMILES IDX 31 38 19 39 25 41 30 42 26 43 29 44 28 45 20 47 21 50 22 53
REMARK SMILES IDX 23 54 24 58 27 62
REMARK H PARENT 13 7 14 8 15 9 32 10 11 12 11 13 4 20 5 23 33 26 7 28 8 29
REMARK H PARENT 2 31 1 33 1 34 1 35 18 40 29 46 20 48 20 49 21 51 21 52 23 55
REMARK H PARENT 23 56 23 57 24 59 24 60 24 61 27 63 27 64
REMARK Flexibility Score: inf
ROOT
ATOM      1  C   UNL     1     -47.203  35.475  27.187  1.00  0.00    -0.009 A 
ATOM      2  C   UNL     1     -48.483  36.010  27.371  1.00  0.00    -0.055 A 
ATOM      3  C   UNL     1     -49.607  35.281  26.991  1.00  0.00    -0.060 A 
ATOM      4  C   UNL     1     -49.465  34.017  26.413  1.00  0.00    -0.038 A 
ATOM      5  C   UNL     1     -48.193  33.460  26.205  1.00  0.00     0.047 A 
ATOM      6  C   UNL     1     -47.071  34.207  26.592  1.00  0.00    -0.031 A 
ATOM      7  H   UNL     1     -48.613  36.994  27.817  1.00  0.00     0.063 H 
ATOM      8  H   UNL     1     -50.600  35.695  27.150  1.00  0.00     0.062 H 
ATOM      9  H   UNL     1     -50.378  33.484  26.167  1.00  0.00     0.064 H 
ATOM     10  H   UNL     1     -46.062  33.839  26.427  1.00  0.00     0.065 H 
ENDROOT
BRANCH   1  11
ATOM     11  C   UNL     1     -45.985  36.286  27.572  1.00  0.00     0.113 C 
ATOM     12  H   UNL     1     -45.353  36.529  26.710  1.00  0.00     0.076 H 
ATOM     13  H   UNL     1     -45.369  35.658  28.226  1.00  0.00     0.076 H 
BRANCH  11  14
ATOM     14  O   UNL     1     -46.300  37.464  28.321  1.00  0.00    -0.489 OA
BRANCH  14  15
ATOM     15  C   UNL     1     -45.301  38.355  28.598  1.00  0.00     0.122 A 
ATOM     16  C   UNL     1     -42.703  42.274  27.890  1.00  0.00     0.126 A 
ATOM     17  C   UNL     1     -41.900  42.010  28.989  1.00  0.00    -0.019 A 
ATOM     18  N   UNL     1     -43.707  41.457  27.517  1.00  0.00    -0.231 NA
ATOM     19  C   UNL     1     -42.151  40.874  29.749  1.00  0.00    -0.049 A 
ATOM     20  H   UNL     1     -41.077  42.667  29.245  1.00  0.00     0.066 H 
ATOM     21  C   UNL     1     -43.957  40.356  28.250  1.00  0.00     0.076 A 
ATOM     22  C   UNL     1     -43.197  40.021  29.389  1.00  0.00     0.001 A 
ATOM     23  H   UNL     1     -41.526  40.659  30.611  1.00  0.00     0.063 H 
ATOM     24  C   UNL     1     -44.999  39.514  27.879  1.00  0.00     0.007 A 
ATOM     25  C   UNL     1     -43.493  38.863  30.121  1.00  0.00    -0.049 A 
ATOM     26  H   UNL     1     -45.574  39.807  27.007  1.00  0.00     0.069 H 
ATOM     27  C   UNL     1     -44.542  38.038  29.724  1.00  0.00    -0.019 A 
ATOM     28  H   UNL     1     -42.914  38.598  31.002  1.00  0.00     0.063 H 
ATOM     29  H   UNL     1     -44.774  37.142  30.296  1.00  0.00     0.066 H 
BRANCH  16  30
ATOM     30  N   UNL     1     -42.505  43.391  27.075  1.00  0.00    -0.373 N 
ATOM     31  H   UNL     1     -41.857  43.966  27.614  1.00  0.00     0.161 HD
BRANCH  30  32
ATOM     32  C   UNL     1     -41.957  43.071  25.767  1.00  0.00     0.005 C 
ATOM     33  H   UNL     1     -40.985  43.563  25.659  1.00  0.00     0.045 H 
ATOM     34  H   UNL     1     -42.598  43.438  24.959  1.00  0.00     0.045 H 
ATOM     35  H   UNL     1     -41.801  41.994  25.647  1.00  0.00     0.045 H 
ENDBRANCH  30  32
ENDBRANCH  16  30
ENDBRANCH  14  15
ENDBRANCH  11  14
ENDBRANCH   1  11
BRANCH   5  36
ATOM     36  N   UNL     1     -48.060  32.162  25.602  1.00  0.00    -0.301 N 
ATOM     37  C   UNL     1     -48.706  31.017  26.039  1.00  0.00     0.015 A 
ATOM     38  C   UNL     1     -47.287  31.796  24.497  1.00  0.00     0.150 A 
ATOM     39  C   UNL     1     -48.363  29.937  25.248  1.00  0.00    -0.015 A 
ATOM     40  H   UNL     1     -49.374  31.035  26.887  1.00  0.00     0.083 H 
ATOM     41  C   UNL     1     -47.469  30.434  24.252  1.00  0.00     0.065 A 
ATOM     42  N   UNL     1     -46.469  32.600  23.788  1.00  0.00    -0.218 NA
ATOM     43  C   UNL     1     -46.759  29.888  23.166  1.00  0.00     0.136 A 
ATOM     44  C   UNL     1     -45.833  31.964  22.801  1.00  0.00     0.120 A 
ATOM     45  N   UNL     1     -45.938  30.674  22.448  1.00  0.00    -0.219 NA
ATOM     46  H   UNL     1     -45.152  32.565  22.207  1.00  0.00     0.106 H 
BRANCH  39  47
ATOM     47  C   UNL     1     -48.841  28.530  25.449  1.00  0.00    -0.013 C 
ATOM     48  H   UNL     1     -49.199  28.417  26.479  1.00  0.00     0.033 H 
ATOM     49  H   UNL     1     -47.994  27.837  25.371  1.00  0.00     0.033 H 
BRANCH  47  50
ATOM     50  C   UNL     1     -49.970  28.117  24.484  1.00  0.00     0.002 C 
ATOM     51  H   UNL     1     -50.197  28.962  23.822  1.00  0.00     0.043 H 
ATOM     52  H   UNL     1     -49.579  27.317  23.841  1.00  0.00     0.043 H 
BRANCH  50  53
ATOM     53  N   UNL     1     -51.206  27.645  25.140  1.00  0.00    -0.309 NA
BRANCH  53  54
ATOM     54  C   UNL     1     -50.919  26.473  25.970  1.00  0.00    -0.014 C 
ATOM     55  H   UNL     1     -51.323  25.550  25.537  1.00  0.00     0.039 H 
ATOM     56  H   UNL     1     -49.838  26.347  26.101  1.00  0.00     0.039 H 
ATOM     57  H   UNL     1     -51.339  26.597  26.974  1.00  0.00     0.039 H 
ENDBRANCH  53  54
BRANCH  53  58
ATOM     58  C   UNL     1     -52.255  27.323  24.172  1.00  0.00    -0.014 C 
ATOM     59  H   UNL     1     -52.768  26.386  24.415  1.00  0.00     0.039 H 
ATOM     60  H   UNL     1     -53.005  28.123  24.139  1.00  0.00     0.039 H 
ATOM     61  H   UNL     1     -51.852  27.247  23.159  1.00  0.00     0.039 H 
ENDBRANCH  53  58
ENDBRANCH  50  53
ENDBRANCH  47  50
ENDBRANCH  39  47
BRANCH  43  62
ATOM     62  N   UNL     1     -46.855  28.564  22.745  1.00  0.00    -0.383 N 
ATOM     63  H   UNL     1     -45.987  28.092  22.976  1.00  0.00     0.158 HD
ATOM     64  H   UNL     1     -47.129  28.479  21.777  1.00  0.00     0.158 HD
ENDBRANCH  43  62
ENDBRANCH   5  36
TORSDOF 12
ENDMDL
MODEL 6
REMARK VINA RESULT:      -8.9      1.942     11.352
REMARK SMILES CNc1ccc2ccc(OCc3cccc(-n4cc(CCN(C)C)c5c(N)ncnc54)c3)cc2n1
REMARK SMILES IDX 12 1 13 2 14 3 15 4 16 5 32 6 11 11 10 14 9 15 3 16 4 17
REMARK SMILES IDX 35 18 5 19 34 21 6 22 33 24 7 25 8 27 2 30 1 32 17 36 18 37
REMARK SMILES IDX 31 38 19 39 25 41 30 42 26 43 29 44 28 45 20 47 21 50 22 53
REMARK SMILES IDX 23 54 24 58 27 62
REMARK H PARENT 13 7 14 8 15 9 32 10 11 12 11 13 4 20 5 23 33 26 7 28 8 29
REMARK H PARENT 2 31 1 33 1 34 1 35 18 40 29 46 20 48 20 49 21 51 21 52 23 55
REMARK H PARENT 23 56 23 57 24 59 24 60 24 61 27 63 27 64
REMARK Flexibility Score: inf
ROOT
ATOM      1  C   UNL     1     -46.552  35.599  26.929  1.00  0.00    -0.009 A 
ATOM      2  C   UNL     1     -45.999  35.054  28.093  1.00  0.00    -0.055 A 
ATOM      3  C   UNL     1     -45.901  33.673  28.242  1.00  0.00    -0.060 A 
ATOM      4  C   UNL     1     -46.366  32.821  27.236  1.00  0.00    -0.038 A 
ATOM      5  C   UNL     1     -46.938  33.339  26.062  1.00  0.00     0.047 A 
ATOM      6  C   UNL     1     -47.030  34.732  25.928  1.00  0.00    -0.031 A 
ATOM      7  H   UNL     1     -45.634  35.700  28.888  1.00  0.00     0.063 H 
ATOM      8  H   UNL     1     -45.456  33.255  29.142  1.00  0.00     0.062 H 
ATOM      9  H   UNL     1     -46.234  31.755  27.394  1.00  0.00     0.064 H 
ATOM     10  H   UNL     1     -47.490  35.187  25.056  1.00  0.00     0.065 H 
ENDROOT
BRANCH   1  11
ATOM     11  C   UNL     1     -46.684  37.100  26.789  1.00  0.00     0.113 C 
ATOM     12  H   UNL     1     -47.561  37.390  26.198  1.00  0.00     0.076 H 
ATOM     13  H   UNL     1     -45.813  37.451  26.223  1.00  0.00     0.076 H 
BRANCH  11  14
ATOM     14  O   UNL     1     -46.661  37.792  28.040  1.00  0.00    -0.489 OA
BRANCH  14  15
ATOM     15  C   UNL     1     -45.567  38.549  28.354  1.00  0.00     0.122 A 
ATOM     16  C   UNL     1     -42.358  41.985  27.647  1.00  0.00     0.126 A 
ATOM     17  C   UNL     1     -41.702  41.697  28.834  1.00  0.00    -0.019 A 
ATOM     18  N   UNL     1     -43.436  41.294  27.232  1.00  0.00    -0.231 NA
ATOM     19  C   UNL     1     -42.186  40.672  29.639  1.00  0.00    -0.049 A 
ATOM     20  H   UNL     1     -40.815  42.247  29.126  1.00  0.00     0.066 H 
ATOM     21  C   UNL     1     -43.912  40.302  28.008  1.00  0.00     0.076 A 
ATOM     22  C   UNL     1     -43.313  39.953  29.235  1.00  0.00     0.001 A 
ATOM     23  H   UNL     1     -41.678  40.439  30.571  1.00  0.00     0.063 H 
ATOM     24  C   UNL     1     -45.033  39.591  27.593  1.00  0.00     0.007 A 
ATOM     25  C   UNL     1     -43.843  38.912  30.010  1.00  0.00    -0.049 A 
ATOM     26  H   UNL     1     -45.479  39.894  26.652  1.00  0.00     0.069 H 
ATOM     27  C   UNL     1     -44.966  38.217  29.568  1.00  0.00    -0.019 A 
ATOM     28  H   UNL     1     -43.389  38.637  30.959  1.00  0.00     0.063 H 
ATOM     29  H   UNL     1     -45.379  37.412  30.171  1.00  0.00     0.066 H 
BRANCH  16  30
ATOM     30  N   UNL     1     -41.923  42.993  26.783  1.00  0.00    -0.373 N 
ATOM     31  H   UNL     1     -41.071  42.606  26.376  1.00  0.00     0.161 HD
BRANCH  30  32
ATOM     32  C   UNL     1     -42.887  43.333  25.750  1.00  0.00     0.005 C 
ATOM     33  H   UNL     1     -42.749  44.381  25.466  1.00  0.00     0.045 H 
ATOM     34  H   UNL     1     -43.917  43.228  26.106  1.00  0.00     0.045 H 
ATOM     35  H   UNL     1     -42.749  42.723  24.851  1.00  0.00     0.045 H 
ENDBRANCH  30  32
ENDBRANCH  16  30
ENDBRANCH  14  15
ENDBRANCH  11  14
ENDBRANCH   1  11
BRANCH   5  36
ATOM     36  N   UNL     1     -47.420  32.453  25.038  1.00  0.00    -0.301 N 
ATOM     37  C   UNL     1     -46.614  31.674  24.223  1.00  0.00     0.015 A 
ATOM     38  C   UNL     1     -48.742  32.198  24.666  1.00  0.00     0.150 A 
ATOM     39  C   UNL     1     -47.385  30.938  23.343  1.00  0.00    -0.015 A 
ATOM     40  H   UNL     1     -45.538  31.687  24.315  1.00  0.00     0.083 H 
ATOM     41  C   UNL     1     -48.746  31.258  23.633  1.00  0.00     0.065 A 
ATOM     42  N   UNL     1     -49.846  32.776  25.182  1.00  0.00    -0.218 NA
ATOM     43  C   UNL     1     -50.004  30.881  23.129  1.00  0.00     0.136 A 
ATOM     44  C   UNL     1     -50.976  32.355  24.606  1.00  0.00     0.120 A 
ATOM     45  N   UNL     1     -51.116  31.446  23.630  1.00  0.00    -0.219 NA
ATOM     46  H   UNL     1     -51.894  32.800  24.977  1.00  0.00     0.106 H 
BRANCH  39  47
ATOM     47  C   UNL     1     -46.852  30.016  22.288  1.00  0.00    -0.013 C 
ATOM     48  H   UNL     1     -46.214  30.586  21.602  1.00  0.00     0.033 H 
ATOM     49  H   UNL     1     -47.677  29.652  21.663  1.00  0.00     0.033 H 
BRANCH  47  50
ATOM     50  C   UNL     1     -46.039  28.834  22.853  1.00  0.00     0.002 C 
ATOM     51  H   UNL     1     -45.748  28.175  22.025  1.00  0.00     0.043 H 
ATOM     52  H   UNL     1     -45.107  29.242  23.267  1.00  0.00     0.043 H 
BRANCH  50  53
ATOM     53  N   UNL     1     -46.727  28.052  23.900  1.00  0.00    -0.309 NA
BRANCH  53  54
ATOM     54  C   UNL     1     -45.926  26.880  24.260  1.00  0.00    -0.014 C 
ATOM     55  H   UNL     1     -44.849  27.079  24.193  1.00  0.00     0.039 H 
ATOM     56  H   UNL     1     -46.154  26.555  25.282  1.00  0.00     0.039 H 
ATOM     57  H   UNL     1     -46.162  26.033  23.606  1.00  0.00     0.039 H 
ENDBRANCH  53  54
BRANCH  53  58
ATOM     58  C   UNL     1     -48.065  27.629  23.483  1.00  0.00    -0.014 C 
ATOM     59  H   UNL     1     -48.089  27.307  22.436  1.00  0.00     0.039 H 
ATOM     60  H   UNL     1     -48.416  26.796  24.104  1.00  0.00     0.039 H 
ATOM     61  H   UNL     1     -48.796  28.432  23.616  1.00  0.00     0.039 H 
ENDBRANCH  53  58
ENDBRANCH  50  53
ENDBRANCH  47  50
ENDBRANCH  39  47
BRANCH  43  62
ATOM     62  N   UNL     1     -50.203  29.924  22.137  1.00  0.00    -0.383 N 
ATOM     63  H   UNL     1     -49.610  30.156  21.346  1.00  0.00     0.158 HD
ATOM     64  H   UNL     1     -51.176  29.797  21.903  1.00  0.00     0.158 HD
ENDBRANCH  43  62
ENDBRANCH   5  36
TORSDOF 12
ENDMDL
MODEL 7
REMARK VINA RESULT:      -8.8      1.950      3.794
REMARK SMILES CNc1ccc2ccc(OCc3cccc(-n4cc(CCN(C)C)c5c(N)ncnc54)c3)cc2n1
REMARK SMILES IDX 12 1 13 2 14 3 15 4 16 5 32 6 11 11 10 14 9 15 3 16 4 17
REMARK SMILES IDX 35 18 5 19 34 21 6 22 33 24 7 25 8 27 2 30 1 32 17 36 18 37
REMARK SMILES IDX 31 38 19 39 25 41 30 42 26 43 29 44 28 45 20 47 21 50 22 53
REMARK SMILES IDX 23 54 24 58 27 62
REMARK H PARENT 13 7 14 8 15 9 32 10 11 12 11 13 4 20 5 23 33 26 7 28 8 29
REMARK H PARENT 2 31 1 33 1 34 1 35 18 40 29 46 20 48 20 49 21 51 21 52 23 55
REMARK H PARENT 23 56 23 57 24 59 24 60 24 61 27 63 27 64
REMARK Flexibility Score: inf
ROOT
ATOM      1  C   UNL     1     -46.923  35.905  27.190  1.00  0.00    -0.009 A 
ATOM      2  C   UNL     1     -48.188  35.808  27.778  1.00  0.00    -0.055 A 
ATOM      3  C   UNL     1     -48.932  36.957  28.034  1.00  0.00    -0.060 A 
ATOM      4  C   UNL     1     -48.416  38.216  27.717  1.00  0.00    -0.038 A 
ATOM      5  C   UNL     1     -47.143  38.346  27.137  1.00  0.00     0.047 A 
ATOM      6  C   UNL     1     -46.406  37.179  26.886  1.00  0.00    -0.031 A 
ATOM      7  H   UNL     1     -48.606  34.837  28.035  1.00  0.00     0.063 H 
ATOM      8  H   UNL     1     -49.922  36.874  28.477  1.00  0.00     0.062 H 
ATOM      9  H   UNL     1     -49.054  39.072  27.910  1.00  0.00     0.064 H 
ATOM     10  H   UNL     1     -45.405  37.222  26.468  1.00  0.00     0.065 H 
ENDROOT
BRANCH   1  11
ATOM     11  C   UNL     1     -46.107  34.655  26.944  1.00  0.00     0.113 C 
ATOM     12  H   UNL     1     -45.178  34.640  27.526  1.00  0.00     0.076 H 
ATOM     13  H   UNL     1     -45.800  34.668  25.892  1.00  0.00     0.076 H 
BRANCH  11  14
ATOM     14  O   UNL     1     -46.848  33.446  27.135  1.00  0.00    -0.489 OA
BRANCH  14  15
ATOM     15  C   UNL     1     -47.218  32.720  26.038  1.00  0.00     0.122 A 
ATOM     16  C   UNL     1     -46.672  30.943  21.662  1.00  0.00     0.126 A 
ATOM     17  C   UNL     1     -47.893  30.288  21.713  1.00  0.00    -0.019 A 
ATOM     18  N   UNL     1     -46.216  31.698  22.679  1.00  0.00    -0.231 NA
ATOM     19  C   UNL     1     -48.667  30.395  22.862  1.00  0.00    -0.049 A 
ATOM     20  H   UNL     1     -48.252  29.716  20.865  1.00  0.00     0.066 H 
ATOM     21  C   UNL     1     -46.958  31.803  23.797  1.00  0.00     0.076 A 
ATOM     22  C   UNL     1     -48.205  31.160  23.936  1.00  0.00     0.001 A 
ATOM     23  H   UNL     1     -49.626  29.885  22.910  1.00  0.00     0.063 H 
ATOM     24  C   UNL     1     -46.488  32.571  24.857  1.00  0.00     0.007 A 
ATOM     25  C   UNL     1     -48.944  31.299  25.118  1.00  0.00    -0.049 A 
ATOM     26  H   UNL     1     -45.519  33.040  24.725  1.00  0.00     0.069 H 
ATOM     27  C   UNL     1     -48.448  32.075  26.162  1.00  0.00    -0.019 A 
ATOM     28  H   UNL     1     -49.905  30.804  25.235  1.00  0.00     0.063 H 
ATOM     29  H   UNL     1     -49.021  32.179  27.081  1.00  0.00     0.066 H 
BRANCH  16  30
ATOM     30  N   UNL     1     -45.846  30.890  20.537  1.00  0.00    -0.373 N 
ATOM     31  H   UNL     1     -46.025  29.960  20.155  1.00  0.00     0.161 HD
BRANCH  30  32
ATOM     32  C   UNL     1     -46.129  31.922  19.553  1.00  0.00     0.005 C 
ATOM     33  H   UNL     1     -45.557  32.820  19.806  1.00  0.00     0.045 H 
ATOM     34  H   UNL     1     -47.188  32.201  19.554  1.00  0.00     0.045 H 
ATOM     35  H   UNL     1     -45.835  31.611  18.546  1.00  0.00     0.045 H 
ENDBRANCH  30  32
ENDBRANCH  16  30
ENDBRANCH  14  15
ENDBRANCH  11  14
ENDBRANCH   1  11
BRANCH   5  36
ATOM     36  N   UNL     1     -46.619  39.647  26.822  1.00  0.00    -0.301 N 
ATOM     37  C   UNL     1     -45.276  39.938  26.649  1.00  0.00     0.015 A 
ATOM     38  C   UNL     1     -47.321  40.840  26.630  1.00  0.00     0.150 A 
ATOM     39  C   UNL     1     -45.105  41.278  26.359  1.00  0.00    -0.015 A 
ATOM     40  H   UNL     1     -44.517  39.175  26.742  1.00  0.00     0.083 H 
ATOM     41  C   UNL     1     -46.411  41.855  26.330  1.00  0.00     0.065 A 
ATOM     42  N   UNL     1     -48.654  41.014  26.743  1.00  0.00    -0.218 NA
ATOM     43  C   UNL     1     -46.947  43.137  26.106  1.00  0.00     0.136 A 
ATOM     44  C   UNL     1     -49.039  42.275  26.532  1.00  0.00     0.120 A 
ATOM     45  N   UNL     1     -48.273  43.329  26.214  1.00  0.00    -0.219 NA
ATOM     46  H   UNL     1     -50.102  42.471  26.623  1.00  0.00     0.106 H 
BRANCH  39  47
ATOM     47  C   UNL     1     -43.785  41.957  26.148  1.00  0.00    -0.013 C 
ATOM     48  H   UNL     1     -43.865  42.638  25.292  1.00  0.00     0.033 H 
ATOM     49  H   UNL     1     -43.033  41.218  25.846  1.00  0.00     0.033 H 
BRANCH  47  50
ATOM     50  C   UNL     1     -43.298  42.756  27.373  1.00  0.00     0.002 C 
ATOM     51  H   UNL     1     -43.101  43.792  27.066  1.00  0.00     0.043 H 
ATOM     52  H   UNL     1     -44.128  42.799  28.091  1.00  0.00     0.043 H 
BRANCH  50  53
ATOM     53  N   UNL     1     -42.108  42.196  28.046  1.00  0.00    -0.309 NA
BRANCH  53  54
ATOM     54  C   UNL     1     -41.206  41.600  27.059  1.00  0.00    -0.014 C 
ATOM     55  H   UNL     1     -40.384  41.049  27.530  1.00  0.00     0.039 H 
ATOM     56  H   UNL     1     -41.752  40.911  26.403  1.00  0.00     0.039 H 
ATOM     57  H   UNL     1     -40.778  42.371  26.409  1.00  0.00     0.039 H 
ENDBRANCH  53  54
BRANCH  53  58
ATOM     58  C   UNL     1     -42.465  41.202  29.059  1.00  0.00    -0.014 C 
ATOM     59  H   UNL     1     -43.548  41.139  29.213  1.00  0.00     0.039 H 
ATOM     60  H   UNL     1     -42.104  40.209  28.765  1.00  0.00     0.039 H 
ATOM     61  H   UNL     1     -41.989  41.422  30.018  1.00  0.00     0.039 H 
ENDBRANCH  53  58
ENDBRANCH  50  53
ENDBRANCH  47  50
ENDBRANCH  39  47
BRANCH  43  62
ATOM     62  N   UNL     1     -46.197  44.254  25.748  1.00  0.00    -0.383 N 
ATOM     63  H   UNL     1     -46.404  45.000  26.404  1.00  0.00     0.158 HD
ATOM     64  H   UNL     1     -46.313  44.510  24.778  1.00  0.00     0.158 HD
ENDBRANCH  43  62
ENDBRANCH   5  36
TORSDOF 12
ENDMDL
