MODEL 1
REMARK VINA RESULT:     -10.6      0.000      0.000
REMARK SMILES CC1CN(Cc2cc3ccc(CNC(=O)c4cc(=O)n5ccccc5n4)cc3[nH]2)C1
REMARK SMILES IDX 6 1 7 2 8 3 9 4 10 5 11 6 27 7 28 8 29 9 5 15 4 18 2 19 3 20
REMARK SMILES IDX 30 21 1 27 12 31 13 34 14 35 15 37 16 38 17 39 26 40 18 41
REMARK SMILES IDX 25 43 19 44 20 45 24 46 21 47 23 48 22 50
REMARK H PARENT 7 10 9 11 10 12 27 13 29 14 5 16 5 17 2 22 3 23 3 24 30 25
REMARK H PARENT 30 26 1 28 1 29 1 30 12 32 12 33 13 36 17 42 24 49 21 51 23 52
REMARK H PARENT 22 53
REMARK Flexibility Score: inf
ROOT
ATOM      1  C   UNL     1     -48.245  30.585  24.843  1.00  0.00     0.030 A 
ATOM      2  C   UNL     1     -47.085  31.264  24.524  1.00  0.00    -0.032 A 
ATOM      3  C   UNL     1     -47.146  32.555  25.117  1.00  0.00    -0.000 A 
ATOM      4  C   UNL     1     -46.274  33.657  25.152  1.00  0.00    -0.052 A 
ATOM      5  C   UNL     1     -46.657  34.811  25.847  1.00  0.00    -0.057 A 
ATOM      6  C   UNL     1     -47.895  34.889  26.500  1.00  0.00    -0.027 A 
ATOM      7  C   UNL     1     -48.771  33.789  26.476  1.00  0.00    -0.033 A 
ATOM      8  C   UNL     1     -48.371  32.644  25.775  1.00  0.00     0.046 A 
ATOM      9  N   UNL     1     -49.023  31.450  25.580  1.00  0.00    -0.357 N 
ATOM     10  H   UNL     1     -46.270  30.871  23.930  1.00  0.00     0.065 H 
ATOM     11  H   UNL     1     -45.312  33.618  24.651  1.00  0.00     0.063 H 
ATOM     12  H   UNL     1     -45.974  35.659  25.879  1.00  0.00     0.063 H 
ATOM     13  H   UNL     1     -49.731  33.825  26.982  1.00  0.00     0.065 H 
ATOM     14  H   UNL     1     -49.941  31.233  25.943  1.00  0.00     0.166 HD
ENDROOT
BRANCH   1  15
ATOM     15  C   UNL     1     -48.723  29.219  24.468  1.00  0.00     0.039 C 
ATOM     16  H   UNL     1     -49.815  29.250  24.354  1.00  0.00     0.050 H 
ATOM     17  H   UNL     1     -48.339  28.979  23.468  1.00  0.00     0.050 H 
BRANCH  15  18
ATOM     18  N   UNL     1     -48.405  28.101  25.357  1.00  0.00    -0.297 NA
ATOM     19  C   UNL     1     -48.374  26.013  25.532  1.00  0.00    -0.019 C 
ATOM     20  C   UNL     1     -47.505  27.073  24.804  1.00  0.00     0.002 C 
ATOM     21  C   UNL     1     -49.479  27.100  25.494  1.00  0.00     0.002 C 
ATOM     22  H   UNL     1     -48.603  25.135  24.913  1.00  0.00     0.033 H 
ATOM     23  H   UNL     1     -46.467  27.148  25.142  1.00  0.00     0.043 H 
ATOM     24  H   UNL     1     -47.504  26.932  23.718  1.00  0.00     0.043 H 
ATOM     25  H   UNL     1     -50.162  26.979  24.647  1.00  0.00     0.043 H 
ATOM     26  H   UNL     1     -50.079  27.199  26.405  1.00  0.00     0.043 H 
BRANCH  19  27
ATOM     27  C   UNL     1     -47.898  25.575  26.908  1.00  0.00    -0.060 C 
ATOM     28  H   UNL     1     -46.970  24.999  26.826  1.00  0.00     0.023 H 
ATOM     29  H   UNL     1     -48.638  24.950  27.420  1.00  0.00     0.023 H 
ATOM     30  H   UNL     1     -47.698  26.447  27.539  1.00  0.00     0.023 H 
ENDBRANCH  19  27
ENDBRANCH  15  18
ENDBRANCH   1  15
BRANCH   6  31
ATOM     31  C   UNL     1     -48.267  36.139  27.258  1.00  0.00     0.043 C 
ATOM     32  H   UNL     1     -48.505  35.898  28.300  1.00  0.00     0.054 H 
ATOM     33  H   UNL     1     -49.159  36.597  26.818  1.00  0.00     0.054 H 
BRANCH  31  34
ATOM     34  N   UNL     1     -47.169  37.073  27.274  1.00  0.00    -0.347 N 
ATOM     35  C   UNL     1     -46.493  37.405  28.422  1.00  0.00     0.270 C 
ATOM     36  H   UNL     1     -47.025  37.685  26.479  1.00  0.00     0.164 HD
ATOM     37  O   UNL     1     -46.649  36.852  29.504  1.00  0.00    -0.268 OA
BRANCH  35  38
ATOM     38  C   UNL     1     -45.533  38.550  28.211  1.00  0.00     0.136 A 
ATOM     39  C   UNL     1     -45.704  39.273  27.102  1.00  0.00     0.035 A 
ATOM     40  N   UNL     1     -44.552  38.776  29.152  1.00  0.00    -0.225 NA
ATOM     41  C   UNL     1     -44.789  40.394  26.853  1.00  0.00     0.258 A 
ATOM     42  H   UNL     1     -46.478  39.085  26.369  1.00  0.00     0.071 H 
ATOM     43  C   UNL     1     -43.743  39.766  28.926  1.00  0.00     0.140 A 
ATOM     44  O   UNL     1     -44.943  41.067  25.835  1.00  0.00    -0.269 OA
ATOM     45  N   UNL     1     -43.809  40.597  27.813  1.00  0.00    -0.268 N 
ATOM     46  C   UNL     1     -42.664  40.045  29.914  1.00  0.00    -0.019 A 
ATOM     47  C   UNL     1     -42.903  41.639  27.645  1.00  0.00     0.014 A 
ATOM     48  C   UNL     1     -41.815  41.059  29.709  1.00  0.00    -0.057 A 
ATOM     49  H   UNL     1     -42.604  39.402  30.784  1.00  0.00     0.066 H 
ATOM     50  C   UNL     1     -41.936  41.885  28.538  1.00  0.00    -0.045 A 
ATOM     51  H   UNL     1     -43.013  42.250  26.752  1.00  0.00     0.082 H 
ATOM     52  H   UNL     1     -41.023  41.278  30.417  1.00  0.00     0.062 H 
ATOM     53  H   UNL     1     -41.235  42.700  28.396  1.00  0.00     0.064 H 
ENDBRANCH  35  38
ENDBRANCH  31  34
ENDBRANCH   6  31
TORSDOF 6
ENDMDL
MODEL 2
REMARK VINA RESULT:     -10.5      1.458      2.082
REMARK SMILES CC1CN(Cc2cc3ccc(CNC(=O)c4cc(=O)n5ccccc5n4)cc3[nH]2)C1
REMARK SMILES IDX 6 1 7 2 8 3 9 4 10 5 11 6 27 7 28 8 29 9 5 15 4 18 2 19 3 20
REMARK SMILES IDX 30 21 1 27 12 31 13 34 14 35 15 37 16 38 17 39 26 40 18 41
REMARK SMILES IDX 25 43 19 44 20 45 24 46 21 47 23 48 22 50
REMARK H PARENT 7 10 9 11 10 12 27 13 29 14 5 16 5 17 2 22 3 23 3 24 30 25
REMARK H PARENT 30 26 1 28 1 29 1 30 12 32 12 33 13 36 17 42 24 49 21 51 23 52
REMARK H PARENT 22 53
REMARK Flexibility Score: inf
ROOT
ATOM      1  C   UNL     1     -47.980  29.847  24.140  1.00  0.00     0.030 A 
ATOM      2  C   UNL     1     -46.826  30.588  23.981  1.00  0.00    -0.032 A 
ATOM      3  C   UNL     1     -46.985  31.817  24.678  1.00  0.00    -0.000 A 
ATOM      4  C   UNL     1     -46.162  32.938  24.884  1.00  0.00    -0.052 A 
ATOM      5  C   UNL     1     -46.645  34.011  25.643  1.00  0.00    -0.057 A 
ATOM      6  C   UNL     1     -47.934  33.991  26.192  1.00  0.00    -0.027 A 
ATOM      7  C   UNL     1     -48.762  32.871  25.998  1.00  0.00    -0.033 A 
ATOM      8  C   UNL     1     -48.262  31.808  25.235  1.00  0.00     0.046 A 
ATOM      9  N   UNL     1     -48.849  30.616  24.882  1.00  0.00    -0.357 N 
ATOM     10  H   UNL     1     -45.951  30.277  23.425  1.00  0.00     0.065 H 
ATOM     11  H   UNL     1     -45.162  32.975  24.464  1.00  0.00     0.063 H 
ATOM     12  H   UNL     1     -46.000  34.874  25.807  1.00  0.00     0.063 H 
ATOM     13  H   UNL     1     -49.761  32.830  26.422  1.00  0.00     0.065 H 
ATOM     14  H   UNL     1     -49.784  30.339  25.146  1.00  0.00     0.166 HD
ENDROOT
BRANCH   1  15
ATOM     15  C   UNL     1     -48.373  28.506  23.607  1.00  0.00     0.039 C 
ATOM     16  H   UNL     1     -49.432  28.541  23.317  1.00  0.00     0.050 H 
ATOM     17  H   UNL     1     -47.827  28.331  22.671  1.00  0.00     0.050 H 
BRANCH  15  18
ATOM     18  N   UNL     1     -48.191  27.335  24.465  1.00  0.00    -0.297 NA
ATOM     19  C   UNL     1     -47.145  26.571  26.113  1.00  0.00    -0.019 C 
ATOM     20  C   UNL     1     -48.315  27.570  25.914  1.00  0.00     0.002 C 
ATOM     21  C   UNL     1     -46.787  26.918  24.645  1.00  0.00     0.002 C 
ATOM     22  H   UNL     1     -46.396  26.913  26.838  1.00  0.00     0.033 H 
ATOM     23  H   UNL     1     -49.276  27.268  26.342  1.00  0.00     0.043 H 
ATOM     24  H   UNL     1     -48.073  28.571  26.287  1.00  0.00     0.043 H 
ATOM     25  H   UNL     1     -46.020  27.696  24.570  1.00  0.00     0.043 H 
ATOM     26  H   UNL     1     -46.480  26.074  24.019  1.00  0.00     0.043 H 
BRANCH  19  27
ATOM     27  C   UNL     1     -47.529  25.126  26.396  1.00  0.00    -0.060 C 
ATOM     28  H   UNL     1     -46.716  24.452  26.104  1.00  0.00     0.023 H 
ATOM     29  H   UNL     1     -48.429  24.825  25.850  1.00  0.00     0.023 H 
ATOM     30  H   UNL     1     -47.718  24.983  27.464  1.00  0.00     0.023 H 
ENDBRANCH  19  27
ENDBRANCH  15  18
ENDBRANCH   1  15
BRANCH   6  31
ATOM     31  C   UNL     1     -48.414  35.155  27.024  1.00  0.00     0.043 C 
ATOM     32  H   UNL     1     -48.744  34.810  28.010  1.00  0.00     0.054 H 
ATOM     33  H   UNL     1     -49.274  35.634  26.543  1.00  0.00     0.054 H 
BRANCH  31  34
ATOM     34  N   UNL     1     -47.352  36.105  27.235  1.00  0.00    -0.347 N 
ATOM     35  C   UNL     1     -46.821  36.363  28.474  1.00  0.00     0.270 C 
ATOM     36  H   UNL     1     -47.135  36.778  26.508  1.00  0.00     0.164 HD
ATOM     37  O   UNL     1     -47.084  35.727  29.488  1.00  0.00    -0.268 OA
BRANCH  35  38
ATOM     38  C   UNL     1     -45.875  37.539  28.459  1.00  0.00     0.136 A 
ATOM     39  C   UNL     1     -45.090  37.684  29.529  1.00  0.00     0.035 A 
ATOM     40  N   UNL     1     -45.880  38.381  27.369  1.00  0.00    -0.225 NA
ATOM     41  C   UNL     1     -44.158  38.818  29.560  1.00  0.00     0.258 A 
ATOM     42  H   UNL     1     -45.096  37.017  30.381  1.00  0.00     0.071 H 
ATOM     43  C   UNL     1     -45.057  39.384  27.402  1.00  0.00     0.140 A 
ATOM     44  O   UNL     1     -43.428  38.956  30.541  1.00  0.00    -0.269 OA
ATOM     45  N   UNL     1     -44.186  39.652  28.452  1.00  0.00    -0.268 N 
ATOM     46  C   UNL     1     -45.030  40.324  26.247  1.00  0.00    -0.019 A 
ATOM     47  C   UNL     1     -43.333  40.750  28.411  1.00  0.00     0.014 A 
ATOM     48  C   UNL     1     -44.192  41.368  26.252  1.00  0.00    -0.057 A 
ATOM     49  H   UNL     1     -45.706  40.124  25.424  1.00  0.00     0.066 H 
ATOM     50  C   UNL     1     -43.313  41.590  27.368  1.00  0.00    -0.045 A 
ATOM     51  H   UNL     1     -42.678  40.899  29.266  1.00  0.00     0.082 H 
ATOM     52  H   UNL     1     -44.158  42.063  25.420  1.00  0.00     0.062 H 
ATOM     53  H   UNL     1     -42.643  42.443  27.347  1.00  0.00     0.064 H 
ENDBRANCH  35  38
ENDBRANCH  31  34
ENDBRANCH   6  31
TORSDOF 6
ENDMDL
MODEL 3
REMARK VINA RESULT:      -9.7      2.423      3.934
REMARK SMILES CC1CN(Cc2cc3ccc(CNC(=O)c4cc(=O)n5ccccc5n4)cc3[nH]2)C1
REMARK SMILES IDX 6 1 7 2 8 3 9 4 10 5 11 6 27 7 28 8 29 9 5 15 4 18 2 19 3 20
REMARK SMILES IDX 30 21 1 27 12 31 13 34 14 35 15 37 16 38 17 39 26 40 18 41
REMARK SMILES IDX 25 43 19 44 20 45 24 46 21 47 23 48 22 50
REMARK H PARENT 7 10 9 11 10 12 27 13 29 14 5 16 5 17 2 22 3 23 3 24 30 25
REMARK H PARENT 30 26 1 28 1 29 1 30 12 32 12 33 13 36 17 42 24 49 21 51 23 52
REMARK H PARENT 22 53
REMARK Flexibility Score: inf
ROOT
ATOM      1  C   UNL     1     -46.711  33.354  25.486  1.00  0.00     0.030 A 
ATOM      2  C   UNL     1     -48.030  33.606  25.811  1.00  0.00    -0.032 A 
ATOM      3  C   UNL     1     -48.078  34.792  26.592  1.00  0.00    -0.000 A 
ATOM      4  C   UNL     1     -49.116  35.533  27.184  1.00  0.00    -0.052 A 
ATOM      5  C   UNL     1     -48.806  36.689  27.910  1.00  0.00    -0.057 A 
ATOM      6  C   UNL     1     -47.480  37.116  28.063  1.00  0.00    -0.027 A 
ATOM      7  C   UNL     1     -46.434  36.387  27.469  1.00  0.00    -0.033 A 
ATOM      8  C   UNL     1     -46.765  35.233  26.748  1.00  0.00     0.046 A 
ATOM      9  N   UNL     1     -45.958  34.338  26.086  1.00  0.00    -0.357 N 
ATOM     10  H   UNL     1     -48.877  33.002  25.513  1.00  0.00     0.065 H 
ATOM     11  H   UNL     1     -50.150  35.217  27.079  1.00  0.00     0.063 H 
ATOM     12  H   UNL     1     -49.615  37.264  28.359  1.00  0.00     0.063 H 
ATOM     13  H   UNL     1     -45.401  36.705  27.568  1.00  0.00     0.065 H 
ATOM     14  H   UNL     1     -44.951  34.406  26.035  1.00  0.00     0.166 HD
ENDROOT
BRANCH   1  15
ATOM     15  C   UNL     1     -46.081  32.238  24.715  1.00  0.00     0.039 C 
ATOM     16  H   UNL     1     -45.128  32.594  24.301  1.00  0.00     0.050 H 
ATOM     17  H   UNL     1     -45.805  31.443  25.419  1.00  0.00     0.050 H 
BRANCH  15  18
ATOM     18  N   UNL     1     -46.839  31.634  23.619  1.00  0.00    -0.297 NA
ATOM     19  C   UNL     1     -47.033  29.932  22.412  1.00  0.00    -0.019 C 
ATOM     20  C   UNL     1     -47.389  30.292  23.878  1.00  0.00     0.002 C 
ATOM     21  C   UNL     1     -46.011  31.092  22.525  1.00  0.00     0.002 C 
ATOM     22  H   UNL     1     -46.565  28.945  22.305  1.00  0.00     0.033 H 
ATOM     23  H   UNL     1     -48.455  30.278  24.125  1.00  0.00     0.043 H 
ATOM     24  H   UNL     1     -46.862  29.659  24.600  1.00  0.00     0.043 H 
ATOM     25  H   UNL     1     -45.005  30.745  22.783  1.00  0.00     0.043 H 
ATOM     26  H   UNL     1     -45.933  31.744  21.649  1.00  0.00     0.043 H 
BRANCH  19  27
ATOM     27  C   UNL     1     -48.142  30.101  21.384  1.00  0.00    -0.060 C 
ATOM     28  H   UNL     1     -48.576  29.128  21.129  1.00  0.00     0.023 H 
ATOM     29  H   UNL     1     -47.779  30.562  20.460  1.00  0.00     0.023 H 
ATOM     30  H   UNL     1     -48.942  30.731  21.785  1.00  0.00     0.023 H 
ENDBRANCH  19  27
ENDBRANCH  15  18
ENDBRANCH   1  15
BRANCH   6  31
ATOM     31  C   UNL     1     -47.182  38.379  28.833  1.00  0.00     0.043 C 
ATOM     32  H   UNL     1     -46.810  38.138  29.835  1.00  0.00     0.054 H 
ATOM     33  H   UNL     1     -48.097  38.969  28.960  1.00  0.00     0.054 H 
BRANCH  31  34
ATOM     34  N   UNL     1     -46.163  39.154  28.171  1.00  0.00    -0.347 N 
ATOM     35  C   UNL     1     -44.884  39.267  28.656  1.00  0.00     0.270 C 
ATOM     36  H   UNL     1     -46.432  39.825  27.460  1.00  0.00     0.164 HD
ATOM     37  O   UNL     1     -44.439  38.625  29.600  1.00  0.00    -0.268 OA
BRANCH  35  38
ATOM     38  C   UNL     1     -44.074  40.293  27.901  1.00  0.00     0.136 A 
ATOM     39  C   UNL     1     -42.917  40.661  28.455  1.00  0.00     0.035 A 
ATOM     40  N   UNL     1     -44.567  40.784  26.713  1.00  0.00    -0.225 NA
ATOM     41  C   UNL     1     -42.098  41.661  27.759  1.00  0.00     0.258 A 
ATOM     42  H   UNL     1     -42.540  40.269  29.391  1.00  0.00     0.071 H 
ATOM     43  C   UNL     1     -43.841  41.671  26.102  1.00  0.00     0.140 A 
ATOM     44  O   UNL     1     -41.028  42.003  28.261  1.00  0.00    -0.269 OA
ATOM     45  N   UNL     1     -42.619  42.143  26.567  1.00  0.00    -0.268 N 
ATOM     46  C   UNL     1     -44.336  42.234  24.814  1.00  0.00    -0.019 A 
ATOM     47  C   UNL     1     -41.901  43.095  25.851  1.00  0.00     0.014 A 
ATOM     48  C   UNL     1     -43.610  43.149  24.162  1.00  0.00    -0.057 A 
ATOM     49  H   UNL     1     -45.288  41.874  24.445  1.00  0.00     0.066 H 
ATOM     50  C   UNL     1     -42.351  43.596  24.694  1.00  0.00    -0.045 A 
ATOM     51  H   UNL     1     -40.952  43.418  26.273  1.00  0.00     0.082 H 
ATOM     52  H   UNL     1     -43.954  43.571  23.222  1.00  0.00     0.062 H 
ATOM     53  H   UNL     1     -41.783  44.339  24.144  1.00  0.00     0.064 H 
ENDBRANCH  35  38
ENDBRANCH  31  34
ENDBRANCH   6  31
TORSDOF 6
ENDMDL
MODEL 4
REMARK VINA RESULT:      -9.7      1.346      2.139
REMARK SMILES CC1CN(Cc2cc3ccc(CNC(=O)c4cc(=O)n5ccccc5n4)cc3[nH]2)C1
REMARK SMILES IDX 6 1 7 2 8 3 9 4 10 5 11 6 27 7 28 8 29 9 5 15 4 18 2 19 3 20
REMARK SMILES IDX 30 21 1 27 12 31 13 34 14 35 15 37 16 38 17 39 26 40 18 41
REMARK SMILES IDX 25 43 19 44 20 45 24 46 21 47 23 48 22 50
REMARK H PARENT 7 10 9 11 10 12 27 13 29 14 5 16 5 17 2 22 3 23 3 24 30 25
REMARK H PARENT 30 26 1 28 1 29 1 30 12 32 12 33 13 36 17 42 24 49 21 51 23 52
REMARK H PARENT 22 53
REMARK Flexibility Score: inf
ROOT
ATOM      1  C   UNL     1     -48.274  30.678  24.810  1.00  0.00     0.030 A 
ATOM      2  C   UNL     1     -47.101  31.349  24.524  1.00  0.00    -0.032 A 
ATOM      3  C   UNL     1     -47.160  32.631  25.134  1.00  0.00    -0.000 A 
ATOM      4  C   UNL     1     -46.277  33.723  25.203  1.00  0.00    -0.052 A 
ATOM      5  C   UNL     1     -46.661  34.871  25.908  1.00  0.00    -0.057 A 
ATOM      6  C   UNL     1     -47.911  34.953  26.537  1.00  0.00    -0.027 A 
ATOM      7  C   UNL     1     -48.798  33.864  26.480  1.00  0.00    -0.033 A 
ATOM      8  C   UNL     1     -48.396  32.725  25.770  1.00  0.00     0.046 A 
ATOM      9  N   UNL     1     -49.057  31.540  25.544  1.00  0.00    -0.357 N 
ATOM     10  H   UNL     1     -46.279  30.956  23.939  1.00  0.00     0.065 H 
ATOM     11  H   UNL     1     -45.306  33.681  24.720  1.00  0.00     0.063 H 
ATOM     12  H   UNL     1     -45.970  35.711  25.966  1.00  0.00     0.063 H 
ATOM     13  H   UNL     1     -49.767  33.902  26.968  1.00  0.00     0.065 H 
ATOM     14  H   UNL     1     -49.984  31.329  25.887  1.00  0.00     0.166 HD
ENDROOT
BRANCH   1  15
ATOM     15  C   UNL     1     -48.759  29.323  24.405  1.00  0.00     0.039 C 
ATOM     16  H   UNL     1     -47.900  28.639  24.375  1.00  0.00     0.050 H 
ATOM     17  H   UNL     1     -49.405  28.933  25.203  1.00  0.00     0.050 H 
BRANCH  15  18
ATOM     18  N   UNL     1     -49.474  29.190  23.136  1.00  0.00    -0.297 NA
ATOM     19  C   UNL     1     -49.433  29.664  21.095  1.00  0.00    -0.019 C 
ATOM     20  C   UNL     1     -48.692  28.652  22.008  1.00  0.00     0.002 C 
ATOM     21  C   UNL     1     -49.672  30.456  22.406  1.00  0.00     0.002 C 
ATOM     22  H   UNL     1     -48.772  30.179  20.386  1.00  0.00     0.033 H 
ATOM     23  H   UNL     1     -48.874  27.595  21.792  1.00  0.00     0.043 H 
ATOM     24  H   UNL     1     -47.609  28.819  22.018  1.00  0.00     0.043 H 
ATOM     25  H   UNL     1     -48.930  31.245  22.563  1.00  0.00     0.043 H 
ATOM     26  H   UNL     1     -50.668  30.896  22.521  1.00  0.00     0.043 H 
BRANCH  19  27
ATOM     27  C   UNL     1     -50.671  29.148  20.377  1.00  0.00    -0.060 C 
ATOM     28  H   UNL     1     -50.459  28.189  19.891  1.00  0.00     0.023 H 
ATOM     29  H   UNL     1     -51.022  29.846  19.609  1.00  0.00     0.023 H 
ATOM     30  H   UNL     1     -51.487  28.991  21.089  1.00  0.00     0.023 H 
ENDBRANCH  19  27
ENDBRANCH  15  18
ENDBRANCH   1  15
BRANCH   6  31
ATOM     31  C   UNL     1     -48.283  36.196  27.307  1.00  0.00     0.043 C 
ATOM     32  H   UNL     1     -48.512  35.947  28.349  1.00  0.00     0.054 H 
ATOM     33  H   UNL     1     -49.182  36.652  26.877  1.00  0.00     0.054 H 
BRANCH  31  34
ATOM     34  N   UNL     1     -47.191  37.136  27.321  1.00  0.00    -0.347 N 
ATOM     35  C   UNL     1     -46.490  37.443  28.460  1.00  0.00     0.270 C 
ATOM     36  H   UNL     1     -47.070  37.769  26.538  1.00  0.00     0.164 HD
ATOM     37  O   UNL     1     -46.616  36.862  29.532  1.00  0.00    -0.268 OA
BRANCH  35  38
ATOM     38  C   UNL     1     -45.541  38.599  28.256  1.00  0.00     0.136 A 
ATOM     39  C   UNL     1     -45.749  39.355  27.176  1.00  0.00     0.035 A 
ATOM     40  N   UNL     1     -44.534  38.801  29.174  1.00  0.00    -0.225 NA
ATOM     41  C   UNL     1     -44.847  40.487  26.934  1.00  0.00     0.258 A 
ATOM     42  H   UNL     1     -46.543  39.185  26.460  1.00  0.00     0.071 H 
ATOM     43  C   UNL     1     -43.737  39.802  28.954  1.00  0.00     0.140 A 
ATOM     44  O   UNL     1     -45.034  41.191  25.942  1.00  0.00    -0.269 OA
ATOM     45  N   UNL     1     -43.839  40.666  27.871  1.00  0.00    -0.268 N 
ATOM     46  C   UNL     1     -42.629  40.056  29.918  1.00  0.00    -0.019 A 
ATOM     47  C   UNL     1     -42.944  41.718  27.707  1.00  0.00     0.014 A 
ATOM     48  C   UNL     1     -41.792  41.081  29.719  1.00  0.00    -0.057 A 
ATOM     49  H   UNL     1     -42.541  39.387  30.765  1.00  0.00     0.066 H 
ATOM     50  C   UNL     1     -41.951  41.942  28.578  1.00  0.00    -0.045 A 
ATOM     51  H   UNL     1     -43.083  42.355  26.837  1.00  0.00     0.082 H 
ATOM     52  H   UNL     1     -40.979  41.283  30.410  1.00  0.00     0.062 H 
ATOM     53  H   UNL     1     -41.258  42.765  28.441  1.00  0.00     0.064 H 
ENDBRANCH  35  38
ENDBRANCH  31  34
ENDBRANCH   6  31
TORSDOF 6
ENDMDL
MODEL 5
REMARK VINA RESULT:      -9.4      2.743      3.975
REMARK SMILES CC1CN(Cc2cc3ccc(CNC(=O)c4cc(=O)n5ccccc5n4)cc3[nH]2)C1
REMARK SMILES IDX 6 1 7 2 8 3 9 4 10 5 11 6 27 7 28 8 29 9 5 15 4 18 2 19 3 20
REMARK SMILES IDX 30 21 1 27 12 31 13 34 14 35 15 37 16 38 17 39 26 40 18 41
REMARK SMILES IDX 25 43 19 44 20 45 24 46 21 47 23 48 22 50
REMARK H PARENT 7 10 9 11 10 12 27 13 29 14 5 16 5 17 2 22 3 23 3 24 30 25
REMARK H PARENT 30 26 1 28 1 29 1 30 12 32 12 33 13 36 17 42 24 49 21 51 23 52
REMARK H PARENT 22 53
REMARK Flexibility Score: inf
ROOT
ATOM      1  C   UNL     1     -47.075  32.414  24.913  1.00  0.00     0.030 A 
ATOM      2  C   UNL     1     -48.176  33.082  25.414  1.00  0.00    -0.032 A 
ATOM      3  C   UNL     1     -47.717  34.103  26.289  1.00  0.00    -0.000 A 
ATOM      4  C   UNL     1     -48.357  35.090  27.060  1.00  0.00    -0.052 A 
ATOM      5  C   UNL     1     -47.582  35.961  27.836  1.00  0.00    -0.057 A 
ATOM      6  C   UNL     1     -46.185  35.862  27.864  1.00  0.00    -0.027 A 
ATOM      7  C   UNL     1     -45.536  34.882  27.092  1.00  0.00    -0.033 A 
ATOM      8  C   UNL     1     -46.327  34.019  26.323  1.00  0.00     0.046 A 
ATOM      9  N   UNL     1     -45.965  32.981  25.498  1.00  0.00    -0.357 N 
ATOM     10  H   UNL     1     -49.207  32.863  25.170  1.00  0.00     0.065 H 
ATOM     11  H   UNL     1     -49.439  35.182  27.054  1.00  0.00     0.063 H 
ATOM     12  H   UNL     1     -48.082  36.730  28.424  1.00  0.00     0.063 H 
ATOM     13  H   UNL     1     -44.453  34.793  27.092  1.00  0.00     0.065 H 
ATOM     14  H   UNL     1     -45.012  32.688  25.333  1.00  0.00     0.166 HD
ENDROOT
BRANCH   1  15
ATOM     15  C   UNL     1     -46.967  31.247  23.984  1.00  0.00     0.039 C 
ATOM     16  H   UNL     1     -46.040  30.704  24.210  1.00  0.00     0.050 H 
ATOM     17  H   UNL     1     -47.774  30.541  24.218  1.00  0.00     0.050 H 
BRANCH  15  18
ATOM     18  N   UNL     1     -46.989  31.500  22.543  1.00  0.00    -0.297 NA
ATOM     19  C   UNL     1     -46.078  31.037  20.713  1.00  0.00    -0.019 C 
ATOM     20  C   UNL     1     -47.049  30.309  21.679  1.00  0.00     0.002 C 
ATOM     21  C   UNL     1     -45.683  31.865  21.963  1.00  0.00     0.002 C 
ATOM     22  H   UNL     1     -45.269  30.396  20.340  1.00  0.00     0.033 H 
ATOM     23  H   UNL     1     -48.043  30.089  21.277  1.00  0.00     0.043 H 
ATOM     24  H   UNL     1     -46.624  29.378  22.070  1.00  0.00     0.043 H 
ATOM     25  H   UNL     1     -44.788  31.477  22.461  1.00  0.00     0.043 H 
ATOM     26  H   UNL     1     -45.543  32.938  21.798  1.00  0.00     0.043 H 
BRANCH  19  27
ATOM     27  C   UNL     1     -46.714  31.804  19.564  1.00  0.00    -0.060 C 
ATOM     28  H   UNL     1     -46.152  32.722  19.360  1.00  0.00     0.023 H 
ATOM     29  H   UNL     1     -47.750  32.084  19.780  1.00  0.00     0.023 H 
ATOM     30  H   UNL     1     -46.710  31.199  18.652  1.00  0.00     0.023 H 
ENDBRANCH  19  27
ENDBRANCH  15  18
ENDBRANCH   1  15
BRANCH   6  31
ATOM     31  C   UNL     1     -45.380  36.831  28.694  1.00  0.00     0.043 C 
ATOM     32  H   UNL     1     -44.418  36.388  28.974  1.00  0.00     0.054 H 
ATOM     33  H   UNL     1     -45.911  37.066  29.623  1.00  0.00     0.054 H 
BRANCH  31  34
ATOM     34  N   UNL     1     -45.098  38.031  27.949  1.00  0.00    -0.347 N 
ATOM     35  C   UNL     1     -44.506  39.134  28.512  1.00  0.00     0.270 C 
ATOM     36  H   UNL     1     -45.546  38.176  27.050  1.00  0.00     0.164 HD
ATOM     37  O   UNL     1     -44.034  39.168  29.642  1.00  0.00    -0.268 OA
BRANCH  35  38
ATOM     38  C   UNL     1     -44.511  40.325  27.584  1.00  0.00     0.136 A 
ATOM     39  C   UNL     1     -45.696  40.691  27.092  1.00  0.00     0.035 A 
ATOM     40  N   UNL     1     -43.316  40.949  27.300  1.00  0.00    -0.225 NA
ATOM     41  C   UNL     1     -45.747  41.840  26.181  1.00  0.00     0.258 A 
ATOM     42  H   UNL     1     -46.629  40.191  27.322  1.00  0.00     0.071 H 
ATOM     43  C   UNL     1     -43.366  41.963  26.490  1.00  0.00     0.140 A 
ATOM     44  O   UNL     1     -46.837  42.186  25.726  1.00  0.00    -0.269 OA
ATOM     45  N   UNL     1     -44.531  42.448  25.908  1.00  0.00    -0.268 N 
ATOM     46  C   UNL     1     -42.097  42.667  26.150  1.00  0.00    -0.019 A 
ATOM     47  C   UNL     1     -44.499  43.543  25.050  1.00  0.00     0.014 A 
ATOM     48  C   UNL     1     -42.117  43.716  25.319  1.00  0.00    -0.057 A 
ATOM     49  H   UNL     1     -41.184  42.296  26.598  1.00  0.00     0.066 H 
ATOM     50  C   UNL     1     -43.356  44.172  24.749  1.00  0.00    -0.045 A 
ATOM     51  H   UNL     1     -45.448  43.869  24.630  1.00  0.00     0.082 H 
ATOM     52  H   UNL     1     -41.203  44.242  25.060  1.00  0.00     0.062 H 
ATOM     53  H   UNL     1     -43.343  45.024  24.079  1.00  0.00     0.064 H 
ENDBRANCH  35  38
ENDBRANCH  31  34
ENDBRANCH   6  31
TORSDOF 6
ENDMDL
MODEL 6
REMARK VINA RESULT:      -9.3      1.910      2.894
REMARK SMILES CC1CN(Cc2cc3ccc(CNC(=O)c4cc(=O)n5ccccc5n4)cc3[nH]2)C1
REMARK SMILES IDX 6 1 7 2 8 3 9 4 10 5 11 6 27 7 28 8 29 9 5 15 4 18 2 19 3 20
REMARK SMILES IDX 30 21 1 27 12 31 13 34 14 35 15 37 16 38 17 39 26 40 18 41
REMARK SMILES IDX 25 43 19 44 20 45 24 46 21 47 23 48 22 50
REMARK H PARENT 7 10 9 11 10 12 27 13 29 14 5 16 5 17 2 22 3 23 3 24 30 25
REMARK H PARENT 30 26 1 28 1 29 1 30 12 32 12 33 13 36 17 42 24 49 21 51 23 52
REMARK H PARENT 22 53
REMARK Flexibility Score: inf
ROOT
ATOM      1  C   UNL     1     -48.302  32.340  25.344  1.00  0.00     0.030 A 
ATOM      2  C   UNL     1     -46.992  32.778  25.364  1.00  0.00    -0.032 A 
ATOM      3  C   UNL     1     -46.950  34.030  26.036  1.00  0.00    -0.000 A 
ATOM      4  C   UNL     1     -45.921  34.927  26.369  1.00  0.00    -0.052 A 
ATOM      5  C   UNL     1     -46.236  36.108  27.054  1.00  0.00    -0.057 A 
ATOM      6  C   UNL     1     -47.558  36.413  27.405  1.00  0.00    -0.027 A 
ATOM      7  C   UNL     1     -48.594  35.518  27.082  1.00  0.00    -0.033 A 
ATOM      8  C   UNL     1     -48.259  34.344  26.396  1.00  0.00     0.046 A 
ATOM      9  N   UNL     1     -49.058  33.317  25.952  1.00  0.00    -0.357 N 
ATOM     10  H   UNL     1     -46.146  32.249  24.943  1.00  0.00     0.065 H 
ATOM     11  H   UNL     1     -44.890  34.710  26.104  1.00  0.00     0.063 H 
ATOM     12  H   UNL     1     -45.433  36.795  27.317  1.00  0.00     0.063 H 
ATOM     13  H   UNL     1     -49.624  35.731  27.352  1.00  0.00     0.065 H 
ATOM     14  H   UNL     1     -50.061  33.280  26.072  1.00  0.00     0.166 HD
ENDROOT
BRANCH   1  15
ATOM     15  C   UNL     1     -48.924  31.116  24.751  1.00  0.00     0.039 C 
ATOM     16  H   UNL     1     -49.811  30.853  25.342  1.00  0.00     0.050 H 
ATOM     17  H   UNL     1     -49.311  31.372  23.756  1.00  0.00     0.050 H 
BRANCH  15  18
ATOM     18  N   UNL     1     -48.105  29.910  24.624  1.00  0.00    -0.297 NA
ATOM     19  C   UNL     1     -47.979  28.017  23.734  1.00  0.00    -0.019 C 
ATOM     20  C   UNL     1     -47.799  29.479  23.249  1.00  0.00     0.002 C 
ATOM     21  C   UNL     1     -48.829  28.648  24.867  1.00  0.00     0.002 C 
ATOM     22  H   UNL     1     -48.564  27.396  23.044  1.00  0.00     0.033 H 
ATOM     23  H   UNL     1     -46.795  29.744  22.903  1.00  0.00     0.043 H 
ATOM     24  H   UNL     1     -48.514  29.746  22.463  1.00  0.00     0.043 H 
ATOM     25  H   UNL     1     -49.902  28.636  24.648  1.00  0.00     0.043 H 
ATOM     26  H   UNL     1     -48.680  28.224  25.866  1.00  0.00     0.043 H 
BRANCH  19  27
ATOM     27  C   UNL     1     -46.717  27.283  24.160  1.00  0.00    -0.060 C 
ATOM     28  H   UNL     1     -46.212  26.854  23.288  1.00  0.00     0.023 H 
ATOM     29  H   UNL     1     -46.931  26.469  24.861  1.00  0.00     0.023 H 
ATOM     30  H   UNL     1     -46.020  27.973  24.647  1.00  0.00     0.023 H 
ENDBRANCH  19  27
ENDBRANCH  15  18
ENDBRANCH   1  15
BRANCH   6  31
ATOM     31  C   UNL     1     -47.860  37.683  28.162  1.00  0.00     0.043 C 
ATOM     32  H   UNL     1     -47.924  37.481  29.236  1.00  0.00     0.054 H 
ATOM     33  H   UNL     1     -48.828  38.088  27.849  1.00  0.00     0.054 H 
BRANCH  31  34
ATOM     34  N   UNL     1     -46.813  38.654  27.969  1.00  0.00    -0.347 N 
ATOM     35  C   UNL     1     -46.927  39.708  27.098  1.00  0.00     0.270 C 
ATOM     36  H   UNL     1     -45.875  38.446  28.297  1.00  0.00     0.164 HD
ATOM     37  O   UNL     1     -47.958  40.014  26.510  1.00  0.00    -0.268 OA
BRANCH  35  38
ATOM     38  C   UNL     1     -45.627  40.454  26.925  1.00  0.00     0.136 A 
ATOM     39  C   UNL     1     -44.704  40.268  27.871  1.00  0.00     0.035 A 
ATOM     40  N   UNL     1     -45.472  41.271  25.827  1.00  0.00    -0.225 NA
ATOM     41  C   UNL     1     -43.426  40.978  27.746  1.00  0.00     0.258 A 
ATOM     42  H   UNL     1     -44.838  39.624  28.731  1.00  0.00     0.071 H 
ATOM     43  C   UNL     1     -44.341  41.900  25.723  1.00  0.00     0.140 A 
ATOM     44  O   UNL     1     -42.568  40.808  28.612  1.00  0.00    -0.269 OA
ATOM     45  N   UNL     1     -43.297  41.797  26.634  1.00  0.00    -0.268 N 
ATOM     46  C   UNL     1     -44.130  42.799  24.553  1.00  0.00    -0.019 A 
ATOM     47  C   UNL     1     -42.114  42.505  26.450  1.00  0.00     0.014 A 
ATOM     48  C   UNL     1     -42.974  43.460  24.418  1.00  0.00    -0.057 A 
ATOM     49  H   UNL     1     -44.938  42.887  23.838  1.00  0.00     0.066 H 
ATOM     50  C   UNL     1     -41.930  43.310  25.396  1.00  0.00    -0.045 A 
ATOM     51  H   UNL     1     -41.338  42.377  27.202  1.00  0.00     0.082 H 
ATOM     52  H   UNL     1     -42.801  44.120  23.573  1.00  0.00     0.062 H 
ATOM     53  H   UNL     1     -41.003  43.858  25.262  1.00  0.00     0.064 H 
ENDBRANCH  35  38
ENDBRANCH  31  34
ENDBRANCH   6  31
TORSDOF 6
ENDMDL
MODEL 7
REMARK VINA RESULT:      -9.2      3.009     11.337
REMARK SMILES CC1CN(Cc2cc3ccc(CNC(=O)c4cc(=O)n5ccccc5n4)cc3[nH]2)C1
REMARK SMILES IDX 6 1 7 2 8 3 9 4 10 5 11 6 27 7 28 8 29 9 5 15 4 18 2 19 3 20
REMARK SMILES IDX 30 21 1 27 12 31 13 34 14 35 15 37 16 38 17 39 26 40 18 41
REMARK SMILES IDX 25 43 19 44 20 45 24 46 21 47 23 48 22 50
REMARK H PARENT 7 10 9 11 10 12 27 13 29 14 5 16 5 17 2 22 3 23 3 24 30 25
REMARK H PARENT 30 26 1 28 1 29 1 30 12 32 12 33 13 36 17 42 24 49 21 51 23 52
REMARK H PARENT 22 53
REMARK Flexibility Score: inf
ROOT
ATOM      1  C   UNL     1     -46.700  37.289  28.273  1.00  0.00     0.030 A 
ATOM      2  C   UNL     1     -46.479  36.100  28.939  1.00  0.00    -0.032 A 
ATOM      3  C   UNL     1     -46.414  35.055  27.977  1.00  0.00    -0.000 A 
ATOM      4  C   UNL     1     -46.199  33.668  28.053  1.00  0.00    -0.052 A 
ATOM      5  C   UNL     1     -46.199  32.910  26.875  1.00  0.00    -0.057 A 
ATOM      6  C   UNL     1     -46.417  33.507  25.627  1.00  0.00    -0.027 A 
ATOM      7  C   UNL     1     -46.626  34.895  25.540  1.00  0.00    -0.033 A 
ATOM      8  C   UNL     1     -46.623  35.636  26.729  1.00  0.00     0.046 A 
ATOM      9  N   UNL     1     -46.811  36.983  26.936  1.00  0.00    -0.357 N 
ATOM     10  H   UNL     1     -46.369  35.990  30.010  1.00  0.00     0.065 H 
ATOM     11  H   UNL     1     -46.031  33.186  29.011  1.00  0.00     0.063 H 
ATOM     12  H   UNL     1     -46.023  31.836  26.939  1.00  0.00     0.063 H 
ATOM     13  H   UNL     1     -46.788  35.380  24.582  1.00  0.00     0.065 H 
ATOM     14  H   UNL     1     -46.990  37.654  26.202  1.00  0.00     0.166 HD
ENDROOT
BRANCH   1  15
ATOM     15  C   UNL     1     -46.882  38.685  28.780  1.00  0.00     0.039 C 
ATOM     16  H   UNL     1     -47.856  39.057  28.437  1.00  0.00     0.050 H 
ATOM     17  H   UNL     1     -46.961  38.649  29.874  1.00  0.00     0.050 H 
BRANCH  15  18
ATOM     18  N   UNL     1     -45.878  39.689  28.429  1.00  0.00    -0.297 NA
ATOM     19  C   UNL     1     -44.195  40.081  27.242  1.00  0.00    -0.019 C 
ATOM     20  C   UNL     1     -45.723  39.973  26.992  1.00  0.00     0.002 C 
ATOM     21  C   UNL     1     -44.483  39.213  28.494  1.00  0.00     0.002 C 
ATOM     22  H   UNL     1     -43.590  39.568  26.484  1.00  0.00     0.033 H 
ATOM     23  H   UNL     1     -46.214  40.890  26.654  1.00  0.00     0.043 H 
ATOM     24  H   UNL     1     -45.972  39.171  26.288  1.00  0.00     0.043 H 
ATOM     25  H   UNL     1     -44.310  38.146  28.317  1.00  0.00     0.043 H 
ATOM     26  H   UNL     1     -43.947  39.499  29.404  1.00  0.00     0.043 H 
BRANCH  19  27
ATOM     27  C   UNL     1     -43.647  41.477  27.495  1.00  0.00    -0.060 C 
ATOM     28  H   UNL     1     -43.713  42.083  26.585  1.00  0.00     0.023 H 
ATOM     29  H   UNL     1     -42.598  41.456  27.811  1.00  0.00     0.023 H 
ATOM     30  H   UNL     1     -44.226  41.979  28.277  1.00  0.00     0.023 H 
ENDBRANCH  19  27
ENDBRANCH  15  18
ENDBRANCH   1  15
BRANCH   6  31
ATOM     31  C   UNL     1     -46.388  32.664  24.376  1.00  0.00     0.043 C 
ATOM     32  H   UNL     1     -45.356  32.509  24.043  1.00  0.00     0.054 H 
ATOM     33  H   UNL     1     -46.918  33.174  23.564  1.00  0.00     0.054 H 
BRANCH  31  34
ATOM     34  N   UNL     1     -46.959  31.365  24.622  1.00  0.00    -0.347 N 
ATOM     35  C   UNL     1     -47.550  30.614  23.636  1.00  0.00     0.270 C 
ATOM     36  H   UNL     1     -47.149  31.077  25.576  1.00  0.00     0.164 HD
ATOM     37  O   UNL     1     -47.530  30.894  22.443  1.00  0.00    -0.268 OA
BRANCH  35  38
ATOM     38  C   UNL     1     -48.251  29.395  24.186  1.00  0.00     0.136 A 
ATOM     39  C   UNL     1     -49.583  29.387  24.102  1.00  0.00     0.035 A 
ATOM     40  N   UNL     1     -47.492  28.385  24.735  1.00  0.00    -0.225 NA
ATOM     41  C   UNL     1     -50.306  28.223  24.629  1.00  0.00     0.258 A 
ATOM     42  H   UNL     1     -50.168  30.187  23.669  1.00  0.00     0.071 H 
ATOM     43  C   UNL     1     -48.136  27.360  25.203  1.00  0.00     0.140 A 
ATOM     44  O   UNL     1     -51.534  28.206  24.552  1.00  0.00    -0.269 OA
ATOM     45  N   UNL     1     -49.519  27.223  25.180  1.00  0.00    -0.268 N 
ATOM     46  C   UNL     1     -47.358  26.244  25.811  1.00  0.00    -0.019 A 
ATOM     47  C   UNL     1     -50.134  26.090  25.703  1.00  0.00     0.014 A 
ATOM     48  C   UNL     1     -47.994  25.174  26.301  1.00  0.00    -0.057 A 
ATOM     49  H   UNL     1     -46.279  26.342  25.834  1.00  0.00     0.066 H 
ATOM     50  C   UNL     1     -49.429  25.090  26.247  1.00  0.00    -0.045 A 
ATOM     51  H   UNL     1     -51.220  26.049  25.651  1.00  0.00     0.082 H 
ATOM     52  H   UNL     1     -47.444  24.351  26.748  1.00  0.00     0.062 H 
ATOM     53  H   UNL     1     -49.919  24.211  26.651  1.00  0.00     0.064 H 
ENDBRANCH  35  38
ENDBRANCH  31  34
ENDBRANCH   6  31
TORSDOF 6
ENDMDL
