MODEL 1
REMARK VINA RESULT:     -10.5      0.000      0.000
REMARK SMILES C[C@H]1C[C@H](CNCc2cc3ccc(CNC(=O)c4cc(=O)n5ccccc5n4)cc3[nH]2)C1
REMARK SMILES IDX 7 1 6 4 5 6 4 9 2 10 32 11 3 12 1 19 8 23 9 24 31 25 10 26
REMARK SMILES IDX 30 28 11 30 29 31 12 32 13 34 14 37 15 40 16 41 17 43 18 44
REMARK SMILES IDX 19 45 28 46 20 47 27 49 21 50 22 51 26 52 23 53 25 54 24 56
REMARK H PARENT 7 2 7 3 6 5 5 7 5 8 2 13 32 14 32 15 3 16 3 17 4 18 1 20 1 21
REMARK H PARENT 1 22 9 27 31 29 11 33 29 35 12 36 14 38 14 39 15 42 19 48
REMARK H PARENT 26 55 23 57 25 58 24 59
REMARK Flexibility Score: inf
ROOT
ATOM      1  C   UNL     1     -48.460  29.263  24.067  1.00  0.00     0.036 C 
ATOM      2  H   UNL     1     -48.298  29.123  22.994  1.00  0.00     0.049 H 
ATOM      3  H   UNL     1     -47.805  28.532  24.555  1.00  0.00     0.049 H 
ENDROOT
BRANCH   1   4
ATOM      4  N   UNL     1     -49.833  28.956  24.450  1.00  0.00    -0.311 NA
ATOM      5  H   UNL     1     -50.450  29.413  23.779  1.00  0.00     0.123 HD
BRANCH   4   6
ATOM      6  C   UNL     1     -50.166  27.530  24.497  1.00  0.00    -0.002 C 
ATOM      7  H   UNL     1     -49.634  26.952  23.734  1.00  0.00     0.043 H 
ATOM      8  H   UNL     1     -51.230  27.460  24.238  1.00  0.00     0.043 H 
BRANCH   6   9
ATOM      9  C   UNL     1     -49.989  26.936  25.897  1.00  0.00    -0.028 C 
ATOM     10  C   UNL     1     -48.204  25.727  26.017  1.00  0.00    -0.044 C 
ATOM     11  C   UNL     1     -48.613  27.099  26.603  1.00  0.00    -0.047 C 
ATOM     12  C   UNL     1     -49.712  25.405  25.911  1.00  0.00    -0.047 C 
ATOM     13  H   UNL     1     -47.732  25.824  25.030  1.00  0.00     0.030 H 
ATOM     14  H   UNL     1     -48.690  27.118  27.697  1.00  0.00     0.027 H 
ATOM     15  H   UNL     1     -47.984  27.934  26.288  1.00  0.00     0.027 H 
ATOM     16  H   UNL     1     -50.128  24.899  26.791  1.00  0.00     0.027 H 
ATOM     17  H   UNL     1     -50.011  24.846  25.019  1.00  0.00     0.027 H 
ATOM     18  H   UNL     1     -50.841  27.195  26.542  1.00  0.00     0.032 H 
BRANCH  10  19
ATOM     19  C   UNL     1     -47.379  24.827  26.915  1.00  0.00    -0.062 C 
ATOM     20  H   UNL     1     -46.423  24.582  26.441  1.00  0.00     0.023 H 
ATOM     21  H   UNL     1     -47.169  25.301  27.879  1.00  0.00     0.023 H 
ATOM     22  H   UNL     1     -47.908  23.888  27.108  1.00  0.00     0.023 H 
ENDBRANCH  10  19
ENDBRANCH   6   9
ENDBRANCH   4   6
ENDBRANCH   1   4
BRANCH   1  23
ATOM     23  C   UNL     1     -48.052  30.623  24.518  1.00  0.00     0.030 A 
ATOM     24  C   UNL     1     -46.932  31.376  24.222  1.00  0.00    -0.032 A 
ATOM     25  N   UNL     1     -48.833  31.378  25.360  1.00  0.00    -0.357 N 
ATOM     26  C   UNL     1     -47.032  32.612  24.918  1.00  0.00    -0.000 A 
ATOM     27  H   UNL     1     -46.121  31.069  23.574  1.00  0.00     0.065 H 
ATOM     28  C   UNL     1     -48.231  32.587  25.625  1.00  0.00     0.046 A 
ATOM     29  H   UNL     1     -49.723  31.090  25.742  1.00  0.00     0.166 HD
ATOM     30  C   UNL     1     -46.212  33.750  25.015  1.00  0.00    -0.052 A 
ATOM     31  C   UNL     1     -48.658  33.650  26.430  1.00  0.00    -0.033 A 
ATOM     32  C   UNL     1     -46.621  34.825  25.815  1.00  0.00    -0.057 A 
ATOM     33  H   UNL     1     -45.269  33.797  24.477  1.00  0.00     0.063 H 
ATOM     34  C   UNL     1     -47.835  34.788  26.512  1.00  0.00    -0.027 A 
ATOM     35  H   UNL     1     -49.595  33.599  26.976  1.00  0.00     0.065 H 
ATOM     36  H   UNL     1     -45.975  35.698  25.890  1.00  0.00     0.063 H 
BRANCH  34  37
ATOM     37  C   UNL     1     -48.241  35.940  27.393  1.00  0.00     0.043 C 
ATOM     38  H   UNL     1     -48.499  35.589  28.399  1.00  0.00     0.054 H 
ATOM     39  H   UNL     1     -49.134  36.441  26.996  1.00  0.00     0.054 H 
BRANCH  37  40
ATOM     40  N   UNL     1     -47.184  36.910  27.485  1.00  0.00    -0.347 N 
ATOM     41  C   UNL     1     -47.428  38.227  27.779  1.00  0.00     0.270 C 
ATOM     42  H   UNL     1     -46.246  36.674  27.177  1.00  0.00     0.164 HD
ATOM     43  O   UNL     1     -48.531  38.675  28.071  1.00  0.00    -0.268 OA
BRANCH  41  44
ATOM     44  C   UNL     1     -46.185  39.078  27.691  1.00  0.00     0.136 A 
ATOM     45  C   UNL     1     -46.042  39.811  26.585  1.00  0.00     0.035 A 
ATOM     46  N   UNL     1     -45.287  39.048  28.734  1.00  0.00    -0.225 NA
ATOM     47  C   UNL     1     -44.846  40.654  26.459  1.00  0.00     0.258 A 
ATOM     48  H   UNL     1     -46.754  39.826  25.770  1.00  0.00     0.071 H 
ATOM     49  C   UNL     1     -44.232  39.794  28.619  1.00  0.00     0.140 A 
ATOM     50  O   UNL     1     -44.706  41.334  25.444  1.00  0.00    -0.269 OA
ATOM     51  N   UNL     1     -43.959  40.606  27.524  1.00  0.00    -0.268 N 
ATOM     52  C   UNL     1     -43.233  39.793  29.726  1.00  0.00    -0.019 A 
ATOM     53  C   UNL     1     -42.802  41.377  27.477  1.00  0.00     0.014 A 
ATOM     54  C   UNL     1     -42.135  40.552  29.634  1.00  0.00    -0.057 A 
ATOM     55  H   UNL     1     -43.437  39.163  30.583  1.00  0.00     0.066 H 
ATOM     56  C   UNL     1     -41.909  41.372  28.474  1.00  0.00    -0.045 A 
ATOM     57  H   UNL     1     -42.651  41.988  26.591  1.00  0.00     0.082 H 
ATOM     58  H   UNL     1     -41.395  40.565  30.430  1.00  0.00     0.062 H 
ATOM     59  H   UNL     1     -41.010  41.977  28.427  1.00  0.00     0.064 H 
ENDBRANCH  41  44
ENDBRANCH  37  40
ENDBRANCH  34  37
ENDBRANCH   1  23
TORSDOF 8
ENDMDL
MODEL 2
REMARK VINA RESULT:      -9.5      2.016      3.598
REMARK SMILES C[C@H]1C[C@H](CNCc2cc3ccc(CNC(=O)c4cc(=O)n5ccccc5n4)cc3[nH]2)C1
REMARK SMILES IDX 7 1 6 4 5 6 4 9 2 10 32 11 3 12 1 19 8 23 9 24 31 25 10 26
REMARK SMILES IDX 30 28 11 30 29 31 12 32 13 34 14 37 15 40 16 41 17 43 18 44
REMARK SMILES IDX 19 45 28 46 20 47 27 49 21 50 22 51 26 52 23 53 25 54 24 56
REMARK H PARENT 7 2 7 3 6 5 5 7 5 8 2 13 32 14 32 15 3 16 3 17 4 18 1 20 1 21
REMARK H PARENT 1 22 9 27 31 29 11 33 29 35 12 36 14 38 14 39 15 42 19 48
REMARK H PARENT 26 55 23 57 25 58 24 59
REMARK Flexibility Score: inf
ROOT
ATOM      1  C   UNL     1     -46.097  32.057  24.595  1.00  0.00     0.036 C 
ATOM      2  H   UNL     1     -45.125  32.325  24.169  1.00  0.00     0.049 H 
ATOM      3  H   UNL     1     -45.901  31.190  25.237  1.00  0.00     0.049 H 
ENDROOT
BRANCH   1   4
ATOM      4  N   UNL     1     -47.042  31.644  23.564  1.00  0.00    -0.311 NA
ATOM      5  H   UNL     1     -46.864  32.214  22.737  1.00  0.00     0.123 HD
BRANCH   4   6
ATOM      6  C   UNL     1     -46.974  30.231  23.183  1.00  0.00    -0.002 C 
ATOM      7  H   UNL     1     -46.183  29.692  23.717  1.00  0.00     0.043 H 
ATOM      8  H   UNL     1     -46.683  30.217  22.125  1.00  0.00     0.043 H 
BRANCH   6   9
ATOM      9  C   UNL     1     -48.330  29.529  23.301  1.00  0.00    -0.028 C 
ATOM     10  C   UNL     1     -48.473  28.401  25.137  1.00  0.00    -0.044 C 
ATOM     11  C   UNL     1     -49.140  29.698  24.618  1.00  0.00    -0.047 C 
ATOM     12  C   UNL     1     -48.239  28.018  23.657  1.00  0.00    -0.047 C 
ATOM     13  H   UNL     1     -47.532  28.604  25.665  1.00  0.00     0.030 H 
ATOM     14  H   UNL     1     -50.224  29.621  24.469  1.00  0.00     0.027 H 
ATOM     15  H   UNL     1     -48.937  30.586  25.221  1.00  0.00     0.027 H 
ATOM     16  H   UNL     1     -49.044  27.420  23.213  1.00  0.00     0.027 H 
ATOM     17  H   UNL     1     -47.286  27.523  23.447  1.00  0.00     0.027 H 
ATOM     18  H   UNL     1     -48.934  29.693  22.396  1.00  0.00     0.032 H 
BRANCH  10  19
ATOM     19  C   UNL     1     -49.350  27.469  25.949  1.00  0.00    -0.062 C 
ATOM     20  H   UNL     1     -50.175  28.022  26.410  1.00  0.00     0.023 H 
ATOM     21  H   UNL     1     -49.779  26.675  25.329  1.00  0.00     0.023 H 
ATOM     22  H   UNL     1     -48.771  26.998  26.749  1.00  0.00     0.023 H 
ENDBRANCH  10  19
ENDBRANCH   6   9
ENDBRANCH   4   6
ENDBRANCH   1   4
BRANCH   1  23
ATOM     23  C   UNL     1     -46.650  33.146  25.447  1.00  0.00     0.030 A 
ATOM     24  C   UNL     1     -47.955  33.528  25.693  1.00  0.00    -0.032 A 
ATOM     25  N   UNL     1     -45.843  33.981  26.181  1.00  0.00    -0.357 N 
ATOM     26  C   UNL     1     -47.933  34.634  26.586  1.00  0.00    -0.000 A 
ATOM     27  H   UNL     1     -48.837  33.063  25.271  1.00  0.00     0.065 H 
ATOM     28  C   UNL     1     -46.597  34.899  26.875  1.00  0.00     0.046 A 
ATOM     29  H   UNL     1     -44.833  33.939  26.208  1.00  0.00     0.166 HD
ATOM     30  C   UNL     1     -48.926  35.437  27.175  1.00  0.00    -0.052 A 
ATOM     31  C   UNL     1     -46.199  35.934  27.731  1.00  0.00    -0.033 A 
ATOM     32  C   UNL     1     -48.548  36.477  28.034  1.00  0.00    -0.057 A 
ATOM     33  H   UNL     1     -49.976  35.256  26.966  1.00  0.00     0.063 H 
ATOM     34  C   UNL     1     -47.200  36.725  28.322  1.00  0.00    -0.027 A 
ATOM     35  H   UNL     1     -45.148  36.122  27.931  1.00  0.00     0.065 H 
ATOM     36  H   UNL     1     -49.324  37.098  28.478  1.00  0.00     0.063 H 
BRANCH  34  37
ATOM     37  C   UNL     1     -46.812  37.868  29.222  1.00  0.00     0.043 C 
ATOM     38  H   UNL     1     -46.343  37.498  30.142  1.00  0.00     0.054 H 
ATOM     39  H   UNL     1     -47.696  38.443  29.528  1.00  0.00     0.054 H 
BRANCH  37  40
ATOM     40  N   UNL     1     -45.904  38.760  28.553  1.00  0.00    -0.347 N 
ATOM     41  C   UNL     1     -44.681  39.085  29.080  1.00  0.00     0.270 C 
ATOM     42  H   UNL     1     -46.216  39.297  27.750  1.00  0.00     0.164 HD
ATOM     43  O   UNL     1     -44.218  38.589  30.101  1.00  0.00    -0.268 OA
BRANCH  41  44
ATOM     44  C   UNL     1     -43.963  40.135  28.269  1.00  0.00     0.136 A 
ATOM     45  C   UNL     1     -42.798  40.570  28.756  1.00  0.00     0.035 A 
ATOM     46  N   UNL     1     -44.538  40.576  27.099  1.00  0.00    -0.225 NA
ATOM     47  C   UNL     1     -42.066  41.592  27.998  1.00  0.00     0.258 A 
ATOM     48  H   UNL     1     -42.357  40.217  29.679  1.00  0.00     0.071 H 
ATOM     49  C   UNL     1     -43.887  41.479  26.432  1.00  0.00     0.140 A 
ATOM     50  O   UNL     1     -40.992  41.999  28.438  1.00  0.00    -0.269 OA
ATOM     51  N   UNL     1     -42.667  42.018  26.823  1.00  0.00    -0.268 N 
ATOM     52  C   UNL     1     -44.473  41.985  25.157  1.00  0.00    -0.019 A 
ATOM     53  C   UNL     1     -42.033  42.986  26.050  1.00  0.00     0.014 A 
ATOM     54  C   UNL     1     -43.825  42.917  24.449  1.00  0.00    -0.057 A 
ATOM     55  H   UNL     1     -45.424  41.571  24.845  1.00  0.00     0.066 H 
ATOM     56  C   UNL     1     -42.564  43.436  24.906  1.00  0.00    -0.045 A 
ATOM     57  H   UNL     1     -41.081  43.364  26.415  1.00  0.00     0.082 H 
ATOM     58  H   UNL     1     -44.236  43.299  23.518  1.00  0.00     0.062 H 
ATOM     59  H   UNL     1     -42.061  44.191  24.312  1.00  0.00     0.064 H 
ENDBRANCH  41  44
ENDBRANCH  37  40
ENDBRANCH  34  37
ENDBRANCH   1  23
TORSDOF 8
ENDMDL
MODEL 3
REMARK VINA RESULT:      -9.5      1.853      2.978
REMARK SMILES C[C@H]1C[C@H](CNCc2cc3ccc(CNC(=O)c4cc(=O)n5ccccc5n4)cc3[nH]2)C1
REMARK SMILES IDX 7 1 6 4 5 6 4 9 2 10 32 11 3 12 1 19 8 23 9 24 31 25 10 26
REMARK SMILES IDX 30 28 11 30 29 31 12 32 13 34 14 37 15 40 16 41 17 43 18 44
REMARK SMILES IDX 19 45 28 46 20 47 27 49 21 50 22 51 26 52 23 53 25 54 24 56
REMARK H PARENT 7 2 7 3 6 5 5 7 5 8 2 13 32 14 32 15 3 16 3 17 4 18 1 20 1 21
REMARK H PARENT 1 22 9 27 31 29 11 33 29 35 12 36 14 38 14 39 15 42 19 48
REMARK H PARENT 26 55 23 57 25 58 24 59
REMARK Flexibility Score: inf
ROOT
ATOM      1  C   UNL     1     -48.642  29.510  25.077  1.00  0.00     0.036 C 
ATOM      2  H   UNL     1     -48.859  28.976  26.007  1.00  0.00     0.049 H 
ATOM      3  H   UNL     1     -49.595  29.541  24.534  1.00  0.00     0.049 H 
ENDROOT
BRANCH   1   4
ATOM      4  N   UNL     1     -47.684  28.787  24.249  1.00  0.00    -0.311 NA
ATOM      5  H   UNL     1     -47.852  27.790  24.383  1.00  0.00     0.123 HD
BRANCH   4   6
ATOM      6  C   UNL     1     -47.743  29.084  22.816  1.00  0.00    -0.002 C 
ATOM      7  H   UNL     1     -47.033  28.483  22.236  1.00  0.00     0.043 H 
ATOM      8  H   UNL     1     -47.411  30.124  22.709  1.00  0.00     0.043 H 
BRANCH   6   9
ATOM      9  C   UNL     1     -49.167  28.991  22.259  1.00  0.00    -0.028 C 
ATOM     10  C   UNL     1     -49.413  30.249  20.521  1.00  0.00    -0.044 C 
ATOM     11  C   UNL     1     -49.351  28.718  20.739  1.00  0.00    -0.047 C 
ATOM     12  C   UNL     1     -49.842  30.368  22.002  1.00  0.00    -0.047 C 
ATOM     13  H   UNL     1     -48.419  30.681  20.343  1.00  0.00     0.030 H 
ATOM     14  H   UNL     1     -50.285  28.191  20.507  1.00  0.00     0.027 H 
ATOM     15  H   UNL     1     -48.534  28.217  20.216  1.00  0.00     0.027 H 
ATOM     16  H   UNL     1     -50.928  30.352  22.159  1.00  0.00     0.027 H 
ATOM     17  H   UNL     1     -49.429  31.225  22.542  1.00  0.00     0.027 H 
ATOM     18  H   UNL     1     -49.793  28.349  22.894  1.00  0.00     0.032 H 
BRANCH  10  19
ATOM     19  C   UNL     1     -50.403  30.745  19.486  1.00  0.00    -0.062 C 
ATOM     20  H   UNL     1     -50.828  31.706  19.791  1.00  0.00     0.023 H 
ATOM     21  H   UNL     1     -49.931  30.878  18.507  1.00  0.00     0.023 H 
ATOM     22  H   UNL     1     -51.226  30.034  19.370  1.00  0.00     0.023 H 
ENDBRANCH  10  19
ENDBRANCH   6   9
ENDBRANCH   4   6
ENDBRANCH   1   4
BRANCH   1  23
ATOM     23  C   UNL     1     -48.207  30.912  25.329  1.00  0.00     0.030 A 
ATOM     24  C   UNL     1     -47.043  31.573  24.988  1.00  0.00    -0.032 A 
ATOM     25  N   UNL     1     -49.005  31.817  25.987  1.00  0.00    -0.357 N 
ATOM     26  C   UNL     1     -47.133  32.908  25.469  1.00  0.00    -0.000 A 
ATOM     27  H   UNL     1     -46.208  31.140  24.451  1.00  0.00     0.065 H 
ATOM     28  C   UNL     1     -48.372  33.034  26.092  1.00  0.00     0.046 A 
ATOM     29  H   UNL     1     -49.927  31.622  26.353  1.00  0.00     0.166 HD
ATOM     30  C   UNL     1     -46.276  34.022  25.434  1.00  0.00    -0.052 A 
ATOM     31  C   UNL     1     -48.802  34.227  26.687  1.00  0.00    -0.033 A 
ATOM     32  C   UNL     1     -46.687  35.224  26.024  1.00  0.00    -0.057 A 
ATOM     33  H   UNL     1     -45.302  33.952  24.958  1.00  0.00     0.063 H 
ATOM     34  C   UNL     1     -47.940  35.337  26.639  1.00  0.00    -0.027 A 
ATOM     35  H   UNL     1     -49.771  34.293  27.174  1.00  0.00     0.065 H 
ATOM     36  H   UNL     1     -46.012  36.078  25.998  1.00  0.00     0.063 H 
BRANCH  34  37
ATOM     37  C   UNL     1     -48.351  36.629  27.295  1.00  0.00     0.043 C 
ATOM     38  H   UNL     1     -48.665  36.456  28.332  1.00  0.00     0.054 H 
ATOM     39  H   UNL     1     -49.209  37.077  26.777  1.00  0.00     0.054 H 
BRANCH  37  40
ATOM     40  N   UNL     1     -47.270  37.577  27.278  1.00  0.00    -0.347 N 
ATOM     41  C   UNL     1     -46.497  37.819  28.385  1.00  0.00     0.270 C 
ATOM     42  H   UNL     1     -47.156  38.206  26.491  1.00  0.00     0.164 HD
ATOM     43  O   UNL     1     -46.593  37.203  29.440  1.00  0.00    -0.268 OA
BRANCH  41  44
ATOM     44  C   UNL     1     -45.514  38.943  28.167  1.00  0.00     0.136 A 
ATOM     45  C   UNL     1     -45.725  39.720  27.102  1.00  0.00     0.035 A 
ATOM     46  N   UNL     1     -44.477  39.099  29.059  1.00  0.00    -0.225 NA
ATOM     47  C   UNL     1     -44.792  40.826  26.853  1.00  0.00     0.258 A 
ATOM     48  H   UNL     1     -46.543  39.587  26.406  1.00  0.00     0.071 H 
ATOM     49  C   UNL     1     -43.655  40.077  28.835  1.00  0.00     0.140 A 
ATOM     50  O   UNL     1     -44.978  41.548  25.874  1.00  0.00    -0.269 OA
ATOM     51  N   UNL     1     -43.757  40.961  27.767  1.00  0.00    -0.268 N 
ATOM     52  C   UNL     1     -42.518  40.284  29.777  1.00  0.00    -0.019 A 
ATOM     53  C   UNL     1     -42.832  41.987  27.596  1.00  0.00     0.014 A 
ATOM     54  C   UNL     1     -41.654  41.285  29.571  1.00  0.00    -0.057 A 
ATOM     55  H   UNL     1     -42.430  39.600  30.612  1.00  0.00     0.066 H 
ATOM     56  C   UNL     1     -41.813  42.166  28.445  1.00  0.00    -0.045 A 
ATOM     57  H   UNL     1     -42.972  42.640  26.739  1.00  0.00     0.082 H 
ATOM     58  H   UNL     1     -40.819  41.450  30.245  1.00  0.00     0.062 H 
ATOM     59  H   UNL     1     -41.098  42.969  28.303  1.00  0.00     0.064 H 
ENDBRANCH  41  44
ENDBRANCH  37  40
ENDBRANCH  34  37
ENDBRANCH   1  23
TORSDOF 8
ENDMDL
MODEL 4
REMARK VINA RESULT:      -9.3      2.982     11.657
REMARK SMILES C[C@H]1C[C@H](CNCc2cc3ccc(CNC(=O)c4cc(=O)n5ccccc5n4)cc3[nH]2)C1
REMARK SMILES IDX 7 1 6 4 5 6 4 9 2 10 32 11 3 12 1 19 8 23 9 24 31 25 10 26
REMARK SMILES IDX 30 28 11 30 29 31 12 32 13 34 14 37 15 40 16 41 17 43 18 44
REMARK SMILES IDX 19 45 28 46 20 47 27 49 21 50 22 51 26 52 23 53 25 54 24 56
REMARK H PARENT 7 2 7 3 6 5 5 7 5 8 2 13 32 14 32 15 3 16 3 17 4 18 1 20 1 21
REMARK H PARENT 1 22 9 27 31 29 11 33 29 35 12 36 14 38 14 39 15 42 19 48
REMARK H PARENT 26 55 23 57 25 58 24 59
REMARK Flexibility Score: inf
ROOT
ATOM      1  C   UNL     1     -46.614  39.235  28.899  1.00  0.00     0.036 C 
ATOM      2  H   UNL     1     -47.393  39.391  29.651  1.00  0.00     0.049 H 
ATOM      3  H   UNL     1     -45.670  39.234  29.457  1.00  0.00     0.049 H 
ENDROOT
BRANCH   1   4
ATOM      4  N   UNL     1     -46.562  40.334  27.941  1.00  0.00    -0.311 NA
ATOM      5  H   UNL     1     -45.916  41.032  28.308  1.00  0.00     0.123 HD
BRANCH   4   6
ATOM      6  C   UNL     1     -46.135  39.967  26.588  1.00  0.00    -0.002 C 
ATOM      7  H   UNL     1     -46.779  40.403  25.816  1.00  0.00     0.043 H 
ATOM      8  H   UNL     1     -46.273  38.881  26.512  1.00  0.00     0.043 H 
BRANCH   6   9
ATOM      9  C   UNL     1     -44.654  40.266  26.342  1.00  0.00    -0.028 C 
ATOM     10  C   UNL     1     -44.201  42.344  26.717  1.00  0.00    -0.044 C 
ATOM     11  C   UNL     1     -43.858  41.022  27.444  1.00  0.00    -0.047 C 
ATOM     12  C   UNL     1     -44.395  41.502  25.434  1.00  0.00    -0.047 C 
ATOM     13  H   UNL     1     -45.145  42.778  27.073  1.00  0.00     0.030 H 
ATOM     14  H   UNL     1     -42.790  40.774  27.450  1.00  0.00     0.027 H 
ATOM     15  H   UNL     1     -44.232  40.956  28.468  1.00  0.00     0.027 H 
ATOM     16  H   UNL     1     -43.492  41.404  24.819  1.00  0.00     0.027 H 
ATOM     17  H   UNL     1     -45.220  41.816  24.788  1.00  0.00     0.027 H 
ATOM     18  H   UNL     1     -44.133  39.375  25.965  1.00  0.00     0.032 H 
BRANCH  10  19
ATOM     19  C   UNL     1     -43.112  43.398  26.679  1.00  0.00    -0.062 C 
ATOM     20  H   UNL     1     -43.519  44.359  26.351  1.00  0.00     0.023 H 
ATOM     21  H   UNL     1     -42.654  43.541  27.663  1.00  0.00     0.023 H 
ATOM     22  H   UNL     1     -42.323  43.109  25.977  1.00  0.00     0.023 H 
ENDBRANCH  10  19
ENDBRANCH   6   9
ENDBRANCH   4   6
ENDBRANCH   1   4
BRANCH   1  23
ATOM     23  C   UNL     1     -46.752  37.917  28.220  1.00  0.00     0.030 A 
ATOM     24  C   UNL     1     -45.797  37.057  27.710  1.00  0.00    -0.032 A 
ATOM     25  N   UNL     1     -47.975  37.327  28.011  1.00  0.00    -0.357 N 
ATOM     26  C   UNL     1     -46.464  35.927  27.164  1.00  0.00    -0.000 A 
ATOM     27  H   UNL     1     -44.728  37.226  27.725  1.00  0.00     0.065 H 
ATOM     28  C   UNL     1     -47.828  36.122  27.364  1.00  0.00     0.046 A 
ATOM     29  H   UNL     1     -48.865  37.721  28.284  1.00  0.00     0.166 HD
ATOM     30  C   UNL     1     -46.035  34.755  26.516  1.00  0.00    -0.052 A 
ATOM     31  C   UNL     1     -48.794  35.198  26.946  1.00  0.00    -0.033 A 
ATOM     32  C   UNL     1     -46.985  33.819  26.089  1.00  0.00    -0.057 A 
ATOM     33  H   UNL     1     -44.977  34.578  26.343  1.00  0.00     0.063 H 
ATOM     34  C   UNL     1     -48.353  34.025  26.306  1.00  0.00    -0.027 A 
ATOM     35  H   UNL     1     -49.852  35.381  27.108  1.00  0.00     0.065 H 
ATOM     36  H   UNL     1     -46.642  32.919  25.581  1.00  0.00     0.063 H 
BRANCH  34  37
ATOM     37  C   UNL     1     -49.361  33.021  25.812  1.00  0.00     0.043 C 
ATOM     38  H   UNL     1     -49.776  33.330  24.845  1.00  0.00     0.054 H 
ATOM     39  H   UNL     1     -50.207  32.941  26.507  1.00  0.00     0.054 H 
BRANCH  37  40
ATOM     40  N   UNL     1     -48.763  31.720  25.678  1.00  0.00    -0.347 N 
ATOM     41  C   UNL     1     -48.905  30.968  24.540  1.00  0.00     0.270 C 
ATOM     42  H   UNL     1     -48.355  31.261  26.485  1.00  0.00     0.164 HD
ATOM     43  O   UNL     1     -49.464  31.358  23.522  1.00  0.00    -0.268 OA
BRANCH  41  44
ATOM     44  C   UNL     1     -48.303  29.591  24.681  1.00  0.00     0.136 A 
ATOM     45  C   UNL     1     -47.272  29.308  23.881  1.00  0.00     0.035 A 
ATOM     46  N   UNL     1     -48.842  28.723  25.603  1.00  0.00    -0.225 NA
ATOM     47  C   UNL     1     -46.657  27.979  23.985  1.00  0.00     0.258 A 
ATOM     48  H   UNL     1     -46.858  29.998  23.158  1.00  0.00     0.071 H 
ATOM     49  C   UNL     1     -48.295  27.550  25.692  1.00  0.00     0.140 A 
ATOM     50  O   UNL     1     -45.705  27.709  23.253  1.00  0.00    -0.269 OA
ATOM     51  N   UNL     1     -47.217  27.125  24.923  1.00  0.00    -0.268 N 
ATOM     52  C   UNL     1     -48.846  26.578  26.679  1.00  0.00    -0.019 A 
ATOM     53  C   UNL     1     -46.688  25.848  25.078  1.00  0.00     0.014 A 
ATOM     54  C   UNL     1     -48.303  25.360  26.792  1.00  0.00    -0.057 A 
ATOM     55  H   UNL     1     -49.686  26.900  27.282  1.00  0.00     0.066 H 
ATOM     56  C   UNL     1     -47.188  24.980  25.967  1.00  0.00    -0.045 A 
ATOM     57  H   UNL     1     -45.846  25.582  24.444  1.00  0.00     0.082 H 
ATOM     58  H   UNL     1     -48.691  24.639  27.505  1.00  0.00     0.062 H 
ATOM     59  H   UNL     1     -46.768  23.986  26.079  1.00  0.00     0.064 H 
ENDBRANCH  41  44
ENDBRANCH  37  40
ENDBRANCH  34  37
ENDBRANCH   1  23
TORSDOF 8
ENDMDL
MODEL 5
REMARK VINA RESULT:      -9.3      2.300      3.431
REMARK SMILES C[C@H]1C[C@H](CNCc2cc3ccc(CNC(=O)c4cc(=O)n5ccccc5n4)cc3[nH]2)C1
REMARK SMILES IDX 7 1 6 4 5 6 4 9 2 10 32 11 3 12 1 19 8 23 9 24 31 25 10 26
REMARK SMILES IDX 30 28 11 30 29 31 12 32 13 34 14 37 15 40 16 41 17 43 18 44
REMARK SMILES IDX 19 45 28 46 20 47 27 49 21 50 22 51 26 52 23 53 25 54 24 56
REMARK H PARENT 7 2 7 3 6 5 5 7 5 8 2 13 32 14 32 15 3 16 3 17 4 18 1 20 1 21
REMARK H PARENT 1 22 9 27 31 29 11 33 29 35 12 36 14 38 14 39 15 42 19 48
REMARK H PARENT 26 55 23 57 25 58 24 59
REMARK Flexibility Score: inf
ROOT
ATOM      1  C   UNL     1     -46.893  29.977  23.141  1.00  0.00     0.036 C 
ATOM      2  H   UNL     1     -46.483  30.300  22.179  1.00  0.00     0.049 H 
ATOM      3  H   UNL     1     -46.131  29.316  23.573  1.00  0.00     0.049 H 
ENDROOT
BRANCH   1   4
ATOM      4  N   UNL     1     -48.113  29.196  22.972  1.00  0.00    -0.311 NA
ATOM      5  H   UNL     1     -48.344  29.197  21.979  1.00  0.00     0.123 HD
BRANCH   4   6
ATOM      6  C   UNL     1     -48.039  27.807  23.435  1.00  0.00    -0.002 C 
ATOM      7  H   UNL     1     -47.615  27.139  22.677  1.00  0.00     0.043 H 
ATOM      8  H   UNL     1     -49.076  27.480  23.575  1.00  0.00     0.043 H 
BRANCH   6   9
ATOM      9  C   UNL     1     -47.323  27.679  24.782  1.00  0.00    -0.028 C 
ATOM     10  C   UNL     1     -47.601  25.714  25.635  1.00  0.00    -0.044 C 
ATOM     11  C   UNL     1     -46.392  26.455  25.014  1.00  0.00    -0.047 C 
ATOM     12  C   UNL     1     -48.210  27.106  25.924  1.00  0.00    -0.047 C 
ATOM     13  H   UNL     1     -48.177  25.160  24.881  1.00  0.00     0.030 H 
ATOM     14  H   UNL     1     -45.578  26.661  25.719  1.00  0.00     0.027 H 
ATOM     15  H   UNL     1     -45.969  25.973  24.130  1.00  0.00     0.027 H 
ATOM     16  H   UNL     1     -47.959  27.512  26.912  1.00  0.00     0.027 H 
ATOM     17  H   UNL     1     -49.293  27.180  25.786  1.00  0.00     0.027 H 
ATOM     18  H   UNL     1     -46.864  28.635  25.072  1.00  0.00     0.032 H 
BRANCH  10  19
ATOM     19  C   UNL     1     -47.312  24.837  26.836  1.00  0.00    -0.062 C 
ATOM     20  H   UNL     1     -48.155  24.168  27.035  1.00  0.00     0.023 H 
ATOM     21  H   UNL     1     -46.420  24.222  26.682  1.00  0.00     0.023 H 
ATOM     22  H   UNL     1     -47.151  25.449  27.729  1.00  0.00     0.023 H 
ENDBRANCH  10  19
ENDBRANCH   6   9
ENDBRANCH   4   6
ENDBRANCH   1   4
BRANCH   1  23
ATOM     23  C   UNL     1     -47.094  31.121  24.073  1.00  0.00     0.030 A 
ATOM     24  C   UNL     1     -48.250  31.679  24.585  1.00  0.00    -0.032 A 
ATOM     25  N   UNL     1     -46.040  31.824  24.604  1.00  0.00    -0.357 N 
ATOM     26  C   UNL     1     -47.884  32.759  25.434  1.00  0.00    -0.000 A 
ATOM     27  H   UNL     1     -49.258  31.348  24.367  1.00  0.00     0.065 H 
ATOM     28  C   UNL     1     -46.493  32.829  25.428  1.00  0.00     0.046 A 
ATOM     29  H   UNL     1     -45.064  31.640  24.416  1.00  0.00     0.166 HD
ATOM     30  C   UNL     1     -48.605  33.685  26.207  1.00  0.00    -0.052 A 
ATOM     31  C   UNL     1     -45.780  33.786  26.161  1.00  0.00    -0.033 A 
ATOM     32  C   UNL     1     -47.911  34.650  26.948  1.00  0.00    -0.057 A 
ATOM     33  H   UNL     1     -49.691  33.656  26.229  1.00  0.00     0.063 H 
ATOM     34  C   UNL     1     -46.512  34.701  26.938  1.00  0.00    -0.027 A 
ATOM     35  H   UNL     1     -44.695  33.822  26.130  1.00  0.00     0.065 H 
ATOM     36  H   UNL     1     -48.480  35.367  27.537  1.00  0.00     0.063 H 
BRANCH  34  37
ATOM     37  C   UNL     1     -45.785  35.767  27.716  1.00  0.00     0.043 C 
ATOM     38  H   UNL     1     -44.704  35.708  27.541  1.00  0.00     0.054 H 
ATOM     39  H   UNL     1     -45.936  35.636  28.796  1.00  0.00     0.054 H 
BRANCH  37  40
ATOM     40  N   UNL     1     -46.254  37.076  27.351  1.00  0.00    -0.347 N 
ATOM     41  C   UNL     1     -45.717  38.218  27.888  1.00  0.00     0.270 C 
ATOM     42  H   UNL     1     -47.105  37.179  26.807  1.00  0.00     0.164 HD
ATOM     43  O   UNL     1     -44.750  38.236  28.641  1.00  0.00    -0.268 OA
BRANCH  41  44
ATOM     44  C   UNL     1     -46.455  39.461  27.456  1.00  0.00     0.136 A 
ATOM     45  C   UNL     1     -45.753  40.360  26.762  1.00  0.00     0.035 A 
ATOM     46  N   UNL     1     -47.781  39.596  27.799  1.00  0.00    -0.225 NA
ATOM     47  C   UNL     1     -46.433  41.584  26.322  1.00  0.00     0.258 A 
ATOM     48  H   UNL     1     -44.710  40.243  26.499  1.00  0.00     0.071 H 
ATOM     49  C   UNL     1     -48.379  40.680  27.409  1.00  0.00     0.140 A 
ATOM     50  O   UNL     1     -45.795  42.417  25.680  1.00  0.00    -0.269 OA
ATOM     51  N   UNL     1     -47.769  41.695  26.679  1.00  0.00    -0.268 N 
ATOM     52  C   UNL     1     -49.816  40.868  27.757  1.00  0.00    -0.019 A 
ATOM     53  C   UNL     1     -48.481  42.828  26.299  1.00  0.00     0.014 A 
ATOM     54  C   UNL     1     -50.458  41.976  27.368  1.00  0.00    -0.057 A 
ATOM     55  H   UNL     1     -50.299  40.083  28.325  1.00  0.00     0.066 H 
ATOM     56  C   UNL     1     -49.771  42.990  26.615  1.00  0.00    -0.045 A 
ATOM     57  H   UNL     1     -47.941  43.582  25.731  1.00  0.00     0.082 H 
ATOM     58  H   UNL     1     -51.505  42.130  27.612  1.00  0.00     0.062 H 
ATOM     59  H   UNL     1     -50.316  43.878  26.313  1.00  0.00     0.064 H 
ENDBRANCH  41  44
ENDBRANCH  37  40
ENDBRANCH  34  37
ENDBRANCH   1  23
TORSDOF 8
ENDMDL
MODEL 6
REMARK VINA RESULT:      -9.3      3.016     11.980
REMARK SMILES C[C@H]1C[C@H](CNCc2cc3ccc(CNC(=O)c4cc(=O)n5ccccc5n4)cc3[nH]2)C1
REMARK SMILES IDX 7 1 6 4 5 6 4 9 2 10 32 11 3 12 1 19 8 23 9 24 31 25 10 26
REMARK SMILES IDX 30 28 11 30 29 31 12 32 13 34 14 37 15 40 16 41 17 43 18 44
REMARK SMILES IDX 19 45 28 46 20 47 27 49 21 50 22 51 26 52 23 53 25 54 24 56
REMARK H PARENT 7 2 7 3 6 5 5 7 5 8 2 13 32 14 32 15 3 16 3 17 4 18 1 20 1 21
REMARK H PARENT 1 22 9 27 31 29 11 33 29 35 12 36 14 38 14 39 15 42 19 48
REMARK H PARENT 26 55 23 57 25 58 24 59
REMARK Flexibility Score: inf
ROOT
ATOM      1  C   UNL     1     -45.301  37.526  29.811  1.00  0.00     0.036 C 
ATOM      2  H   UNL     1     -45.745  37.452  30.809  1.00  0.00     0.049 H 
ATOM      3  H   UNL     1     -44.258  37.210  29.935  1.00  0.00     0.049 H 
ENDROOT
BRANCH   1   4
ATOM      4  N   UNL     1     -45.292  38.902  29.326  1.00  0.00    -0.311 NA
ATOM      5  H   UNL     1     -45.633  39.497  30.081  1.00  0.00     0.123 HD
BRANCH   4   6
ATOM      6  C   UNL     1     -43.988  39.404  28.887  1.00  0.00    -0.002 C 
ATOM      7  H   UNL     1     -43.415  38.649  28.337  1.00  0.00     0.043 H 
ATOM      8  H   UNL     1     -43.417  39.603  29.802  1.00  0.00     0.043 H 
BRANCH   6   9
ATOM      9  C   UNL     1     -44.100  40.720  28.112  1.00  0.00    -0.028 C 
ATOM     10  C   UNL     1     -42.235  41.224  27.147  1.00  0.00    -0.044 C 
ATOM     11  C   UNL     1     -43.617  40.753  26.634  1.00  0.00    -0.047 C 
ATOM     12  C   UNL     1     -42.961  41.736  28.413  1.00  0.00    -0.047 C 
ATOM     13  H   UNL     1     -41.567  40.380  27.367  1.00  0.00     0.030 H 
ATOM     14  H   UNL     1     -44.149  41.494  26.025  1.00  0.00     0.027 H 
ATOM     15  H   UNL     1     -43.602  39.807  26.090  1.00  0.00     0.027 H 
ATOM     16  H   UNL     1     -43.289  42.782  28.353  1.00  0.00     0.027 H 
ATOM     17  H   UNL     1     -42.418  41.599  29.352  1.00  0.00     0.027 H 
ATOM     18  H   UNL     1     -45.091  41.173  28.256  1.00  0.00     0.032 H 
BRANCH  10  19
ATOM     19  C   UNL     1     -41.520  42.263  26.307  1.00  0.00    -0.062 C 
ATOM     20  H   UNL     1     -40.499  42.415  26.671  1.00  0.00     0.023 H 
ATOM     21  H   UNL     1     -41.465  41.965  25.256  1.00  0.00     0.023 H 
ATOM     22  H   UNL     1     -42.042  43.224  26.359  1.00  0.00     0.023 H 
ENDBRANCH  10  19
ENDBRANCH   6   9
ENDBRANCH   4   6
ENDBRANCH   1   4
BRANCH   1  23
ATOM     23  C   UNL     1     -45.953  36.603  28.841  1.00  0.00     0.030 A 
ATOM     24  C   UNL     1     -47.283  36.281  28.652  1.00  0.00    -0.032 A 
ATOM     25  N   UNL     1     -45.232  35.896  27.909  1.00  0.00    -0.357 N 
ATOM     26  C   UNL     1     -47.365  35.342  27.588  1.00  0.00    -0.000 A 
ATOM     27  H   UNL     1     -48.113  36.678  29.223  1.00  0.00     0.065 H 
ATOM     28  C   UNL     1     -46.066  35.117  27.141  1.00  0.00     0.046 A 
ATOM     29  H   UNL     1     -44.227  35.932  27.800  1.00  0.00     0.166 HD
ATOM     30  C   UNL     1     -48.425  34.661  26.962  1.00  0.00    -0.052 A 
ATOM     31  C   UNL     1     -45.768  34.238  26.092  1.00  0.00    -0.033 A 
ATOM     32  C   UNL     1     -48.148  33.777  25.912  1.00  0.00    -0.057 A 
ATOM     33  H   UNL     1     -49.448  34.814  27.291  1.00  0.00     0.063 H 
ATOM     34  C   UNL     1     -46.836  33.568  25.468  1.00  0.00    -0.027 A 
ATOM     35  H   UNL     1     -44.743  34.076  25.770  1.00  0.00     0.065 H 
ATOM     36  H   UNL     1     -48.974  33.249  25.440  1.00  0.00     0.063 H 
BRANCH  34  37
ATOM     37  C   UNL     1     -46.555  32.590  24.358  1.00  0.00     0.043 C 
ATOM     38  H   UNL     1     -45.477  32.498  24.183  1.00  0.00     0.054 H 
ATOM     39  H   UNL     1     -46.999  32.931  23.413  1.00  0.00     0.054 H 
BRANCH  37  40
ATOM     40  N   UNL     1     -47.098  31.295  24.669  1.00  0.00    -0.347 N 
ATOM     41  C   UNL     1     -47.554  30.443  23.695  1.00  0.00     0.270 C 
ATOM     42  H   UNL     1     -47.304  31.046  25.631  1.00  0.00     0.164 HD
ATOM     43  O   UNL     1     -47.463  30.661  22.493  1.00  0.00    -0.268 OA
BRANCH  41  44
ATOM     44  C   UNL     1     -48.196  29.204  24.267  1.00  0.00     0.136 A 
ATOM     45  C   UNL     1     -49.529  29.148  24.220  1.00  0.00     0.035 A 
ATOM     46  N   UNL     1     -47.388  28.223  24.797  1.00  0.00    -0.225 NA
ATOM     47  C   UNL     1     -50.195  27.959  24.766  1.00  0.00     0.258 A 
ATOM     48  H   UNL     1     -50.155  29.927  23.803  1.00  0.00     0.071 H 
ATOM     49  C   UNL     1     -47.981  27.174  25.278  1.00  0.00     0.140 A 
ATOM     50  O   UNL     1     -51.423  27.898  24.727  1.00  0.00    -0.269 OA
ATOM     51  N   UNL     1     -49.358  26.986  25.292  1.00  0.00    -0.268 N 
ATOM     52  C   UNL     1     -47.144  26.086  25.860  1.00  0.00    -0.019 A 
ATOM     53  C   UNL     1     -49.916  25.830  25.828  1.00  0.00     0.014 A 
ATOM     54  C   UNL     1     -47.728  24.992  26.364  1.00  0.00    -0.057 A 
ATOM     55  H   UNL     1     -46.070  26.223  25.854  1.00  0.00     0.066 H 
ATOM     56  C   UNL     1     -49.159  24.856  26.350  1.00  0.00    -0.045 A 
ATOM     57  H   UNL     1     -51.000  25.749  25.807  1.00  0.00     0.082 H 
ATOM     58  H   UNL     1     -47.135  24.189  26.793  1.00  0.00     0.062 H 
ATOM     59  H   UNL     1     -49.605  23.959  26.765  1.00  0.00     0.064 H 
ENDBRANCH  41  44
ENDBRANCH  37  40
ENDBRANCH  34  37
ENDBRANCH   1  23
TORSDOF 8
ENDMDL
MODEL 7
REMARK VINA RESULT:      -9.1      2.715     11.617
REMARK SMILES C[C@H]1C[C@H](CNCc2cc3ccc(CNC(=O)c4cc(=O)n5ccccc5n4)cc3[nH]2)C1
REMARK SMILES IDX 7 1 6 4 5 6 4 9 2 10 32 11 3 12 1 19 8 23 9 24 31 25 10 26
REMARK SMILES IDX 30 28 11 30 29 31 12 32 13 34 14 37 15 40 16 41 17 43 18 44
REMARK SMILES IDX 19 45 28 46 20 47 27 49 21 50 22 51 26 52 23 53 25 54 24 56
REMARK H PARENT 7 2 7 3 6 5 5 7 5 8 2 13 32 14 32 15 3 16 3 17 4 18 1 20 1 21
REMARK H PARENT 1 22 9 27 31 29 11 33 29 35 12 36 14 38 14 39 15 42 19 48
REMARK H PARENT 26 55 23 57 25 58 24 59
REMARK Flexibility Score: inf
ROOT
ATOM      1  C   UNL     1     -42.628  41.586  28.410  1.00  0.00     0.036 C 
ATOM      2  H   UNL     1     -42.644  41.851  29.472  1.00  0.00     0.049 H 
ATOM      3  H   UNL     1     -41.663  41.092  28.250  1.00  0.00     0.049 H 
ENDROOT
BRANCH   1   4
ATOM      4  N   UNL     1     -42.668  42.769  27.559  1.00  0.00    -0.311 NA
ATOM      5  H   UNL     1     -42.293  43.550  28.098  1.00  0.00     0.123 HD
BRANCH   4   6
ATOM      6  C   UNL     1     -41.918  42.664  26.304  1.00  0.00    -0.002 C 
ATOM      7  H   UNL     1     -41.930  41.648  25.896  1.00  0.00     0.043 H 
ATOM      8  H   UNL     1     -40.871  42.871  26.560  1.00  0.00     0.043 H 
BRANCH   6   9
ATOM      9  C   UNL     1     -42.359  43.706  25.272  1.00  0.00    -0.028 C 
ATOM     10  C   UNL     1     -44.507  43.729  25.050  1.00  0.00    -0.044 C 
ATOM     11  C   UNL     1     -43.480  44.710  25.665  1.00  0.00    -0.047 C 
ATOM     12  C   UNL     1     -43.347  43.163  24.200  1.00  0.00    -0.047 C 
ATOM     13  H   UNL     1     -44.874  43.001  25.786  1.00  0.00     0.030 H 
ATOM     14  H   UNL     1     -43.401  45.670  25.140  1.00  0.00     0.027 H 
ATOM     15  H   UNL     1     -43.623  44.911  26.729  1.00  0.00     0.027 H 
ATOM     16  H   UNL     1     -43.228  43.644  23.221  1.00  0.00     0.027 H 
ATOM     17  H   UNL     1     -43.361  42.079  24.052  1.00  0.00     0.027 H 
ATOM     18  H   UNL     1     -41.487  44.188  24.807  1.00  0.00     0.032 H 
BRANCH  10  19
ATOM     19  C   UNL     1     -45.664  44.350  24.293  1.00  0.00    -0.062 C 
ATOM     20  H   UNL     1     -45.331  44.716  23.316  1.00  0.00     0.023 H 
ATOM     21  H   UNL     1     -46.472  43.630  24.128  1.00  0.00     0.023 H 
ATOM     22  H   UNL     1     -46.076  45.198  24.848  1.00  0.00     0.023 H 
ENDBRANCH  10  19
ENDBRANCH   6   9
ENDBRANCH   4   6
ENDBRANCH   1   4
BRANCH   1  23
ATOM     23  C   UNL     1     -43.706  40.619  28.062  1.00  0.00     0.030 A 
ATOM     24  C   UNL     1     -44.482  40.499  26.924  1.00  0.00    -0.032 A 
ATOM     25  N   UNL     1     -44.088  39.612  28.916  1.00  0.00    -0.357 N 
ATOM     26  C   UNL     1     -45.367  39.402  27.105  1.00  0.00    -0.000 A 
ATOM     27  H   UNL     1     -44.422  41.138  26.053  1.00  0.00     0.065 H 
ATOM     28  C   UNL     1     -45.101  38.864  28.361  1.00  0.00     0.046 A 
ATOM     29  H   UNL     1     -43.691  39.442  29.830  1.00  0.00     0.166 HD
ATOM     30  C   UNL     1     -46.372  38.815  26.316  1.00  0.00    -0.052 A 
ATOM     31  C   UNL     1     -45.793  37.760  28.875  1.00  0.00    -0.033 A 
ATOM     32  C   UNL     1     -47.077  37.710  26.812  1.00  0.00    -0.057 A 
ATOM     33  H   UNL     1     -46.604  39.214  25.333  1.00  0.00     0.063 H 
ATOM     34  C   UNL     1     -46.791  37.176  28.074  1.00  0.00    -0.027 A 
ATOM     35  H   UNL     1     -45.570  37.368  29.862  1.00  0.00     0.065 H 
ATOM     36  H   UNL     1     -47.859  37.268  26.196  1.00  0.00     0.063 H 
BRANCH  34  37
ATOM     37  C   UNL     1     -47.581  36.008  28.602  1.00  0.00     0.043 C 
ATOM     38  H   UNL     1     -48.592  36.320  28.891  1.00  0.00     0.054 H 
ATOM     39  H   UNL     1     -47.111  35.591  29.502  1.00  0.00     0.054 H 
BRANCH  37  40
ATOM     40  N   UNL     1     -47.670  34.964  27.617  1.00  0.00    -0.347 N 
ATOM     41  C   UNL     1     -46.784  33.918  27.582  1.00  0.00     0.270 C 
ATOM     42  H   UNL     1     -48.296  35.063  26.825  1.00  0.00     0.164 HD
ATOM     43  O   UNL     1     -45.909  33.729  28.419  1.00  0.00    -0.268 OA
BRANCH  41  44
ATOM     44  C   UNL     1     -46.995  33.022  26.387  1.00  0.00     0.136 A 
ATOM     45  C   UNL     1     -46.329  33.345  25.276  1.00  0.00     0.035 A 
ATOM     46  N   UNL     1     -47.847  31.947  26.507  1.00  0.00    -0.225 NA
ATOM     47  C   UNL     1     -46.506  32.499  24.089  1.00  0.00     0.258 A 
ATOM     48  H   UNL     1     -45.663  34.194  25.193  1.00  0.00     0.071 H 
ATOM     49  C   UNL     1     -48.000  31.203  25.455  1.00  0.00     0.140 A 
ATOM     50  O   UNL     1     -45.895  32.788  23.061  1.00  0.00    -0.269 OA
ATOM     51  N   UNL     1     -47.367  31.423  24.237  1.00  0.00    -0.268 N 
ATOM     52  C   UNL     1     -48.913  30.026  25.540  1.00  0.00    -0.019 A 
ATOM     53  C   UNL     1     -47.586  30.576  23.154  1.00  0.00     0.014 A 
ATOM     54  C   UNL     1     -49.090  29.241  24.471  1.00  0.00    -0.057 A 
ATOM     55  H   UNL     1     -49.410  29.847  26.485  1.00  0.00     0.066 H 
ATOM     56  C   UNL     1     -48.407  29.522  23.237  1.00  0.00    -0.045 A 
ATOM     57  H   UNL     1     -47.060  30.808  22.232  1.00  0.00     0.082 H 
ATOM     58  H   UNL     1     -49.751  28.380  24.514  1.00  0.00     0.062 H 
ATOM     59  H   UNL     1     -48.570  28.868  22.387  1.00  0.00     0.064 H 
ENDBRANCH  41  44
ENDBRANCH  37  40
ENDBRANCH  34  37
ENDBRANCH   1  23
TORSDOF 8
ENDMDL
