MODEL 1
REMARK VINA RESULT:     -11.2      0.000      0.000
REMARK SMILES O=C(NCc1ccc2cc(CN[C@@H]3[C@@H]4CCC[C@@H]43)[nH]c2c1)c1cc(=O)n2ccccc2n1
REMARK SMILES IDX 5 1 6 2 7 3 8 4 9 5 10 6 19 7 20 8 21 9 4 15 3 18 1 19 2 20
REMARK SMILES IDX 22 22 23 23 32 24 24 25 31 27 25 28 26 29 30 30 27 31 29 32
REMARK SMILES IDX 28 34 11 38 12 41 13 43 18 44 14 45 17 47 15 49 16 51
REMARK H PARENT 6 10 7 11 9 12 19 13 21 14 4 16 4 17 3 21 23 26 30 33 27 35
REMARK H PARENT 29 36 28 37 11 39 11 40 12 42 13 46 18 48 14 50 17 52 17 53
REMARK H PARENT 15 54 15 55 16 56 16 57
REMARK Flexibility Score: inf
ROOT
ATOM      1  C   UNL     1     -48.141  34.755  26.620  1.00  0.00    -0.027 A 
ATOM      2  C   UNL     1     -46.841  34.895  26.111  1.00  0.00    -0.057 A 
ATOM      3  C   UNL     1     -46.270  33.909  25.299  1.00  0.00    -0.052 A 
ATOM      4  C   UNL     1     -47.014  32.757  24.985  1.00  0.00    -0.000 A 
ATOM      5  C   UNL     1     -46.756  31.593  24.212  1.00  0.00    -0.032 A 
ATOM      6  C   UNL     1     -47.876  30.786  24.263  1.00  0.00     0.030 A 
ATOM      7  N   UNL     1     -48.805  31.436  25.039  1.00  0.00    -0.357 N 
ATOM      8  C   UNL     1     -48.306  32.635  25.494  1.00  0.00     0.046 A 
ATOM      9  C   UNL     1     -48.897  33.613  26.305  1.00  0.00    -0.033 A 
ATOM     10  H   UNL     1     -46.262  35.788  26.344  1.00  0.00     0.063 H 
ATOM     11  H   UNL     1     -45.263  34.036  24.913  1.00  0.00     0.063 H 
ATOM     12  H   UNL     1     -45.848  31.369  23.669  1.00  0.00     0.065 H 
ATOM     13  H   UNL     1     -49.732  31.090  25.241  1.00  0.00     0.166 HD
ATOM     14  H   UNL     1     -49.908  33.489  26.678  1.00  0.00     0.065 H 
ENDROOT
BRANCH   1  15
ATOM     15  C   UNL     1     -48.735  35.850  27.470  1.00  0.00     0.043 C 
ATOM     16  H   UNL     1     -49.606  36.290  26.972  1.00  0.00     0.054 H 
ATOM     17  H   UNL     1     -49.082  35.439  28.425  1.00  0.00     0.054 H 
BRANCH  15  18
ATOM     18  N   UNL     1     -47.781  36.908  27.680  1.00  0.00    -0.347 N 
ATOM     19  O   UNL     1     -46.941  36.136  29.679  1.00  0.00    -0.268 OA
ATOM     20  C   UNL     1     -46.908  36.922  28.740  1.00  0.00     0.270 C 
ATOM     21  H   UNL     1     -47.570  37.544  26.920  1.00  0.00     0.164 HD
BRANCH  20  22
ATOM     22  C   UNL     1     -45.877  38.019  28.618  1.00  0.00     0.136 A 
ATOM     23  C   UNL     1     -44.987  38.110  29.608  1.00  0.00     0.035 A 
ATOM     24  N   UNL     1     -45.909  38.839  27.512  1.00  0.00    -0.225 NA
ATOM     25  C   UNL     1     -43.961  39.157  29.528  1.00  0.00     0.258 A 
ATOM     26  H   UNL     1     -44.971  37.458  30.472  1.00  0.00     0.071 H 
ATOM     27  C   UNL     1     -44.996  39.760  27.443  1.00  0.00     0.140 A 
ATOM     28  O   UNL     1     -43.142  39.253  30.440  1.00  0.00    -0.269 OA
ATOM     29  N   UNL     1     -44.011  39.965  28.402  1.00  0.00    -0.268 N 
ATOM     30  C   UNL     1     -44.987  40.668  26.260  1.00  0.00    -0.019 A 
ATOM     31  C   UNL     1     -43.068  40.977  28.253  1.00  0.00     0.014 A 
ATOM     32  C   UNL     1     -44.059  41.627  26.161  1.00  0.00    -0.057 A 
ATOM     33  H   UNL     1     -45.749  40.513  25.506  1.00  0.00     0.066 H 
ATOM     34  C   UNL     1     -43.066  41.790  27.188  1.00  0.00    -0.045 A 
ATOM     35  H   UNL     1     -42.327  41.082  29.042  1.00  0.00     0.082 H 
ATOM     36  H   UNL     1     -44.035  42.296  25.308  1.00  0.00     0.062 H 
ATOM     37  H   UNL     1     -42.325  42.575  27.083  1.00  0.00     0.064 H 
ENDBRANCH  20  22
ENDBRANCH  15  18
ENDBRANCH   1  15
BRANCH   6  38
ATOM     38  C   UNL     1     -48.150  29.457  23.651  1.00  0.00     0.036 C 
ATOM     39  H   UNL     1     -49.236  29.345  23.549  1.00  0.00     0.049 H 
ATOM     40  H   UNL     1     -47.738  29.394  22.636  1.00  0.00     0.049 H 
BRANCH  38  41
ATOM     41  N   UNL     1     -47.652  28.361  24.480  1.00  0.00    -0.308 NA
ATOM     42  H   UNL     1     -47.023  28.750  25.178  1.00  0.00     0.123 HD
BRANCH  41  43
ATOM     43  C   UNL     1     -48.709  27.558  25.103  1.00  0.00     0.013 C 
ATOM     44  C   UNL     1     -48.493  26.105  25.441  1.00  0.00    -0.021 C 
ATOM     45  C   UNL     1     -48.641  27.117  26.542  1.00  0.00    -0.021 C 
ATOM     46  H   UNL     1     -49.703  27.777  24.712  1.00  0.00     0.047 H 
ATOM     47  C   UNL     1     -47.147  25.454  25.584  1.00  0.00    -0.049 C 
ATOM     48  H   UNL     1     -49.299  25.403  25.272  1.00  0.00     0.032 H 
ATOM     49  C   UNL     1     -47.380  27.096  27.361  1.00  0.00    -0.049 C 
ATOM     50  H   UNL     1     -49.546  27.099  27.134  1.00  0.00     0.032 H 
ATOM     51  C   UNL     1     -46.743  25.743  27.032  1.00  0.00    -0.053 C 
ATOM     52  H   UNL     1     -46.421  25.873  24.881  1.00  0.00     0.027 H 
ATOM     53  H   UNL     1     -47.201  24.376  25.404  1.00  0.00     0.027 H 
ATOM     54  H   UNL     1     -47.594  27.175  28.431  1.00  0.00     0.027 H 
ATOM     55  H   UNL     1     -46.713  27.919  27.089  1.00  0.00     0.027 H 
ATOM     56  H   UNL     1     -47.171  24.973  27.687  1.00  0.00     0.027 H 
ATOM     57  H   UNL     1     -45.659  25.741  27.176  1.00  0.00     0.027 H 
ENDBRANCH  41  43
ENDBRANCH  38  41
ENDBRANCH   6  38
TORSDOF 6
ENDMDL
MODEL 2
REMARK VINA RESULT:     -11.2      1.823      2.448
REMARK SMILES O=C(NCc1ccc2cc(CN[C@@H]3[C@@H]4CCC[C@@H]43)[nH]c2c1)c1cc(=O)n2ccccc2n1
REMARK SMILES IDX 5 1 6 2 7 3 8 4 9 5 10 6 19 7 20 8 21 9 4 15 3 18 1 19 2 20
REMARK SMILES IDX 22 22 23 23 32 24 24 25 31 27 25 28 26 29 30 30 27 31 29 32
REMARK SMILES IDX 28 34 11 38 12 41 13 43 18 44 14 45 17 47 15 49 16 51
REMARK H PARENT 6 10 7 11 9 12 19 13 21 14 4 16 4 17 3 21 23 26 30 33 27 35
REMARK H PARENT 29 36 28 37 11 39 11 40 12 42 13 46 18 48 14 50 17 52 17 53
REMARK H PARENT 15 54 15 55 16 56 16 57
REMARK Flexibility Score: inf
ROOT
ATOM      1  C   UNL     1     -47.736  35.748  26.816  1.00  0.00    -0.027 A 
ATOM      2  C   UNL     1     -46.480  35.474  26.257  1.00  0.00    -0.057 A 
ATOM      3  C   UNL     1     -46.197  34.227  25.687  1.00  0.00    -0.052 A 
ATOM      4  C   UNL     1     -47.192  33.233  25.672  1.00  0.00    -0.000 A 
ATOM      5  C   UNL     1     -47.250  31.898  25.189  1.00  0.00    -0.032 A 
ATOM      6  C   UNL     1     -48.509  31.397  25.456  1.00  0.00     0.030 A 
ATOM      7  N   UNL     1     -49.215  32.398  26.079  1.00  0.00    -0.357 N 
ATOM      8  C   UNL     1     -48.437  33.524  26.226  1.00  0.00     0.046 A 
ATOM      9  C   UNL     1     -48.741  34.766  26.798  1.00  0.00    -0.033 A 
ATOM     10  H   UNL     1     -45.707  36.241  26.258  1.00  0.00     0.063 H 
ATOM     11  H   UNL     1     -45.218  34.033  25.257  1.00  0.00     0.063 H 
ATOM     12  H   UNL     1     -46.455  31.358  24.692  1.00  0.00     0.065 H 
ATOM     13  H   UNL     1     -50.177  32.325  26.380  1.00  0.00     0.166 HD
ATOM     14  H   UNL     1     -49.724  34.961  27.214  1.00  0.00     0.065 H 
ENDROOT
BRANCH   1  15
ATOM     15  C   UNL     1     -48.015  37.111  27.398  1.00  0.00     0.043 C 
ATOM     16  H   UNL     1     -48.790  37.624  26.817  1.00  0.00     0.054 H 
ATOM     17  H   UNL     1     -48.390  37.014  28.423  1.00  0.00     0.054 H 
BRANCH  15  18
ATOM     18  N   UNL     1     -46.835  37.936  27.358  1.00  0.00    -0.347 N 
ATOM     19  O   UNL     1     -47.793  39.747  26.310  1.00  0.00    -0.268 OA
ATOM     20  C   UNL     1     -46.842  39.222  26.878  1.00  0.00     0.270 C 
ATOM     21  H   UNL     1     -46.024  37.668  27.904  1.00  0.00     0.164 HD
BRANCH  20  22
ATOM     22  C   UNL     1     -45.539  39.938  27.138  1.00  0.00     0.136 A 
ATOM     23  C   UNL     1     -45.162  40.836  26.225  1.00  0.00     0.035 A 
ATOM     24  N   UNL     1     -44.834  39.637  28.283  1.00  0.00    -0.225 NA
ATOM     25  C   UNL     1     -43.904  41.562  26.442  1.00  0.00     0.258 A 
ATOM     26  H   UNL     1     -45.725  41.065  25.331  1.00  0.00     0.071 H 
ATOM     27  C   UNL     1     -43.726  40.287  28.473  1.00  0.00     0.140 A 
ATOM     28  O   UNL     1     -43.545  42.385  25.601  1.00  0.00    -0.269 OA
ATOM     29  N   UNL     1     -43.217  41.246  27.604  1.00  0.00    -0.268 N 
ATOM     30  C   UNL     1     -42.932  39.999  29.701  1.00  0.00    -0.019 A 
ATOM     31  C   UNL     1     -42.019  41.897  27.880  1.00  0.00     0.014 A 
ATOM     32  C   UNL     1     -41.785  40.652  29.924  1.00  0.00    -0.057 A 
ATOM     33  H   UNL     1     -43.322  39.256  30.385  1.00  0.00     0.066 H 
ATOM     34  C   UNL     1     -41.310  41.633  28.986  1.00  0.00    -0.045 A 
ATOM     35  H   UNL     1     -41.680  42.635  27.157  1.00  0.00     0.082 H 
ATOM     36  H   UNL     1     -41.194  40.458  30.813  1.00  0.00     0.062 H 
ATOM     37  H   UNL     1     -40.377  42.148  29.191  1.00  0.00     0.064 H 
ENDBRANCH  20  22
ENDBRANCH  15  18
ENDBRANCH   1  15
BRANCH   6  38
ATOM     38  C   UNL     1     -49.108  30.063  25.181  1.00  0.00     0.036 C 
ATOM     39  H   UNL     1     -50.193  30.140  25.318  1.00  0.00     0.049 H 
ATOM     40  H   UNL     1     -48.949  29.763  24.138  1.00  0.00     0.049 H 
BRANCH  38  41
ATOM     41  N   UNL     1     -48.603  29.039  26.096  1.00  0.00    -0.308 NA
ATOM     42  H   UNL     1     -48.780  29.348  27.048  1.00  0.00     0.123 HD
BRANCH  41  43
ATOM     43  C   UNL     1     -49.156  27.703  25.857  1.00  0.00     0.013 C 
ATOM     44  C   UNL     1     -48.470  26.723  24.940  1.00  0.00    -0.021 C 
ATOM     45  C   UNL     1     -48.520  26.457  26.418  1.00  0.00    -0.021 C 
ATOM     46  H   UNL     1     -50.243  27.695  25.778  1.00  0.00     0.047 H 
ATOM     47  C   UNL     1     -47.028  26.806  24.529  1.00  0.00    -0.049 C 
ATOM     48  H   UNL     1     -49.074  26.110  24.283  1.00  0.00     0.032 H 
ATOM     49  C   UNL     1     -47.105  26.385  26.921  1.00  0.00    -0.049 C 
ATOM     50  H   UNL     1     -49.151  25.654  26.772  1.00  0.00     0.032 H 
ATOM     51  C   UNL     1     -46.274  26.110  25.665  1.00  0.00    -0.053 C 
ATOM     52  H   UNL     1     -46.701  27.844  24.417  1.00  0.00     0.027 H 
ATOM     53  H   UNL     1     -46.851  26.297  23.576  1.00  0.00     0.027 H 
ATOM     54  H   UNL     1     -46.980  25.582  27.654  1.00  0.00     0.027 H 
ATOM     55  H   UNL     1     -46.800  27.323  27.394  1.00  0.00     0.027 H 
ATOM     56  H   UNL     1     -46.253  25.029  25.475  1.00  0.00     0.027 H 
ATOM     57  H   UNL     1     -45.240  26.453  25.759  1.00  0.00     0.027 H 
ENDBRANCH  41  43
ENDBRANCH  38  41
ENDBRANCH   6  38
TORSDOF 6
ENDMDL
MODEL 3
REMARK VINA RESULT:     -10.7      1.947      3.169
REMARK SMILES O=C(NCc1ccc2cc(CN[C@@H]3[C@@H]4CCC[C@@H]43)[nH]c2c1)c1cc(=O)n2ccccc2n1
REMARK SMILES IDX 5 1 6 2 7 3 8 4 9 5 10 6 19 7 20 8 21 9 4 15 3 18 1 19 2 20
REMARK SMILES IDX 22 22 23 23 32 24 24 25 31 27 25 28 26 29 30 30 27 31 29 32
REMARK SMILES IDX 28 34 11 38 12 41 13 43 18 44 14 45 17 47 15 49 16 51
REMARK H PARENT 6 10 7 11 9 12 19 13 21 14 4 16 4 17 3 21 23 26 30 33 27 35
REMARK H PARENT 29 36 28 37 11 39 11 40 12 42 13 46 18 48 14 50 17 52 17 53
REMARK H PARENT 15 54 15 55 16 56 16 57
REMARK Flexibility Score: inf
ROOT
ATOM      1  C   UNL     1     -46.411  36.471  28.185  1.00  0.00    -0.027 A 
ATOM      2  C   UNL     1     -47.809  36.455  28.069  1.00  0.00    -0.057 A 
ATOM      3  C   UNL     1     -48.459  35.517  27.258  1.00  0.00    -0.052 A 
ATOM      4  C   UNL     1     -47.696  34.571  26.550  1.00  0.00    -0.000 A 
ATOM      5  C   UNL     1     -48.014  33.507  25.664  1.00  0.00    -0.032 A 
ATOM      6  C   UNL     1     -46.835  32.908  25.268  1.00  0.00     0.030 A 
ATOM      7  N   UNL     1     -45.813  33.578  25.897  1.00  0.00    -0.357 N 
ATOM      8  C   UNL     1     -46.308  34.596  26.680  1.00  0.00     0.046 A 
ATOM      9  C   UNL     1     -45.640  35.524  27.489  1.00  0.00    -0.033 A 
ATOM     10  H   UNL     1     -48.406  37.180  28.620  1.00  0.00     0.063 H 
ATOM     11  H   UNL     1     -49.542  35.520  27.182  1.00  0.00     0.063 H 
ATOM     12  H   UNL     1     -49.005  33.203  25.352  1.00  0.00     0.065 H 
ATOM     13  H   UNL     1     -44.833  33.351  25.809  1.00  0.00     0.166 HD
ATOM     14  H   UNL     1     -44.558  35.511  27.573  1.00  0.00     0.065 H 
ENDROOT
BRANCH   1  15
ATOM     15  C   UNL     1     -45.745  37.479  29.087  1.00  0.00     0.043 C 
ATOM     16  H   UNL     1     -46.493  38.006  29.690  1.00  0.00     0.054 H 
ATOM     17  H   UNL     1     -45.066  36.972  29.783  1.00  0.00     0.054 H 
BRANCH  15  18
ATOM     18  N   UNL     1     -45.043  38.471  28.314  1.00  0.00    -0.347 N 
ATOM     19  O   UNL     1     -46.783  39.967  28.130  1.00  0.00    -0.268 OA
ATOM     20  C   UNL     1     -45.606  39.673  27.960  1.00  0.00     0.270 C 
ATOM     21  H   UNL     1     -44.036  38.405  28.218  1.00  0.00     0.164 HD
BRANCH  20  22
ATOM     22  C   UNL     1     -44.602  40.615  27.340  1.00  0.00     0.136 A 
ATOM     23  C   UNL     1     -43.481  40.827  28.033  1.00  0.00     0.035 A 
ATOM     24  N   UNL     1     -44.891  41.182  26.119  1.00  0.00    -0.225 NA
ATOM     25  C   UNL     1     -42.472  41.731  27.464  1.00  0.00     0.258 A 
ATOM     26  H   UNL     1     -43.264  40.374  28.991  1.00  0.00     0.071 H 
ATOM     27  C   UNL     1     -43.993  41.975  25.618  1.00  0.00     0.140 A 
ATOM     28  O   UNL     1     -41.440  41.939  28.099  1.00  0.00    -0.269 OA
ATOM     29  N   UNL     1     -42.784  42.283  26.231  1.00  0.00    -0.268 N 
ATOM     30  C   UNL     1     -44.260  42.607  24.294  1.00  0.00    -0.019 A 
ATOM     31  C   UNL     1     -41.875  43.146  25.627  1.00  0.00     0.014 A 
ATOM     32  C   UNL     1     -43.354  43.430  23.752  1.00  0.00    -0.057 A 
ATOM     33  H   UNL     1     -45.197  42.371  23.807  1.00  0.00     0.066 H 
ATOM     34  C   UNL     1     -42.121  43.711  24.437  1.00  0.00    -0.045 A 
ATOM     35  H   UNL     1     -40.950  43.343  26.163  1.00  0.00     0.082 H 
ATOM     36  H   UNL     1     -43.528  43.898  22.789  1.00  0.00     0.062 H 
ATOM     37  H   UNL     1     -41.404  44.381  23.975  1.00  0.00     0.064 H 
ENDBRANCH  20  22
ENDBRANCH  15  18
ENDBRANCH   1  15
BRANCH   6  38
ATOM     38  C   UNL     1     -46.579  31.766  24.348  1.00  0.00     0.036 C 
ATOM     39  H   UNL     1     -46.962  32.033  23.356  1.00  0.00     0.049 H 
ATOM     40  H   UNL     1     -45.505  31.587  24.226  1.00  0.00     0.049 H 
BRANCH  38  41
ATOM     41  N   UNL     1     -47.260  30.548  24.789  1.00  0.00    -0.308 NA
ATOM     42  H   UNL     1     -47.887  30.792  25.551  1.00  0.00     0.123 HD
BRANCH  41  43
ATOM     43  C   UNL     1     -47.971  29.843  23.718  1.00  0.00     0.013 C 
ATOM     44  C   UNL     1     -47.620  28.425  23.346  1.00  0.00    -0.021 C 
ATOM     45  C   UNL     1     -48.941  28.725  23.998  1.00  0.00    -0.021 C 
ATOM     46  H   UNL     1     -48.201  30.479  22.863  1.00  0.00     0.047 H 
ATOM     47  C   UNL     1     -46.869  27.473  24.232  1.00  0.00    -0.049 C 
ATOM     48  H   UNL     1     -47.611  28.146  22.301  1.00  0.00     0.032 H 
ATOM     49  C   UNL     1     -49.000  27.962  25.292  1.00  0.00    -0.049 C 
ATOM     50  H   UNL     1     -49.837  28.639  23.399  1.00  0.00     0.032 H 
ATOM     51  C   UNL     1     -47.950  26.860  25.126  1.00  0.00    -0.053 C 
ATOM     52  H   UNL     1     -46.111  27.990  24.828  1.00  0.00     0.027 H 
ATOM     53  H   UNL     1     -46.362  26.697  23.649  1.00  0.00     0.027 H 
ATOM     54  H   UNL     1     -49.992  27.532  25.460  1.00  0.00     0.027 H 
ATOM     55  H   UNL     1     -48.763  28.604  26.146  1.00  0.00     0.027 H 
ATOM     56  H   UNL     1     -48.403  26.004  24.611  1.00  0.00     0.027 H 
ATOM     57  H   UNL     1     -47.556  26.506  26.083  1.00  0.00     0.027 H 
ENDBRANCH  41  43
ENDBRANCH  38  41
ENDBRANCH   6  38
TORSDOF 6
ENDMDL
MODEL 4
REMARK VINA RESULT:     -10.6      2.862      4.299
REMARK SMILES O=C(NCc1ccc2cc(CN[C@@H]3[C@@H]4CCC[C@@H]43)[nH]c2c1)c1cc(=O)n2ccccc2n1
REMARK SMILES IDX 5 1 6 2 7 3 8 4 9 5 10 6 19 7 20 8 21 9 4 15 3 18 1 19 2 20
REMARK SMILES IDX 22 22 23 23 32 24 24 25 31 27 25 28 26 29 30 30 27 31 29 32
REMARK SMILES IDX 28 34 11 38 12 41 13 43 18 44 14 45 17 47 15 49 16 51
REMARK H PARENT 6 10 7 11 9 12 19 13 21 14 4 16 4 17 3 21 23 26 30 33 27 35
REMARK H PARENT 29 36 28 37 11 39 11 40 12 42 13 46 18 48 14 50 17 52 17 53
REMARK H PARENT 15 54 15 55 16 56 16 57
REMARK Flexibility Score: inf
ROOT
ATOM      1  C   UNL     1     -46.433  36.435  28.203  1.00  0.00    -0.027 A 
ATOM      2  C   UNL     1     -47.830  36.388  28.086  1.00  0.00    -0.057 A 
ATOM      3  C   UNL     1     -48.458  35.442  27.268  1.00  0.00    -0.052 A 
ATOM      4  C   UNL     1     -47.674  34.520  26.552  1.00  0.00    -0.000 A 
ATOM      5  C   UNL     1     -47.967  33.455  25.657  1.00  0.00    -0.032 A 
ATOM      6  C   UNL     1     -46.774  32.888  25.257  1.00  0.00     0.030 A 
ATOM      7  N   UNL     1     -45.768  33.576  25.892  1.00  0.00    -0.357 N 
ATOM      8  C   UNL     1     -46.287  34.576  26.683  1.00  0.00     0.046 A 
ATOM      9  C   UNL     1     -45.640  35.512  27.499  1.00  0.00    -0.033 A 
ATOM     10  H   UNL     1     -48.444  37.095  28.644  1.00  0.00     0.063 H 
ATOM     11  H   UNL     1     -49.541  35.420  27.192  1.00  0.00     0.063 H 
ATOM     12  H   UNL     1     -48.951  33.132  25.342  1.00  0.00     0.065 H 
ATOM     13  H   UNL     1     -44.783  33.373  25.802  1.00  0.00     0.166 HD
ATOM     14  H   UNL     1     -44.558  35.523  27.584  1.00  0.00     0.065 H 
ENDROOT
BRANCH   1  15
ATOM     15  C   UNL     1     -45.791  37.451  29.114  1.00  0.00     0.043 C 
ATOM     16  H   UNL     1     -46.554  37.977  29.699  1.00  0.00     0.054 H 
ATOM     17  H   UNL     1     -45.124  36.951  29.825  1.00  0.00     0.054 H 
BRANCH  15  18
ATOM     18  N   UNL     1     -45.078  38.443  28.350  1.00  0.00    -0.347 N 
ATOM     19  O   UNL     1     -46.814  39.940  28.145  1.00  0.00    -0.268 OA
ATOM     20  C   UNL     1     -45.635  39.645  27.990  1.00  0.00     0.270 C 
ATOM     21  H   UNL     1     -44.070  38.376  28.267  1.00  0.00     0.164 HD
BRANCH  20  22
ATOM     22  C   UNL     1     -44.622  40.586  27.383  1.00  0.00     0.136 A 
ATOM     23  C   UNL     1     -43.501  40.782  28.081  1.00  0.00     0.035 A 
ATOM     24  N   UNL     1     -44.903  41.170  26.168  1.00  0.00    -0.225 NA
ATOM     25  C   UNL     1     -42.484  41.684  27.525  1.00  0.00     0.258 A 
ATOM     26  H   UNL     1     -43.290  40.316  29.034  1.00  0.00     0.071 H 
ATOM     27  C   UNL     1     -43.998  41.962  25.678  1.00  0.00     0.140 A 
ATOM     28  O   UNL     1     -41.452  41.877  28.165  1.00  0.00    -0.269 OA
ATOM     29  N   UNL     1     -42.788  42.253  26.298  1.00  0.00    -0.268 N 
ATOM     30  C   UNL     1     -44.256  42.611  24.361  1.00  0.00    -0.019 A 
ATOM     31  C   UNL     1     -41.871  43.116  25.706  1.00  0.00     0.014 A 
ATOM     32  C   UNL     1     -43.343  43.433  23.831  1.00  0.00    -0.057 A 
ATOM     33  H   UNL     1     -45.194  42.387  23.869  1.00  0.00     0.066 H 
ATOM     34  C   UNL     1     -42.110  43.696  24.523  1.00  0.00    -0.045 A 
ATOM     35  H   UNL     1     -40.946  43.300  26.247  1.00  0.00     0.082 H 
ATOM     36  H   UNL     1     -43.511  43.914  22.873  1.00  0.00     0.062 H 
ATOM     37  H   UNL     1     -41.386  44.367  24.070  1.00  0.00     0.064 H 
ENDBRANCH  20  22
ENDBRANCH  15  18
ENDBRANCH   1  15
BRANCH   6  38
ATOM     38  C   UNL     1     -46.492  31.759  24.328  1.00  0.00     0.036 C 
ATOM     39  H   UNL     1     -45.567  31.985  23.785  1.00  0.00     0.049 H 
ATOM     40  H   UNL     1     -46.307  30.829  24.878  1.00  0.00     0.049 H 
BRANCH  38  41
ATOM     41  N   UNL     1     -47.564  31.577  23.350  1.00  0.00    -0.308 NA
ATOM     42  H   UNL     1     -47.598  32.403  22.757  1.00  0.00     0.123 HD
BRANCH  41  43
ATOM     43  C   UNL     1     -47.441  30.352  22.553  1.00  0.00     0.013 C 
ATOM     44  C   UNL     1     -48.071  30.239  21.189  1.00  0.00    -0.021 C 
ATOM     45  C   UNL     1     -46.574  30.278  21.323  1.00  0.00    -0.021 C 
ATOM     46  H   UNL     1     -47.512  29.442  23.149  1.00  0.00     0.047 H 
ATOM     47  C   UNL     1     -48.494  31.408  20.345  1.00  0.00    -0.049 C 
ATOM     48  H   UNL     1     -48.541  29.307  20.905  1.00  0.00     0.032 H 
ATOM     49  C   UNL     1     -46.075  31.477  20.567  1.00  0.00    -0.049 C 
ATOM     50  H   UNL     1     -46.020  29.372  21.120  1.00  0.00     0.032 H 
ATOM     51  C   UNL     1     -47.217  31.818  19.606  1.00  0.00    -0.053 C 
ATOM     52  H   UNL     1     -48.876  32.229  20.959  1.00  0.00     0.027 H 
ATOM     53  H   UNL     1     -49.280  31.128  19.636  1.00  0.00     0.027 H 
ATOM     54  H   UNL     1     -45.157  31.252  20.016  1.00  0.00     0.027 H 
ATOM     55  H   UNL     1     -45.866  32.315  21.239  1.00  0.00     0.027 H 
ATOM     56  H   UNL     1     -47.116  31.213  18.696  1.00  0.00     0.027 H 
ATOM     57  H   UNL     1     -47.220  32.871  19.311  1.00  0.00     0.027 H 
ENDBRANCH  41  43
ENDBRANCH  38  41
ENDBRANCH   6  38
TORSDOF 6
ENDMDL
MODEL 5
REMARK VINA RESULT:     -10.4      1.809      2.721
REMARK SMILES O=C(NCc1ccc2cc(CN[C@@H]3[C@@H]4CCC[C@@H]43)[nH]c2c1)c1cc(=O)n2ccccc2n1
REMARK SMILES IDX 5 1 6 2 7 3 8 4 9 5 10 6 19 7 20 8 21 9 4 15 3 18 1 19 2 20
REMARK SMILES IDX 22 22 23 23 32 24 24 25 31 27 25 28 26 29 30 30 27 31 29 32
REMARK SMILES IDX 28 34 11 38 12 41 13 43 18 44 14 45 17 47 15 49 16 51
REMARK H PARENT 6 10 7 11 9 12 19 13 21 14 4 16 4 17 3 21 23 26 30 33 27 35
REMARK H PARENT 29 36 28 37 11 39 11 40 12 42 13 46 18 48 14 50 17 52 17 53
REMARK H PARENT 15 54 15 55 16 56 16 57
REMARK Flexibility Score: inf
ROOT
ATOM      1  C   UNL     1     -46.388  35.321  27.595  1.00  0.00    -0.027 A 
ATOM      2  C   UNL     1     -47.730  35.722  27.536  1.00  0.00    -0.057 A 
ATOM      3  C   UNL     1     -48.692  34.942  26.884  1.00  0.00    -0.052 A 
ATOM      4  C   UNL     1     -48.305  33.733  26.278  1.00  0.00    -0.000 A 
ATOM      5  C   UNL     1     -48.995  32.723  25.555  1.00  0.00    -0.032 A 
ATOM      6  C   UNL     1     -48.083  31.750  25.197  1.00  0.00     0.030 A 
ATOM      7  N   UNL     1     -46.862  32.142  25.691  1.00  0.00    -0.357 N 
ATOM      8  C   UNL     1     -46.967  33.345  26.350  1.00  0.00     0.046 A 
ATOM      9  C   UNL     1     -45.991  34.110  27.002  1.00  0.00    -0.033 A 
ATOM     10  H   UNL     1     -48.038  36.653  28.009  1.00  0.00     0.063 H 
ATOM     11  H   UNL     1     -49.727  35.268  26.849  1.00  0.00     0.063 H 
ATOM     12  H   UNL     1     -50.052  32.704  25.324  1.00  0.00     0.065 H 
ATOM     13  H   UNL     1     -46.004  31.616  25.596  1.00  0.00     0.166 HD
ATOM     14  H   UNL     1     -44.960  33.775  27.045  1.00  0.00     0.065 H 
ENDROOT
BRANCH   1  15
ATOM     15  C   UNL     1     -45.382  36.173  28.329  1.00  0.00     0.043 C 
ATOM     16  H   UNL     1     -45.638  36.234  29.393  1.00  0.00     0.054 H 
ATOM     17  H   UNL     1     -44.385  35.724  28.260  1.00  0.00     0.054 H 
BRANCH  15  18
ATOM     18  N   UNL     1     -45.378  37.517  27.812  1.00  0.00    -0.347 N 
ATOM     19  O   UNL     1     -44.525  38.538  29.691  1.00  0.00    -0.268 OA
ATOM     20  C   UNL     1     -44.878  38.583  28.518  1.00  0.00     0.270 C 
ATOM     21  H   UNL     1     -45.525  37.669  26.821  1.00  0.00     0.164 HD
BRANCH  20  22
ATOM     22  C   UNL     1     -44.795  39.837  27.680  1.00  0.00     0.136 A 
ATOM     23  C   UNL     1     -45.944  40.287  27.170  1.00  0.00     0.035 A 
ATOM     24  N   UNL     1     -43.568  40.436  27.502  1.00  0.00    -0.225 NA
ATOM     25  C   UNL     1     -45.911  41.508  26.355  1.00  0.00     0.258 A 
ATOM     26  H   UNL     1     -46.902  39.808  27.318  1.00  0.00     0.071 H 
ATOM     27  C   UNL     1     -43.546  41.519  26.786  1.00  0.00     0.140 A 
ATOM     28  O   UNL     1     -46.964  41.924  25.873  1.00  0.00    -0.269 OA
ATOM     29  N   UNL     1     -44.666  42.095  26.196  1.00  0.00    -0.268 N 
ATOM     30  C   UNL     1     -42.240  42.206  26.571  1.00  0.00    -0.019 A 
ATOM     31  C   UNL     1     -44.557  43.258  25.440  1.00  0.00     0.014 A 
ATOM     32  C   UNL     1     -42.186  43.323  25.837  1.00  0.00    -0.057 A 
ATOM     33  H   UNL     1     -41.364  41.766  27.030  1.00  0.00     0.066 H 
ATOM     34  C   UNL     1     -43.380  43.869  25.251  1.00  0.00    -0.045 A 
ATOM     35  H   UNL     1     -45.473  43.653  25.007  1.00  0.00     0.082 H 
ATOM     36  H   UNL     1     -41.246  43.838  25.670  1.00  0.00     0.062 H 
ATOM     37  H   UNL     1     -43.308  44.777  24.660  1.00  0.00     0.064 H 
ENDBRANCH  20  22
ENDBRANCH  15  18
ENDBRANCH   1  15
BRANCH   6  38
ATOM     38  C   UNL     1     -48.253  30.486  24.428  1.00  0.00     0.036 C 
ATOM     39  H   UNL     1     -49.304  30.410  24.125  1.00  0.00     0.049 H 
ATOM     40  H   UNL     1     -47.666  30.502  23.503  1.00  0.00     0.049 H 
BRANCH  38  41
ATOM     41  N   UNL     1     -47.921  29.310  25.231  1.00  0.00    -0.308 NA
ATOM     42  H   UNL     1     -48.153  29.511  26.201  1.00  0.00     0.123 HD
BRANCH  41  43
ATOM     43  C   UNL     1     -48.565  28.075  24.773  1.00  0.00     0.013 C 
ATOM     44  C   UNL     1     -47.770  26.816  24.541  1.00  0.00    -0.021 C 
ATOM     45  C   UNL     1     -48.753  26.884  25.676  1.00  0.00    -0.021 C 
ATOM     46  H   UNL     1     -49.346  28.247  24.032  1.00  0.00     0.047 H 
ATOM     47  C   UNL     1     -46.409  26.549  25.119  1.00  0.00    -0.049 C 
ATOM     48  H   UNL     1     -48.007  26.197  23.687  1.00  0.00     0.032 H 
ATOM     49  C   UNL     1     -47.996  26.666  26.956  1.00  0.00    -0.049 C 
ATOM     50  H   UNL     1     -49.661  26.301  25.600  1.00  0.00     0.032 H 
ATOM     51  C   UNL     1     -46.698  25.986  26.513  1.00  0.00    -0.053 C 
ATOM     52  H   UNL     1     -45.811  27.463  25.180  1.00  0.00     0.027 H 
ATOM     53  H   UNL     1     -45.851  25.826  24.516  1.00  0.00     0.027 H 
ATOM     54  H   UNL     1     -48.553  26.028  27.649  1.00  0.00     0.027 H 
ATOM     55  H   UNL     1     -47.788  27.613  27.463  1.00  0.00     0.027 H 
ATOM     56  H   UNL     1     -46.865  24.903  26.438  1.00  0.00     0.027 H 
ATOM     57  H   UNL     1     -45.875  26.150  27.214  1.00  0.00     0.027 H 
ENDBRANCH  41  43
ENDBRANCH  38  41
ENDBRANCH   6  38
TORSDOF 6
ENDMDL
MODEL 6
REMARK VINA RESULT:     -10.3      2.812     11.348
REMARK SMILES O=C(NCc1ccc2cc(CN[C@@H]3[C@@H]4CCC[C@@H]43)[nH]c2c1)c1cc(=O)n2ccccc2n1
REMARK SMILES IDX 5 1 6 2 7 3 8 4 9 5 10 6 19 7 20 8 21 9 4 15 3 18 1 19 2 20
REMARK SMILES IDX 22 22 23 23 32 24 24 25 31 27 25 28 26 29 30 30 27 31 29 32
REMARK SMILES IDX 28 34 11 38 12 41 13 43 18 44 14 45 17 47 15 49 16 51
REMARK H PARENT 6 10 7 11 9 12 19 13 21 14 4 16 4 17 3 21 23 26 30 33 27 35
REMARK H PARENT 29 36 28 37 11 39 11 40 12 42 13 46 18 48 14 50 17 52 17 53
REMARK H PARENT 15 54 15 55 16 56 16 57
REMARK Flexibility Score: inf
ROOT
ATOM      1  C   UNL     1     -48.207  34.103  26.518  1.00  0.00    -0.027 A 
ATOM      2  C   UNL     1     -46.911  33.566  26.532  1.00  0.00    -0.057 A 
ATOM      3  C   UNL     1     -45.827  34.299  27.028  1.00  0.00    -0.052 A 
ATOM      4  C   UNL     1     -46.042  35.598  27.523  1.00  0.00    -0.000 A 
ATOM      5  C   UNL     1     -45.199  36.595  28.086  1.00  0.00    -0.032 A 
ATOM      6  C   UNL     1     -45.978  37.692  28.397  1.00  0.00     0.030 A 
ATOM      7  N   UNL     1     -47.270  37.381  28.045  1.00  0.00    -0.357 N 
ATOM      8  C   UNL     1     -47.337  36.116  27.508  1.00  0.00     0.046 A 
ATOM      9  C   UNL     1     -48.434  35.396  27.020  1.00  0.00    -0.033 A 
ATOM     10  H   UNL     1     -46.739  32.558  26.157  1.00  0.00     0.063 H 
ATOM     11  H   UNL     1     -44.832  33.866  27.031  1.00  0.00     0.063 H 
ATOM     12  H   UNL     1     -44.133  36.517  28.252  1.00  0.00     0.065 H 
ATOM     13  H   UNL     1     -48.065  37.991  28.170  1.00  0.00     0.166 HD
ATOM     14  H   UNL     1     -49.431  35.826  27.030  1.00  0.00     0.065 H 
ENDROOT
BRANCH   1  15
ATOM     15  C   UNL     1     -49.356  33.274  26.001  1.00  0.00     0.043 C 
ATOM     16  H   UNL     1     -50.200  33.313  26.700  1.00  0.00     0.054 H 
ATOM     17  H   UNL     1     -49.709  33.674  25.044  1.00  0.00     0.054 H 
BRANCH  15  18
ATOM     18  N   UNL     1     -48.972  31.892  25.872  1.00  0.00    -0.347 N 
ATOM     19  O   UNL     1     -49.781  31.574  23.740  1.00  0.00    -0.268 OA
ATOM     20  C   UNL     1     -49.154  31.175  24.715  1.00  0.00     0.270 C 
ATOM     21  H   UNL     1     -48.340  31.487  26.552  1.00  0.00     0.164 HD
BRANCH  20  22
ATOM     22  C   UNL     1     -48.480  29.825  24.766  1.00  0.00     0.136 A 
ATOM     23  C   UNL     1     -47.471  29.633  23.913  1.00  0.00     0.035 A 
ATOM     24  N   UNL     1     -48.930  28.893  25.675  1.00  0.00    -0.225 NA
ATOM     25  C   UNL     1     -46.781  28.337  23.933  1.00  0.00     0.258 A 
ATOM     26  H   UNL     1     -47.126  30.374  23.204  1.00  0.00     0.071 H 
ATOM     27  C   UNL     1     -48.312  27.751  25.692  1.00  0.00     0.140 A 
ATOM     28  O   UNL     1     -45.856  28.148  23.145  1.00  0.00    -0.269 OA
ATOM     29  N   UNL     1     -47.248  27.419  24.861  1.00  0.00    -0.268 N 
ATOM     30  C   UNL     1     -48.760  26.713  26.664  1.00  0.00    -0.019 A 
ATOM     31  C   UNL     1     -46.641  26.170  24.942  1.00  0.00     0.014 A 
ATOM     32  C   UNL     1     -48.143  25.526  26.706  1.00  0.00    -0.057 A 
ATOM     33  H   UNL     1     -49.585  26.964  27.318  1.00  0.00     0.066 H 
ATOM     34  C   UNL     1     -47.048  25.241  25.817  1.00  0.00    -0.045 A 
ATOM     35  H   UNL     1     -45.815  25.977  24.260  1.00  0.00     0.082 H 
ATOM     36  H   UNL     1     -48.453  24.758  27.406  1.00  0.00     0.062 H 
ATOM     37  H   UNL     1     -46.566  24.271  25.872  1.00  0.00     0.064 H 
ENDBRANCH  20  22
ENDBRANCH  15  18
ENDBRANCH   1  15
BRANCH   6  38
ATOM     38  C   UNL     1     -45.618  39.008  28.992  1.00  0.00     0.036 C 
ATOM     39  H   UNL     1     -46.335  39.230  29.791  1.00  0.00     0.049 H 
ATOM     40  H   UNL     1     -44.629  38.973  29.465  1.00  0.00     0.049 H 
BRANCH  38  41
ATOM     41  N   UNL     1     -45.682  40.088  28.007  1.00  0.00    -0.308 NA
ATOM     42  H   UNL     1     -45.585  40.973  28.499  1.00  0.00     0.123 HD
BRANCH  41  43
ATOM     43  C   UNL     1     -44.698  39.967  26.927  1.00  0.00     0.013 C 
ATOM     44  C   UNL     1     -44.511  41.065  25.911  1.00  0.00    -0.021 C 
ATOM     45  C   UNL     1     -43.424  40.771  26.907  1.00  0.00    -0.021 C 
ATOM     46  H   UNL     1     -44.642  38.963  26.506  1.00  0.00     0.047 H 
ATOM     47  C   UNL     1     -44.948  42.489  26.105  1.00  0.00    -0.049 C 
ATOM     48  H   UNL     1     -44.350  40.798  24.875  1.00  0.00     0.032 H 
ATOM     49  C   UNL     1     -43.196  42.014  27.721  1.00  0.00    -0.049 C 
ATOM     50  H   UNL     1     -42.513  40.311  26.547  1.00  0.00     0.032 H 
ATOM     51  C   UNL     1     -43.787  43.137  26.865  1.00  0.00    -0.053 C 
ATOM     52  H   UNL     1     -45.877  42.550  26.679  1.00  0.00     0.027 H 
ATOM     53  H   UNL     1     -45.114  42.993  25.148  1.00  0.00     0.027 H 
ATOM     54  H   UNL     1     -42.130  42.184  27.905  1.00  0.00     0.027 H 
ATOM     55  H   UNL     1     -43.699  41.954  28.690  1.00  0.00     0.027 H 
ATOM     56  H   UNL     1     -43.031  43.480  26.146  1.00  0.00     0.027 H 
ATOM     57  H   UNL     1     -44.100  44.000  27.459  1.00  0.00     0.027 H 
ENDBRANCH  41  43
ENDBRANCH  38  41
ENDBRANCH   6  38
TORSDOF 6
ENDMDL
MODEL 7
REMARK VINA RESULT:     -10.2      1.972      3.425
REMARK SMILES O=C(NCc1ccc2cc(CN[C@@H]3[C@@H]4CCC[C@@H]43)[nH]c2c1)c1cc(=O)n2ccccc2n1
REMARK SMILES IDX 5 1 6 2 7 3 8 4 9 5 10 6 19 7 20 8 21 9 4 15 3 18 1 19 2 20
REMARK SMILES IDX 22 22 23 23 32 24 24 25 31 27 25 28 26 29 30 30 27 31 29 32
REMARK SMILES IDX 28 34 11 38 12 41 13 43 18 44 14 45 17 47 15 49 16 51
REMARK H PARENT 6 10 7 11 9 12 19 13 21 14 4 16 4 17 3 21 23 26 30 33 27 35
REMARK H PARENT 29 36 28 37 11 39 11 40 12 42 13 46 18 48 14 50 17 52 17 53
REMARK H PARENT 15 54 15 55 16 56 16 57
REMARK Flexibility Score: inf
ROOT
ATOM      1  C   UNL     1     -46.388  35.540  27.735  1.00  0.00    -0.027 A 
ATOM      2  C   UNL     1     -47.783  35.497  27.607  1.00  0.00    -0.057 A 
ATOM      3  C   UNL     1     -48.405  34.590  26.741  1.00  0.00    -0.052 A 
ATOM      4  C   UNL     1     -47.615  33.704  25.986  1.00  0.00    -0.000 A 
ATOM      5  C   UNL     1     -47.901  32.683  25.040  1.00  0.00    -0.032 A 
ATOM      6  C   UNL     1     -46.704  32.137  24.620  1.00  0.00     0.030 A 
ATOM      7  N   UNL     1     -45.703  32.796  25.294  1.00  0.00    -0.357 N 
ATOM      8  C   UNL     1     -46.229  33.756  26.128  1.00  0.00     0.046 A 
ATOM      9  C   UNL     1     -45.588  34.653  26.993  1.00  0.00    -0.033 A 
ATOM     10  H   UNL     1     -48.402  36.175  28.194  1.00  0.00     0.063 H 
ATOM     11  H   UNL     1     -49.487  34.570  26.657  1.00  0.00     0.063 H 
ATOM     12  H   UNL     1     -48.882  32.374  24.704  1.00  0.00     0.065 H 
ATOM     13  H   UNL     1     -44.717  32.598  25.200  1.00  0.00     0.166 HD
ATOM     14  H   UNL     1     -44.507  34.661  27.084  1.00  0.00     0.065 H 
ENDROOT
BRANCH   1  15
ATOM     15  C   UNL     1     -45.752  36.512  28.697  1.00  0.00     0.043 C 
ATOM     16  H   UNL     1     -46.376  36.628  29.591  1.00  0.00     0.054 H 
ATOM     17  H   UNL     1     -44.779  36.134  29.028  1.00  0.00     0.054 H 
BRANCH  15  18
ATOM     18  N   UNL     1     -45.621  37.814  28.096  1.00  0.00    -0.347 N 
ATOM     19  O   UNL     1     -44.336  38.761  29.753  1.00  0.00    -0.268 OA
ATOM     20  C   UNL     1     -44.857  38.814  28.646  1.00  0.00     0.270 C 
ATOM     21  H   UNL     1     -45.897  37.945  27.129  1.00  0.00     0.164 HD
BRANCH  20  22
ATOM     22  C   UNL     1     -44.715  40.000  27.722  1.00  0.00     0.136 A 
ATOM     23  C   UNL     1     -45.835  40.442  27.146  1.00  0.00     0.035 A 
ATOM     24  N   UNL     1     -43.465  40.550  27.537  1.00  0.00    -0.225 NA
ATOM     25  C   UNL     1     -45.744  41.599  26.246  1.00  0.00     0.258 A 
ATOM     26  H   UNL     1     -46.811  40.003  27.301  1.00  0.00     0.071 H 
ATOM     27  C   UNL     1     -43.392  41.576  26.745  1.00  0.00     0.140 A 
ATOM     28  O   UNL     1     -46.770  42.008  25.705  1.00  0.00    -0.269 OA
ATOM     29  N   UNL     1     -44.477  42.138  26.082  1.00  0.00    -0.268 N 
ATOM     30  C   UNL     1     -42.061  42.209  26.520  1.00  0.00    -0.019 A 
ATOM     31  C   UNL     1     -44.313  43.239  25.248  1.00  0.00     0.014 A 
ATOM     32  C   UNL     1     -41.953  43.268  25.709  1.00  0.00    -0.057 A 
ATOM     33  H   UNL     1     -41.211  41.780  27.035  1.00  0.00     0.066 H 
ATOM     34  C   UNL     1     -43.114  43.803  25.050  1.00  0.00    -0.045 A 
ATOM     35  H   UNL     1     -45.205  43.627  24.760  1.00  0.00     0.082 H 
ATOM     36  H   UNL     1     -40.994  43.744  25.533  1.00  0.00     0.062 H 
ATOM     37  H   UNL     1     -42.998  44.662  24.397  1.00  0.00     0.064 H 
ENDBRANCH  20  22
ENDBRANCH  15  18
ENDBRANCH   1  15
BRANCH   6  38
ATOM     38  C   UNL     1     -46.415  31.055  23.640  1.00  0.00     0.036 C 
ATOM     39  H   UNL     1     -46.938  31.290  22.706  1.00  0.00     0.049 H 
ATOM     40  H   UNL     1     -45.347  31.016  23.395  1.00  0.00     0.049 H 
BRANCH  38  41
ATOM     41  N   UNL     1     -46.884  29.752  24.112  1.00  0.00    -0.308 NA
ATOM     42  H   UNL     1     -47.563  29.908  24.853  1.00  0.00     0.123 HD
BRANCH  41  43
ATOM     43  C   UNL     1     -47.434  28.899  23.054  1.00  0.00     0.013 C 
ATOM     44  C   UNL     1     -48.642  28.030  23.297  1.00  0.00    -0.021 C 
ATOM     45  C   UNL     1     -48.740  29.209  22.370  1.00  0.00    -0.021 C 
ATOM     46  H   UNL     1     -46.667  28.427  22.439  1.00  0.00     0.047 H 
ATOM     47  C   UNL     1     -49.626  28.232  24.414  1.00  0.00    -0.049 C 
ATOM     48  H   UNL     1     -48.664  27.035  22.873  1.00  0.00     0.032 H 
ATOM     49  C   UNL     1     -49.782  30.143  22.920  1.00  0.00    -0.049 C 
ATOM     50  H   UNL     1     -48.841  29.018  21.310  1.00  0.00     0.032 H 
ATOM     51  C   UNL     1     -50.611  29.266  23.863  1.00  0.00    -0.053 C 
ATOM     52  H   UNL     1     -49.136  28.599  25.321  1.00  0.00     0.027 H 
ATOM     53  H   UNL     1     -50.142  27.301  24.667  1.00  0.00     0.027 H 
ATOM     54  H   UNL     1     -50.407  30.561  22.125  1.00  0.00     0.027 H 
ATOM     55  H   UNL     1     -49.325  30.976  23.462  1.00  0.00     0.027 H 
ATOM     56  H   UNL     1     -51.390  28.752  23.285  1.00  0.00     0.027 H 
ATOM     57  H   UNL     1     -51.104  29.842  24.651  1.00  0.00     0.027 H 
ENDBRANCH  41  43
ENDBRANCH  38  41
ENDBRANCH   6  38
TORSDOF 6
ENDMDL
