MODEL 1
REMARK VINA RESULT:      -8.3      0.000      0.000
REMARK SMILES CNc1cc(N2CCC3(CC2)CN(c2ccc(CN4CCC(C)(C)CC4)c(F)c2)CC(=O)N3)ncn1
REMARK SMILES IDX 6 1 7 2 8 3 9 4 10 5 11 6 12 7 13 8 30 9 31 10 32 11 33 12
REMARK SMILES IDX 5 26 3 27 4 28 36 29 35 31 34 32 2 34 1 36 14 40 15 41 29 42
REMARK SMILES IDX 16 43 27 45 17 47 28 49 18 50 19 53 20 54 26 55 21 56 25 59
REMARK SMILES IDX 22 62 23 67 24 71
REMARK H PARENT 7 13 7 14 8 15 8 16 10 17 10 18 11 19 11 20 12 21 12 22 30 23
REMARK H PARENT 30 24 33 25 4 30 35 33 2 35 1 37 1 38 1 39 15 44 29 46 16 48
REMARK H PARENT 18 51 18 52 20 57 20 58 26 60 26 61 21 63 21 64 25 65 25 66
REMARK H PARENT 23 68 23 69 23 70 24 72 24 73 24 74
REMARK Flexibility Score: inf
ROOT
ATOM      1  N   UNL     1     -43.864  44.651  25.179  1.00  0.00    -0.356 N 
ATOM      2  C   UNL     1     -43.825  44.777  26.644  1.00  0.00     0.021 C 
ATOM      3  C   UNL     1     -44.004  43.415  27.303  1.00  0.00    -0.010 C 
ATOM      4  C   UNL     1     -42.877  42.431  26.885  1.00  0.00     0.061 C 
ATOM      5  C   UNL     1     -42.172  42.899  25.589  1.00  0.00    -0.010 C 
ATOM      6  C   UNL     1     -43.155  43.505  24.592  1.00  0.00     0.021 C 
ATOM      7  C   UNL     1     -43.492  41.015  26.668  1.00  0.00     0.042 C 
ATOM      8  N   UNL     1     -44.004  40.501  27.955  1.00  0.00    -0.360 N 
ATOM      9  C   UNL     1     -42.959  40.374  28.998  1.00  0.00     0.097 C 
ATOM     10  C   UNL     1     -42.005  41.577  29.070  1.00  0.00     0.240 C 
ATOM     11  O   UNL     1     -41.306  41.806  30.057  1.00  0.00    -0.273 OA
ATOM     12  N   UNL     1     -41.858  42.363  27.951  1.00  0.00    -0.347 N 
ATOM     13  H   UNL     1     -44.560  45.495  27.028  1.00  0.00     0.049 H 
ATOM     14  H   UNL     1     -42.851  45.198  26.927  1.00  0.00     0.049 H 
ATOM     15  H   UNL     1     -44.035  43.540  28.392  1.00  0.00     0.031 H 
ATOM     16  H   UNL     1     -44.985  43.021  27.011  1.00  0.00     0.031 H 
ATOM     17  H   UNL     1     -41.406  43.651  25.826  1.00  0.00     0.031 H 
ATOM     18  H   UNL     1     -41.631  42.066  25.122  1.00  0.00     0.031 H 
ATOM     19  H   UNL     1     -43.857  42.726  24.265  1.00  0.00     0.049 H 
ATOM     20  H   UNL     1     -42.597  43.837  23.709  1.00  0.00     0.049 H 
ATOM     21  H   UNL     1     -42.727  40.320  26.296  1.00  0.00     0.052 H 
ATOM     22  H   UNL     1     -44.267  41.070  25.895  1.00  0.00     0.052 H 
ATOM     23  H   UNL     1     -43.432  40.288  29.983  1.00  0.00     0.060 H 
ATOM     24  H   UNL     1     -42.334  39.492  28.809  1.00  0.00     0.060 H 
ATOM     25  H   UNL     1     -41.264  43.166  28.117  1.00  0.00     0.164 HD
ENDROOT
BRANCH   1  26
ATOM     26  C   UNL     1     -45.115  44.905  24.580  1.00  0.00     0.134 A 
ATOM     27  C   UNL     1     -46.460  45.248  22.655  1.00  0.00     0.131 A 
ATOM     28  C   UNL     1     -45.216  45.005  23.201  1.00  0.00     0.023 A 
ATOM     29  N   UNL     1     -47.557  45.366  23.409  1.00  0.00    -0.219 NA
ATOM     30  H   UNL     1     -44.347  44.898  22.566  1.00  0.00     0.070 H 
ATOM     31  C   UNL     1     -47.367  45.273  24.729  1.00  0.00     0.120 A 
ATOM     32  N   UNL     1     -46.202  45.056  25.352  1.00  0.00    -0.219 NA
ATOM     33  H   UNL     1     -48.244  45.383  25.359  1.00  0.00     0.106 H 
BRANCH  27  34
ATOM     34  N   UNL     1     -46.663  45.346  21.274  1.00  0.00    -0.373 N 
ATOM     35  H   UNL     1     -46.266  46.253  21.028  1.00  0.00     0.161 HD
BRANCH  34  36
ATOM     36  C   UNL     1     -46.046  44.276  20.505  1.00  0.00     0.005 C 
ATOM     37  H   UNL     1     -45.522  44.662  19.625  1.00  0.00     0.045 H 
ATOM     38  H   UNL     1     -46.784  43.529  20.191  1.00  0.00     0.045 H 
ATOM     39  H   UNL     1     -45.304  43.771  21.131  1.00  0.00     0.045 H 
ENDBRANCH  34  36
ENDBRANCH  27  34
ENDBRANCH   1  26
BRANCH   8  40
ATOM     40  C   UNL     1     -44.999  39.520  27.878  1.00  0.00     0.040 A 
ATOM     41  C   UNL     1     -45.893  39.505  26.794  1.00  0.00    -0.038 A 
ATOM     42  C   UNL     1     -45.199  38.547  28.866  1.00  0.00    -0.003 A 
ATOM     43  C   UNL     1     -46.916  38.553  26.683  1.00  0.00    -0.053 A 
ATOM     44  H   UNL     1     -45.827  40.269  26.021  1.00  0.00     0.064 H 
ATOM     45  C   UNL     1     -46.218  37.597  28.755  1.00  0.00     0.129 A 
ATOM     46  H   UNL     1     -44.564  38.481  29.742  1.00  0.00     0.068 H 
ATOM     47  C   UNL     1     -47.098  37.585  27.674  1.00  0.00     0.002 A 
ATOM     48  H   UNL     1     -47.577  38.588  25.821  1.00  0.00     0.063 H 
ATOM     49  F   UNL     1     -46.326  36.672  29.719  1.00  0.00    -0.207 F 
BRANCH  47  50
ATOM     50  C   UNL     1     -48.200  36.557  27.570  1.00  0.00     0.026 C 
ATOM     51  H   UNL     1     -49.159  37.069  27.410  1.00  0.00     0.048 H 
ATOM     52  H   UNL     1     -48.321  36.079  28.551  1.00  0.00     0.048 H 
BRANCH  50  53
ATOM     53  N   UNL     1     -48.036  35.511  26.555  1.00  0.00    -0.299 NA
ATOM     54  C   UNL     1     -46.651  35.155  26.243  1.00  0.00    -0.001 C 
ATOM     55  C   UNL     1     -48.958  34.383  26.672  1.00  0.00    -0.001 C 
ATOM     56  C   UNL     1     -46.299  33.717  26.625  1.00  0.00    -0.035 C 
ATOM     57  H   UNL     1     -46.514  35.276  25.161  1.00  0.00     0.043 H 
ATOM     58  H   UNL     1     -45.932  35.843  26.697  1.00  0.00     0.043 H 
ATOM     59  C   UNL     1     -48.617  33.290  25.657  1.00  0.00    -0.035 C 
ATOM     60  H   UNL     1     -48.938  33.937  27.672  1.00  0.00     0.043 H 
ATOM     61  H   UNL     1     -49.981  34.731  26.490  1.00  0.00     0.043 H 
ATOM     62  C   UNL     1     -47.214  32.686  25.918  1.00  0.00    -0.033 C 
ATOM     63  H   UNL     1     -45.245  33.521  26.389  1.00  0.00     0.029 H 
ATOM     64  H   UNL     1     -46.384  33.617  27.716  1.00  0.00     0.029 H 
ATOM     65  H   UNL     1     -49.386  32.508  25.685  1.00  0.00     0.029 H 
ATOM     66  H   UNL     1     -48.668  33.724  24.649  1.00  0.00     0.029 H 
BRANCH  62  67
ATOM     67  C   UNL     1     -46.594  32.259  24.574  1.00  0.00    -0.060 C 
ATOM     68  H   UNL     1     -46.529  33.102  23.879  1.00  0.00     0.024 H 
ATOM     69  H   UNL     1     -45.581  31.864  24.711  1.00  0.00     0.024 H 
ATOM     70  H   UNL     1     -47.194  31.477  24.094  1.00  0.00     0.024 H 
ENDBRANCH  62  67
BRANCH  62  71
ATOM     71  C   UNL     1     -47.334  31.436  26.808  1.00  0.00    -0.060 C 
ATOM     72  H   UNL     1     -46.737  31.544  27.721  1.00  0.00     0.024 H 
ATOM     73  H   UNL     1     -46.983  30.540  26.285  1.00  0.00     0.024 H 
ATOM     74  H   UNL     1     -48.373  31.259  27.108  1.00  0.00     0.024 H 
ENDBRANCH  62  71
ENDBRANCH  50  53
ENDBRANCH  47  50
ENDBRANCH   8  40
TORSDOF 8
ENDMDL
MODEL 2
REMARK VINA RESULT:      -8.0      3.808      5.466
REMARK SMILES CNc1cc(N2CCC3(CC2)CN(c2ccc(CN4CCC(C)(C)CC4)c(F)c2)CC(=O)N3)ncn1
REMARK SMILES IDX 6 1 7 2 8 3 9 4 10 5 11 6 12 7 13 8 30 9 31 10 32 11 33 12
REMARK SMILES IDX 5 26 3 27 4 28 36 29 35 31 34 32 2 34 1 36 14 40 15 41 29 42
REMARK SMILES IDX 16 43 27 45 17 47 28 49 18 50 19 53 20 54 26 55 21 56 25 59
REMARK SMILES IDX 22 62 23 67 24 71
REMARK H PARENT 7 13 7 14 8 15 8 16 10 17 10 18 11 19 11 20 12 21 12 22 30 23
REMARK H PARENT 30 24 33 25 4 30 35 33 2 35 1 37 1 38 1 39 15 44 29 46 16 48
REMARK H PARENT 18 51 18 52 20 57 20 58 26 60 26 61 21 63 21 64 25 65 25 66
REMARK H PARENT 23 68 23 69 23 70 24 72 24 73 24 74
REMARK Flexibility Score: inf
ROOT
ATOM      1  N   UNL     1     -48.446  41.482  27.590  1.00  0.00    -0.356 N 
ATOM      2  C   UNL     1     -48.178  40.881  28.907  1.00  0.00     0.021 C 
ATOM      3  C   UNL     1     -47.761  39.424  28.753  1.00  0.00    -0.010 C 
ATOM      4  C   UNL     1     -46.468  39.290  27.903  1.00  0.00     0.061 C 
ATOM      5  C   UNL     1     -46.217  40.561  27.055  1.00  0.00    -0.010 C 
ATOM      6  C   UNL     1     -47.516  41.144  26.504  1.00  0.00     0.021 C 
ATOM      7  C   UNL     1     -46.599  38.050  26.967  1.00  0.00     0.042 C 
ATOM      8  N   UNL     1     -46.658  36.822  27.787  1.00  0.00    -0.360 N 
ATOM      9  C   UNL     1     -45.455  36.616  28.628  1.00  0.00     0.097 C 
ATOM     10  C   UNL     1     -44.966  37.891  29.334  1.00  0.00     0.240 C 
ATOM     11  O   UNL     1     -44.214  37.858  30.308  1.00  0.00    -0.273 OA
ATOM     12  N   UNL     1     -45.305  39.109  28.794  1.00  0.00    -0.347 N 
ATOM     13  H   UNL     1     -49.026  40.973  29.595  1.00  0.00     0.049 H 
ATOM     14  H   UNL     1     -47.367  41.447  29.385  1.00  0.00     0.049 H 
ATOM     15  H   UNL     1     -47.628  38.978  29.746  1.00  0.00     0.031 H 
ATOM     16  H   UNL     1     -48.589  38.880  28.281  1.00  0.00     0.031 H 
ATOM     17  H   UNL     1     -45.720  41.330  27.663  1.00  0.00     0.031 H 
ATOM     18  H   UNL     1     -45.525  40.344  26.231  1.00  0.00     0.031 H 
ATOM     19  H   UNL     1     -47.962  40.423  25.806  1.00  0.00     0.049 H 
ATOM     20  H   UNL     1     -47.278  42.050  25.934  1.00  0.00     0.049 H 
ATOM     21  H   UNL     1     -45.729  37.982  26.301  1.00  0.00     0.052 H 
ATOM     22  H   UNL     1     -47.478  38.172  26.324  1.00  0.00     0.052 H 
ATOM     23  H   UNL     1     -45.679  35.886  29.415  1.00  0.00     0.060 H 
ATOM     24  H   UNL     1     -44.617  36.258  28.017  1.00  0.00     0.060 H 
ATOM     25  H   UNL     1     -44.996  39.886  29.365  1.00  0.00     0.164 HD
ENDROOT
BRANCH   1  26
ATOM     26  C   UNL     1     -49.798  41.492  27.190  1.00  0.00     0.134 A 
ATOM     27  C   UNL     1     -51.559  42.360  25.857  1.00  0.00     0.131 A 
ATOM     28  C   UNL     1     -50.228  42.388  26.225  1.00  0.00     0.023 A 
ATOM     29  N   UNL     1     -52.425  41.490  26.385  1.00  0.00    -0.219 NA
ATOM     30  H   UNL     1     -49.546  43.092  25.769  1.00  0.00     0.070 H 
ATOM     31  C   UNL     1     -51.929  40.674  27.322  1.00  0.00     0.120 A 
ATOM     32  N   UNL     1     -50.663  40.636  27.755  1.00  0.00    -0.219 NA
ATOM     33  H   UNL     1     -52.621  39.971  27.774  1.00  0.00     0.106 H 
BRANCH  27  34
ATOM     34  N   UNL     1     -52.081  43.212  24.877  1.00  0.00    -0.373 N 
ATOM     35  H   UNL     1     -52.213  44.099  25.365  1.00  0.00     0.161 HD
BRANCH  34  36
ATOM     36  C   UNL     1     -51.224  43.375  23.713  1.00  0.00     0.005 C 
ATOM     37  H   UNL     1     -51.808  43.539  22.802  1.00  0.00     0.045 H 
ATOM     38  H   UNL     1     -50.565  42.510  23.574  1.00  0.00     0.045 H 
ATOM     39  H   UNL     1     -50.592  44.256  23.858  1.00  0.00     0.045 H 
ENDBRANCH  34  36
ENDBRANCH  27  34
ENDBRANCH   1  26
BRANCH   8  40
ATOM     40  C   UNL     1     -47.260  35.709  27.192  1.00  0.00     0.040 A 
ATOM     41  C   UNL     1     -46.473  34.751  26.530  1.00  0.00    -0.038 A 
ATOM     42  C   UNL     1     -48.645  35.501  27.171  1.00  0.00    -0.003 A 
ATOM     43  C   UNL     1     -47.033  33.629  25.903  1.00  0.00    -0.053 A 
ATOM     44  H   UNL     1     -45.395  34.883  26.461  1.00  0.00     0.064 H 
ATOM     45  C   UNL     1     -49.203  34.382  26.547  1.00  0.00     0.129 A 
ATOM     46  H   UNL     1     -49.334  36.187  27.650  1.00  0.00     0.068 H 
ATOM     47  C   UNL     1     -48.417  33.433  25.897  1.00  0.00     0.002 A 
ATOM     48  H   UNL     1     -46.375  32.918  25.408  1.00  0.00     0.063 H 
ATOM     49  F   UNL     1     -50.534  34.228  26.600  1.00  0.00    -0.207 F 
BRANCH  47  50
ATOM     50  C   UNL     1     -49.033  32.231  25.221  1.00  0.00     0.026 C 
ATOM     51  H   UNL     1     -49.538  32.553  24.300  1.00  0.00     0.048 H 
ATOM     52  H   UNL     1     -49.854  31.863  25.851  1.00  0.00     0.048 H 
BRANCH  50  53
ATOM     53  N   UNL     1     -48.137  31.111  24.915  1.00  0.00    -0.299 NA
ATOM     54  C   UNL     1     -48.300  29.931  25.765  1.00  0.00    -0.001 C 
ATOM     55  C   UNL     1     -47.954  30.833  23.492  1.00  0.00    -0.001 C 
ATOM     56  C   UNL     1     -48.789  28.701  24.999  1.00  0.00    -0.035 C 
ATOM     57  H   UNL     1     -47.322  29.705  26.209  1.00  0.00     0.043 H 
ATOM     58  H   UNL     1     -48.960  30.119  26.618  1.00  0.00     0.043 H 
ATOM     59  C   UNL     1     -47.117  29.570  23.284  1.00  0.00    -0.035 C 
ATOM     60  H   UNL     1     -48.909  30.698  22.973  1.00  0.00     0.043 H 
ATOM     61  H   UNL     1     -47.444  31.681  23.020  1.00  0.00     0.043 H 
ATOM     62  C   UNL     1     -47.829  28.313  23.846  1.00  0.00    -0.033 C 
ATOM     63  H   UNL     1     -48.914  27.861  25.694  1.00  0.00     0.029 H 
ATOM     64  H   UNL     1     -49.792  28.914  24.605  1.00  0.00     0.029 H 
ATOM     65  H   UNL     1     -46.897  29.445  22.217  1.00  0.00     0.029 H 
ATOM     66  H   UNL     1     -46.145  29.713  23.775  1.00  0.00     0.029 H 
BRANCH  62  67
ATOM     67  C   UNL     1     -46.768  27.319  24.350  1.00  0.00    -0.060 C 
ATOM     68  H   UNL     1     -45.888  27.311  23.699  1.00  0.00     0.024 H 
ATOM     69  H   UNL     1     -46.430  27.576  25.360  1.00  0.00     0.024 H 
ATOM     70  H   UNL     1     -47.168  26.298  24.382  1.00  0.00     0.024 H 
ENDBRANCH  62  67
BRANCH  62  71
ATOM     71  C   UNL     1     -48.642  27.625  22.734  1.00  0.00    -0.060 C 
ATOM     72  H   UNL     1     -48.812  28.305  21.892  1.00  0.00     0.024 H 
ATOM     73  H   UNL     1     -49.621  27.299  23.102  1.00  0.00     0.024 H 
ATOM     74  H   UNL     1     -48.121  26.741  22.349  1.00  0.00     0.024 H 
ENDBRANCH  62  71
ENDBRANCH  50  53
ENDBRANCH  47  50
ENDBRANCH   8  40
TORSDOF 8
ENDMDL
MODEL 3
REMARK VINA RESULT:      -7.1      2.777      4.794
REMARK SMILES CNc1cc(N2CCC3(CC2)CN(c2ccc(CN4CCC(C)(C)CC4)c(F)c2)CC(=O)N3)ncn1
REMARK SMILES IDX 6 1 7 2 8 3 9 4 10 5 11 6 12 7 13 8 30 9 31 10 32 11 33 12
REMARK SMILES IDX 5 26 3 27 4 28 36 29 35 31 34 32 2 34 1 36 14 40 15 41 29 42
REMARK SMILES IDX 16 43 27 45 17 47 28 49 18 50 19 53 20 54 26 55 21 56 25 59
REMARK SMILES IDX 22 62 23 67 24 71
REMARK H PARENT 7 13 7 14 8 15 8 16 10 17 10 18 11 19 11 20 12 21 12 22 30 23
REMARK H PARENT 30 24 33 25 4 30 35 33 2 35 1 37 1 38 1 39 15 44 29 46 16 48
REMARK H PARENT 18 51 18 52 20 57 20 58 26 60 26 61 21 63 21 64 25 65 25 66
REMARK H PARENT 23 68 23 69 23 70 24 72 24 73 24 74
REMARK Flexibility Score: inf
ROOT
ATOM      1  N   UNL     1     -45.149  45.475  24.158  1.00  0.00    -0.356 N 
ATOM      2  C   UNL     1     -46.297  44.908  23.432  1.00  0.00     0.021 C 
ATOM      3  C   UNL     1     -47.005  43.863  24.286  1.00  0.00    -0.010 C 
ATOM      4  C   UNL     1     -47.540  44.478  25.607  1.00  0.00     0.061 C 
ATOM      5  C   UNL     1     -46.829  45.813  25.937  1.00  0.00    -0.010 C 
ATOM      6  C   UNL     1     -45.345  45.771  25.584  1.00  0.00     0.021 C 
ATOM      7  C   UNL     1     -47.318  43.463  26.770  1.00  0.00     0.042 C 
ATOM      8  N   UNL     1     -48.145  42.261  26.533  1.00  0.00    -0.360 N 
ATOM      9  C   UNL     1     -49.598  42.547  26.468  1.00  0.00     0.097 C 
ATOM     10  C   UNL     1     -49.947  43.794  25.640  1.00  0.00     0.240 C 
ATOM     11  O   UNL     1     -51.078  43.996  25.200  1.00  0.00    -0.273 OA
ATOM     12  N   UNL     1     -48.983  44.760  25.474  1.00  0.00    -0.347 N 
ATOM     13  H   UNL     1     -46.018  44.490  22.457  1.00  0.00     0.049 H 
ATOM     14  H   UNL     1     -46.994  45.724  23.198  1.00  0.00     0.049 H 
ATOM     15  H   UNL     1     -47.816  43.408  23.705  1.00  0.00     0.031 H 
ATOM     16  H   UNL     1     -46.291  43.057  24.500  1.00  0.00     0.031 H 
ATOM     17  H   UNL     1     -47.297  46.638  25.380  1.00  0.00     0.031 H 
ATOM     18  H   UNL     1     -46.954  46.065  26.997  1.00  0.00     0.031 H 
ATOM     19  H   UNL     1     -44.850  45.023  26.218  1.00  0.00     0.049 H 
ATOM     20  H   UNL     1     -44.902  46.746  25.816  1.00  0.00     0.049 H 
ATOM     21  H   UNL     1     -47.619  43.908  27.727  1.00  0.00     0.052 H 
ATOM     22  H   UNL     1     -46.250  43.233  26.852  1.00  0.00     0.052 H 
ATOM     23  H   UNL     1     -50.117  41.702  25.999  1.00  0.00     0.060 H 
ATOM     24  H   UNL     1     -50.000  42.717  27.474  1.00  0.00     0.060 H 
ATOM     25  H   UNL     1     -49.285  45.507  24.860  1.00  0.00     0.164 HD
ENDROOT
BRANCH   1  26
ATOM     26  C   UNL     1     -43.899  44.889  23.871  1.00  0.00     0.134 A 
ATOM     27  C   UNL     1     -41.952  43.718  24.557  1.00  0.00     0.131 A 
ATOM     28  C   UNL     1     -43.168  44.286  24.882  1.00  0.00     0.023 A 
ATOM     29  N   UNL     1     -41.479  43.717  23.308  1.00  0.00    -0.219 NA
ATOM     30  H   UNL     1     -43.534  44.259  25.899  1.00  0.00     0.070 H 
ATOM     31  C   UNL     1     -42.240  44.335  22.398  1.00  0.00     0.120 A 
ATOM     32  N   UNL     1     -43.421  44.927  22.618  1.00  0.00    -0.219 NA
ATOM     33  H   UNL     1     -41.864  44.359  21.381  1.00  0.00     0.106 H 
BRANCH  27  34
ATOM     34  N   UNL     1     -41.154  43.071  25.506  1.00  0.00    -0.373 N 
ATOM     35  H   UNL     1     -40.586  43.819  25.905  1.00  0.00     0.161 HD
BRANCH  34  36
ATOM     36  C   UNL     1     -41.904  42.373  26.539  1.00  0.00     0.005 C 
ATOM     37  H   UNL     1     -41.508  42.583  27.538  1.00  0.00     0.045 H 
ATOM     38  H   UNL     1     -41.911  41.290  26.369  1.00  0.00     0.045 H 
ATOM     39  H   UNL     1     -42.941  42.721  26.520  1.00  0.00     0.045 H 
ENDBRANCH  34  36
ENDBRANCH  27  34
ENDBRANCH   1  26
BRANCH   8  40
ATOM     40  C   UNL     1     -47.719  41.085  27.160  1.00  0.00     0.040 A 
ATOM     41  C   UNL     1     -48.478  40.527  28.204  1.00  0.00    -0.038 A 
ATOM     42  C   UNL     1     -46.525  40.429  26.838  1.00  0.00    -0.003 A 
ATOM     43  C   UNL     1     -48.082  39.361  28.873  1.00  0.00    -0.053 A 
ATOM     44  H   UNL     1     -49.388  41.020  28.541  1.00  0.00     0.064 H 
ATOM     45  C   UNL     1     -46.131  39.265  27.504  1.00  0.00     0.129 A 
ATOM     46  H   UNL     1     -45.870  40.785  26.050  1.00  0.00     0.068 H 
ATOM     47  C   UNL     1     -46.890  38.714  28.535  1.00  0.00     0.002 A 
ATOM     48  H   UNL     1     -48.710  38.973  29.672  1.00  0.00     0.063 H 
ATOM     49  F   UNL     1     -44.994  38.669  27.117  1.00  0.00    -0.207 F 
BRANCH  47  50
ATOM     50  C   UNL     1     -46.450  37.460  29.252  1.00  0.00     0.026 C 
ATOM     51  H   UNL     1     -46.676  37.557  30.323  1.00  0.00     0.048 H 
ATOM     52  H   UNL     1     -45.353  37.411  29.221  1.00  0.00     0.048 H 
BRANCH  50  53
ATOM     53  N   UNL     1     -46.991  36.190  28.757  1.00  0.00    -0.299 NA
ATOM     54  C   UNL     1     -48.071  36.310  27.777  1.00  0.00    -0.001 C 
ATOM     55  C   UNL     1     -45.994  35.163  28.462  1.00  0.00    -0.001 C 
ATOM     56  C   UNL     1     -47.697  35.763  26.399  1.00  0.00    -0.035 C 
ATOM     57  H   UNL     1     -48.931  35.745  28.160  1.00  0.00     0.043 H 
ATOM     58  H   UNL     1     -48.431  37.339  27.678  1.00  0.00     0.043 H 
ATOM     59  C   UNL     1     -46.646  33.933  27.828  1.00  0.00    -0.035 C 
ATOM     60  H   UNL     1     -45.218  35.527  27.781  1.00  0.00     0.043 H 
ATOM     61  H   UNL     1     -45.497  34.863  29.392  1.00  0.00     0.043 H 
ATOM     62  C   UNL     1     -47.288  34.269  26.458  1.00  0.00    -0.033 C 
ATOM     63  H   UNL     1     -48.536  35.904  25.707  1.00  0.00     0.029 H 
ATOM     64  H   UNL     1     -46.872  36.368  25.998  1.00  0.00     0.029 H 
ATOM     65  H   UNL     1     -45.901  33.135  27.721  1.00  0.00     0.029 H 
ATOM     66  H   UNL     1     -47.403  33.544  28.523  1.00  0.00     0.029 H 
BRANCH  62  67
ATOM     67  C   UNL     1     -48.521  33.372  26.248  1.00  0.00    -0.060 C 
ATOM     68  H   UNL     1     -48.847  33.380  25.203  1.00  0.00     0.024 H 
ATOM     69  H   UNL     1     -48.307  32.333  26.520  1.00  0.00     0.024 H 
ATOM     70  H   UNL     1     -49.364  33.710  26.863  1.00  0.00     0.024 H 
ENDBRANCH  62  67
BRANCH  62  71
ATOM     71  C   UNL     1     -46.288  33.983  25.322  1.00  0.00    -0.060 C 
ATOM     72  H   UNL     1     -45.287  33.784  25.720  1.00  0.00     0.024 H 
ATOM     73  H   UNL     1     -46.211  34.835  24.637  1.00  0.00     0.024 H 
ATOM     74  H   UNL     1     -46.593  33.111  24.734  1.00  0.00     0.024 H 
ENDBRANCH  62  71
ENDBRANCH  50  53
ENDBRANCH  47  50
ENDBRANCH   8  40
TORSDOF 8
ENDMDL
MODEL 4
REMARK VINA RESULT:      -7.1      3.190      4.705
REMARK SMILES CNc1cc(N2CCC3(CC2)CN(c2ccc(CN4CCC(C)(C)CC4)c(F)c2)CC(=O)N3)ncn1
REMARK SMILES IDX 6 1 7 2 8 3 9 4 10 5 11 6 12 7 13 8 30 9 31 10 32 11 33 12
REMARK SMILES IDX 5 26 3 27 4 28 36 29 35 31 34 32 2 34 1 36 14 40 15 41 29 42
REMARK SMILES IDX 16 43 27 45 17 47 28 49 18 50 19 53 20 54 26 55 21 56 25 59
REMARK SMILES IDX 22 62 23 67 24 71
REMARK H PARENT 7 13 7 14 8 15 8 16 10 17 10 18 11 19 11 20 12 21 12 22 30 23
REMARK H PARENT 30 24 33 25 4 30 35 33 2 35 1 37 1 38 1 39 15 44 29 46 16 48
REMARK H PARENT 18 51 18 52 20 57 20 58 26 60 26 61 21 63 21 64 25 65 25 66
REMARK H PARENT 23 68 23 69 23 70 24 72 24 73 24 74
REMARK Flexibility Score: inf
ROOT
ATOM      1  N   UNL     1     -44.859  46.054  24.149  1.00  0.00    -0.356 N 
ATOM      2  C   UNL     1     -46.117  45.836  23.417  1.00  0.00     0.021 C 
ATOM      3  C   UNL     1     -47.034  44.903  24.198  1.00  0.00    -0.010 C 
ATOM      4  C   UNL     1     -47.394  45.493  25.589  1.00  0.00     0.061 C 
ATOM      5  C   UNL     1     -46.389  46.592  26.011  1.00  0.00    -0.010 C 
ATOM      6  C   UNL     1     -44.960  46.247  25.602  1.00  0.00     0.021 C 
ATOM      7  C   UNL     1     -47.394  44.346  26.645  1.00  0.00     0.042 C 
ATOM      8  N   UNL     1     -48.479  43.393  26.331  1.00  0.00    -0.360 N 
ATOM      9  C   UNL     1     -49.828  44.008  26.345  1.00  0.00     0.097 C 
ATOM     10  C   UNL     1     -49.893  45.376  25.647  1.00  0.00     0.240 C 
ATOM     11  O   UNL     1     -50.953  45.872  25.269  1.00  0.00    -0.273 OA
ATOM     12  N   UNL     1     -48.735  46.108  25.534  1.00  0.00    -0.347 N 
ATOM     13  H   UNL     1     -45.957  45.462  22.399  1.00  0.00     0.049 H 
ATOM     14  H   UNL     1     -46.610  46.808  23.284  1.00  0.00     0.049 H 
ATOM     15  H   UNL     1     -47.936  44.703  23.609  1.00  0.00     0.031 H 
ATOM     16  H   UNL     1     -46.522  43.938  24.312  1.00  0.00     0.031 H 
ATOM     17  H   UNL     1     -46.662  47.552  25.550  1.00  0.00     0.031 H 
ATOM     18  H   UNL     1     -46.437  46.763  27.094  1.00  0.00     0.031 H 
ATOM     19  H   UNL     1     -44.641  45.349  26.147  1.00  0.00     0.049 H 
ATOM     20  H   UNL     1     -44.301  47.068  25.906  1.00  0.00     0.049 H 
ATOM     21  H   UNL     1     -47.570  44.754  27.650  1.00  0.00     0.052 H 
ATOM     22  H   UNL     1     -46.407  43.872  26.667  1.00  0.00     0.052 H 
ATOM     23  H   UNL     1     -50.534  43.353  25.822  1.00  0.00     0.060 H 
ATOM     24  H   UNL     1     -50.165  44.168  27.377  1.00  0.00     0.060 H 
ATOM     25  H   UNL     1     -48.865  46.960  25.002  1.00  0.00     0.164 HD
ENDROOT
BRANCH   1  26
ATOM     26  C   UNL     1     -43.782  45.229  23.765  1.00  0.00     0.134 A 
ATOM     27  C   UNL     1     -42.348  44.333  22.099  1.00  0.00     0.131 A 
ATOM     28  C   UNL     1     -43.413  45.147  22.431  1.00  0.00     0.023 A 
ATOM     29  N   UNL     1     -41.663  43.648  23.018  1.00  0.00    -0.219 NA
ATOM     30  H   UNL     1     -43.941  45.702  21.668  1.00  0.00     0.070 H 
ATOM     31  C   UNL     1     -42.096  43.771  24.277  1.00  0.00     0.120 A 
ATOM     32  N   UNL     1     -43.125  44.520  24.695  1.00  0.00    -0.219 NA
ATOM     33  H   UNL     1     -41.561  43.209  25.036  1.00  0.00     0.106 H 
BRANCH  27  34
ATOM     34  N   UNL     1     -41.891  44.202  20.783  1.00  0.00    -0.373 N 
ATOM     35  H   UNL     1     -42.510  43.502  20.373  1.00  0.00     0.161 HD
BRANCH  34  36
ATOM     36  C   UNL     1     -41.919  45.439  20.018  1.00  0.00     0.005 C 
ATOM     37  H   UNL     1     -42.938  45.825  19.910  1.00  0.00     0.045 H 
ATOM     38  H   UNL     1     -41.472  45.309  19.026  1.00  0.00     0.045 H 
ATOM     39  H   UNL     1     -41.338  46.199  20.549  1.00  0.00     0.045 H 
ENDBRANCH  34  36
ENDBRANCH  27  34
ENDBRANCH   1  26
BRANCH   8  40
ATOM     40  C   UNL     1     -48.327  42.096  26.833  1.00  0.00     0.040 A 
ATOM     41  C   UNL     1     -47.148  41.375  26.579  1.00  0.00    -0.038 A 
ATOM     42  C   UNL     1     -49.323  41.429  27.557  1.00  0.00    -0.003 A 
ATOM     43  C   UNL     1     -46.958  40.067  27.046  1.00  0.00    -0.053 A 
ATOM     44  H   UNL     1     -46.358  41.816  25.974  1.00  0.00     0.064 H 
ATOM     45  C   UNL     1     -49.133  40.125  28.024  1.00  0.00     0.129 A 
ATOM     46  H   UNL     1     -50.269  41.901  27.799  1.00  0.00     0.068 H 
ATOM     47  C   UNL     1     -47.959  39.417  27.773  1.00  0.00     0.002 A 
ATOM     48  H   UNL     1     -46.023  39.557  26.822  1.00  0.00     0.063 H 
ATOM     49  F   UNL     1     -50.115  39.563  28.744  1.00  0.00    -0.207 F 
BRANCH  47  50
ATOM     50  C   UNL     1     -47.769  38.007  28.277  1.00  0.00     0.026 C 
ATOM     51  H   UNL     1     -48.560  37.772  29.004  1.00  0.00     0.048 H 
ATOM     52  H   UNL     1     -46.849  37.973  28.876  1.00  0.00     0.048 H 
BRANCH  50  53
ATOM     53  N   UNL     1     -47.711  36.944  27.268  1.00  0.00    -0.299 NA
ATOM     54  C   UNL     1     -46.385  36.691  26.704  1.00  0.00    -0.001 C 
ATOM     55  C   UNL     1     -48.495  35.750  27.577  1.00  0.00    -0.001 C 
ATOM     56  C   UNL     1     -45.846  35.299  27.036  1.00  0.00    -0.035 C 
ATOM     57  H   UNL     1     -46.465  36.787  25.614  1.00  0.00     0.043 H 
ATOM     58  H   UNL     1     -45.654  37.449  27.001  1.00  0.00     0.043 H 
ATOM     59  C   UNL     1     -48.260  34.656  26.534  1.00  0.00    -0.035 C 
ATOM     60  H   UNL     1     -48.250  35.340  28.562  1.00  0.00     0.043 H 
ATOM     61  H   UNL     1     -49.561  36.009  27.588  1.00  0.00     0.043 H 
ATOM     62  C   UNL     1     -46.787  34.175  26.533  1.00  0.00    -0.033 C 
ATOM     63  H   UNL     1     -44.843  35.181  26.607  1.00  0.00     0.029 H 
ATOM     64  H   UNL     1     -45.716  35.228  28.125  1.00  0.00     0.029 H 
ATOM     65  H   UNL     1     -48.941  33.816  26.721  1.00  0.00     0.029 H 
ATOM     66  H   UNL     1     -48.536  35.051  25.547  1.00  0.00     0.029 H 
BRANCH  62  67
ATOM     67  C   UNL     1     -46.397  33.756  25.104  1.00  0.00    -0.060 C 
ATOM     68  H   UNL     1     -46.285  34.626  24.449  1.00  0.00     0.024 H 
ATOM     69  H   UNL     1     -45.447  33.210  25.095  1.00  0.00     0.024 H 
ATOM     70  H   UNL     1     -47.160  33.103  24.663  1.00  0.00     0.024 H 
ENDBRANCH  62  67
BRANCH  62  71
ATOM     71  C   UNL     1     -46.630  32.949  27.452  1.00  0.00    -0.060 C 
ATOM     72  H   UNL     1     -46.252  33.242  28.438  1.00  0.00     0.024 H 
ATOM     73  H   UNL     1     -45.929  32.222  27.028  1.00  0.00     0.024 H 
ATOM     74  H   UNL     1     -47.588  32.438  27.600  1.00  0.00     0.024 H 
ENDBRANCH  62  71
ENDBRANCH  50  53
ENDBRANCH  47  50
ENDBRANCH   8  40
TORSDOF 8
ENDMDL
MODEL 5
REMARK VINA RESULT:      -7.0      2.255      3.576
REMARK SMILES CNc1cc(N2CCC3(CC2)CN(c2ccc(CN4CCC(C)(C)CC4)c(F)c2)CC(=O)N3)ncn1
REMARK SMILES IDX 6 1 7 2 8 3 9 4 10 5 11 6 12 7 13 8 30 9 31 10 32 11 33 12
REMARK SMILES IDX 5 26 3 27 4 28 36 29 35 31 34 32 2 34 1 36 14 40 15 41 29 42
REMARK SMILES IDX 16 43 27 45 17 47 28 49 18 50 19 53 20 54 26 55 21 56 25 59
REMARK SMILES IDX 22 62 23 67 24 71
REMARK H PARENT 7 13 7 14 8 15 8 16 10 17 10 18 11 19 11 20 12 21 12 22 30 23
REMARK H PARENT 30 24 33 25 4 30 35 33 2 35 1 37 1 38 1 39 15 44 29 46 16 48
REMARK H PARENT 18 51 18 52 20 57 20 58 26 60 26 61 21 63 21 64 25 65 25 66
REMARK H PARENT 23 68 23 69 23 70 24 72 24 73 24 74
REMARK Flexibility Score: inf
ROOT
ATOM      1  N   UNL     1     -45.983  45.703  25.577  1.00  0.00    -0.356 N 
ATOM      2  C   UNL     1     -44.738  45.707  26.361  1.00  0.00     0.021 C 
ATOM      3  C   UNL     1     -44.380  44.294  26.802  1.00  0.00    -0.010 C 
ATOM      4  C   UNL     1     -44.166  43.356  25.583  1.00  0.00     0.061 C 
ATOM      5  C   UNL     1     -44.818  43.936  24.305  1.00  0.00    -0.010 C 
ATOM      6  C   UNL     1     -46.151  44.617  24.603  1.00  0.00     0.021 C 
ATOM      7  C   UNL     1     -44.780  41.959  25.899  1.00  0.00     0.042 C 
ATOM      8  N   UNL     1     -44.030  41.335  27.010  1.00  0.00    -0.360 N 
ATOM      9  C   UNL     1     -42.593  41.129  26.710  1.00  0.00     0.097 C 
ATOM     10  C   UNL     1     -41.926  42.329  26.019  1.00  0.00     0.240 C 
ATOM     11  O   UNL     1     -40.705  42.480  25.996  1.00  0.00    -0.273 OA
ATOM     12  N   UNL     1     -42.721  43.207  25.321  1.00  0.00    -0.347 N 
ATOM     13  H   UNL     1     -44.781  46.385  27.223  1.00  0.00     0.049 H 
ATOM     14  H   UNL     1     -43.935  46.110  25.730  1.00  0.00     0.049 H 
ATOM     15  H   UNL     1     -43.487  44.326  27.437  1.00  0.00     0.031 H 
ATOM     16  H   UNL     1     -45.193  43.918  27.437  1.00  0.00     0.031 H 
ATOM     17  H   UNL     1     -44.147  44.672  23.838  1.00  0.00     0.031 H 
ATOM     18  H   UNL     1     -44.959  43.150  23.553  1.00  0.00     0.031 H 
ATOM     19  H   UNL     1     -46.862  43.862  24.965  1.00  0.00     0.049 H 
ATOM     20  H   UNL     1     -46.552  45.026  23.668  1.00  0.00     0.049 H 
ATOM     21  H   UNL     1     -44.708  41.303  25.021  1.00  0.00     0.052 H 
ATOM     22  H   UNL     1     -45.847  42.073  26.120  1.00  0.00     0.052 H 
ATOM     23  H   UNL     1     -42.045  40.958  27.644  1.00  0.00     0.060 H 
ATOM     24  H   UNL     1     -42.461  40.270  26.040  1.00  0.00     0.060 H 
ATOM     25  H   UNL     1     -42.200  43.997  24.960  1.00  0.00     0.164 HD
ENDROOT
BRANCH   1  26
ATOM     26  C   UNL     1     -47.157  45.997  26.300  1.00  0.00     0.134 A 
ATOM     27  C   UNL     1     -49.083  45.299  27.499  1.00  0.00     0.131 A 
ATOM     28  C   UNL     1     -47.945  44.968  26.790  1.00  0.00     0.023 A 
ATOM     29  N   UNL     1     -49.428  46.568  27.737  1.00  0.00    -0.219 NA
ATOM     30  H   UNL     1     -47.682  43.933  26.626  1.00  0.00     0.070 H 
ATOM     31  C   UNL     1     -48.622  47.498  27.214  1.00  0.00     0.120 A 
ATOM     32  N   UNL     1     -47.510  47.277  26.502  1.00  0.00    -0.219 NA
ATOM     33  H   UNL     1     -48.895  48.534  27.383  1.00  0.00     0.106 H 
BRANCH  27  34
ATOM     34  N   UNL     1     -49.929  44.330  28.049  1.00  0.00    -0.373 N 
ATOM     35  H   UNL     1     -49.652  43.465  27.583  1.00  0.00     0.161 HD
BRANCH  34  36
ATOM     36  C   UNL     1     -49.828  44.203  29.494  1.00  0.00     0.005 C 
ATOM     37  H   UNL     1     -50.058  45.146  30.000  1.00  0.00     0.045 H 
ATOM     38  H   UNL     1     -48.832  43.859  29.799  1.00  0.00     0.045 H 
ATOM     39  H   UNL     1     -50.556  43.463  29.838  1.00  0.00     0.045 H 
ENDBRANCH  34  36
ENDBRANCH  27  34
ENDBRANCH   1  26
BRANCH   8  40
ATOM     40  C   UNL     1     -44.710  40.357  27.743  1.00  0.00     0.040 A 
ATOM     41  C   UNL     1     -44.004  39.509  28.613  1.00  0.00    -0.038 A 
ATOM     42  C   UNL     1     -46.088  40.128  27.630  1.00  0.00    -0.003 A 
ATOM     43  C   UNL     1     -44.640  38.503  29.354  1.00  0.00    -0.053 A 
ATOM     44  H   UNL     1     -42.923  39.597  28.703  1.00  0.00     0.064 H 
ATOM     45  C   UNL     1     -46.722  39.126  28.369  1.00  0.00     0.129 A 
ATOM     46  H   UNL     1     -46.716  40.728  26.981  1.00  0.00     0.068 H 
ATOM     47  C   UNL     1     -46.016  38.291  29.234  1.00  0.00     0.002 A 
ATOM     48  H   UNL     1     -44.043  37.877  30.014  1.00  0.00     0.063 H 
ATOM     49  F   UNL     1     -48.049  38.990  28.239  1.00  0.00    -0.207 F 
BRANCH  47  50
ATOM     50  C   UNL     1     -46.713  37.208  30.022  1.00  0.00     0.026 C 
ATOM     51  H   UNL     1     -47.607  37.628  30.503  1.00  0.00     0.048 H 
ATOM     52  H   UNL     1     -46.071  36.928  30.869  1.00  0.00     0.048 H 
BRANCH  50  53
ATOM     53  N   UNL     1     -47.083  35.991  29.292  1.00  0.00    -0.299 NA
ATOM     54  C   UNL     1     -48.270  36.109  28.443  1.00  0.00    -0.001 C 
ATOM     55  C   UNL     1     -45.966  35.256  28.702  1.00  0.00    -0.001 C 
ATOM     56  C   UNL     1     -47.963  35.945  26.954  1.00  0.00    -0.035 C 
ATOM     57  H   UNL     1     -48.974  35.325  28.747  1.00  0.00     0.043 H 
ATOM     58  H   UNL     1     -48.807  37.049  28.606  1.00  0.00     0.043 H 
ATOM     59  C   UNL     1     -46.467  34.087  27.853  1.00  0.00    -0.035 C 
ATOM     60  H   UNL     1     -45.342  35.896  28.068  1.00  0.00     0.043 H 
ATOM     61  H   UNL     1     -45.326  34.867  29.502  1.00  0.00     0.043 H 
ATOM     62  C   UNL     1     -47.304  34.577  26.644  1.00  0.00    -0.033 C 
ATOM     63  H   UNL     1     -48.885  36.067  26.373  1.00  0.00     0.029 H 
ATOM     64  H   UNL     1     -47.302  36.765  26.644  1.00  0.00     0.029 H 
ATOM     65  H   UNL     1     -45.615  33.485  27.515  1.00  0.00     0.029 H 
ATOM     66  H   UNL     1     -47.067  33.425  28.493  1.00  0.00     0.029 H 
BRANCH  62  67
ATOM     67  C   UNL     1     -48.384  33.527  26.323  1.00  0.00    -0.060 C 
ATOM     68  H   UNL     1     -49.391  33.942  26.440  1.00  0.00     0.024 H 
ATOM     69  H   UNL     1     -48.293  33.165  25.293  1.00  0.00     0.024 H 
ATOM     70  H   UNL     1     -48.301  32.661  26.990  1.00  0.00     0.024 H 
ENDBRANCH  62  67
BRANCH  62  71
ATOM     71  C   UNL     1     -46.402  34.730  25.405  1.00  0.00    -0.060 C 
ATOM     72  H   UNL     1     -46.772  35.524  24.745  1.00  0.00     0.024 H 
ATOM     73  H   UNL     1     -46.366  33.803  24.823  1.00  0.00     0.024 H 
ATOM     74  H   UNL     1     -45.375  34.984  25.689  1.00  0.00     0.024 H 
ENDBRANCH  62  71
ENDBRANCH  50  53
ENDBRANCH  47  50
ENDBRANCH   8  40
TORSDOF 8
ENDMDL
MODEL 6
REMARK VINA RESULT:      -7.0      1.271      2.144
REMARK SMILES CNc1cc(N2CCC3(CC2)CN(c2ccc(CN4CCC(C)(C)CC4)c(F)c2)CC(=O)N3)ncn1
REMARK SMILES IDX 6 1 7 2 8 3 9 4 10 5 11 6 12 7 13 8 30 9 31 10 32 11 33 12
REMARK SMILES IDX 5 26 3 27 4 28 36 29 35 31 34 32 2 34 1 36 14 40 15 41 29 42
REMARK SMILES IDX 16 43 27 45 17 47 28 49 18 50 19 53 20 54 26 55 21 56 25 59
REMARK SMILES IDX 22 62 23 67 24 71
REMARK H PARENT 7 13 7 14 8 15 8 16 10 17 10 18 11 19 11 20 12 21 12 22 30 23
REMARK H PARENT 30 24 33 25 4 30 35 33 2 35 1 37 1 38 1 39 15 44 29 46 16 48
REMARK H PARENT 18 51 18 52 20 57 20 58 26 60 26 61 21 63 21 64 25 65 25 66
REMARK H PARENT 23 68 23 69 23 70 24 72 24 73 24 74
REMARK Flexibility Score: inf
ROOT
ATOM      1  N   UNL     1     -43.056  44.566  25.548  1.00  0.00    -0.356 N 
ATOM      2  C   UNL     1     -43.136  44.675  27.013  1.00  0.00     0.021 C 
ATOM      3  C   UNL     1     -43.524  43.335  27.628  1.00  0.00    -0.010 C 
ATOM      4  C   UNL     1     -42.480  42.235  27.294  1.00  0.00     0.061 C 
ATOM      5  C   UNL     1     -41.612  42.632  26.075  1.00  0.00    -0.010 C 
ATOM      6  C   UNL     1     -42.427  43.353  25.005  1.00  0.00     0.021 C 
ATOM      7  C   UNL     1     -43.225  40.898  26.996  1.00  0.00     0.042 C 
ATOM      8  N   UNL     1     -43.906  40.434  28.222  1.00  0.00    -0.360 N 
ATOM      9  C   UNL     1     -42.980  40.181  29.352  1.00  0.00     0.097 C 
ATOM     10  C   UNL     1     -41.910  41.269  29.531  1.00  0.00     0.240 C 
ATOM     11  O   UNL     1     -41.283  41.410  30.581  1.00  0.00    -0.273 OA
ATOM     12  N   UNL     1     -41.576  42.044  28.445  1.00  0.00    -0.347 N 
ATOM     13  H   UNL     1     -43.819  45.467  27.343  1.00  0.00     0.049 H 
ATOM     14  H   UNL     1     -42.151  44.981  27.390  1.00  0.00     0.049 H 
ATOM     15  H   UNL     1     -43.640  43.453  28.711  1.00  0.00     0.031 H 
ATOM     16  H   UNL     1     -44.512  43.056  27.241  1.00  0.00     0.031 H 
ATOM     17  H   UNL     1     -40.792  43.292  26.394  1.00  0.00     0.031 H 
ATOM     18  H   UNL     1     -41.127  41.748  25.643  1.00  0.00     0.031 H 
ATOM     19  H   UNL     1     -43.178  42.661  24.603  1.00  0.00     0.049 H 
ATOM     20  H   UNL     1     -41.758  43.629  24.182  1.00  0.00     0.049 H 
ATOM     21  H   UNL     1     -42.511  40.125  26.681  1.00  0.00     0.052 H 
ATOM     22  H   UNL     1     -43.916  41.047  26.158  1.00  0.00     0.052 H 
ATOM     23  H   UNL     1     -43.548  40.141  30.289  1.00  0.00     0.060 H 
ATOM     24  H   UNL     1     -42.443  39.236  29.203  1.00  0.00     0.060 H 
ATOM     25  H   UNL     1     -40.913  42.773  28.678  1.00  0.00     0.164 HD
ENDROOT
BRANCH   1  26
ATOM     26  C   UNL     1     -44.211  44.963  24.845  1.00  0.00     0.134 A 
ATOM     27  C   UNL     1     -46.560  44.899  24.511  1.00  0.00     0.131 A 
ATOM     28  C   UNL     1     -45.453  44.479  25.222  1.00  0.00     0.023 A 
ATOM     29  N   UNL     1     -46.467  45.764  23.496  1.00  0.00    -0.219 NA
ATOM     30  H   UNL     1     -45.559  43.791  26.049  1.00  0.00     0.070 H 
ATOM     31  C   UNL     1     -45.230  46.167  23.188  1.00  0.00     0.120 A 
ATOM     32  N   UNL     1     -44.098  45.805  23.805  1.00  0.00    -0.219 NA
ATOM     33  H   UNL     1     -45.133  46.857  22.356  1.00  0.00     0.106 H 
BRANCH  27  34
ATOM     34  N   UNL     1     -47.856  44.480  24.831  1.00  0.00    -0.373 N 
ATOM     35  H   UNL     1     -47.777  43.466  24.908  1.00  0.00     0.161 HD
BRANCH  34  36
ATOM     36  C   UNL     1     -48.383  45.060  26.056  1.00  0.00     0.005 C 
ATOM     37  H   UNL     1     -47.972  46.058  26.240  1.00  0.00     0.045 H 
ATOM     38  H   UNL     1     -48.186  44.419  26.922  1.00  0.00     0.045 H 
ATOM     39  H   UNL     1     -49.467  45.168  25.960  1.00  0.00     0.045 H 
ENDBRANCH  34  36
ENDBRANCH  27  34
ENDBRANCH   1  26
BRANCH   8  40
ATOM     40  C   UNL     1     -44.992  39.571  28.038  1.00  0.00     0.040 A 
ATOM     41  C   UNL     1     -45.020  38.324  28.685  1.00  0.00    -0.038 A 
ATOM     42  C   UNL     1     -46.068  39.858  27.188  1.00  0.00    -0.003 A 
ATOM     43  C   UNL     1     -46.078  37.420  28.517  1.00  0.00    -0.053 A 
ATOM     44  H   UNL     1     -44.187  38.017  29.315  1.00  0.00     0.064 H 
ATOM     45  C   UNL     1     -47.123  38.957  27.021  1.00  0.00     0.129 A 
ATOM     46  H   UNL     1     -46.134  40.792  26.642  1.00  0.00     0.068 H 
ATOM     47  C   UNL     1     -47.147  37.723  27.670  1.00  0.00     0.002 A 
ATOM     48  H   UNL     1     -46.048  36.469  29.045  1.00  0.00     0.063 H 
ATOM     49  F   UNL     1     -48.138  39.314  26.221  1.00  0.00    -0.207 F 
BRANCH  47  50
ATOM     50  C   UNL     1     -48.290  36.756  27.475  1.00  0.00     0.026 C 
ATOM     51  H   UNL     1     -48.807  36.990  26.534  1.00  0.00     0.048 H 
ATOM     52  H   UNL     1     -49.049  36.957  28.244  1.00  0.00     0.048 H 
BRANCH  50  53
ATOM     53  N   UNL     1     -47.961  35.327  27.503  1.00  0.00    -0.299 NA
ATOM     54  C   UNL     1     -48.987  34.439  26.956  1.00  0.00    -0.001 C 
ATOM     55  C   UNL     1     -46.588  34.999  27.125  1.00  0.00    -0.001 C 
ATOM     56  C   UNL     1     -48.533  33.698  25.697  1.00  0.00    -0.035 C 
ATOM     57  H   UNL     1     -49.235  33.702  27.730  1.00  0.00     0.043 H 
ATOM     58  H   UNL     1     -49.927  34.963  26.755  1.00  0.00     0.043 H 
ATOM     59  C   UNL     1     -46.386  33.484  27.054  1.00  0.00    -0.035 C 
ATOM     60  H   UNL     1     -46.315  35.425  26.153  1.00  0.00     0.043 H 
ATOM     61  H   UNL     1     -45.898  35.415  27.869  1.00  0.00     0.043 H 
ATOM     62  C   UNL     1     -47.267  32.842  25.951  1.00  0.00    -0.033 C 
ATOM     63  H   UNL     1     -49.352  33.070  25.325  1.00  0.00     0.029 H 
ATOM     64  H   UNL     1     -48.341  34.438  24.909  1.00  0.00     0.029 H 
ATOM     65  H   UNL     1     -45.327  33.261  26.882  1.00  0.00     0.029 H 
ATOM     66  H   UNL     1     -46.627  33.055  28.036  1.00  0.00     0.029 H 
BRANCH  62  67
ATOM     67  C   UNL     1     -47.665  31.421  26.391  1.00  0.00    -0.060 C 
ATOM     68  H   UNL     1     -47.015  30.666  25.936  1.00  0.00     0.024 H 
ATOM     69  H   UNL     1     -47.593  31.308  27.479  1.00  0.00     0.024 H 
ATOM     70  H   UNL     1     -48.697  31.193  26.100  1.00  0.00     0.024 H 
ENDBRANCH  62  67
BRANCH  62  71
ATOM     71  C   UNL     1     -46.471  32.732  24.638  1.00  0.00    -0.060 C 
ATOM     72  H   UNL     1     -46.635  31.760  24.158  1.00  0.00     0.024 H 
ATOM     73  H   UNL     1     -45.395  32.838  24.815  1.00  0.00     0.024 H 
ATOM     74  H   UNL     1     -46.768  33.510  23.926  1.00  0.00     0.024 H 
ENDBRANCH  62  71
ENDBRANCH  50  53
ENDBRANCH  47  50
ENDBRANCH   8  40
TORSDOF 8
ENDMDL
