MODEL 1
REMARK VINA RESULT:     -10.1      0.000      0.000
REMARK SMILES FC1(F)CC(CNCc2cc3ccc(Cc4cn(-c5cccn6cncc56)nn4)cc3[nH]2)C1
REMARK SMILES IDX 9 1 10 2 11 3 12 4 13 5 14 6 30 7 31 8 32 9 8 15 7 18 6 20
REMARK SMILES IDX 5 23 1 24 2 25 3 26 4 27 33 28 15 34 16 37 17 38 29 39 18 40
REMARK SMILES IDX 28 42 19 43 20 44 27 45 21 46 23 48 26 49 22 50 24 52 25 53
REMARK H PARENT 10 10 12 11 13 12 30 13 32 14 8 16 8 17 7 19 6 21 6 22 4 29
REMARK H PARENT 4 30 33 31 33 32 5 33 15 35 15 36 17 41 20 47 21 51 26 54
REMARK H PARENT 22 55 24 56
REMARK Flexibility Score: inf
ROOT
ATOM      1  C   UNL     1     -48.242  32.125  25.563  1.00  0.00     0.030 A 
ATOM      2  C   UNL     1     -46.978  32.682  25.599  1.00  0.00    -0.032 A 
ATOM      3  C   UNL     1     -47.080  33.971  26.189  1.00  0.00    -0.000 A 
ATOM      4  C   UNL     1     -46.153  34.986  26.489  1.00  0.00    -0.053 A 
ATOM      5  C   UNL     1     -46.599  36.162  27.104  1.00  0.00    -0.058 A 
ATOM      6  C   UNL     1     -47.951  36.345  27.432  1.00  0.00    -0.040 A 
ATOM      7  C   UNL     1     -48.886  35.340  27.124  1.00  0.00    -0.034 A 
ATOM      8  C   UNL     1     -48.421  34.171  26.509  1.00  0.00     0.046 A 
ATOM      9  N   UNL     1     -49.103  33.044  26.112  1.00  0.00    -0.357 N 
ATOM     10  H   UNL     1     -46.073  32.206  25.246  1.00  0.00     0.065 H 
ATOM     11  H   UNL     1     -45.101  34.858  26.253  1.00  0.00     0.063 H 
ATOM     12  H   UNL     1     -45.871  36.938  27.341  1.00  0.00     0.063 H 
ATOM     13  H   UNL     1     -49.939  35.459  27.364  1.00  0.00     0.065 H 
ATOM     14  H   UNL     1     -50.098  32.910  26.226  1.00  0.00     0.166 HD
ENDROOT
BRANCH   1  15
ATOM     15  C   UNL     1     -48.705  30.804  25.055  1.00  0.00     0.036 C 
ATOM     16  H   UNL     1     -48.202  30.589  24.106  1.00  0.00     0.049 H 
ATOM     17  H   UNL     1     -49.784  30.839  24.859  1.00  0.00     0.049 H 
BRANCH  15  18
ATOM     18  N   UNL     1     -48.393  29.778  26.042  1.00  0.00    -0.311 NA
ATOM     19  H   UNL     1     -48.932  29.948  26.889  1.00  0.00     0.123 HD
BRANCH  18  20
ATOM     20  C   UNL     1     -48.625  28.439  25.518  1.00  0.00    -0.001 C 
ATOM     21  H   UNL     1     -47.810  28.177  24.833  1.00  0.00     0.043 H 
ATOM     22  H   UNL     1     -49.559  28.403  24.944  1.00  0.00     0.043 H 
BRANCH  20  23
ATOM     23  C   UNL     1     -48.677  27.379  26.625  1.00  0.00    -0.017 C 
ATOM     24  F   UNL     1     -47.305  24.399  27.067  1.00  0.00    -0.207 F 
ATOM     25  C   UNL     1     -47.559  25.536  26.381  1.00  0.00     0.248 C 
ATOM     26  F   UNL     1     -46.864  25.449  25.223  1.00  0.00    -0.207 F 
ATOM     27  C   UNL     1     -47.334  26.844  27.171  1.00  0.00     0.015 C 
ATOM     28  C   UNL     1     -49.051  25.920  26.261  1.00  0.00     0.015 C 
ATOM     29  H   UNL     1     -47.327  26.696  28.258  1.00  0.00     0.033 H 
ATOM     30  H   UNL     1     -46.441  27.408  26.891  1.00  0.00     0.033 H 
ATOM     31  H   UNL     1     -49.683  25.429  27.010  1.00  0.00     0.033 H 
ATOM     32  H   UNL     1     -49.498  25.762  25.276  1.00  0.00     0.033 H 
ATOM     33  H   UNL     1     -49.306  27.773  27.436  1.00  0.00     0.032 H 
ENDBRANCH  20  23
ENDBRANCH  18  20
ENDBRANCH  15  18
ENDBRANCH   1  15
BRANCH   6  34
ATOM     34  C   UNL     1     -48.405  37.610  28.124  1.00  0.00     0.018 C 
ATOM     35  H   UNL     1     -49.400  37.893  27.764  1.00  0.00     0.038 H 
ATOM     36  H   UNL     1     -48.479  37.466  29.208  1.00  0.00     0.038 H 
BRANCH  34  37
ATOM     37  C   UNL     1     -47.397  38.658  27.815  1.00  0.00     0.088 A 
ATOM     38  C   UNL     1     -47.304  39.538  26.760  1.00  0.00     0.055 A 
ATOM     39  N   UNL     1     -46.326  38.850  28.631  1.00  0.00    -0.135 NA
ATOM     40  N   UNL     1     -46.165  40.310  26.983  1.00  0.00    -0.218 N 
ATOM     41  H   UNL     1     -47.949  39.693  25.910  1.00  0.00     0.086 H 
ATOM     42  N   UNL     1     -45.588  39.826  28.127  1.00  0.00    -0.062 NA
BRANCH  40  43
ATOM     43  C   UNL     1     -45.692  41.383  26.178  1.00  0.00     0.092 A 
ATOM     44  C   UNL     1     -44.485  41.358  25.548  1.00  0.00    -0.033 A 
ATOM     45  C   UNL     1     -46.496  42.569  25.987  1.00  0.00     0.091 A 
ATOM     46  C   UNL     1     -43.993  42.448  24.718  1.00  0.00    -0.043 A 
ATOM     47  H   UNL     1     -43.810  40.511  25.619  1.00  0.00     0.065 H 
ATOM     48  N   UNL     1     -45.994  43.588  25.188  1.00  0.00    -0.304 N 
ATOM     49  C   UNL     1     -47.729  43.034  26.401  1.00  0.00     0.055 A 
ATOM     50  C   UNL     1     -44.759  43.537  24.557  1.00  0.00     0.011 A 
ATOM     51  H   UNL     1     -43.021  42.354  24.246  1.00  0.00     0.064 H 
ATOM     52  C   UNL     1     -46.936  44.584  25.170  1.00  0.00     0.099 A 
ATOM     53  N   UNL     1     -47.991  44.282  25.891  1.00  0.00    -0.244 NA
ATOM     54  H   UNL     1     -48.451  42.541  27.043  1.00  0.00     0.086 H 
ATOM     55  H   UNL     1     -44.464  44.386  23.954  1.00  0.00     0.082 H 
ATOM     56  H   UNL     1     -46.797  45.502  24.615  1.00  0.00     0.105 H 
ENDBRANCH  40  43
ENDBRANCH  34  37
ENDBRANCH   6  34
TORSDOF 7
ENDMDL
MODEL 2
REMARK VINA RESULT:      -9.9      2.062      3.008
REMARK SMILES FC1(F)CC(CNCc2cc3ccc(Cc4cn(-c5cccn6cncc56)nn4)cc3[nH]2)C1
REMARK SMILES IDX 9 1 10 2 11 3 12 4 13 5 14 6 30 7 31 8 32 9 8 15 7 18 6 20
REMARK SMILES IDX 5 23 1 24 2 25 3 26 4 27 33 28 15 34 16 37 17 38 29 39 18 40
REMARK SMILES IDX 28 42 19 43 20 44 27 45 21 46 23 48 26 49 22 50 24 52 25 53
REMARK H PARENT 10 10 12 11 13 12 30 13 32 14 8 16 8 17 7 19 6 21 6 22 4 29
REMARK H PARENT 4 30 33 31 33 32 5 33 15 35 15 36 17 41 20 47 21 51 26 54
REMARK H PARENT 22 55 24 56
REMARK Flexibility Score: inf
ROOT
ATOM      1  C   UNL     1     -47.641  32.151  24.843  1.00  0.00     0.030 A 
ATOM      2  C   UNL     1     -46.383  32.661  25.100  1.00  0.00    -0.032 A 
ATOM      3  C   UNL     1     -46.528  33.784  25.959  1.00  0.00    -0.000 A 
ATOM      4  C   UNL     1     -45.625  34.687  26.550  1.00  0.00    -0.053 A 
ATOM      5  C   UNL     1     -46.115  35.702  27.381  1.00  0.00    -0.058 A 
ATOM      6  C   UNL     1     -47.487  35.832  27.639  1.00  0.00    -0.040 A 
ATOM      7  C   UNL     1     -48.398  34.941  27.042  1.00  0.00    -0.034 A 
ATOM      8  C   UNL     1     -47.889  33.933  26.214  1.00  0.00     0.046 A 
ATOM      9  N   UNL     1     -48.540  32.939  25.520  1.00  0.00    -0.357 N 
ATOM     10  H   UNL     1     -45.454  32.260  24.717  1.00  0.00     0.065 H 
ATOM     11  H   UNL     1     -44.558  34.595  26.371  1.00  0.00     0.063 H 
ATOM     12  H   UNL     1     -45.406  36.389  27.842  1.00  0.00     0.063 H 
ATOM     13  H   UNL     1     -49.466  35.024  27.223  1.00  0.00     0.065 H 
ATOM     14  H   UNL     1     -49.541  32.803  25.527  1.00  0.00     0.166 HD
ENDROOT
BRANCH   1  15
ATOM     15  C   UNL     1     -48.066  30.990  24.015  1.00  0.00     0.036 C 
ATOM     16  H   UNL     1     -47.402  30.906  23.147  1.00  0.00     0.049 H 
ATOM     17  H   UNL     1     -49.084  31.153  23.640  1.00  0.00     0.049 H 
BRANCH  15  18
ATOM     18  N   UNL     1     -48.002  29.779  24.824  1.00  0.00    -0.311 NA
ATOM     19  H   UNL     1     -48.946  29.456  25.026  1.00  0.00     0.123 HD
BRANCH  18  20
ATOM     20  C   UNL     1     -47.208  28.742  24.180  1.00  0.00    -0.001 C 
ATOM     21  H   UNL     1     -46.199  28.745  24.611  1.00  0.00     0.043 H 
ATOM     22  H   UNL     1     -47.105  28.942  23.107  1.00  0.00     0.043 H 
BRANCH  20  23
ATOM     23  C   UNL     1     -47.804  27.343  24.374  1.00  0.00    -0.017 C 
ATOM     24  F   UNL     1     -48.900  25.615  26.976  1.00  0.00    -0.207 F 
ATOM     25  C   UNL     1     -48.351  26.691  26.369  1.00  0.00     0.248 C 
ATOM     26  F   UNL     1     -48.120  27.603  27.342  1.00  0.00    -0.207 F 
ATOM     27  C   UNL     1     -49.134  27.230  25.152  1.00  0.00     0.015 C 
ATOM     28  C   UNL     1     -47.172  26.388  25.418  1.00  0.00     0.015 C 
ATOM     29  H   UNL     1     -49.832  26.498  24.730  1.00  0.00     0.033 H 
ATOM     30  H   UNL     1     -49.673  28.165  25.324  1.00  0.00     0.033 H 
ATOM     31  H   UNL     1     -47.140  25.341  25.092  1.00  0.00     0.033 H 
ATOM     32  H   UNL     1     -46.183  26.661  25.794  1.00  0.00     0.033 H 
ATOM     33  H   UNL     1     -47.883  26.873  23.383  1.00  0.00     0.032 H 
ENDBRANCH  20  23
ENDBRANCH  18  20
ENDBRANCH  15  18
ENDBRANCH   1  15
BRANCH   6  34
ATOM     34  C   UNL     1     -47.991  36.916  28.565  1.00  0.00     0.018 C 
ATOM     35  H   UNL     1     -49.075  37.030  28.449  1.00  0.00     0.038 H 
ATOM     36  H   UNL     1     -47.801  36.663  29.614  1.00  0.00     0.038 H 
BRANCH  34  37
ATOM     37  C   UNL     1     -47.272  38.165  28.200  1.00  0.00     0.088 A 
ATOM     38  C   UNL     1     -45.927  38.460  28.181  1.00  0.00     0.055 A 
ATOM     39  N   UNL     1     -47.962  39.278  27.833  1.00  0.00    -0.135 NA
ATOM     40  N   UNL     1     -45.814  39.777  27.742  1.00  0.00    -0.218 N 
ATOM     41  H   UNL     1     -45.068  37.851  28.409  1.00  0.00     0.086 H 
ATOM     42  N   UNL     1     -47.092  40.241  27.572  1.00  0.00    -0.062 NA
BRANCH  40  43
ATOM     43  C   UNL     1     -44.610  40.501  27.521  1.00  0.00     0.092 A 
ATOM     44  C   UNL     1     -44.383  41.234  26.396  1.00  0.00    -0.033 A 
ATOM     45  C   UNL     1     -43.555  40.493  28.510  1.00  0.00     0.091 A 
ATOM     46  C   UNL     1     -43.156  41.983  26.162  1.00  0.00    -0.043 A 
ATOM     47  H   UNL     1     -45.114  41.314  25.598  1.00  0.00     0.065 H 
ATOM     48  N   UNL     1     -42.400  41.220  28.253  1.00  0.00    -0.304 N 
ATOM     49  C   UNL     1     -43.333  39.925  29.749  1.00  0.00     0.055 A 
ATOM     50  C   UNL     1     -42.195  41.959  27.095  1.00  0.00     0.011 A 
ATOM     51  H   UNL     1     -43.050  42.546  25.241  1.00  0.00     0.064 H 
ATOM     52  C   UNL     1     -41.570  41.048  29.330  1.00  0.00     0.099 A 
ATOM     53  N   UNL     1     -42.101  40.274  30.247  1.00  0.00    -0.244 NA
ATOM     54  H   UNL     1     -43.992  39.279  30.318  1.00  0.00     0.086 H 
ATOM     55  H   UNL     1     -41.257  42.491  26.996  1.00  0.00     0.082 H 
ATOM     56  H   UNL     1     -40.594  41.512  29.389  1.00  0.00     0.105 H 
ENDBRANCH  40  43
ENDBRANCH  34  37
ENDBRANCH   6  34
TORSDOF 7
ENDMDL
MODEL 3
REMARK VINA RESULT:      -9.7      1.735      2.334
REMARK SMILES FC1(F)CC(CNCc2cc3ccc(Cc4cn(-c5cccn6cncc56)nn4)cc3[nH]2)C1
REMARK SMILES IDX 9 1 10 2 11 3 12 4 13 5 14 6 30 7 31 8 32 9 8 15 7 18 6 20
REMARK SMILES IDX 5 23 1 24 2 25 3 26 4 27 33 28 15 34 16 37 17 38 29 39 18 40
REMARK SMILES IDX 28 42 19 43 20 44 27 45 21 46 23 48 26 49 22 50 24 52 25 53
REMARK H PARENT 10 10 12 11 13 12 30 13 32 14 8 16 8 17 7 19 6 21 6 22 4 29
REMARK H PARENT 4 30 33 31 33 32 5 33 15 35 15 36 17 41 20 47 21 51 26 54
REMARK H PARENT 22 55 24 56
REMARK Flexibility Score: inf
ROOT
ATOM      1  C   UNL     1     -47.186  32.966  25.723  1.00  0.00     0.030 A 
ATOM      2  C   UNL     1     -48.278  33.743  26.057  1.00  0.00    -0.032 A 
ATOM      3  C   UNL     1     -47.848  34.742  26.971  1.00  0.00    -0.000 A 
ATOM      4  C   UNL     1     -48.493  35.797  27.642  1.00  0.00    -0.053 A 
ATOM      5  C   UNL     1     -47.748  36.631  28.486  1.00  0.00    -0.058 A 
ATOM      6  C   UNL     1     -46.371  36.436  28.670  1.00  0.00    -0.040 A 
ATOM      7  C   UNL     1     -45.721  35.375  28.012  1.00  0.00    -0.034 A 
ATOM      8  C   UNL     1     -46.483  34.553  27.173  1.00  0.00     0.046 A 
ATOM      9  N   UNL     1     -46.109  33.467  26.414  1.00  0.00    -0.357 N 
ATOM     10  H   UNL     1     -49.281  33.610  25.674  1.00  0.00     0.065 H 
ATOM     11  H   UNL     1     -49.555  35.971  27.503  1.00  0.00     0.063 H 
ATOM     12  H   UNL     1     -48.255  37.451  28.993  1.00  0.00     0.063 H 
ATOM     13  H   UNL     1     -44.657  35.202  28.142  1.00  0.00     0.065 H 
ATOM     14  H   UNL     1     -45.168  33.105  26.364  1.00  0.00     0.166 HD
ENDROOT
BRANCH   1  15
ATOM     15  C   UNL     1     -47.071  31.794  24.813  1.00  0.00     0.036 C 
ATOM     16  H   UNL     1     -46.011  31.549  24.677  1.00  0.00     0.049 H 
ATOM     17  H   UNL     1     -47.483  32.047  23.828  1.00  0.00     0.049 H 
BRANCH  15  18
ATOM     18  N   UNL     1     -47.784  30.665  25.396  1.00  0.00    -0.311 NA
ATOM     19  H   UNL     1     -48.661  30.990  25.800  1.00  0.00     0.123 HD
BRANCH  18  20
ATOM     20  C   UNL     1     -48.004  29.605  24.421  1.00  0.00    -0.001 C 
ATOM     21  H   UNL     1     -47.053  29.092  24.231  1.00  0.00     0.043 H 
ATOM     22  H   UNL     1     -48.349  30.020  23.467  1.00  0.00     0.043 H 
BRANCH  20  23
ATOM     23  C   UNL     1     -49.018  28.563  24.909  1.00  0.00    -0.017 C 
ATOM     24  F   UNL     1     -48.854  25.369  25.761  1.00  0.00    -0.207 F 
ATOM     25  C   UNL     1     -48.348  26.542  25.317  1.00  0.00     0.248 C 
ATOM     26  F   UNL     1     -47.027  26.333  25.107  1.00  0.00    -0.207 F 
ATOM     27  C   UNL     1     -48.676  27.771  26.191  1.00  0.00     0.015 C 
ATOM     28  C   UNL     1     -49.131  27.209  24.164  1.00  0.00     0.015 C 
ATOM     29  H   UNL     1     -49.534  27.613  26.854  1.00  0.00     0.033 H 
ATOM     30  H   UNL     1     -47.843  28.155  26.785  1.00  0.00     0.033 H 
ATOM     31  H   UNL     1     -50.160  26.842  24.074  1.00  0.00     0.033 H 
ATOM     32  H   UNL     1     -48.657  27.152  23.181  1.00  0.00     0.033 H 
ATOM     33  H   UNL     1     -49.993  29.063  25.000  1.00  0.00     0.032 H 
ENDBRANCH  20  23
ENDBRANCH  18  20
ENDBRANCH  15  18
ENDBRANCH   1  15
BRANCH   6  34
ATOM     34  C   UNL     1     -45.580  37.367  29.561  1.00  0.00     0.018 C 
ATOM     35  H   UNL     1     -46.142  37.567  30.480  1.00  0.00     0.038 H 
ATOM     36  H   UNL     1     -44.624  36.919  29.855  1.00  0.00     0.038 H 
BRANCH  34  37
ATOM     37  C   UNL     1     -45.345  38.613  28.786  1.00  0.00     0.088 A 
ATOM     38  C   UNL     1     -44.176  39.216  28.380  1.00  0.00     0.055 A 
ATOM     39  N   UNL     1     -46.390  39.382  28.380  1.00  0.00    -0.135 NA
ATOM     40  N   UNL     1     -44.542  40.357  27.667  1.00  0.00    -0.218 N 
ATOM     41  H   UNL     1     -43.147  38.923  28.510  1.00  0.00     0.086 H 
ATOM     42  N   UNL     1     -45.909  40.426  27.723  1.00  0.00    -0.062 NA
BRANCH  40  43
ATOM     43  C   UNL     1     -43.669  41.272  27.016  1.00  0.00     0.092 A 
ATOM     44  C   UNL     1     -42.332  41.322  27.264  1.00  0.00    -0.033 A 
ATOM     45  C   UNL     1     -44.179  42.204  26.036  1.00  0.00     0.091 A 
ATOM     46  C   UNL     1     -41.428  42.251  26.600  1.00  0.00    -0.043 A 
ATOM     47  H   UNL     1     -41.847  40.659  27.974  1.00  0.00     0.065 H 
ATOM     48  N   UNL     1     -43.288  43.075  25.422  1.00  0.00    -0.304 N 
ATOM     49  C   UNL     1     -45.404  42.516  25.476  1.00  0.00     0.055 A 
ATOM     50  C   UNL     1     -41.927  43.104  25.694  1.00  0.00     0.011 A 
ATOM     51  H   UNL     1     -40.373  42.229  26.849  1.00  0.00     0.064 H 
ATOM     52  C   UNL     1     -44.015  43.842  24.549  1.00  0.00     0.099 A 
ATOM     53  N   UNL     1     -45.291  43.532  24.558  1.00  0.00    -0.244 NA
ATOM     54  H   UNL     1     -46.368  42.067  25.681  1.00  0.00     0.086 H 
ATOM     55  H   UNL     1     -41.321  43.823  25.157  1.00  0.00     0.082 H 
ATOM     56  H   UNL     1     -43.560  44.607  23.935  1.00  0.00     0.105 H 
ENDBRANCH  40  43
ENDBRANCH  34  37
ENDBRANCH   6  34
TORSDOF 7
ENDMDL
MODEL 4
REMARK VINA RESULT:      -9.6      4.945     11.664
REMARK SMILES FC1(F)CC(CNCc2cc3ccc(Cc4cn(-c5cccn6cncc56)nn4)cc3[nH]2)C1
REMARK SMILES IDX 9 1 10 2 11 3 12 4 13 5 14 6 30 7 31 8 32 9 8 15 7 18 6 20
REMARK SMILES IDX 5 23 1 24 2 25 3 26 4 27 33 28 15 34 16 37 17 38 29 39 18 40
REMARK SMILES IDX 28 42 19 43 20 44 27 45 21 46 23 48 26 49 22 50 24 52 25 53
REMARK H PARENT 10 10 12 11 13 12 30 13 32 14 8 16 8 17 7 19 6 21 6 22 4 29
REMARK H PARENT 4 30 33 31 33 32 5 33 15 35 15 36 17 41 20 47 21 51 26 54
REMARK H PARENT 22 55 24 56
REMARK Flexibility Score: inf
ROOT
ATOM      1  C   UNL     1     -43.775  40.531  28.193  1.00  0.00     0.030 A 
ATOM      2  C   UNL     1     -44.528  40.500  27.035  1.00  0.00    -0.032 A 
ATOM      3  C   UNL     1     -45.451  39.425  27.136  1.00  0.00    -0.000 A 
ATOM      4  C   UNL     1     -46.453  38.912  26.291  1.00  0.00    -0.053 A 
ATOM      5  C   UNL     1     -47.215  37.817  26.717  1.00  0.00    -0.058 A 
ATOM      6  C   UNL     1     -47.001  37.224  27.970  1.00  0.00    -0.040 A 
ATOM      7  C   UNL     1     -45.992  37.723  28.815  1.00  0.00    -0.034 A 
ATOM      8  C   UNL     1     -45.242  38.818  28.372  1.00  0.00     0.046 A 
ATOM      9  N   UNL     1     -44.217  39.501  28.988  1.00  0.00    -0.357 N 
ATOM     10  H   UNL     1     -44.430  41.188  26.206  1.00  0.00     0.065 H 
ATOM     11  H   UNL     1     -46.641  39.364  25.322  1.00  0.00     0.063 H 
ATOM     12  H   UNL     1     -47.995  37.434  26.059  1.00  0.00     0.063 H 
ATOM     13  H   UNL     1     -45.805  37.279  29.789  1.00  0.00     0.065 H 
ATOM     14  H   UNL     1     -43.856  39.280  29.905  1.00  0.00     0.166 HD
ENDROOT
BRANCH   1  15
ATOM     15  C   UNL     1     -42.678  41.445  28.612  1.00  0.00     0.036 C 
ATOM     16  H   UNL     1     -41.714  40.969  28.400  1.00  0.00     0.049 H 
ATOM     17  H   UNL     1     -42.732  41.619  29.694  1.00  0.00     0.049 H 
BRANCH  15  18
ATOM     18  N   UNL     1     -42.798  42.701  27.882  1.00  0.00    -0.311 NA
ATOM     19  H   UNL     1     -42.425  43.460  28.449  1.00  0.00     0.123 HD
BRANCH  18  20
ATOM     20  C   UNL     1     -42.145  42.632  26.582  1.00  0.00    -0.001 C 
ATOM     21  H   UNL     1     -42.371  41.663  26.119  1.00  0.00     0.043 H 
ATOM     22  H   UNL     1     -41.056  42.696  26.690  1.00  0.00     0.043 H 
BRANCH  20  23
ATOM     23  C   UNL     1     -42.619  43.736  25.630  1.00  0.00    -0.017 C 
ATOM     24  F   UNL     1     -44.417  43.809  22.852  1.00  0.00    -0.207 F 
ATOM     25  C   UNL     1     -43.799  43.203  23.890  1.00  0.00     0.248 C 
ATOM     26  F   UNL     1     -44.047  41.878  23.764  1.00  0.00    -0.207 F 
ATOM     27  C   UNL     1     -44.123  43.789  25.281  1.00  0.00     0.015 C 
ATOM     28  C   UNL     1     -42.325  43.608  24.114  1.00  0.00     0.015 C 
ATOM     29  H   UNL     1     -44.531  44.806  25.237  1.00  0.00     0.033 H 
ATOM     30  H   UNL     1     -44.783  43.177  25.902  1.00  0.00     0.033 H 
ATOM     31  H   UNL     1     -42.063  44.559  23.635  1.00  0.00     0.033 H 
ATOM     32  H   UNL     1     -41.583  42.860  23.822  1.00  0.00     0.033 H 
ATOM     33  H   UNL     1     -42.271  44.697  26.034  1.00  0.00     0.032 H 
ENDBRANCH  20  23
ENDBRANCH  18  20
ENDBRANCH  15  18
ENDBRANCH   1  15
BRANCH   6  34
ATOM     34  C   UNL     1     -47.856  36.062  28.422  1.00  0.00     0.018 C 
ATOM     35  H   UNL     1     -47.784  35.948  29.509  1.00  0.00     0.038 H 
ATOM     36  H   UNL     1     -48.912  36.228  28.180  1.00  0.00     0.038 H 
BRANCH  34  37
ATOM     37  C   UNL     1     -47.353  34.855  27.715  1.00  0.00     0.088 A 
ATOM     38  C   UNL     1     -47.689  34.319  26.492  1.00  0.00     0.055 A 
ATOM     39  N   UNL     1     -46.419  34.053  28.295  1.00  0.00    -0.135 NA
ATOM     40  N   UNL     1     -46.893  33.188  26.320  1.00  0.00    -0.218 N 
ATOM     41  H   UNL     1     -48.385  34.654  25.742  1.00  0.00     0.086 H 
ATOM     42  N   UNL     1     -46.155  33.055  27.467  1.00  0.00    -0.062 NA
BRANCH  40  43
ATOM     43  C   UNL     1     -46.858  32.336  25.182  1.00  0.00     0.092 A 
ATOM     44  C   UNL     1     -46.005  32.529  24.139  1.00  0.00    -0.033 A 
ATOM     45  C   UNL     1     -47.744  31.198  25.088  1.00  0.00     0.091 A 
ATOM     46  C   UNL     1     -45.956  31.659  22.972  1.00  0.00    -0.043 A 
ATOM     47  H   UNL     1     -45.292  33.347  24.116  1.00  0.00     0.065 H 
ATOM     48  N   UNL     1     -47.669  30.390  23.960  1.00  0.00    -0.304 N 
ATOM     49  C   UNL     1     -48.737  30.620  25.857  1.00  0.00     0.055 A 
ATOM     50  C   UNL     1     -46.789  30.611  22.910  1.00  0.00     0.011 A 
ATOM     51  H   UNL     1     -45.246  31.877  22.181  1.00  0.00     0.064 H 
ATOM     52  C   UNL     1     -48.602  29.397  24.116  1.00  0.00     0.099 A 
ATOM     53  N   UNL     1     -49.261  29.508  25.245  1.00  0.00    -0.244 NA
ATOM     54  H   UNL     1     -49.108  30.942  26.823  1.00  0.00     0.086 H 
ATOM     55  H   UNL     1     -46.812  29.919  22.078  1.00  0.00     0.082 H 
ATOM     56  H   UNL     1     -48.753  28.625  23.374  1.00  0.00     0.105 H 
ENDBRANCH  40  43
ENDBRANCH  34  37
ENDBRANCH   6  34
TORSDOF 7
ENDMDL
MODEL 5
REMARK VINA RESULT:      -9.5      3.161      4.358
REMARK SMILES FC1(F)CC(CNCc2cc3ccc(Cc4cn(-c5cccn6cncc56)nn4)cc3[nH]2)C1
REMARK SMILES IDX 9 1 10 2 11 3 12 4 13 5 14 6 30 7 31 8 32 9 8 15 7 18 6 20
REMARK SMILES IDX 5 23 1 24 2 25 3 26 4 27 33 28 15 34 16 37 17 38 29 39 18 40
REMARK SMILES IDX 28 42 19 43 20 44 27 45 21 46 23 48 26 49 22 50 24 52 25 53
REMARK H PARENT 10 10 12 11 13 12 30 13 32 14 8 16 8 17 7 19 6 21 6 22 4 29
REMARK H PARENT 4 30 33 31 33 32 5 33 15 35 15 36 17 41 20 47 21 51 26 54
REMARK H PARENT 22 55 24 56
REMARK Flexibility Score: inf
ROOT
ATOM      1  C   UNL     1     -48.476  29.733  23.717  1.00  0.00     0.030 A 
ATOM      2  C   UNL     1     -49.425  30.503  24.362  1.00  0.00    -0.032 A 
ATOM      3  C   UNL     1     -48.760  31.592  24.986  1.00  0.00    -0.000 A 
ATOM      4  C   UNL     1     -49.189  32.683  25.766  1.00  0.00    -0.053 A 
ATOM      5  C   UNL     1     -48.245  33.611  26.224  1.00  0.00    -0.058 A 
ATOM      6  C   UNL     1     -46.883  33.476  25.918  1.00  0.00    -0.040 A 
ATOM      7  C   UNL     1     -46.445  32.381  25.150  1.00  0.00    -0.034 A 
ATOM      8  C   UNL     1     -47.403  31.465  24.701  1.00  0.00     0.046 A 
ATOM      9  N   UNL     1     -47.257  30.327  23.939  1.00  0.00    -0.357 N 
ATOM     10  H   UNL     1     -50.488  30.306  24.373  1.00  0.00     0.065 H 
ATOM     11  H   UNL     1     -50.240  32.810  26.004  1.00  0.00     0.063 H 
ATOM     12  H   UNL     1     -48.589  34.457  26.819  1.00  0.00     0.063 H 
ATOM     13  H   UNL     1     -45.395  32.253  24.903  1.00  0.00     0.065 H 
ATOM     14  H   UNL     1     -46.374  29.991  23.582  1.00  0.00     0.166 HD
ENDROOT
BRANCH   1  15
ATOM     15  C   UNL     1     -48.620  28.489  22.913  1.00  0.00     0.036 C 
ATOM     16  H   UNL     1     -47.938  28.536  22.055  1.00  0.00     0.049 H 
ATOM     17  H   UNL     1     -49.642  28.415  22.522  1.00  0.00     0.049 H 
BRANCH  15  18
ATOM     18  N   UNL     1     -48.304  27.340  23.752  1.00  0.00    -0.311 NA
ATOM     19  H   UNL     1     -47.511  27.564  24.349  1.00  0.00     0.123 HD
BRANCH  18  20
ATOM     20  C   UNL     1     -49.457  26.909  24.531  1.00  0.00    -0.001 C 
ATOM     21  H   UNL     1     -49.882  26.008  24.072  1.00  0.00     0.043 H 
ATOM     22  H   UNL     1     -50.238  27.678  24.526  1.00  0.00     0.043 H 
BRANCH  20  23
ATOM     23  C   UNL     1     -49.090  26.578  25.983  1.00  0.00    -0.017 C 
ATOM     24  F   UNL     1     -46.677  24.845  27.442  1.00  0.00    -0.207 F 
ATOM     25  C   UNL     1     -47.353  25.344  26.382  1.00  0.00     0.248 C 
ATOM     26  F   UNL     1     -46.684  24.939  25.277  1.00  0.00    -0.207 F 
ATOM     27  C   UNL     1     -47.642  26.859  26.441  1.00  0.00     0.015 C 
ATOM     28  C   UNL     1     -48.877  25.099  26.392  1.00  0.00     0.015 C 
ATOM     29  H   UNL     1     -47.572  27.273  27.454  1.00  0.00     0.033 H 
ATOM     30  H   UNL     1     -47.036  27.475  25.771  1.00  0.00     0.033 H 
ATOM     31  H   UNL     1     -49.269  24.858  27.387  1.00  0.00     0.033 H 
ATOM     32  H   UNL     1     -49.236  24.341  25.689  1.00  0.00     0.033 H 
ATOM     33  H   UNL     1     -49.818  27.083  26.634  1.00  0.00     0.032 H 
ENDBRANCH  20  23
ENDBRANCH  18  20
ENDBRANCH  15  18
ENDBRANCH   1  15
BRANCH   6  34
ATOM     34  C   UNL     1     -45.886  34.507  26.398  1.00  0.00     0.018 C 
ATOM     35  H   UNL     1     -45.095  34.017  26.975  1.00  0.00     0.038 H 
ATOM     36  H   UNL     1     -45.407  35.018  25.555  1.00  0.00     0.038 H 
BRANCH  34  37
ATOM     37  C   UNL     1     -46.639  35.483  27.228  1.00  0.00     0.088 A 
ATOM     38  C   UNL     1     -47.262  36.664  26.891  1.00  0.00     0.055 A 
ATOM     39  N   UNL     1     -46.775  35.291  28.568  1.00  0.00    -0.135 NA
ATOM     40  N   UNL     1     -47.828  37.165  28.062  1.00  0.00    -0.218 N 
ATOM     41  H   UNL     1     -47.371  37.158  25.940  1.00  0.00     0.086 H 
ATOM     42  N   UNL     1     -47.474  36.300  29.064  1.00  0.00    -0.062 NA
BRANCH  40  43
ATOM     43  C   UNL     1     -48.612  38.344  28.193  1.00  0.00     0.092 A 
ATOM     44  C   UNL     1     -48.066  39.583  28.335  1.00  0.00    -0.033 A 
ATOM     45  C   UNL     1     -50.056  38.273  28.174  1.00  0.00     0.091 A 
ATOM     46  C   UNL     1     -48.859  40.797  28.464  1.00  0.00    -0.043 A 
ATOM     47  H   UNL     1     -46.993  39.746  28.351  1.00  0.00     0.065 H 
ATOM     48  N   UNL     1     -50.779  39.452  28.299  1.00  0.00    -0.304 N 
ATOM     49  C   UNL     1     -51.020  37.290  28.059  1.00  0.00     0.055 A 
ATOM     50  C   UNL     1     -50.196  40.704  28.443  1.00  0.00     0.011 A 
ATOM     51  H   UNL     1     -48.351  41.750  28.570  1.00  0.00     0.064 H 
ATOM     52  C   UNL     1     -52.107  39.114  28.253  1.00  0.00     0.099 A 
ATOM     53  N   UNL     1     -52.286  37.821  28.110  1.00  0.00    -0.244 NA
ATOM     54  H   UNL     1     -50.878  36.222  27.941  1.00  0.00     0.086 H 
ATOM     55  H   UNL     1     -50.853  41.559  28.531  1.00  0.00     0.082 H 
ATOM     56  H   UNL     1     -52.894  39.852  28.328  1.00  0.00     0.105 H 
ENDBRANCH  40  43
ENDBRANCH  34  37
ENDBRANCH   6  34
TORSDOF 7
ENDMDL
MODEL 6
REMARK VINA RESULT:      -9.5      4.540      6.992
REMARK SMILES FC1(F)CC(CNCc2cc3ccc(Cc4cn(-c5cccn6cncc56)nn4)cc3[nH]2)C1
REMARK SMILES IDX 9 1 10 2 11 3 12 4 13 5 14 6 30 7 31 8 32 9 8 15 7 18 6 20
REMARK SMILES IDX 5 23 1 24 2 25 3 26 4 27 33 28 15 34 16 37 17 38 29 39 18 40
REMARK SMILES IDX 28 42 19 43 20 44 27 45 21 46 23 48 26 49 22 50 24 52 25 53
REMARK H PARENT 10 10 12 11 13 12 30 13 32 14 8 16 8 17 7 19 6 21 6 22 4 29
REMARK H PARENT 4 30 33 31 33 32 5 33 15 35 15 36 17 41 20 47 21 51 26 54
REMARK H PARENT 22 55 24 56
REMARK Flexibility Score: inf
ROOT
ATOM      1  C   UNL     1     -45.073  38.010  29.610  1.00  0.00     0.030 A 
ATOM      2  C   UNL     1     -44.004  38.423  30.382  1.00  0.00    -0.032 A 
ATOM      3  C   UNL     1     -43.361  39.496  29.707  1.00  0.00    -0.000 A 
ATOM      4  C   UNL     1     -42.246  40.304  29.995  1.00  0.00    -0.053 A 
ATOM      5  C   UNL     1     -41.879  41.312  29.095  1.00  0.00    -0.058 A 
ATOM      6  C   UNL     1     -42.605  41.534  27.916  1.00  0.00    -0.040 A 
ATOM      7  C   UNL     1     -43.713  40.722  27.614  1.00  0.00    -0.034 A 
ATOM      8  C   UNL     1     -44.064  39.719  28.526  1.00  0.00     0.046 A 
ATOM      9  N   UNL     1     -45.089  38.801  28.488  1.00  0.00    -0.357 N 
ATOM     10  H   UNL     1     -43.722  38.002  31.337  1.00  0.00     0.065 H 
ATOM     11  H   UNL     1     -41.678  40.155  30.909  1.00  0.00     0.063 H 
ATOM     12  H   UNL     1     -41.020  41.939  29.333  1.00  0.00     0.063 H 
ATOM     13  H   UNL     1     -44.288  40.871  26.705  1.00  0.00     0.065 H 
ATOM     14  H   UNL     1     -45.767  38.736  27.741  1.00  0.00     0.166 HD
ENDROOT
BRANCH   1  15
ATOM     15  C   UNL     1     -46.077  36.935  29.840  1.00  0.00     0.036 C 
ATOM     16  H   UNL     1     -46.239  36.821  30.919  1.00  0.00     0.049 H 
ATOM     17  H   UNL     1     -45.694  35.980  29.459  1.00  0.00     0.049 H 
BRANCH  15  18
ATOM     18  N   UNL     1     -47.322  37.294  29.173  1.00  0.00    -0.311 NA
ATOM     19  H   UNL     1     -47.122  37.933  28.405  1.00  0.00     0.123 HD
BRANCH  18  20
ATOM     20  C   UNL     1     -48.047  36.117  28.715  1.00  0.00    -0.001 C 
ATOM     21  H   UNL     1     -49.081  36.170  29.077  1.00  0.00     0.043 H 
ATOM     22  H   UNL     1     -47.603  35.203  29.127  1.00  0.00     0.043 H 
BRANCH  20  23
ATOM     23  C   UNL     1     -48.083  36.011  27.185  1.00  0.00    -0.017 C 
ATOM     24  F   UNL     1     -46.434  34.236  24.930  1.00  0.00    -0.207 F 
ATOM     25  C   UNL     1     -46.722  34.652  26.184  1.00  0.00     0.248 C 
ATOM     26  F   UNL     1     -45.905  33.961  27.013  1.00  0.00    -0.207 F 
ATOM     27  C   UNL     1     -48.217  34.602  26.565  1.00  0.00     0.015 C 
ATOM     28  C   UNL     1     -46.769  36.183  26.382  1.00  0.00     0.015 C 
ATOM     29  H   UNL     1     -48.884  34.564  25.695  1.00  0.00     0.033 H 
ATOM     30  H   UNL     1     -48.496  33.798  27.251  1.00  0.00     0.033 H 
ATOM     31  H   UNL     1     -46.898  36.735  25.444  1.00  0.00     0.033 H 
ATOM     32  H   UNL     1     -45.920  36.613  26.921  1.00  0.00     0.033 H 
ATOM     33  H   UNL     1     -48.876  36.681  26.823  1.00  0.00     0.032 H 
ENDBRANCH  20  23
ENDBRANCH  18  20
ENDBRANCH  15  18
ENDBRANCH   1  15
BRANCH   6  34
ATOM     34  C   UNL     1     -42.209  42.649  26.973  1.00  0.00     0.018 C 
ATOM     35  H   UNL     1     -41.427  43.263  27.433  1.00  0.00     0.038 H 
ATOM     36  H   UNL     1     -41.802  42.251  26.036  1.00  0.00     0.038 H 
BRANCH  34  37
ATOM     37  C   UNL     1     -43.436  43.443  26.702  1.00  0.00     0.088 A 
ATOM     38  C   UNL     1     -44.154  43.628  25.542  1.00  0.00     0.055 A 
ATOM     39  N   UNL     1     -44.019  44.172  27.691  1.00  0.00    -0.135 NA
ATOM     40  N   UNL     1     -45.226  44.457  25.864  1.00  0.00    -0.218 N 
ATOM     41  H   UNL     1     -44.010  43.228  24.552  1.00  0.00     0.086 H 
ATOM     42  N   UNL     1     -45.079  44.784  27.187  1.00  0.00    -0.062 NA
BRANCH  40  43
ATOM     43  C   UNL     1     -46.265  44.885  24.992  1.00  0.00     0.092 A 
ATOM     44  C   UNL     1     -47.454  45.373  25.441  1.00  0.00    -0.033 A 
ATOM     45  C   UNL     1     -46.093  44.823  23.558  1.00  0.00     0.091 A 
ATOM     46  C   UNL     1     -48.522  45.819  24.557  1.00  0.00    -0.043 A 
ATOM     47  H   UNL     1     -47.680  45.470  26.499  1.00  0.00     0.065 H 
ATOM     48  N   UNL     1     -47.133  45.258  22.746  1.00  0.00    -0.304 N 
ATOM     49  C   UNL     1     -45.111  44.423  22.672  1.00  0.00     0.055 A 
ATOM     50  C   UNL     1     -48.336  45.752  23.232  1.00  0.00     0.011 A 
ATOM     51  H   UNL     1     -49.441  46.198  24.991  1.00  0.00     0.064 H 
ATOM     52  C   UNL     1     -46.722  45.096  21.448  1.00  0.00     0.099 A 
ATOM     53  N   UNL     1     -45.511  44.595  21.369  1.00  0.00    -0.244 NA
ATOM     54  H   UNL     1     -44.131  44.017  22.896  1.00  0.00     0.086 H 
ATOM     55  H   UNL     1     -49.080  46.065  22.511  1.00  0.00     0.082 H 
ATOM     56  H   UNL     1     -47.348  45.361  20.607  1.00  0.00     0.105 H 
ENDBRANCH  40  43
ENDBRANCH  34  37
ENDBRANCH   6  34
TORSDOF 7
ENDMDL
MODEL 7
REMARK VINA RESULT:      -9.4      5.164     12.352
REMARK SMILES FC1(F)CC(CNCc2cc3ccc(Cc4cn(-c5cccn6cncc56)nn4)cc3[nH]2)C1
REMARK SMILES IDX 9 1 10 2 11 3 12 4 13 5 14 6 30 7 31 8 32 9 8 15 7 18 6 20
REMARK SMILES IDX 5 23 1 24 2 25 3 26 4 27 33 28 15 34 16 37 17 38 29 39 18 40
REMARK SMILES IDX 28 42 19 43 20 44 27 45 21 46 23 48 26 49 22 50 24 52 25 53
REMARK H PARENT 10 10 12 11 13 12 30 13 32 14 8 16 8 17 7 19 6 21 6 22 4 29
REMARK H PARENT 4 30 33 31 33 32 5 33 15 35 15 36 17 41 20 47 21 51 26 54
REMARK H PARENT 22 55 24 56
REMARK Flexibility Score: inf
ROOT
ATOM      1  C   UNL     1     -46.296  38.743  27.565  1.00  0.00     0.030 A 
ATOM      2  C   UNL     1     -47.605  38.320  27.433  1.00  0.00    -0.032 A 
ATOM      3  C   UNL     1     -47.597  36.912  27.239  1.00  0.00    -0.000 A 
ATOM      4  C   UNL     1     -48.602  35.945  27.051  1.00  0.00    -0.053 A 
ATOM      5  C   UNL     1     -48.240  34.600  26.901  1.00  0.00    -0.058 A 
ATOM      6  C   UNL     1     -46.896  34.200  26.940  1.00  0.00    -0.040 A 
ATOM      7  C   UNL     1     -45.885  35.162  27.114  1.00  0.00    -0.034 A 
ATOM      8  C   UNL     1     -46.267  36.501  27.262  1.00  0.00     0.046 A 
ATOM      9  N   UNL     1     -45.500  37.629  27.452  1.00  0.00    -0.357 N 
ATOM     10  H   UNL     1     -48.477  38.958  27.482  1.00  0.00     0.065 H 
ATOM     11  H   UNL     1     -49.648  36.234  27.030  1.00  0.00     0.063 H 
ATOM     12  H   UNL     1     -49.027  33.858  26.767  1.00  0.00     0.063 H 
ATOM     13  H   UNL     1     -44.837  34.877  27.143  1.00  0.00     0.065 H 
ATOM     14  H   UNL     1     -44.492  37.627  27.515  1.00  0.00     0.166 HD
ENDROOT
BRANCH   1  15
ATOM     15  C   UNL     1     -45.734  40.103  27.787  1.00  0.00     0.036 C 
ATOM     16  H   UNL     1     -46.459  40.703  28.349  1.00  0.00     0.049 H 
ATOM     17  H   UNL     1     -45.569  40.599  26.822  1.00  0.00     0.049 H 
BRANCH  15  18
ATOM     18  N   UNL     1     -44.485  39.987  28.528  1.00  0.00    -0.311 NA
ATOM     19  H   UNL     1     -44.256  39.003  28.655  1.00  0.00     0.123 HD
BRANCH  18  20
ATOM     20  C   UNL     1     -43.402  40.709  27.873  1.00  0.00    -0.001 C 
ATOM     21  H   UNL     1     -42.944  40.058  27.118  1.00  0.00     0.043 H 
ATOM     22  H   UNL     1     -42.620  40.974  28.594  1.00  0.00     0.043 H 
BRANCH  20  23
ATOM     23  C   UNL     1     -43.888  41.983  27.172  1.00  0.00    -0.017 C 
ATOM     24  F   UNL     1     -42.479  44.256  25.222  1.00  0.00    -0.207 F 
ATOM     25  C   UNL     1     -42.489  43.144  25.990  1.00  0.00     0.248 C 
ATOM     26  F   UNL     1     -41.233  42.639  25.949  1.00  0.00    -0.207 F 
ATOM     27  C   UNL     1     -43.603  42.127  25.661  1.00  0.00     0.015 C 
ATOM     28  C   UNL     1     -43.118  43.310  27.391  1.00  0.00     0.015 C 
ATOM     29  H   UNL     1     -44.433  42.564  25.094  1.00  0.00     0.033 H 
ATOM     30  H   UNL     1     -43.269  41.222  25.146  1.00  0.00     0.033 H 
ATOM     31  H   UNL     1     -43.770  44.188  27.469  1.00  0.00     0.033 H 
ATOM     32  H   UNL     1     -42.410  43.332  28.224  1.00  0.00     0.033 H 
ATOM     33  H   UNL     1     -44.961  42.092  27.386  1.00  0.00     0.032 H 
ENDBRANCH  20  23
ENDBRANCH  18  20
ENDBRANCH  15  18
ENDBRANCH   1  15
BRANCH   6  34
ATOM     34  C   UNL     1     -46.530  32.738  26.806  1.00  0.00     0.018 C 
ATOM     35  H   UNL     1     -45.473  32.644  26.537  1.00  0.00     0.038 H 
ATOM     36  H   UNL     1     -46.675  32.205  27.753  1.00  0.00     0.038 H 
BRANCH  34  37
ATOM     37  C   UNL     1     -47.413  32.166  25.756  1.00  0.00     0.088 A 
ATOM     38  C   UNL     1     -48.500  31.327  25.849  1.00  0.00     0.055 A 
ATOM     39  N   UNL     1     -47.182  32.427  24.441  1.00  0.00    -0.135 NA
ATOM     40  N   UNL     1     -48.959  31.122  24.549  1.00  0.00    -0.218 N 
ATOM     41  H   UNL     1     -48.987  30.895  26.708  1.00  0.00     0.086 H 
ATOM     42  N   UNL     1     -48.097  31.795  23.724  1.00  0.00    -0.062 NA
BRANCH  40  43
ATOM     43  C   UNL     1     -50.093  30.359  24.156  1.00  0.00     0.092 A 
ATOM     44  C   UNL     1     -51.248  30.926  23.713  1.00  0.00    -0.033 A 
ATOM     45  C   UNL     1     -50.061  28.915  24.206  1.00  0.00     0.091 A 
ATOM     46  C   UNL     1     -52.413  30.155  23.302  1.00  0.00    -0.043 A 
ATOM     47  H   UNL     1     -51.372  32.001  23.628  1.00  0.00     0.065 H 
ATOM     48  N   UNL     1     -51.190  28.212  23.806  1.00  0.00    -0.304 N 
ATOM     49  C   UNL     1     -49.158  27.933  24.567  1.00  0.00     0.055 A 
ATOM     50  C   UNL     1     -52.357  28.817  23.358  1.00  0.00     0.011 A 
ATOM     51  H   UNL     1     -53.298  30.679  22.958  1.00  0.00     0.064 H 
ATOM     52  C   UNL     1     -50.904  26.879  23.948  1.00  0.00     0.099 A 
ATOM     53  N   UNL     1     -49.690  26.678  24.405  1.00  0.00    -0.244 NA
ATOM     54  H   UNL     1     -48.147  28.057  24.938  1.00  0.00     0.086 H 
ATOM     55  H   UNL     1     -53.179  28.175  23.068  1.00  0.00     0.082 H 
ATOM     56  H   UNL     1     -51.619  26.105  23.703  1.00  0.00     0.105 H 
ENDBRANCH  40  43
ENDBRANCH  34  37
ENDBRANCH   6  34
TORSDOF 7
ENDMDL
