MODEL 1
REMARK VINA RESULT:      -9.5      0.000      0.000
REMARK SMILES Nc1ncnc2c1ccn2[C@@H]1C[C@H](CCc2ccccn2)[C@@H](O)[C@H]1O
REMARK SMILES IDX 11 1 12 2 13 3 22 4 24 5 10 12 2 13 3 14 7 15 4 16 6 17 8 18
REMARK SMILES IDX 5 19 9 21 1 24 25 27 14 29 15 32 16 35 17 36 21 37 18 38
REMARK SMILES IDX 20 40 19 41 23 45
REMARK H PARENT 11 6 12 7 12 8 13 9 22 10 24 11 4 20 8 22 9 23 1 25 1 26 25 28
REMARK H PARENT 14 30 14 31 15 33 15 34 17 39 18 42 20 43 19 44 23 46
REMARK Flexibility Score: inf
ROOT
ATOM      1  C   UNL     1     -45.797  39.252  28.587  1.00  0.00     0.064 C 
ATOM      2  C   UNL     1     -45.646  37.726  28.467  1.00  0.00    -0.024 C 
ATOM      3  C   UNL     1     -47.071  37.183  28.610  1.00  0.00    -0.010 C 
ATOM      4  C   UNL     1     -47.886  38.221  27.834  1.00  0.00     0.085 C 
ATOM      5  C   UNL     1     -47.271  39.567  28.253  1.00  0.00     0.101 C 
ATOM      6  H   UNL     1     -45.606  39.531  29.632  1.00  0.00     0.056 H 
ATOM      7  H   UNL     1     -44.984  37.329  29.245  1.00  0.00     0.029 H 
ATOM      8  H   UNL     1     -45.215  37.434  27.501  1.00  0.00     0.029 H 
ATOM      9  H   UNL     1     -47.364  37.194  29.668  1.00  0.00     0.033 H 
ATOM     10  H   UNL     1     -47.779  38.065  26.754  1.00  0.00     0.063 H 
ATOM     11  H   UNL     1     -47.425  40.331  27.485  1.00  0.00     0.065 H 
ENDROOT
BRANCH   1  12
ATOM     12  N   UNL     1     -44.834  39.990  27.788  1.00  0.00    -0.327 N 
ATOM     13  C   UNL     1     -41.743  41.668  27.403  1.00  0.00     0.136 A 
ATOM     14  N   UNL     1     -41.209  41.555  28.635  1.00  0.00    -0.219 NA
ATOM     15  C   UNL     1     -43.005  41.109  27.157  1.00  0.00     0.061 A 
ATOM     16  C   UNL     1     -41.914  40.900  29.577  1.00  0.00     0.120 A 
ATOM     17  C   UNL     1     -43.621  40.466  28.221  1.00  0.00     0.145 A 
ATOM     18  C   UNL     1     -43.887  41.007  26.046  1.00  0.00    -0.031 A 
ATOM     19  N   UNL     1     -43.125  40.326  29.462  1.00  0.00    -0.218 NA
ATOM     20  H   UNL     1     -41.443  40.827  30.553  1.00  0.00     0.106 H 
ATOM     21  C   UNL     1     -45.006  40.317  26.462  1.00  0.00     0.007 A 
ATOM     22  H   UNL     1     -43.719  41.394  25.050  1.00  0.00     0.065 H 
ATOM     23  H   UNL     1     -45.903  40.036  25.924  1.00  0.00     0.082 H 
BRANCH  13  24
ATOM     24  N   UNL     1     -41.005  42.354  26.448  1.00  0.00    -0.383 N 
ATOM     25  H   UNL     1     -40.324  42.999  26.822  1.00  0.00     0.158 HD
ATOM     26  H   UNL     1     -40.678  41.720  25.729  1.00  0.00     0.158 HD
ENDBRANCH  13  24
ENDBRANCH   1  12
BRANCH   5  27
ATOM     27  O   UNL     1     -47.954  40.027  29.439  1.00  0.00    -0.388 OA
ATOM     28  H   UNL     1     -47.645  40.937  29.606  1.00  0.00     0.211 HD
ENDBRANCH   5  27
BRANCH   3  29
ATOM     29  C   UNL     1     -47.190  35.749  28.083  1.00  0.00    -0.042 C 
ATOM     30  H   UNL     1     -48.193  35.372  28.326  1.00  0.00     0.027 H 
ATOM     31  H   UNL     1     -46.482  35.095  28.612  1.00  0.00     0.027 H 
BRANCH  29  32
ATOM     32  C   UNL     1     -46.962  35.637  26.574  1.00  0.00    -0.010 C 
ATOM     33  H   UNL     1     -45.921  35.855  26.316  1.00  0.00     0.033 H 
ATOM     34  H   UNL     1     -47.580  36.373  26.044  1.00  0.00     0.033 H 
BRANCH  32  35
ATOM     35  C   UNL     1     -47.320  34.259  26.074  1.00  0.00     0.040 A 
ATOM     36  C   UNL     1     -46.481  33.592  25.184  1.00  0.00    -0.041 A 
ATOM     37  N   UNL     1     -48.461  33.706  26.552  1.00  0.00    -0.261 NA
ATOM     38  C   UNL     1     -46.832  32.314  24.759  1.00  0.00    -0.059 A 
ATOM     39  H   UNL     1     -45.568  34.058  24.825  1.00  0.00     0.064 H 
ATOM     40  C   UNL     1     -48.776  32.466  26.120  1.00  0.00     0.027 A 
ATOM     41  C   UNL     1     -48.003  31.737  25.234  1.00  0.00    -0.044 A 
ATOM     42  H   UNL     1     -46.196  31.775  24.063  1.00  0.00     0.062 H 
ATOM     43  H   UNL     1     -49.701  32.059  26.522  1.00  0.00     0.084 H 
ATOM     44  H   UNL     1     -48.306  30.745  24.922  1.00  0.00     0.064 H 
ENDBRANCH  32  35
ENDBRANCH  29  32
ENDBRANCH   3  29
BRANCH   4  45
ATOM     45  O   UNL     1     -49.265  38.165  28.171  1.00  0.00    -0.390 OA
ATOM     46  H   UNL     1     -49.379  38.828  28.885  1.00  0.00     0.211 HD
ENDBRANCH   4  45
TORSDOF 7
ENDMDL
MODEL 2
REMARK VINA RESULT:      -8.7      1.589      2.308
REMARK SMILES Nc1ncnc2c1ccn2[C@@H]1C[C@H](CCc2ccccn2)[C@@H](O)[C@H]1O
REMARK SMILES IDX 11 1 12 2 13 3 22 4 24 5 10 12 2 13 3 14 7 15 4 16 6 17 8 18
REMARK SMILES IDX 5 19 9 21 1 24 25 27 14 29 15 32 16 35 17 36 21 37 18 38
REMARK SMILES IDX 20 40 19 41 23 45
REMARK H PARENT 11 6 12 7 12 8 13 9 22 10 24 11 4 20 8 22 9 23 1 25 1 26 25 28
REMARK H PARENT 14 30 14 31 15 33 15 34 17 39 18 42 20 43 19 44 23 46
REMARK Flexibility Score: inf
ROOT
ATOM      1  C   UNL     1     -46.446  37.336  28.296  1.00  0.00     0.064 C 
ATOM      2  C   UNL     1     -45.673  36.040  27.999  1.00  0.00    -0.024 C 
ATOM      3  C   UNL     1     -46.759  34.980  27.795  1.00  0.00    -0.010 C 
ATOM      4  C   UNL     1     -47.828  35.763  27.029  1.00  0.00     0.085 C 
ATOM      5  C   UNL     1     -47.870  37.128  27.737  1.00  0.00     0.101 C 
ATOM      6  H   UNL     1     -46.510  37.451  29.387  1.00  0.00     0.056 H 
ATOM      7  H   UNL     1     -45.004  35.777  28.826  1.00  0.00     0.029 H 
ATOM      8  H   UNL     1     -45.050  36.134  27.101  1.00  0.00     0.029 H 
ATOM      9  H   UNL     1     -47.155  34.665  28.771  1.00  0.00     0.033 H 
ATOM     10  H   UNL     1     -47.541  35.879  25.978  1.00  0.00     0.063 H 
ATOM     11  H   UNL     1     -48.229  37.913  27.065  1.00  0.00     0.065 H 
ENDROOT
BRANCH   1  12
ATOM     12  N   UNL     1     -45.780  38.529  27.801  1.00  0.00    -0.327 N 
ATOM     13  C   UNL     1     -43.317  41.055  28.066  1.00  0.00     0.136 A 
ATOM     14  N   UNL     1     -42.700  40.724  29.217  1.00  0.00    -0.219 NA
ATOM     15  C   UNL     1     -44.382  40.264  27.616  1.00  0.00     0.061 A 
ATOM     16  C   UNL     1     -43.134  39.636  29.882  1.00  0.00     0.120 A 
ATOM     17  C   UNL     1     -44.727  39.174  28.402  1.00  0.00     0.145 A 
ATOM     18  C   UNL     1     -45.266  40.262  26.500  1.00  0.00    -0.031 A 
ATOM     19  N   UNL     1     -44.138  38.805  29.552  1.00  0.00    -0.218 NA
ATOM     20  H   UNL     1     -42.603  39.402  30.800  1.00  0.00     0.106 H 
ATOM     21  C   UNL     1     -46.117  39.187  26.641  1.00  0.00     0.007 A 
ATOM     22  H   UNL     1     -45.273  40.971  25.682  1.00  0.00     0.065 H 
ATOM     23  H   UNL     1     -46.929  38.842  26.013  1.00  0.00     0.082 H 
BRANCH  13  24
ATOM     24  N   UNL     1     -42.862  42.185  27.400  1.00  0.00    -0.383 N 
ATOM     25  H   UNL     1     -41.940  42.097  26.997  1.00  0.00     0.158 HD
ATOM     26  H   UNL     1     -43.584  42.555  26.794  1.00  0.00     0.158 HD
ENDBRANCH  13  24
ENDBRANCH   1  12
BRANCH   5  27
ATOM     27  O   UNL     1     -48.816  37.046  28.824  1.00  0.00    -0.388 OA
ATOM     28  H   UNL     1     -48.657  37.821  29.394  1.00  0.00     0.211 HD
ENDBRANCH   5  27
BRANCH   3  29
ATOM     29  C   UNL     1     -46.220  33.746  27.064  1.00  0.00    -0.042 C 
ATOM     30  H   UNL     1     -46.725  32.856  27.467  1.00  0.00     0.027 H 
ATOM     31  H   UNL     1     -45.152  33.615  27.285  1.00  0.00     0.027 H 
BRANCH  29  32
ATOM     32  C   UNL     1     -46.428  33.800  25.549  1.00  0.00    -0.010 C 
ATOM     33  H   UNL     1     -45.476  33.929  25.025  1.00  0.00     0.033 H 
ATOM     34  H   UNL     1     -47.054  34.662  25.286  1.00  0.00     0.033 H 
BRANCH  32  35
ATOM     35  C   UNL     1     -47.102  32.545  25.050  1.00  0.00     0.040 A 
ATOM     36  C   UNL     1     -48.094  31.927  25.808  1.00  0.00    -0.041 A 
ATOM     37  N   UNL     1     -46.720  32.082  23.835  1.00  0.00    -0.261 NA
ATOM     38  C   UNL     1     -48.708  30.783  25.307  1.00  0.00    -0.059 A 
ATOM     39  H   UNL     1     -48.385  32.327  26.775  1.00  0.00     0.064 H 
ATOM     40  C   UNL     1     -47.332  30.968  23.377  1.00  0.00     0.027 A 
ATOM     41  C   UNL     1     -48.321  30.291  24.068  1.00  0.00    -0.044 A 
ATOM     42  H   UNL     1     -49.481  30.281  25.882  1.00  0.00     0.062 H 
ATOM     43  H   UNL     1     -46.994  30.624  22.402  1.00  0.00     0.084 H 
ATOM     44  H   UNL     1     -48.777  29.401  23.650  1.00  0.00     0.064 H 
ENDBRANCH  32  35
ENDBRANCH  29  32
ENDBRANCH   3  29
BRANCH   4  45
ATOM     45  O   UNL     1     -49.095  35.120  27.089  1.00  0.00    -0.390 OA
ATOM     46  H   UNL     1     -49.102  34.502  26.328  1.00  0.00     0.211 HD
ENDBRANCH   4  45
TORSDOF 7
ENDMDL
MODEL 3
REMARK VINA RESULT:      -8.4      1.904      8.311
REMARK SMILES Nc1ncnc2c1ccn2[C@@H]1C[C@H](CCc2ccccn2)[C@@H](O)[C@H]1O
REMARK SMILES IDX 11 1 12 2 13 3 22 4 24 5 10 12 2 13 3 14 7 15 4 16 6 17 8 18
REMARK SMILES IDX 5 19 9 21 1 24 25 27 14 29 15 32 16 35 17 36 21 37 18 38
REMARK SMILES IDX 20 40 19 41 23 45
REMARK H PARENT 11 6 12 7 12 8 13 9 22 10 24 11 4 20 8 22 9 23 1 25 1 26 25 28
REMARK H PARENT 14 30 14 31 15 33 15 34 17 39 18 42 20 43 19 44 23 46
REMARK Flexibility Score: inf
ROOT
ATOM      1  C   UNL     1     -47.145  35.460  27.973  1.00  0.00     0.064 C 
ATOM      2  C   UNL     1     -47.334  36.912  27.502  1.00  0.00    -0.024 C 
ATOM      3  C   UNL     1     -46.628  37.758  28.566  1.00  0.00    -0.010 C 
ATOM      4  C   UNL     1     -45.394  36.909  28.880  1.00  0.00     0.085 C 
ATOM      5  C   UNL     1     -45.934  35.470  28.930  1.00  0.00     0.101 C 
ATOM      6  H   UNL     1     -48.039  35.168  28.541  1.00  0.00     0.056 H 
ATOM      7  H   UNL     1     -48.395  37.170  27.423  1.00  0.00     0.029 H 
ATOM      8  H   UNL     1     -46.888  37.081  26.514  1.00  0.00     0.029 H 
ATOM      9  H   UNL     1     -47.265  37.835  29.458  1.00  0.00     0.033 H 
ATOM     10  H   UNL     1     -44.642  37.015  28.089  1.00  0.00     0.063 H 
ATOM     11  H   UNL     1     -45.149  34.743  28.701  1.00  0.00     0.065 H 
ENDROOT
BRANCH   1  12
ATOM     12  N   UNL     1     -47.032  34.511  26.879  1.00  0.00    -0.327 N 
ATOM     13  C   UNL     1     -48.446  32.190  24.613  1.00  0.00     0.136 A 
ATOM     14  N   UNL     1     -49.745  32.212  24.966  1.00  0.00    -0.219 NA
ATOM     15  C   UNL     1     -47.541  33.004  25.307  1.00  0.00     0.061 A 
ATOM     16  C   UNL     1     -50.119  33.027  25.970  1.00  0.00     0.120 A 
ATOM     17  C   UNL     1     -48.062  33.792  26.324  1.00  0.00     0.145 A 
ATOM     18  C   UNL     1     -46.144  33.271  25.255  1.00  0.00    -0.031 A 
ATOM     19  N   UNL     1     -49.350  33.849  26.706  1.00  0.00    -0.218 NA
ATOM     20  H   UNL     1     -51.177  33.018  26.216  1.00  0.00     0.106 H 
ATOM     21  C   UNL     1     -45.857  34.199  26.234  1.00  0.00     0.007 A 
ATOM     22  H   UNL     1     -45.429  32.833  24.571  1.00  0.00     0.065 H 
ATOM     23  H   UNL     1     -44.918  34.655  26.520  1.00  0.00     0.082 H 
BRANCH  13  24
ATOM     24  N   UNL     1     -48.079  31.337  23.581  1.00  0.00    -0.383 N 
ATOM     25  H   UNL     1     -47.092  31.331  23.366  1.00  0.00     0.158 HD
ATOM     26  H   UNL     1     -48.519  30.432  23.695  1.00  0.00     0.158 HD
ENDBRANCH  13  24
ENDBRANCH   1  12
BRANCH   5  27
ATOM     27  O   UNL     1     -46.372  35.197  30.278  1.00  0.00    -0.388 OA
ATOM     28  H   UNL     1     -47.346  35.255  30.274  1.00  0.00     0.211 HD
ENDBRANCH   5  27
BRANCH   3  29
ATOM     29  C   UNL     1     -46.323  39.172  28.059  1.00  0.00    -0.042 C 
ATOM     30  H   UNL     1     -46.187  39.830  28.927  1.00  0.00     0.027 H 
ATOM     31  H   UNL     1     -47.187  39.568  27.508  1.00  0.00     0.027 H 
BRANCH  29  32
ATOM     32  C   UNL     1     -45.076  39.242  27.174  1.00  0.00    -0.010 C 
ATOM     33  H   UNL     1     -45.325  39.604  26.171  1.00  0.00     0.033 H 
ATOM     34  H   UNL     1     -44.645  38.240  27.050  1.00  0.00     0.033 H 
BRANCH  32  35
ATOM     35  C   UNL     1     -44.030  40.145  27.782  1.00  0.00     0.040 A 
ATOM     36  C   UNL     1     -43.585  41.271  27.095  1.00  0.00    -0.041 A 
ATOM     37  N   UNL     1     -43.583  39.823  29.020  1.00  0.00    -0.261 NA
ATOM     38  C   UNL     1     -42.635  42.092  27.695  1.00  0.00    -0.059 A 
ATOM     39  H   UNL     1     -43.969  41.507  26.106  1.00  0.00     0.064 H 
ATOM     40  C   UNL     1     -42.660  40.637  29.575  1.00  0.00     0.027 A 
ATOM     41  C   UNL     1     -42.160  41.771  28.959  1.00  0.00    -0.044 A 
ATOM     42  H   UNL     1     -42.269  42.974  27.177  1.00  0.00     0.062 H 
ATOM     43  H   UNL     1     -42.321  40.343  30.566  1.00  0.00     0.084 H 
ATOM     44  H   UNL     1     -41.419  42.388  29.453  1.00  0.00     0.064 H 
ENDBRANCH  32  35
ENDBRANCH  29  32
ENDBRANCH   3  29
BRANCH   4  45
ATOM     45  O   UNL     1     -44.806  37.275  30.122  1.00  0.00    -0.390 OA
ATOM     46  H   UNL     1     -45.368  38.002  30.464  1.00  0.00     0.211 HD
ENDBRANCH   4  45
TORSDOF 7
ENDMDL
MODEL 4
REMARK VINA RESULT:      -8.3      1.706      7.329
REMARK SMILES Nc1ncnc2c1ccn2[C@@H]1C[C@H](CCc2ccccn2)[C@@H](O)[C@H]1O
REMARK SMILES IDX 11 1 12 2 13 3 22 4 24 5 10 12 2 13 3 14 7 15 4 16 6 17 8 18
REMARK SMILES IDX 5 19 9 21 1 24 25 27 14 29 15 32 16 35 17 36 21 37 18 38
REMARK SMILES IDX 20 40 19 41 23 45
REMARK H PARENT 11 6 12 7 12 8 13 9 22 10 24 11 4 20 8 22 9 23 1 25 1 26 25 28
REMARK H PARENT 14 30 14 31 15 33 15 34 17 39 18 42 20 43 19 44 23 46
REMARK Flexibility Score: inf
ROOT
ATOM      1  C   UNL     1     -47.625  38.080  27.269  1.00  0.00     0.064 C 
ATOM      2  C   UNL     1     -46.577  38.884  26.482  1.00  0.00    -0.024 C 
ATOM      3  C   UNL     1     -47.032  40.341  26.611  1.00  0.00    -0.010 C 
ATOM      4  C   UNL     1     -47.525  40.394  28.059  1.00  0.00     0.085 C 
ATOM      5  C   UNL     1     -48.297  39.076  28.238  1.00  0.00     0.101 C 
ATOM      6  H   UNL     1     -48.380  37.718  26.557  1.00  0.00     0.056 H 
ATOM      7  H   UNL     1     -46.536  38.568  25.434  1.00  0.00     0.029 H 
ATOM      8  H   UNL     1     -45.569  38.755  26.896  1.00  0.00     0.029 H 
ATOM      9  H   UNL     1     -47.869  40.528  25.925  1.00  0.00     0.033 H 
ATOM     10  H   UNL     1     -46.677  40.445  28.752  1.00  0.00     0.063 H 
ATOM     11  H   UNL     1     -48.317  38.767  29.288  1.00  0.00     0.065 H 
ENDROOT
BRANCH   1  12
ATOM     12  N   UNL     1     -47.078  36.898  27.913  1.00  0.00    -0.327 N 
ATOM     13  C   UNL     1     -46.011  33.525  27.841  1.00  0.00     0.136 A 
ATOM     14  N   UNL     1     -46.244  33.187  26.558  1.00  0.00    -0.219 NA
ATOM     15  C   UNL     1     -46.319  34.825  28.265  1.00  0.00     0.061 A 
ATOM     16  C   UNL     1     -46.757  34.121  25.735  1.00  0.00     0.120 A 
ATOM     17  C   UNL     1     -46.846  35.685  27.312  1.00  0.00     0.145 A 
ATOM     18  C   UNL     1     -46.231  35.560  29.480  1.00  0.00    -0.031 A 
ATOM     19  N   UNL     1     -47.090  35.391  26.024  1.00  0.00    -0.218 NA
ATOM     20  H   UNL     1     -46.921  33.807  24.708  1.00  0.00     0.106 H 
ATOM     21  C   UNL     1     -46.707  36.831  29.236  1.00  0.00     0.007 A 
ATOM     22  H   UNL     1     -45.855  35.198  30.428  1.00  0.00     0.065 H 
ATOM     23  H   UNL     1     -46.811  37.684  29.895  1.00  0.00     0.082 H 
BRANCH  13  24
ATOM     24  N   UNL     1     -45.491  32.545  28.675  1.00  0.00    -0.383 N 
ATOM     25  H   UNL     1     -46.072  31.726  28.780  1.00  0.00     0.158 HD
ATOM     26  H   UNL     1     -44.514  32.381  28.464  1.00  0.00     0.158 HD
ENDBRANCH  13  24
ENDBRANCH   1  12
BRANCH   5  27
ATOM     27  O   UNL     1     -49.667  39.296  27.843  1.00  0.00    -0.388 OA
ATOM     28  H   UNL     1     -49.641  39.810  27.014  1.00  0.00     0.211 HD
ENDBRANCH   5  27
BRANCH   3  29
ATOM     29  C   UNL     1     -45.901  41.322  26.281  1.00  0.00    -0.042 C 
ATOM     30  H   UNL     1     -45.783  42.012  27.128  1.00  0.00     0.027 H 
ATOM     31  H   UNL     1     -46.182  41.943  25.419  1.00  0.00     0.027 H 
BRANCH  29  32
ATOM     32  C   UNL     1     -44.564  40.633  26.003  1.00  0.00    -0.010 C 
ATOM     33  H   UNL     1     -44.128  40.984  25.063  1.00  0.00     0.033 H 
ATOM     34  H   UNL     1     -44.712  39.551  25.899  1.00  0.00     0.033 H 
BRANCH  32  35
ATOM     35  C   UNL     1     -43.584  40.879  27.125  1.00  0.00     0.040 A 
ATOM     36  C   UNL     1     -43.765  40.272  28.365  1.00  0.00    -0.041 A 
ATOM     37  N   UNL     1     -42.525  41.680  26.854  1.00  0.00    -0.261 NA
ATOM     38  C   UNL     1     -42.831  40.505  29.371  1.00  0.00    -0.059 A 
ATOM     39  H   UNL     1     -44.620  39.627  28.549  1.00  0.00     0.064 H 
ATOM     40  C   UNL     1     -41.637  41.889  27.850  1.00  0.00     0.027 A 
ATOM     41  C   UNL     1     -41.745  41.330  29.111  1.00  0.00    -0.044 A 
ATOM     42  H   UNL     1     -42.953  40.046  30.348  1.00  0.00     0.062 H 
ATOM     43  H   UNL     1     -40.805  42.542  27.597  1.00  0.00     0.084 H 
ATOM     44  H   UNL     1     -41.002  41.534  29.873  1.00  0.00     0.064 H 
ENDBRANCH  32  35
ENDBRANCH  29  32
ENDBRANCH   3  29
BRANCH   4  45
ATOM     45  O   UNL     1     -48.370  41.513  28.286  1.00  0.00    -0.390 OA
ATOM     46  H   UNL     1     -49.278  41.185  28.115  1.00  0.00     0.211 HD
ENDBRANCH   4  45
TORSDOF 7
ENDMDL
MODEL 5
REMARK VINA RESULT:      -8.3      1.366      2.197
REMARK SMILES Nc1ncnc2c1ccn2[C@@H]1C[C@H](CCc2ccccn2)[C@@H](O)[C@H]1O
REMARK SMILES IDX 11 1 12 2 13 3 22 4 24 5 10 12 2 13 3 14 7 15 4 16 6 17 8 18
REMARK SMILES IDX 5 19 9 21 1 24 25 27 14 29 15 32 16 35 17 36 21 37 18 38
REMARK SMILES IDX 20 40 19 41 23 45
REMARK H PARENT 11 6 12 7 12 8 13 9 22 10 24 11 4 20 8 22 9 23 1 25 1 26 25 28
REMARK H PARENT 14 30 14 31 15 33 15 34 17 39 18 42 20 43 19 44 23 46
REMARK Flexibility Score: inf
ROOT
ATOM      1  C   UNL     1     -44.855  37.870  29.182  1.00  0.00     0.064 C 
ATOM      2  C   UNL     1     -44.927  37.008  27.911  1.00  0.00    -0.024 C 
ATOM      3  C   UNL     1     -46.301  36.335  27.976  1.00  0.00    -0.010 C 
ATOM      4  C   UNL     1     -47.179  37.459  28.532  1.00  0.00     0.085 C 
ATOM      5  C   UNL     1     -46.314  38.098  29.632  1.00  0.00     0.101 C 
ATOM      6  H   UNL     1     -44.335  37.289  29.957  1.00  0.00     0.056 H 
ATOM      7  H   UNL     1     -44.118  36.268  27.885  1.00  0.00     0.029 H 
ATOM      8  H   UNL     1     -44.834  37.614  27.001  1.00  0.00     0.029 H 
ATOM      9  H   UNL     1     -46.269  35.499  28.688  1.00  0.00     0.033 H 
ATOM     10  H   UNL     1     -47.412  38.189  27.748  1.00  0.00     0.063 H 
ATOM     11  H   UNL     1     -46.594  39.142  29.802  1.00  0.00     0.065 H 
ENDROOT
BRANCH   1  12
ATOM     12  N   UNL     1     -44.087  39.090  29.007  1.00  0.00    -0.327 N 
ATOM     13  C   UNL     1     -43.281  42.030  27.210  1.00  0.00     0.136 A 
ATOM     14  N   UNL     1     -44.123  41.955  26.161  1.00  0.00    -0.219 NA
ATOM     15  C   UNL     1     -43.304  41.011  28.172  1.00  0.00     0.061 A 
ATOM     16  C   UNL     1     -44.958  40.902  26.088  1.00  0.00     0.120 A 
ATOM     17  C   UNL     1     -44.213  39.982  27.970  1.00  0.00     0.145 A 
ATOM     18  C   UNL     1     -42.614  40.719  29.381  1.00  0.00    -0.031 A 
ATOM     19  N   UNL     1     -45.072  39.869  26.942  1.00  0.00    -0.218 NA
ATOM     20  H   UNL     1     -45.623  40.885  25.230  1.00  0.00     0.106 H 
ATOM     21  C   UNL     1     -43.112  39.531  29.872  1.00  0.00     0.007 A 
ATOM     22  H   UNL     1     -41.839  41.317  29.842  1.00  0.00     0.065 H 
ATOM     23  H   UNL     1     -42.851  38.969  30.760  1.00  0.00     0.082 H 
BRANCH  13  24
ATOM     24  N   UNL     1     -42.422  43.119  27.263  1.00  0.00    -0.383 N 
ATOM     25  H   UNL     1     -41.995  43.365  26.381  1.00  0.00     0.158 HD
ATOM     26  H   UNL     1     -42.841  43.877  27.788  1.00  0.00     0.158 HD
ENDBRANCH  13  24
ENDBRANCH   1  12
BRANCH   5  27
ATOM     27  O   UNL     1     -46.561  37.394  30.868  1.00  0.00    -0.388 OA
ATOM     28  H   UNL     1     -46.288  36.469  30.725  1.00  0.00     0.211 HD
ENDBRANCH   5  27
BRANCH   3  29
ATOM     29  C   UNL     1     -46.737  35.797  26.609  1.00  0.00    -0.042 C 
ATOM     30  H   UNL     1     -45.915  35.198  26.194  1.00  0.00     0.027 H 
ATOM     31  H   UNL     1     -46.891  36.630  25.909  1.00  0.00     0.027 H 
BRANCH  29  32
ATOM     32  C   UNL     1     -48.003  34.940  26.671  1.00  0.00    -0.010 C 
ATOM     33  H   UNL     1     -48.851  35.455  26.209  1.00  0.00     0.033 H 
ATOM     34  H   UNL     1     -48.280  34.751  27.716  1.00  0.00     0.033 H 
BRANCH  32  35
ATOM     35  C   UNL     1     -47.794  33.614  25.982  1.00  0.00     0.040 A 
ATOM     36  C   UNL     1     -46.706  33.424  25.133  1.00  0.00    -0.041 A 
ATOM     37  N   UNL     1     -48.686  32.630  26.254  1.00  0.00    -0.261 NA
ATOM     38  C   UNL     1     -46.533  32.181  24.530  1.00  0.00    -0.059 A 
ATOM     39  H   UNL     1     -46.003  34.229  24.941  1.00  0.00     0.064 H 
ATOM     40  C   UNL     1     -48.493  31.437  25.652  1.00  0.00     0.027 A 
ATOM     41  C   UNL     1     -47.444  31.166  24.792  1.00  0.00    -0.044 A 
ATOM     42  H   UNL     1     -45.695  32.010  23.861  1.00  0.00     0.062 H 
ATOM     43  H   UNL     1     -49.232  30.675  25.890  1.00  0.00     0.084 H 
ATOM     44  H   UNL     1     -47.339  30.188  24.337  1.00  0.00     0.064 H 
ENDBRANCH  32  35
ENDBRANCH  29  32
ENDBRANCH   3  29
BRANCH   4  45
ATOM     45  O   UNL     1     -48.396  36.959  29.069  1.00  0.00    -0.390 OA
ATOM     46  H   UNL     1     -48.134  36.190  29.618  1.00  0.00     0.211 HD
ENDBRANCH   4  45
TORSDOF 7
ENDMDL
MODEL 6
REMARK VINA RESULT:      -8.2      3.128      9.409
REMARK SMILES Nc1ncnc2c1ccn2[C@@H]1C[C@H](CCc2ccccn2)[C@@H](O)[C@H]1O
REMARK SMILES IDX 11 1 12 2 13 3 22 4 24 5 10 12 2 13 3 14 7 15 4 16 6 17 8 18
REMARK SMILES IDX 5 19 9 21 1 24 25 27 14 29 15 32 16 35 17 36 21 37 18 38
REMARK SMILES IDX 20 40 19 41 23 45
REMARK H PARENT 11 6 12 7 12 8 13 9 22 10 24 11 4 20 8 22 9 23 1 25 1 26 25 28
REMARK H PARENT 14 30 14 31 15 33 15 34 17 39 18 42 20 43 19 44 23 46
REMARK Flexibility Score: inf
ROOT
ATOM      1  C   UNL     1     -47.531  32.420  26.078  1.00  0.00     0.064 C 
ATOM      2  C   UNL     1     -48.325  33.736  26.034  1.00  0.00    -0.024 C 
ATOM      3  C   UNL     1     -47.661  34.624  27.091  1.00  0.00    -0.010 C 
ATOM      4  C   UNL     1     -46.180  34.286  26.906  1.00  0.00     0.085 C 
ATOM      5  C   UNL     1     -46.167  32.759  26.716  1.00  0.00     0.101 C 
ATOM      6  H   UNL     1     -48.065  31.724  26.739  1.00  0.00     0.056 H 
ATOM      7  H   UNL     1     -49.385  33.570  26.258  1.00  0.00     0.029 H 
ATOM      8  H   UNL     1     -48.277  34.209  25.045  1.00  0.00     0.029 H 
ATOM      9  H   UNL     1     -47.992  34.316  28.092  1.00  0.00     0.033 H 
ATOM     10  H   UNL     1     -45.778  34.791  26.019  1.00  0.00     0.063 H 
ATOM     11  H   UNL     1     -45.290  32.437  26.147  1.00  0.00     0.065 H 
ENDROOT
BRANCH   1  12
ATOM     12  N   UNL     1     -47.438  31.762  24.787  1.00  0.00    -0.327 N 
ATOM     13  C   UNL     1     -48.869  29.951  22.105  1.00  0.00     0.136 A 
ATOM     14  N   UNL     1     -50.145  29.809  22.514  1.00  0.00    -0.219 NA
ATOM     15  C   UNL     1     -47.965  30.635  22.929  1.00  0.00     0.061 A 
ATOM     16  C   UNL     1     -50.497  30.342  23.699  1.00  0.00     0.120 A 
ATOM     17  C   UNL     1     -48.463  31.129  24.126  1.00  0.00     0.145 A 
ATOM     18  C   UNL     1     -46.590  30.992  22.876  1.00  0.00    -0.031 A 
ATOM     19  N   UNL     1     -49.726  31.016  24.571  1.00  0.00    -0.218 NA
ATOM     20  H   UNL     1     -51.537  30.211  23.985  1.00  0.00     0.106 H 
ATOM     21  C   UNL     1     -46.290  31.682  24.032  1.00  0.00     0.007 A 
ATOM     22  H   UNL     1     -45.896  30.771  22.075  1.00  0.00     0.065 H 
ATOM     23  H   UNL     1     -45.359  32.117  24.374  1.00  0.00     0.082 H 
BRANCH  13  24
ATOM     24  N   UNL     1     -48.523  29.386  20.885  1.00  0.00    -0.383 N 
ATOM     25  H   UNL     1     -47.915  28.583  20.947  1.00  0.00     0.158 HD
ATOM     26  H   UNL     1     -49.341  29.287  20.295  1.00  0.00     0.158 HD
ENDBRANCH  13  24
ENDBRANCH   1  12
BRANCH   5  27
ATOM     27  O   UNL     1     -46.068  32.143  28.018  1.00  0.00    -0.388 OA
ATOM     28  H   UNL     1     -45.225  32.441  28.407  1.00  0.00     0.211 HD
ENDBRANCH   5  27
BRANCH   3  29
ATOM     29  C   UNL     1     -48.011  36.103  26.894  1.00  0.00    -0.042 C 
ATOM     30  H   UNL     1     -49.052  36.170  26.548  1.00  0.00     0.027 H 
ATOM     31  H   UNL     1     -47.395  36.531  26.091  1.00  0.00     0.027 H 
BRANCH  29  32
ATOM     32  C   UNL     1     -47.848  36.939  28.165  1.00  0.00    -0.010 C 
ATOM     33  H   UNL     1     -47.685  36.300  29.039  1.00  0.00     0.033 H 
ATOM     34  H   UNL     1     -48.764  37.511  28.360  1.00  0.00     0.033 H 
BRANCH  32  35
ATOM     35  C   UNL     1     -46.696  37.905  28.035  1.00  0.00     0.040 A 
ATOM     36  C   UNL     1     -46.636  38.790  26.962  1.00  0.00    -0.041 A 
ATOM     37  N   UNL     1     -45.761  37.884  29.015  1.00  0.00    -0.261 NA
ATOM     38  C   UNL     1     -45.568  39.680  26.884  1.00  0.00    -0.059 A 
ATOM     39  H   UNL     1     -47.405  38.788  26.195  1.00  0.00     0.064 H 
ATOM     40  C   UNL     1     -44.736  38.758  28.912  1.00  0.00     0.027 A 
ATOM     41  C   UNL     1     -44.597  39.666  27.876  1.00  0.00    -0.044 A 
ATOM     42  H   UNL     1     -45.497  40.378  26.054  1.00  0.00     0.062 H 
ATOM     43  H   UNL     1     -44.003  38.708  29.713  1.00  0.00     0.084 H 
ATOM     44  H   UNL     1     -43.753  40.344  27.845  1.00  0.00     0.064 H 
ENDBRANCH  32  35
ENDBRANCH  29  32
ENDBRANCH   3  29
BRANCH   4  45
ATOM     45  O   UNL     1     -45.408  34.665  28.037  1.00  0.00    -0.390 OA
ATOM     46  H   UNL     1     -45.100  35.575  27.841  1.00  0.00     0.211 HD
ENDBRANCH   4  45
TORSDOF 7
ENDMDL
MODEL 7
REMARK VINA RESULT:      -8.2      2.141      8.139
REMARK SMILES Nc1ncnc2c1ccn2[C@@H]1C[C@H](CCc2ccccn2)[C@@H](O)[C@H]1O
REMARK SMILES IDX 11 1 12 2 13 3 22 4 24 5 10 12 2 13 3 14 7 15 4 16 6 17 8 18
REMARK SMILES IDX 5 19 9 21 1 24 25 27 14 29 15 32 16 35 17 36 21 37 18 38
REMARK SMILES IDX 20 40 19 41 23 45
REMARK H PARENT 11 6 12 7 12 8 13 9 22 10 24 11 4 20 8 22 9 23 1 25 1 26 25 28
REMARK H PARENT 14 30 14 31 15 33 15 34 17 39 18 42 20 43 19 44 23 46
REMARK Flexibility Score: inf
ROOT
ATOM      1  C   UNL     1     -46.593  37.527  28.420  1.00  0.00     0.064 C 
ATOM      2  C   UNL     1     -46.038  38.594  27.462  1.00  0.00    -0.024 C 
ATOM      3  C   UNL     1     -45.160  39.486  28.344  1.00  0.00    -0.010 C 
ATOM      4  C   UNL     1     -44.499  38.464  29.272  1.00  0.00     0.085 C 
ATOM      5  C   UNL     1     -45.639  37.496  29.633  1.00  0.00     0.101 C 
ATOM      6  H   UNL     1     -47.584  37.858  28.761  1.00  0.00     0.056 H 
ATOM      7  H   UNL     1     -46.846  39.166  26.991  1.00  0.00     0.029 H 
ATOM      8  H   UNL     1     -45.448  38.148  26.652  1.00  0.00     0.029 H 
ATOM      9  H   UNL     1     -45.794  40.165  28.929  1.00  0.00     0.033 H 
ATOM     10  H   UNL     1     -43.692  37.936  28.750  1.00  0.00     0.063 H 
ATOM     11  H   UNL     1     -45.252  36.508  29.900  1.00  0.00     0.065 H 
ENDROOT
BRANCH   1  12
ATOM     12  N   UNL     1     -46.794  36.235  27.787  1.00  0.00    -0.327 N 
ATOM     13  C   UNL     1     -48.886  33.722  26.433  1.00  0.00     0.136 A 
ATOM     14  N   UNL     1     -50.111  34.255  26.609  1.00  0.00    -0.219 NA
ATOM     15  C   UNL     1     -47.765  34.447  26.860  1.00  0.00     0.061 A 
ATOM     16  C   UNL     1     -50.201  35.470  27.183  1.00  0.00     0.120 A 
ATOM     17  C   UNL     1     -48.004  35.685  27.439  1.00  0.00     0.145 A 
ATOM     18  C   UNL     1     -46.355  34.257  26.861  1.00  0.00    -0.031 A 
ATOM     19  N   UNL     1     -49.205  36.255  27.630  1.00  0.00    -0.218 NA
ATOM     20  H   UNL     1     -51.207  35.864  27.299  1.00  0.00     0.106 H 
ATOM     21  C   UNL     1     -45.782  35.370  27.439  1.00  0.00     0.007 A 
ATOM     22  H   UNL     1     -45.818  33.399  26.475  1.00  0.00     0.065 H 
ATOM     23  H   UNL     1     -44.744  35.611  27.630  1.00  0.00     0.082 H 
BRANCH  13  24
ATOM     24  N   UNL     1     -48.814  32.466  25.849  1.00  0.00    -0.383 N 
ATOM     25  H   UNL     1     -49.620  31.878  26.006  1.00  0.00     0.158 HD
ATOM     26  H   UNL     1     -48.490  32.537  24.891  1.00  0.00     0.158 HD
ENDBRANCH  13  24
ENDBRANCH   1  12
BRANCH   5  27
ATOM     27  O   UNL     1     -46.314  38.008  30.801  1.00  0.00    -0.388 OA
ATOM     28  H   UNL     1     -45.881  38.851  31.029  1.00  0.00     0.211 HD
ENDBRANCH   5  27
BRANCH   3  29
ATOM     29  C   UNL     1     -44.183  40.324  27.513  1.00  0.00    -0.042 C 
ATOM     30  H   UNL     1     -43.284  39.722  27.323  1.00  0.00     0.027 H 
ATOM     31  H   UNL     1     -43.849  41.196  28.092  1.00  0.00     0.027 H 
BRANCH  29  32
ATOM     32  C   UNL     1     -44.768  40.789  26.177  1.00  0.00    -0.010 C 
ATOM     33  H   UNL     1     -45.790  41.160  26.303  1.00  0.00     0.033 H 
ATOM     34  H   UNL     1     -44.821  39.947  25.476  1.00  0.00     0.033 H 
BRANCH  32  35
ATOM     35  C   UNL     1     -43.919  41.876  25.563  1.00  0.00     0.040 A 
ATOM     36  C   UNL     1     -44.296  42.472  24.363  1.00  0.00    -0.041 A 
ATOM     37  N   UNL     1     -42.810  42.251  26.247  1.00  0.00    -0.261 NA
ATOM     38  C   UNL     1     -43.500  43.485  23.836  1.00  0.00    -0.059 A 
ATOM     39  H   UNL     1     -45.195  42.155  23.843  1.00  0.00     0.064 H 
ATOM     40  C   UNL     1     -42.056  43.235  25.709  1.00  0.00     0.027 A 
ATOM     41  C   UNL     1     -42.356  43.875  24.520  1.00  0.00    -0.044 A 
ATOM     42  H   UNL     1     -43.771  43.963  22.899  1.00  0.00     0.062 H 
ATOM     43  H   UNL     1     -41.173  43.504  26.283  1.00  0.00     0.084 H 
ATOM     44  H   UNL     1     -41.713  44.659  24.136  1.00  0.00     0.064 H 
ENDBRANCH  32  35
ENDBRANCH  29  32
ENDBRANCH   3  29
BRANCH   4  45
ATOM     45  O   UNL     1     -43.966  39.079  30.437  1.00  0.00    -0.390 OA
ATOM     46  H   UNL     1     -44.676  39.007  31.109  1.00  0.00     0.211 HD
ENDBRANCH   4  45
TORSDOF 7
ENDMDL
