MODEL 1
REMARK VINA RESULT:     -10.8      0.000      0.000
REMARK SMILES Nc1ncnc2c1ccn2[C@@H]1C[C@H](CCc2ccc3cn[nH]c3c2)[C@@H](O)[C@H]1O
REMARK SMILES IDX 11 1 12 2 13 3 25 4 27 5 10 12 2 13 3 14 7 15 4 16 6 17 8 18
REMARK SMILES IDX 5 19 9 21 1 24 28 27 14 29 15 32 16 35 17 36 24 37 18 38
REMARK SMILES IDX 23 40 19 42 22 44 20 45 21 46 26 49
REMARK H PARENT 11 6 12 7 12 8 13 9 25 10 27 11 4 20 8 22 9 23 1 25 1 26 28 28
REMARK H PARENT 14 30 14 31 15 33 15 34 17 39 24 41 18 43 22 47 20 48 26 50
REMARK Flexibility Score: inf
ROOT
ATOM      1  C   UNL     1     -45.004  37.807  28.875  1.00  0.00     0.064 C 
ATOM      2  C   UNL     1     -45.081  36.564  27.964  1.00  0.00    -0.024 C 
ATOM      3  C   UNL     1     -46.274  35.712  28.447  1.00  0.00    -0.010 C 
ATOM      4  C   UNL     1     -46.763  36.396  29.722  1.00  0.00     0.085 C 
ATOM      5  C   UNL     1     -46.370  37.868  29.581  1.00  0.00     0.101 C 
ATOM      6  H   UNL     1     -44.211  37.636  29.617  1.00  0.00     0.056 H 
ATOM      7  H   UNL     1     -44.151  35.991  28.073  1.00  0.00     0.029 H 
ATOM      8  H   UNL     1     -45.169  36.779  26.898  1.00  0.00     0.029 H 
ATOM      9  H   UNL     1     -45.895  34.710  28.687  1.00  0.00     0.033 H 
ATOM     10  H   UNL     1     -47.831  36.261  29.920  1.00  0.00     0.063 H 
ATOM     11  H   UNL     1     -47.102  38.426  28.989  1.00  0.00     0.065 H 
ENDROOT
BRANCH   1  12
ATOM     12  N   UNL     1     -44.664  39.076  28.237  1.00  0.00    -0.327 N 
ATOM     13  C   UNL     1     -42.645  41.994  28.213  1.00  0.00     0.136 A 
ATOM     14  N   UNL     1     -41.884  41.815  29.310  1.00  0.00    -0.219 NA
ATOM     15  C   UNL     1     -43.598  41.020  27.884  1.00  0.00     0.061 A 
ATOM     16  C   UNL     1     -42.088  40.712  30.054  1.00  0.00     0.120 A 
ATOM     17  C   UNL     1     -43.691  39.923  28.728  1.00  0.00     0.145 A 
ATOM     18  C   UNL     1     -44.571  40.836  26.869  1.00  0.00    -0.031 A 
ATOM     19  N   UNL     1     -42.972  39.718  29.847  1.00  0.00    -0.218 NA
ATOM     20  H   UNL     1     -41.458  40.613  30.934  1.00  0.00     0.106 H 
ATOM     21  C   UNL     1     -45.220  39.643  27.117  1.00  0.00     0.007 A 
ATOM     22  H   UNL     1     -44.788  41.511  26.051  1.00  0.00     0.065 H 
ATOM     23  H   UNL     1     -46.026  39.180  26.567  1.00  0.00     0.082 H 
BRANCH  13  24
ATOM     24  N   UNL     1     -42.424  43.140  27.463  1.00  0.00    -0.383 N 
ATOM     25  H   UNL     1     -41.580  43.644  27.694  1.00  0.00     0.158 HD
ATOM     26  H   UNL     1     -43.272  43.690  27.394  1.00  0.00     0.158 HD
ENDBRANCH  13  24
ENDBRANCH   1  12
BRANCH   5  27
ATOM     27  O   UNL     1     -46.315  38.444  30.891  1.00  0.00    -0.388 OA
ATOM     28  H   UNL     1     -45.895  39.328  30.802  1.00  0.00     0.211 HD
ENDBRANCH   5  27
BRANCH   3  29
ATOM     29  C   UNL     1     -47.358  35.520  27.370  1.00  0.00    -0.044 C 
ATOM     30  H   UNL     1     -48.054  34.745  27.719  1.00  0.00     0.027 H 
ATOM     31  H   UNL     1     -47.948  36.444  27.311  1.00  0.00     0.027 H 
BRANCH  29  32
ATOM     32  C   UNL     1     -46.862  35.163  25.965  1.00  0.00    -0.027 C 
ATOM     33  H   UNL     1     -45.773  35.263  25.897  1.00  0.00     0.032 H 
ATOM     34  H   UNL     1     -47.281  35.854  25.224  1.00  0.00     0.032 H 
BRANCH  32  35
ATOM     35  C   UNL     1     -47.251  33.752  25.584  1.00  0.00    -0.046 A 
ATOM     36  C   UNL     1     -48.452  33.205  26.058  1.00  0.00    -0.058 A 
ATOM     37  C   UNL     1     -46.394  32.985  24.775  1.00  0.00    -0.033 A 
ATOM     38  C   UNL     1     -48.833  31.895  25.734  1.00  0.00    -0.051 A 
ATOM     39  H   UNL     1     -49.110  33.797  26.691  1.00  0.00     0.063 H 
ATOM     40  C   UNL     1     -46.795  31.682  24.465  1.00  0.00     0.065 A 
ATOM     41  H   UNL     1     -45.455  33.388  24.405  1.00  0.00     0.065 H 
ATOM     42  C   UNL     1     -47.984  31.126  24.922  1.00  0.00     0.020 A 
ATOM     43  H   UNL     1     -49.767  31.486  26.108  1.00  0.00     0.063 H 
ATOM     44  N   UNL     1     -46.203  30.699  23.716  1.00  0.00    -0.278 N 
ATOM     45  C   UNL     1     -47.993  29.820  24.385  1.00  0.00     0.057 A 
ATOM     46  N   UNL     1     -46.909  29.555  23.650  1.00  0.00    -0.183 NA
ATOM     47  H   UNL     1     -45.318  30.744  23.225  1.00  0.00     0.190 HD
ATOM     48  H   UNL     1     -48.746  29.052  24.502  1.00  0.00     0.087 H 
ENDBRANCH  32  35
ENDBRANCH  29  32
ENDBRANCH   3  29
BRANCH   4  49
ATOM     49  O   UNL     1     -46.051  35.836  30.833  1.00  0.00    -0.390 OA
ATOM     50  H   UNL     1     -46.032  34.872  30.654  1.00  0.00     0.211 HD
ENDBRANCH   4  49
TORSDOF 7
ENDMDL
MODEL 2
REMARK VINA RESULT:      -9.6      1.079      1.978
REMARK SMILES Nc1ncnc2c1ccn2[C@@H]1C[C@H](CCc2ccc3cn[nH]c3c2)[C@@H](O)[C@H]1O
REMARK SMILES IDX 11 1 12 2 13 3 25 4 27 5 10 12 2 13 3 14 7 15 4 16 6 17 8 18
REMARK SMILES IDX 5 19 9 21 1 24 28 27 14 29 15 32 16 35 17 36 24 37 18 38
REMARK SMILES IDX 23 40 19 42 22 44 20 45 21 46 26 49
REMARK H PARENT 11 6 12 7 12 8 13 9 25 10 27 11 4 20 8 22 9 23 1 25 1 26 28 28
REMARK H PARENT 14 30 14 31 15 33 15 34 17 39 24 41 18 43 22 47 20 48 26 50
REMARK Flexibility Score: inf
ROOT
ATOM      1  C   UNL     1     -44.593  37.837  29.462  1.00  0.00     0.064 C 
ATOM      2  C   UNL     1     -44.859  36.960  28.220  1.00  0.00    -0.024 C 
ATOM      3  C   UNL     1     -46.256  36.326  28.395  1.00  0.00    -0.010 C 
ATOM      4  C   UNL     1     -46.701  36.721  29.802  1.00  0.00     0.085 C 
ATOM      5  C   UNL     1     -45.972  38.030  30.115  1.00  0.00     0.101 C 
ATOM      6  H   UNL     1     -43.936  37.275  30.141  1.00  0.00     0.056 H 
ATOM      7  H   UNL     1     -44.099  36.168  28.180  1.00  0.00     0.029 H 
ATOM      8  H   UNL     1     -44.790  37.480  27.264  1.00  0.00     0.029 H 
ATOM      9  H   UNL     1     -46.139  35.235  28.338  1.00  0.00     0.033 H 
ATOM     10  H   UNL     1     -47.785  36.802  29.921  1.00  0.00     0.063 H 
ATOM     11  H   UNL     1     -46.496  38.894  29.696  1.00  0.00     0.065 H 
ENDROOT
BRANCH   1  12
ATOM     12  N   UNL     1     -43.913  39.110  29.239  1.00  0.00    -0.327 N 
ATOM     13  C   UNL     1     -43.607  42.066  27.300  1.00  0.00     0.136 A 
ATOM     14  N   UNL     1     -44.539  41.872  26.346  1.00  0.00    -0.219 NA
ATOM     15  C   UNL     1     -43.423  41.079  28.278  1.00  0.00     0.061 A 
ATOM     16  C   UNL     1     -45.242  40.724  26.368  1.00  0.00     0.120 A 
ATOM     17  C   UNL     1     -44.228  39.953  28.192  1.00  0.00     0.145 A 
ATOM     18  C   UNL     1     -42.576  40.889  29.400  1.00  0.00    -0.031 A 
ATOM     19  N   UNL     1     -45.150  39.705  27.243  1.00  0.00    -0.218 NA
ATOM     20  H   UNL     1     -45.977  40.607  25.576  1.00  0.00     0.106 H 
ATOM     21  C   UNL     1     -42.888  39.667  29.963  1.00  0.00     0.007 A 
ATOM     22  H   UNL     1     -41.807  41.566  29.751  1.00  0.00     0.065 H 
ATOM     23  H   UNL     1     -42.446  39.181  30.820  1.00  0.00     0.082 H 
BRANCH  13  24
ATOM     24  N   UNL     1     -42.889  43.252  27.258  1.00  0.00    -0.383 N 
ATOM     25  H   UNL     1     -42.488  43.476  26.358  1.00  0.00     0.158 HD
ATOM     26  H   UNL     1     -42.269  43.322  28.056  1.00  0.00     0.158 HD
ENDBRANCH  13  24
ENDBRANCH   1  12
BRANCH   5  27
ATOM     27  O   UNL     1     -45.918  38.182  31.538  1.00  0.00    -0.388 OA
ATOM     28  H   UNL     1     -45.964  37.281  31.928  1.00  0.00     0.211 HD
ENDBRANCH   5  27
BRANCH   3  29
ATOM     29  C   UNL     1     -47.243  36.717  27.280  1.00  0.00    -0.044 C 
ATOM     30  H   UNL     1     -47.497  37.779  27.404  1.00  0.00     0.027 H 
ATOM     31  H   UNL     1     -46.716  36.648  26.319  1.00  0.00     0.027 H 
BRANCH  29  32
ATOM     32  C   UNL     1     -48.531  35.892  27.194  1.00  0.00    -0.027 C 
ATOM     33  H   UNL     1     -49.326  36.459  26.696  1.00  0.00     0.032 H 
ATOM     34  H   UNL     1     -48.904  35.657  28.198  1.00  0.00     0.032 H 
BRANCH  32  35
ATOM     35  C   UNL     1     -48.309  34.596  26.447  1.00  0.00    -0.046 A 
ATOM     36  C   UNL     1     -49.320  33.625  26.416  1.00  0.00    -0.058 A 
ATOM     37  C   UNL     1     -47.080  34.359  25.808  1.00  0.00    -0.033 A 
ATOM     38  C   UNL     1     -49.140  32.408  25.744  1.00  0.00    -0.051 A 
ATOM     39  H   UNL     1     -50.268  33.807  26.918  1.00  0.00     0.063 H 
ATOM     40  C   UNL     1     -46.923  33.138  25.144  1.00  0.00     0.065 A 
ATOM     41  H   UNL     1     -46.281  35.095  25.828  1.00  0.00     0.065 H 
ATOM     42  C   UNL     1     -47.916  32.167  25.099  1.00  0.00     0.020 A 
ATOM     43  H   UNL     1     -49.933  31.666  25.728  1.00  0.00     0.063 H 
ATOM     44  N   UNL     1     -45.873  32.612  24.437  1.00  0.00    -0.278 N 
ATOM     45  C   UNL     1     -47.350  31.117  24.343  1.00  0.00     0.057 A 
ATOM     46  N   UNL     1     -46.105  31.384  23.939  1.00  0.00    -0.183 NA
ATOM     47  H   UNL     1     -44.972  33.039  24.260  1.00  0.00     0.190 HD
ATOM     48  H   UNL     1     -47.796  30.169  24.074  1.00  0.00     0.087 H 
ENDBRANCH  32  35
ENDBRANCH  29  32
ENDBRANCH   3  29
BRANCH   4  49
ATOM     49  O   UNL     1     -46.247  35.715  30.716  1.00  0.00    -0.390 OA
ATOM     50  H   UNL     1     -45.883  36.217  31.476  1.00  0.00     0.211 HD
ENDBRANCH   4  49
TORSDOF 7
ENDMDL
MODEL 3
REMARK VINA RESULT:      -9.3      1.654      2.207
REMARK SMILES Nc1ncnc2c1ccn2[C@@H]1C[C@H](CCc2ccc3cn[nH]c3c2)[C@@H](O)[C@H]1O
REMARK SMILES IDX 11 1 12 2 13 3 25 4 27 5 10 12 2 13 3 14 7 15 4 16 6 17 8 18
REMARK SMILES IDX 5 19 9 21 1 24 28 27 14 29 15 32 16 35 17 36 24 37 18 38
REMARK SMILES IDX 23 40 19 42 22 44 20 45 21 46 26 49
REMARK H PARENT 11 6 12 7 12 8 13 9 25 10 27 11 4 20 8 22 9 23 1 25 1 26 28 28
REMARK H PARENT 14 30 14 31 15 33 15 34 17 39 24 41 18 43 22 47 20 48 26 50
REMARK Flexibility Score: inf
ROOT
ATOM      1  C   UNL     1     -45.709  39.452  27.960  1.00  0.00     0.064 C 
ATOM      2  C   UNL     1     -45.164  38.113  27.420  1.00  0.00    -0.024 C 
ATOM      3  C   UNL     1     -46.185  37.017  27.790  1.00  0.00    -0.010 C 
ATOM      4  C   UNL     1     -47.220  37.716  28.671  1.00  0.00     0.085 C 
ATOM      5  C   UNL     1     -47.196  39.187  28.252  1.00  0.00     0.101 C 
ATOM      6  H   UNL     1     -45.182  39.681  28.898  1.00  0.00     0.056 H 
ATOM      7  H   UNL     1     -44.204  37.902  27.911  1.00  0.00     0.029 H 
ATOM      8  H   UNL     1     -44.954  38.098  26.350  1.00  0.00     0.029 H 
ATOM      9  H   UNL     1     -45.659  36.251  28.375  1.00  0.00     0.033 H 
ATOM     10  H   UNL     1     -48.220  37.277  28.618  1.00  0.00     0.063 H 
ATOM     11  H   UNL     1     -47.815  39.365  27.367  1.00  0.00     0.065 H 
ENDROOT
BRANCH   1  12
ATOM     12  N   UNL     1     -45.521  40.631  27.119  1.00  0.00    -0.327 N 
ATOM     13  C   UNL     1     -43.318  43.096  25.831  1.00  0.00     0.136 A 
ATOM     14  N   UNL     1     -42.155  42.770  26.428  1.00  0.00    -0.219 NA
ATOM     15  C   UNL     1     -44.458  42.329  26.104  1.00  0.00     0.061 A 
ATOM     16  C   UNL     1     -42.147  41.727  27.278  1.00  0.00     0.120 A 
ATOM     17  C   UNL     1     -44.305  41.270  26.987  1.00  0.00     0.145 A 
ATOM     18  C   UNL     1     -45.823  42.341  25.717  1.00  0.00    -0.031 A 
ATOM     19  N   UNL     1     -43.171  40.926  27.627  1.00  0.00    -0.218 NA
ATOM     20  H   UNL     1     -41.190  41.505  27.743  1.00  0.00     0.106 H 
ATOM     21  C   UNL     1     -46.455  41.297  26.364  1.00  0.00     0.007 A 
ATOM     22  H   UNL     1     -46.299  43.046  25.048  1.00  0.00     0.065 H 
ATOM     23  H   UNL     1     -47.493  41.003  26.325  1.00  0.00     0.082 H 
BRANCH  13  24
ATOM     24  N   UNL     1     -43.308  44.178  24.962  1.00  0.00    -0.383 N 
ATOM     25  H   UNL     1     -43.484  43.949  23.995  1.00  0.00     0.158 HD
ATOM     26  H   UNL     1     -42.509  44.774  25.145  1.00  0.00     0.158 HD
ENDBRANCH  13  24
ENDBRANCH   1  12
BRANCH   5  27
ATOM     27  O   UNL     1     -47.718  39.968  29.332  1.00  0.00    -0.388 OA
ATOM     28  H   UNL     1     -46.966  40.467  29.719  1.00  0.00     0.211 HD
ENDBRANCH   5  27
BRANCH   3  29
ATOM     29  C   UNL     1     -46.774  36.298  26.563  1.00  0.00    -0.044 C 
ATOM     30  H   UNL     1     -47.122  37.061  25.853  1.00  0.00     0.027 H 
ATOM     31  H   UNL     1     -45.958  35.769  26.053  1.00  0.00     0.027 H 
BRANCH  29  32
ATOM     32  C   UNL     1     -47.907  35.304  26.837  1.00  0.00    -0.027 C 
ATOM     33  H   UNL     1     -48.879  35.734  26.568  1.00  0.00     0.032 H 
ATOM     34  H   UNL     1     -47.961  35.069  27.906  1.00  0.00     0.032 H 
BRANCH  32  35
ATOM     35  C   UNL     1     -47.711  34.016  26.069  1.00  0.00    -0.046 A 
ATOM     36  C   UNL     1     -46.506  33.783  25.390  1.00  0.00    -0.058 A 
ATOM     37  C   UNL     1     -48.748  33.069  26.017  1.00  0.00    -0.033 A 
ATOM     38  C   UNL     1     -46.300  32.606  24.658  1.00  0.00    -0.051 A 
ATOM     39  H   UNL     1     -45.708  34.522  25.425  1.00  0.00     0.063 H 
ATOM     40  C   UNL     1     -48.519  31.902  25.280  1.00  0.00     0.065 A 
ATOM     41  H   UNL     1     -49.692  33.234  26.527  1.00  0.00     0.065 H 
ATOM     42  C   UNL     1     -47.330  31.652  24.607  1.00  0.00     0.020 A 
ATOM     43  H   UNL     1     -45.360  32.439  24.139  1.00  0.00     0.063 H 
ATOM     44  N   UNL     1     -49.306  30.806  25.038  1.00  0.00    -0.278 N 
ATOM     45  C   UNL     1     -47.521  30.388  24.006  1.00  0.00     0.057 A 
ATOM     46  N   UNL     1     -48.724  29.870  24.266  1.00  0.00    -0.183 NA
ATOM     47  H   UNL     1     -50.247  30.636  25.370  1.00  0.00     0.190 HD
ATOM     48  H   UNL     1     -46.831  29.828  23.389  1.00  0.00     0.087 H 
ENDBRANCH  32  35
ENDBRANCH  29  32
ENDBRANCH   3  29
BRANCH   4  49
ATOM     49  O   UNL     1     -46.786  37.621  30.034  1.00  0.00    -0.390 OA
ATOM     50  H   UNL     1     -45.972  37.073  29.996  1.00  0.00     0.211 HD
ENDBRANCH   4  49
TORSDOF 7
ENDMDL
MODEL 4
REMARK VINA RESULT:      -9.2      1.581      9.399
REMARK SMILES Nc1ncnc2c1ccn2[C@@H]1C[C@H](CCc2ccc3cn[nH]c3c2)[C@@H](O)[C@H]1O
REMARK SMILES IDX 11 1 12 2 13 3 25 4 27 5 10 12 2 13 3 14 7 15 4 16 6 17 8 18
REMARK SMILES IDX 5 19 9 21 1 24 28 27 14 29 15 32 16 35 17 36 24 37 18 38
REMARK SMILES IDX 23 40 19 42 22 44 20 45 21 46 26 49
REMARK H PARENT 11 6 12 7 12 8 13 9 25 10 27 11 4 20 8 22 9 23 1 25 1 26 28 28
REMARK H PARENT 14 30 14 31 15 33 15 34 17 39 24 41 18 43 22 47 20 48 26 50
REMARK Flexibility Score: inf
ROOT
ATOM      1  C   UNL     1     -47.092  33.964  26.882  1.00  0.00     0.064 C 
ATOM      2  C   UNL     1     -47.773  35.334  26.680  1.00  0.00    -0.024 C 
ATOM      3  C   UNL     1     -47.058  36.344  27.602  1.00  0.00    -0.010 C 
ATOM      4  C   UNL     1     -46.086  35.508  28.433  1.00  0.00     0.085 C 
ATOM      5  C   UNL     1     -45.758  34.282  27.579  1.00  0.00     0.101 C 
ATOM      6  H   UNL     1     -47.726  33.364  27.551  1.00  0.00     0.056 H 
ATOM      7  H   UNL     1     -48.827  35.249  26.975  1.00  0.00     0.029 H 
ATOM      8  H   UNL     1     -47.786  35.695  25.651  1.00  0.00     0.029 H 
ATOM      9  H   UNL     1     -47.815  36.793  28.259  1.00  0.00     0.033 H 
ATOM     10  H   UNL     1     -45.193  36.051  28.755  1.00  0.00     0.063 H 
ATOM     11  H   UNL     1     -44.968  34.496  26.852  1.00  0.00     0.065 H 
ENDROOT
BRANCH   1  12
ATOM     12  N   UNL     1     -46.902  33.137  25.693  1.00  0.00    -0.327 N 
ATOM     13  C   UNL     1     -47.670  30.147  23.946  1.00  0.00     0.136 A 
ATOM     14  N   UNL     1     -48.488  29.519  24.813  1.00  0.00    -0.219 NA
ATOM     15  C   UNL     1     -47.141  31.396  24.296  1.00  0.00     0.061 A 
ATOM     16  C   UNL     1     -48.746  30.117  25.991  1.00  0.00     0.120 A 
ATOM     17  C   UNL     1     -47.504  31.905  25.534  1.00  0.00     0.145 A 
ATOM     18  C   UNL     1     -46.267  32.345  23.706  1.00  0.00    -0.031 A 
ATOM     19  N   UNL     1     -48.294  31.302  26.442  1.00  0.00    -0.218 NA
ATOM     20  H   UNL     1     -49.404  29.571  26.662  1.00  0.00     0.106 H 
ATOM     21  C   UNL     1     -46.127  33.396  24.590  1.00  0.00     0.007 A 
ATOM     22  H   UNL     1     -45.778  32.262  22.744  1.00  0.00     0.065 H 
ATOM     23  H   UNL     1     -45.532  34.292  24.491  1.00  0.00     0.082 H 
BRANCH  13  24
ATOM     24  N   UNL     1     -47.411  29.512  22.739  1.00  0.00    -0.383 N 
ATOM     25  H   UNL     1     -48.012  28.726  22.534  1.00  0.00     0.158 HD
ATOM     26  H   UNL     1     -46.416  29.359  22.623  1.00  0.00     0.158 HD
ENDBRANCH  13  24
ENDBRANCH   1  12
BRANCH   5  27
ATOM     27  O   UNL     1     -45.302  33.241  28.449  1.00  0.00    -0.388 OA
ATOM     28  H   UNL     1     -46.098  32.773  28.785  1.00  0.00     0.211 HD
ENDBRANCH   5  27
BRANCH   3  29
ATOM     29  C   UNL     1     -46.404  37.508  26.835  1.00  0.00    -0.044 C 
ATOM     30  H   UNL     1     -45.319  37.332  26.805  1.00  0.00     0.027 H 
ATOM     31  H   UNL     1     -46.741  37.460  25.790  1.00  0.00     0.027 H 
BRANCH  29  32
ATOM     32  C   UNL     1     -46.676  38.915  27.375  1.00  0.00    -0.027 C 
ATOM     33  H   UNL     1     -47.179  38.871  28.348  1.00  0.00     0.032 H 
ATOM     34  H   UNL     1     -47.353  39.459  26.704  1.00  0.00     0.032 H 
BRANCH  32  35
ATOM     35  C   UNL     1     -45.398  39.710  27.518  1.00  0.00    -0.046 A 
ATOM     36  C   UNL     1     -45.000  40.585  26.497  1.00  0.00    -0.058 A 
ATOM     37  C   UNL     1     -44.599  39.548  28.663  1.00  0.00    -0.033 A 
ATOM     38  C   UNL     1     -43.813  41.324  26.593  1.00  0.00    -0.051 A 
ATOM     39  H   UNL     1     -45.616  40.703  25.607  1.00  0.00     0.063 H 
ATOM     40  C   UNL     1     -43.419  40.297  28.737  1.00  0.00     0.065 A 
ATOM     41  H   UNL     1     -44.884  38.869  29.460  1.00  0.00     0.065 H 
ATOM     42  C   UNL     1     -43.013  41.172  27.737  1.00  0.00     0.020 A 
ATOM     43  H   UNL     1     -43.520  42.000  25.794  1.00  0.00     0.063 H 
ATOM     44  N   UNL     1     -42.444  40.370  29.697  1.00  0.00    -0.278 N 
ATOM     45  C   UNL     1     -41.794  41.706  28.208  1.00  0.00     0.057 A 
ATOM     46  N   UNL     1     -41.443  41.219  29.402  1.00  0.00    -0.183 NA
ATOM     47  H   UNL     1     -42.402  39.866  30.574  1.00  0.00     0.190 HD
ATOM     48  H   UNL     1     -41.148  42.429  27.727  1.00  0.00     0.087 H 
ENDBRANCH  32  35
ENDBRANCH  29  32
ENDBRANCH   3  29
BRANCH   4  49
ATOM     49  O   UNL     1     -46.768  35.073  29.617  1.00  0.00    -0.390 OA
ATOM     50  H   UNL     1     -46.291  35.514  30.352  1.00  0.00     0.211 HD
ENDBRANCH   4  49
TORSDOF 7
ENDMDL
MODEL 5
REMARK VINA RESULT:      -9.1      1.459      2.205
REMARK SMILES Nc1ncnc2c1ccn2[C@@H]1C[C@H](CCc2ccc3cn[nH]c3c2)[C@@H](O)[C@H]1O
REMARK SMILES IDX 11 1 12 2 13 3 25 4 27 5 10 12 2 13 3 14 7 15 4 16 6 17 8 18
REMARK SMILES IDX 5 19 9 21 1 24 28 27 14 29 15 32 16 35 17 36 24 37 18 38
REMARK SMILES IDX 23 40 19 42 22 44 20 45 21 46 26 49
REMARK H PARENT 11 6 12 7 12 8 13 9 25 10 27 11 4 20 8 22 9 23 1 25 1 26 28 28
REMARK H PARENT 14 30 14 31 15 33 15 34 17 39 24 41 18 43 22 47 20 48 26 50
REMARK Flexibility Score: inf
ROOT
ATOM      1  C   UNL     1     -46.493  37.478  29.059  1.00  0.00     0.064 C 
ATOM      2  C   UNL     1     -46.277  36.046  28.525  1.00  0.00    -0.024 C 
ATOM      3  C   UNL     1     -47.474  35.710  27.610  1.00  0.00    -0.010 C 
ATOM      4  C   UNL     1     -48.433  36.890  27.757  1.00  0.00     0.085 C 
ATOM      5  C   UNL     1     -47.561  38.090  28.136  1.00  0.00     0.101 C 
ATOM      6  H   UNL     1     -46.886  37.404  30.083  1.00  0.00     0.056 H 
ATOM      7  H   UNL     1     -46.260  35.354  29.377  1.00  0.00     0.029 H 
ATOM      8  H   UNL     1     -45.335  35.887  28.000  1.00  0.00     0.029 H 
ATOM      9  H   UNL     1     -47.947  34.798  27.997  1.00  0.00     0.033 H 
ATOM     10  H   UNL     1     -49.049  37.078  26.874  1.00  0.00     0.063 H 
ATOM     11  H   UNL     1     -47.109  38.554  27.254  1.00  0.00     0.065 H 
ENDROOT
BRANCH   1  12
ATOM     12  N   UNL     1     -45.312  38.330  29.163  1.00  0.00    -0.327 N 
ATOM     13  C   UNL     1     -43.352  40.950  27.789  1.00  0.00     0.136 A 
ATOM     14  N   UNL     1     -44.027  41.241  26.660  1.00  0.00    -0.219 NA
ATOM     15  C   UNL     1     -43.832  39.931  28.622  1.00  0.00     0.061 A 
ATOM     16  C   UNL     1     -45.130  40.522  26.375  1.00  0.00     0.120 A 
ATOM     17  C   UNL     1     -44.990  39.283  28.217  1.00  0.00     0.145 A 
ATOM     18  C   UNL     1     -43.432  39.324  29.840  1.00  0.00    -0.031 A 
ATOM     19  N   UNL     1     -45.680  39.521  27.086  1.00  0.00    -0.218 NA
ATOM     20  H   UNL     1     -45.638  40.786  25.451  1.00  0.00     0.106 H 
ATOM     21  C   UNL     1     -44.349  38.337  30.142  1.00  0.00     0.007 A 
ATOM     22  H   UNL     1     -42.557  39.570  30.428  1.00  0.00     0.065 H 
ATOM     23  H   UNL     1     -44.364  37.658  30.982  1.00  0.00     0.082 H 
BRANCH  13  24
ATOM     24  N   UNL     1     -42.216  41.697  28.063  1.00  0.00    -0.383 N 
ATOM     25  H   UNL     1     -41.360  41.165  28.125  1.00  0.00     0.158 HD
ATOM     26  H   UNL     1     -42.393  42.353  28.815  1.00  0.00     0.158 HD
ENDBRANCH  13  24
ENDBRANCH   1  12
BRANCH   5  27
ATOM     27  O   UNL     1     -48.392  39.060  28.782  1.00  0.00    -0.388 OA
ATOM     28  H   UNL     1     -49.259  38.631  28.955  1.00  0.00     0.211 HD
ENDBRANCH   5  27
BRANCH   3  29
ATOM     29  C   UNL     1     -47.060  35.402  26.159  1.00  0.00    -0.044 C 
ATOM     30  H   UNL     1     -47.973  35.283  25.560  1.00  0.00     0.027 H 
ATOM     31  H   UNL     1     -46.552  36.288  25.754  1.00  0.00     0.027 H 
BRANCH  29  32
ATOM     32  C   UNL     1     -46.155  34.183  25.956  1.00  0.00    -0.027 C 
ATOM     33  H   UNL     1     -45.731  33.847  26.909  1.00  0.00     0.032 H 
ATOM     34  H   UNL     1     -45.304  34.438  25.314  1.00  0.00     0.032 H 
BRANCH  32  35
ATOM     35  C   UNL     1     -46.909  33.035  25.323  1.00  0.00    -0.046 A 
ATOM     36  C   UNL     1     -48.248  32.802  25.668  1.00  0.00    -0.058 A 
ATOM     37  C   UNL     1     -46.256  32.189  24.409  1.00  0.00    -0.033 A 
ATOM     38  C   UNL     1     -48.969  31.737  25.109  1.00  0.00    -0.051 A 
ATOM     39  H   UNL     1     -48.749  33.452  26.382  1.00  0.00     0.063 H 
ATOM     40  C   UNL     1     -46.996  31.134  23.864  1.00  0.00     0.065 A 
ATOM     41  H   UNL     1     -45.217  32.347  24.135  1.00  0.00     0.065 H 
ATOM     42  C   UNL     1     -48.324  30.893  24.191  1.00  0.00     0.020 A 
ATOM     43  H   UNL     1     -50.006  31.571  25.386  1.00  0.00     0.063 H 
ATOM     44  N   UNL     1     -46.662  30.155  22.965  1.00  0.00    -0.278 N 
ATOM     45  C   UNL     1     -48.674  29.755  23.431  1.00  0.00     0.057 A 
ATOM     46  N   UNL     1     -47.664  29.302  22.683  1.00  0.00    -0.183 NA
ATOM     47  H   UNL     1     -45.770  30.014  22.508  1.00  0.00     0.190 HD
ATOM     48  H   UNL     1     -49.625  29.239  23.395  1.00  0.00     0.087 H 
ENDBRANCH  32  35
ENDBRANCH  29  32
ENDBRANCH   3  29
BRANCH   4  49
ATOM     49  O   UNL     1     -49.324  36.611  28.845  1.00  0.00    -0.390 OA
ATOM     50  H   UNL     1     -50.050  36.088  28.441  1.00  0.00     0.211 HD
ENDBRANCH   4  49
TORSDOF 7
ENDMDL
MODEL 6
REMARK VINA RESULT:      -9.0      2.097      9.310
REMARK SMILES Nc1ncnc2c1ccn2[C@@H]1C[C@H](CCc2ccc3cn[nH]c3c2)[C@@H](O)[C@H]1O
REMARK SMILES IDX 11 1 12 2 13 3 25 4 27 5 10 12 2 13 3 14 7 15 4 16 6 17 8 18
REMARK SMILES IDX 5 19 9 21 1 24 28 27 14 29 15 32 16 35 17 36 24 37 18 38
REMARK SMILES IDX 23 40 19 42 22 44 20 45 21 46 26 49
REMARK H PARENT 11 6 12 7 12 8 13 9 25 10 27 11 4 20 8 22 9 23 1 25 1 26 28 28
REMARK H PARENT 14 30 14 31 15 33 15 34 17 39 24 41 18 43 22 47 20 48 26 50
REMARK Flexibility Score: inf
ROOT
ATOM      1  C   UNL     1     -47.219  35.183  27.473  1.00  0.00     0.064 C 
ATOM      2  C   UNL     1     -47.328  36.641  26.978  1.00  0.00    -0.024 C 
ATOM      3  C   UNL     1     -46.557  37.527  27.980  1.00  0.00    -0.010 C 
ATOM      4  C   UNL     1     -46.153  36.587  29.115  1.00  0.00     0.085 C 
ATOM      5  C   UNL     1     -46.063  35.194  28.490  1.00  0.00     0.101 C 
ATOM      6  H   UNL     1     -48.158  34.925  27.983  1.00  0.00     0.056 H 
ATOM      7  H   UNL     1     -48.387  36.930  26.971  1.00  0.00     0.029 H 
ATOM      8  H   UNL     1     -46.972  36.810  25.961  1.00  0.00     0.029 H 
ATOM      9  H   UNL     1     -47.252  38.288  28.359  1.00  0.00     0.033 H 
ATOM     10  H   UNL     1     -45.233  36.879  29.630  1.00  0.00     0.063 H 
ATOM     11  H   UNL     1     -45.098  35.033  27.999  1.00  0.00     0.065 H 
ENDROOT
BRANCH   1  12
ATOM     12  N   UNL     1     -47.040  34.150  26.457  1.00  0.00    -0.327 N 
ATOM     13  C   UNL     1     -48.515  31.714  24.341  1.00  0.00     0.136 A 
ATOM     14  N   UNL     1     -49.817  31.807  24.674  1.00  0.00    -0.219 NA
ATOM     15  C   UNL     1     -47.590  32.543  24.988  1.00  0.00     0.061 A 
ATOM     16  C   UNL     1     -50.168  32.685  25.633  1.00  0.00     0.120 A 
ATOM     17  C   UNL     1     -48.089  33.415  25.944  1.00  0.00     0.145 A 
ATOM     18  C   UNL     1     -46.186  32.745  24.949  1.00  0.00    -0.031 A 
ATOM     19  N   UNL     1     -49.375  33.521  26.329  1.00  0.00    -0.218 NA
ATOM     20  H   UNL     1     -51.227  32.720  25.875  1.00  0.00     0.106 H 
ATOM     21  C   UNL     1     -45.874  33.726  25.869  1.00  0.00     0.007 A 
ATOM     22  H   UNL     1     -45.475  32.218  24.325  1.00  0.00     0.065 H 
ATOM     23  H   UNL     1     -44.907  34.133  26.126  1.00  0.00     0.082 H 
BRANCH  13  24
ATOM     24  N   UNL     1     -48.173  30.800  23.355  1.00  0.00    -0.383 N 
ATOM     25  H   UNL     1     -48.449  29.847  23.543  1.00  0.00     0.158 HD
ATOM     26  H   UNL     1     -47.216  30.941  23.055  1.00  0.00     0.158 HD
ENDBRANCH  13  24
ENDBRANCH   1  12
BRANCH   5  27
ATOM     27  O   UNL     1     -46.207  34.225  29.534  1.00  0.00    -0.388 OA
ATOM     28  H   UNL     1     -45.312  33.864  29.720  1.00  0.00     0.211 HD
ENDBRANCH   5  27
BRANCH   3  29
ATOM     29  C   UNL     1     -45.385  38.291  27.336  1.00  0.00    -0.044 C 
ATOM     30  H   UNL     1     -44.572  37.576  27.149  1.00  0.00     0.027 H 
ATOM     31  H   UNL     1     -45.708  38.639  26.346  1.00  0.00     0.027 H 
BRANCH  29  32
ATOM     32  C   UNL     1     -44.840  39.486  28.124  1.00  0.00    -0.027 C 
ATOM     33  H   UNL     1     -43.983  39.190  28.741  1.00  0.00     0.032 H 
ATOM     34  H   UNL     1     -45.600  39.868  28.816  1.00  0.00     0.032 H 
BRANCH  32  35
ATOM     35  C   UNL     1     -44.418  40.609  27.204  1.00  0.00    -0.046 A 
ATOM     36  C   UNL     1     -45.311  41.096  26.239  1.00  0.00    -0.058 A 
ATOM     37  C   UNL     1     -43.121  41.143  27.301  1.00  0.00    -0.033 A 
ATOM     38  C   UNL     1     -44.945  42.126  25.362  1.00  0.00    -0.051 A 
ATOM     39  H   UNL     1     -46.312  40.675  26.159  1.00  0.00     0.063 H 
ATOM     40  C   UNL     1     -42.778  42.169  26.415  1.00  0.00     0.065 A 
ATOM     41  H   UNL     1     -42.411  40.773  28.035  1.00  0.00     0.065 H 
ATOM     42  C   UNL     1     -43.653  42.668  25.458  1.00  0.00     0.020 A 
ATOM     43  H   UNL     1     -45.649  42.493  24.621  1.00  0.00     0.063 H 
ATOM     44  N   UNL     1     -41.622  42.889  26.256  1.00  0.00    -0.278 N 
ATOM     45  C   UNL     1     -42.915  43.672  24.794  1.00  0.00     0.057 A 
ATOM     46  N   UNL     1     -41.677  43.809  25.276  1.00  0.00    -0.183 NA
ATOM     47  H   UNL     1     -40.761  42.799  26.781  1.00  0.00     0.190 HD
ATOM     48  H   UNL     1     -43.232  44.307  23.976  1.00  0.00     0.087 H 
ENDBRANCH  32  35
ENDBRANCH  29  32
ENDBRANCH   3  29
BRANCH   4  49
ATOM     49  O   UNL     1     -47.204  36.585  30.090  1.00  0.00    -0.390 OA
ATOM     50  H   UNL     1     -48.009  36.832  29.586  1.00  0.00     0.211 HD
ENDBRANCH   4  49
TORSDOF 7
ENDMDL
MODEL 7
REMARK VINA RESULT:      -8.8      5.073     11.267
REMARK SMILES Nc1ncnc2c1ccn2[C@@H]1C[C@H](CCc2ccc3cn[nH]c3c2)[C@@H](O)[C@H]1O
REMARK SMILES IDX 11 1 12 2 13 3 25 4 27 5 10 12 2 13 3 14 7 15 4 16 6 17 8 18
REMARK SMILES IDX 5 19 9 21 1 24 28 27 14 29 15 32 16 35 17 36 24 37 18 38
REMARK SMILES IDX 23 40 19 42 22 44 20 45 21 46 26 49
REMARK H PARENT 11 6 12 7 12 8 13 9 25 10 27 11 4 20 8 22 9 23 1 25 1 26 28 28
REMARK H PARENT 14 30 14 31 15 33 15 34 17 39 24 41 18 43 22 47 20 48 26 50
REMARK Flexibility Score: inf
ROOT
ATOM      1  C   UNL     1     -47.613  28.948  22.927  1.00  0.00     0.064 C 
ATOM      2  C   UNL     1     -47.493  30.384  23.479  1.00  0.00    -0.024 C 
ATOM      3  C   UNL     1     -48.769  31.146  23.059  1.00  0.00    -0.010 C 
ATOM      4  C   UNL     1     -49.524  30.187  22.142  1.00  0.00     0.085 C 
ATOM      5  C   UNL     1     -49.101  28.781  22.573  1.00  0.00     0.101 C 
ATOM      6  H   UNL     1     -47.005  28.883  22.013  1.00  0.00     0.056 H 
ATOM      7  H   UNL     1     -46.614  30.861  23.026  1.00  0.00     0.029 H 
ATOM      8  H   UNL     1     -47.342  30.453  24.557  1.00  0.00     0.029 H 
ATOM      9  H   UNL     1     -48.458  32.033  22.491  1.00  0.00     0.033 H 
ATOM     10  H   UNL     1     -50.610  30.322  22.151  1.00  0.00     0.063 H 
ATOM     11  H   UNL     1     -49.680  28.430  23.433  1.00  0.00     0.065 H 
ENDROOT
BRANCH   1  12
ATOM     12  N   UNL     1     -47.133  27.868  23.784  1.00  0.00    -0.327 N 
ATOM     13  C   UNL     1     -47.809  25.564  26.397  1.00  0.00     0.136 A 
ATOM     14  N   UNL     1     -49.078  25.877  26.723  1.00  0.00    -0.219 NA
ATOM     15  C   UNL     1     -47.175  26.284  25.375  1.00  0.00     0.061 A 
ATOM     16  C   UNL     1     -49.675  26.886  26.061  1.00  0.00     0.120 A 
ATOM     17  C   UNL     1     -47.913  27.286  24.764  1.00  0.00     0.145 A 
ATOM     18  C   UNL     1     -45.898  26.285  24.758  1.00  0.00    -0.031 A 
ATOM     19  N   UNL     1     -49.170  27.652  25.076  1.00  0.00    -0.218 NA
ATOM     20  H   UNL     1     -50.695  27.109  26.363  1.00  0.00     0.106 H 
ATOM     21  C   UNL     1     -45.894  27.275  23.796  1.00  0.00     0.007 A 
ATOM     22  H   UNL     1     -45.062  25.642  25.002  1.00  0.00     0.065 H 
ATOM     23  H   UNL     1     -45.095  27.578  23.136  1.00  0.00     0.082 H 
BRANCH  13  24
ATOM     24  N   UNL     1     -47.209  24.525  27.094  1.00  0.00    -0.383 N 
ATOM     25  H   UNL     1     -47.550  23.603  26.862  1.00  0.00     0.158 HD
ATOM     26  H   UNL     1     -47.148  24.747  28.081  1.00  0.00     0.158 HD
ENDBRANCH  13  24
ENDBRANCH   1  12
BRANCH   5  27
ATOM     27  O   UNL     1     -49.334  27.889  21.478  1.00  0.00    -0.388 OA
ATOM     28  H   UNL     1     -49.973  28.330  20.875  1.00  0.00     0.211 HD
ENDBRANCH   5  27
BRANCH   3  29
ATOM     29  C   UNL     1     -49.588  31.663  24.257  1.00  0.00    -0.044 C 
ATOM     30  H   UNL     1     -49.942  32.675  24.019  1.00  0.00     0.027 H 
ATOM     31  H   UNL     1     -50.492  31.045  24.343  1.00  0.00     0.027 H 
BRANCH  29  32
ATOM     32  C   UNL     1     -48.872  31.679  25.611  1.00  0.00    -0.027 C 
ATOM     33  H   UNL     1     -48.080  30.923  25.645  1.00  0.00     0.032 H 
ATOM     34  H   UNL     1     -49.572  31.427  26.418  1.00  0.00     0.032 H 
BRANCH  32  35
ATOM     35  C   UNL     1     -48.270  33.035  25.902  1.00  0.00    -0.046 A 
ATOM     36  C   UNL     1     -46.953  33.314  25.512  1.00  0.00    -0.058 A 
ATOM     37  C   UNL     1     -49.026  34.003  26.587  1.00  0.00    -0.033 A 
ATOM     38  C   UNL     1     -46.362  34.556  25.780  1.00  0.00    -0.051 A 
ATOM     39  H   UNL     1     -46.366  32.560  24.990  1.00  0.00     0.063 H 
ATOM     40  C   UNL     1     -48.415  35.235  26.843  1.00  0.00     0.065 A 
ATOM     41  H   UNL     1     -50.045  33.804  26.906  1.00  0.00     0.065 H 
ATOM     42  C   UNL     1     -47.113  35.530  26.459  1.00  0.00     0.020 A 
ATOM     43  H   UNL     1     -45.340  34.758  25.470  1.00  0.00     0.063 H 
ATOM     44  N   UNL     1     -48.869  36.366  27.472  1.00  0.00    -0.278 N 
ATOM     45  C   UNL     1     -46.902  36.853  26.907  1.00  0.00     0.057 A 
ATOM     46  N   UNL     1     -47.969  37.365  27.525  1.00  0.00    -0.183 NA
ATOM     47  H   UNL     1     -49.780  36.518  27.887  1.00  0.00     0.190 HD
ATOM     48  H   UNL     1     -46.012  37.460  26.807  1.00  0.00     0.087 H 
ENDBRANCH  32  35
ENDBRANCH  29  32
ENDBRANCH   3  29
BRANCH   4  49
ATOM     49  O   UNL     1     -49.079  30.407  20.797  1.00  0.00    -0.390 OA
ATOM     50  H   UNL     1     -48.416  29.701  20.638  1.00  0.00     0.211 HD
ENDBRANCH   4  49
TORSDOF 7
ENDMDL
