MODEL 1
REMARK VINA RESULT:      -9.6      0.000      0.000
REMARK SMILES O=C(NCc1cc2ccccc2[nH]1)c1cc(=O)n2ccccc2n1
REMARK SMILES IDX 1 1 2 2 3 3 14 5 15 6 24 7 16 8 23 10 17 11 18 12 22 13
REMARK SMILES IDX 19 14 21 15 20 17 4 21 5 24 6 25 13 26 7 27 12 29 8 31 11 32
REMARK SMILES IDX 9 33 10 35
REMARK H PARENT 3 4 15 9 22 16 19 18 21 19 20 20 4 22 4 23 6 28 13 30 8 34
REMARK H PARENT 11 36 9 37 10 38
REMARK Flexibility Score: inf
ROOT
ATOM      1  O   UNL     1     -47.776  39.926  26.059  1.00  0.00    -0.268 OA
ATOM      2  C   UNL     1     -47.028  39.652  26.990  1.00  0.00     0.270 C 
ATOM      3  N   UNL     1     -47.337  38.773  27.997  1.00  0.00    -0.345 N 
ATOM      4  H   UNL     1     -46.575  38.525  28.622  1.00  0.00     0.164 HD
ENDROOT
BRANCH   2   5
ATOM      5  C   UNL     1     -45.647  40.242  27.143  1.00  0.00     0.136 A 
ATOM      6  C   UNL     1     -45.219  41.025  26.150  1.00  0.00     0.035 A 
ATOM      7  N   UNL     1     -44.922  39.942  28.273  1.00  0.00    -0.225 NA
ATOM      8  C   UNL     1     -43.881  41.619  26.260  1.00  0.00     0.258 A 
ATOM      9  H   UNL     1     -45.798  41.252  25.265  1.00  0.00     0.071 H 
ATOM     10  C   UNL     1     -43.739  40.468  28.368  1.00  0.00     0.140 A 
ATOM     11  O   UNL     1     -43.479  42.343  25.350  1.00  0.00    -0.269 OA
ATOM     12  N   UNL     1     -43.172  41.302  27.410  1.00  0.00    -0.268 N 
ATOM     13  C   UNL     1     -42.919  40.172  29.576  1.00  0.00    -0.019 A 
ATOM     14  C   UNL     1     -41.895  41.826  27.585  1.00  0.00     0.014 A 
ATOM     15  C   UNL     1     -41.696  40.701  29.700  1.00  0.00    -0.057 A 
ATOM     16  H   UNL     1     -43.353  39.525  30.328  1.00  0.00     0.066 H 
ATOM     17  C   UNL     1     -41.164  41.556  28.673  1.00  0.00    -0.045 A 
ATOM     18  H   UNL     1     -41.513  42.470  26.795  1.00  0.00     0.082 H 
ATOM     19  H   UNL     1     -41.084  40.498  30.573  1.00  0.00     0.062 H 
ATOM     20  H   UNL     1     -40.169  41.971  28.799  1.00  0.00     0.064 H 
ENDBRANCH   2   5
BRANCH   3  21
ATOM     21  C   UNL     1     -48.499  37.933  27.934  1.00  0.00     0.058 C 
ATOM     22  H   UNL     1     -49.267  38.458  27.356  1.00  0.00     0.056 H 
ATOM     23  H   UNL     1     -48.890  37.757  28.941  1.00  0.00     0.056 H 
BRANCH  21  24
ATOM     24  C   UNL     1     -48.098  36.666  27.276  1.00  0.00     0.035 A 
ATOM     25  C   UNL     1     -46.922  36.295  26.654  1.00  0.00    -0.032 A 
ATOM     26  N   UNL     1     -48.951  35.591  27.205  1.00  0.00    -0.357 N 
ATOM     27  C   UNL     1     -47.068  34.957  26.198  1.00  0.00    -0.000 A 
ATOM     28  H   UNL     1     -46.045  36.920  26.538  1.00  0.00     0.065 H 
ATOM     29  C   UNL     1     -48.348  34.537  26.557  1.00  0.00     0.046 A 
ATOM     30  H   UNL     1     -49.887  35.569  27.590  1.00  0.00     0.166 HD
ATOM     31  C   UNL     1     -46.228  34.059  25.511  1.00  0.00    -0.053 A 
ATOM     32  C   UNL     1     -48.834  33.257  26.266  1.00  0.00    -0.038 A 
ATOM     33  C   UNL     1     -46.698  32.776  25.210  1.00  0.00    -0.062 A 
ATOM     34  H   UNL     1     -45.227  34.357  25.217  1.00  0.00     0.063 H 
ATOM     35  C   UNL     1     -47.983  32.383  25.583  1.00  0.00    -0.060 A 
ATOM     36  H   UNL     1     -49.834  32.949  26.553  1.00  0.00     0.064 H 
ATOM     37  H   UNL     1     -46.054  32.079  24.680  1.00  0.00     0.062 H 
ATOM     38  H   UNL     1     -48.330  31.382  25.340  1.00  0.00     0.062 H 
ENDBRANCH  21  24
ENDBRANCH   3  21
TORSDOF 3
ENDMDL
MODEL 2
REMARK VINA RESULT:      -9.5      1.875      2.542
REMARK SMILES O=C(NCc1cc2ccccc2[nH]1)c1cc(=O)n2ccccc2n1
REMARK SMILES IDX 1 1 2 2 3 3 14 5 15 6 24 7 16 8 23 10 17 11 18 12 22 13
REMARK SMILES IDX 19 14 21 15 20 17 4 21 5 24 6 25 13 26 7 27 12 29 8 31 11 32
REMARK SMILES IDX 9 33 10 35
REMARK H PARENT 3 4 15 9 22 16 19 18 21 19 20 20 4 22 4 23 6 28 13 30 8 34
REMARK H PARENT 11 36 9 37 10 38
REMARK Flexibility Score: inf
ROOT
ATOM      1  O   UNL     1     -45.927  36.988  29.730  1.00  0.00    -0.268 OA
ATOM      2  C   UNL     1     -45.966  37.753  28.773  1.00  0.00     0.270 C 
ATOM      3  N   UNL     1     -46.905  37.696  27.775  1.00  0.00    -0.345 N 
ATOM      4  H   UNL     1     -46.913  38.476  27.125  1.00  0.00     0.164 HD
ENDROOT
BRANCH   2   5
ATOM      5  C   UNL     1     -44.981  38.880  28.575  1.00  0.00     0.136 A 
ATOM      6  C   UNL     1     -44.085  39.067  29.545  1.00  0.00     0.035 A 
ATOM      7  N   UNL     1     -45.066  39.637  27.428  1.00  0.00    -0.225 NA
ATOM      8  C   UNL     1     -43.109  40.154  29.391  1.00  0.00     0.258 A 
ATOM      9  H   UNL     1     -44.029  38.467  30.444  1.00  0.00     0.071 H 
ATOM     10  C   UNL     1     -44.202  40.596  27.294  1.00  0.00     0.140 A 
ATOM     11  O   UNL     1     -42.278  40.332  30.280  1.00  0.00    -0.269 OA
ATOM     12  N   UNL     1     -43.215  40.900  28.225  1.00  0.00    -0.268 N 
ATOM     13  C   UNL     1     -44.256  41.440  26.067  1.00  0.00    -0.019 A 
ATOM     14  C   UNL     1     -42.326  41.947  28.008  1.00  0.00     0.014 A 
ATOM     15  C   UNL     1     -43.378  42.437  25.903  1.00  0.00    -0.057 A 
ATOM     16  H   UNL     1     -45.020  41.210  25.335  1.00  0.00     0.066 H 
ATOM     17  C   UNL     1     -42.379  42.701  26.904  1.00  0.00    -0.045 A 
ATOM     18  H   UNL     1     -41.579  42.129  28.779  1.00  0.00     0.082 H 
ATOM     19  H   UNL     1     -43.400  43.061  25.016  1.00  0.00     0.062 H 
ATOM     20  H   UNL     1     -41.680  43.516  26.745  1.00  0.00     0.064 H 
ENDBRANCH   2   5
BRANCH   3  21
ATOM     21  C   UNL     1     -48.061  36.851  27.877  1.00  0.00     0.058 C 
ATOM     22  H   UNL     1     -48.927  37.413  27.512  1.00  0.00     0.056 H 
ATOM     23  H   UNL     1     -48.241  36.586  28.924  1.00  0.00     0.056 H 
BRANCH  21  24
ATOM     24  C   UNL     1     -47.808  35.648  27.048  1.00  0.00     0.035 A 
ATOM     25  C   UNL     1     -46.708  35.270  26.303  1.00  0.00    -0.032 A 
ATOM     26  N   UNL     1     -48.749  34.655  26.913  1.00  0.00    -0.357 N 
ATOM     27  C   UNL     1     -46.992  34.013  25.704  1.00  0.00    -0.000 A 
ATOM     28  H   UNL     1     -45.792  35.838  26.198  1.00  0.00     0.065 H 
ATOM     29  C   UNL     1     -48.277  33.648  26.104  1.00  0.00     0.046 A 
ATOM     30  H   UNL     1     -49.657  34.656  27.360  1.00  0.00     0.166 HD
ATOM     31  C   UNL     1     -46.274  33.145  24.858  1.00  0.00    -0.053 A 
ATOM     32  C   UNL     1     -48.884  32.453  25.700  1.00  0.00    -0.038 A 
ATOM     33  C   UNL     1     -46.865  31.947  24.444  1.00  0.00    -0.062 A 
ATOM     34  H   UNL     1     -45.272  33.403  24.529  1.00  0.00     0.063 H 
ATOM     35  C   UNL     1     -48.152  31.608  24.860  1.00  0.00    -0.060 A 
ATOM     36  H   UNL     1     -49.886  32.187  26.021  1.00  0.00     0.064 H 
ATOM     37  H   UNL     1     -46.315  31.275  23.789  1.00  0.00     0.062 H 
ATOM     38  H   UNL     1     -48.595  30.673  24.526  1.00  0.00     0.062 H 
ENDBRANCH  21  24
ENDBRANCH   3  21
TORSDOF 3
ENDMDL
MODEL 3
REMARK VINA RESULT:      -9.5      4.654      7.844
REMARK SMILES O=C(NCc1cc2ccccc2[nH]1)c1cc(=O)n2ccccc2n1
REMARK SMILES IDX 1 1 2 2 3 3 14 5 15 6 24 7 16 8 23 10 17 11 18 12 22 13
REMARK SMILES IDX 19 14 21 15 20 17 4 21 5 24 6 25 13 26 7 27 12 29 8 31 11 32
REMARK SMILES IDX 9 33 10 35
REMARK H PARENT 3 4 15 9 22 16 19 18 21 19 20 20 4 22 4 23 6 28 13 30 8 34
REMARK H PARENT 11 36 9 37 10 38
REMARK Flexibility Score: inf
ROOT
ATOM      1  O   UNL     1     -45.810  31.512  24.333  1.00  0.00    -0.268 OA
ATOM      2  C   UNL     1     -46.924  31.994  24.502  1.00  0.00     0.270 C 
ATOM      3  N   UNL     1     -48.049  31.597  23.824  1.00  0.00    -0.345 N 
ATOM      4  H   UNL     1     -48.930  31.971  24.163  1.00  0.00     0.164 HD
ENDROOT
BRANCH   2   5
ATOM      5  C   UNL     1     -47.210  33.089  25.502  1.00  0.00     0.136 A 
ATOM      6  C   UNL     1     -48.495  33.354  25.745  1.00  0.00     0.035 A 
ATOM      7  N   UNL     1     -46.149  33.739  26.090  1.00  0.00    -0.225 NA
ATOM      8  C   UNL     1     -48.816  34.412  26.711  1.00  0.00     0.258 A 
ATOM      9  H   UNL     1     -49.320  32.837  25.274  1.00  0.00     0.071 H 
ATOM     10  C   UNL     1     -46.436  34.674  26.944  1.00  0.00     0.140 A 
ATOM     11  O   UNL     1     -49.998  34.662  26.942  1.00  0.00    -0.269 OA
ATOM     12  N   UNL     1     -47.729  35.051  27.291  1.00  0.00    -0.268 N 
ATOM     13  C   UNL     1     -45.319  35.404  27.607  1.00  0.00    -0.019 A 
ATOM     14  C   UNL     1     -47.954  36.065  28.215  1.00  0.00     0.014 A 
ATOM     15  C   UNL     1     -45.585  36.373  28.491  1.00  0.00    -0.057 A 
ATOM     16  H   UNL     1     -44.309  35.116  27.345  1.00  0.00     0.066 H 
ATOM     17  C   UNL     1     -46.946  36.717  28.808  1.00  0.00    -0.045 A 
ATOM     18  H   UNL     1     -48.990  36.309  28.440  1.00  0.00     0.082 H 
ATOM     19  H   UNL     1     -44.786  36.914  28.986  1.00  0.00     0.062 H 
ATOM     20  H   UNL     1     -47.133  37.506  29.528  1.00  0.00     0.064 H 
ENDBRANCH   2   5
BRANCH   3  21
ATOM     21  C   UNL     1     -48.053  30.427  22.994  1.00  0.00     0.058 C 
ATOM     22  H   UNL     1     -47.141  30.435  22.388  1.00  0.00     0.056 H 
ATOM     23  H   UNL     1     -48.913  30.451  22.316  1.00  0.00     0.056 H 
BRANCH  21  24
ATOM     24  C   UNL     1     -48.098  29.245  23.888  1.00  0.00     0.035 A 
ATOM     25  C   UNL     1     -49.096  28.766  24.715  1.00  0.00    -0.032 A 
ATOM     26  N   UNL     1     -47.028  28.391  24.008  1.00  0.00    -0.357 N 
ATOM     27  C   UNL     1     -48.615  27.589  25.349  1.00  0.00    -0.000 A 
ATOM     28  H   UNL     1     -50.072  29.215  24.850  1.00  0.00     0.065 H 
ATOM     29  C   UNL     1     -47.317  27.373  24.887  1.00  0.00     0.046 A 
ATOM     30  H   UNL     1     -46.154  28.487  23.507  1.00  0.00     0.166 HD
ATOM     31  C   UNL     1     -49.164  26.680  26.274  1.00  0.00    -0.053 A 
ATOM     32  C   UNL     1     -46.536  26.290  25.305  1.00  0.00    -0.038 A 
ATOM     33  C   UNL     1     -48.397  25.591  26.703  1.00  0.00    -0.062 A 
ATOM     34  H   UNL     1     -50.172  26.821  26.652  1.00  0.00     0.063 H 
ATOM     35  C   UNL     1     -47.102  25.401  26.224  1.00  0.00    -0.060 A 
ATOM     36  H   UNL     1     -45.527  26.140  24.935  1.00  0.00     0.064 H 
ATOM     37  H   UNL     1     -48.816  24.888  27.419  1.00  0.00     0.062 H 
ATOM     38  H   UNL     1     -46.521  24.550  26.570  1.00  0.00     0.062 H 
ENDBRANCH  21  24
ENDBRANCH   3  21
TORSDOF 3
ENDMDL
MODEL 4
REMARK VINA RESULT:      -9.4      4.652      7.589
REMARK SMILES O=C(NCc1cc2ccccc2[nH]1)c1cc(=O)n2ccccc2n1
REMARK SMILES IDX 1 1 2 2 3 3 14 5 15 6 24 7 16 8 23 10 17 11 18 12 22 13
REMARK SMILES IDX 19 14 21 15 20 17 4 21 5 24 6 25 13 26 7 27 12 29 8 31 11 32
REMARK SMILES IDX 9 33 10 35
REMARK H PARENT 3 4 15 9 22 16 19 18 21 19 20 20 4 22 4 23 6 28 13 30 8 34
REMARK H PARENT 11 36 9 37 10 38
REMARK Flexibility Score: inf
ROOT
ATOM      1  O   UNL     1     -46.288  32.276  23.489  1.00  0.00    -0.268 OA
ATOM      2  C   UNL     1     -47.080  32.381  24.417  1.00  0.00     0.270 C 
ATOM      3  N   UNL     1     -48.289  31.735  24.479  1.00  0.00    -0.345 N 
ATOM      4  H   UNL     1     -48.781  31.792  25.365  1.00  0.00     0.164 HD
ENDROOT
BRANCH   2   5
ATOM      5  C   UNL     1     -46.819  33.233  25.636  1.00  0.00     0.136 A 
ATOM      6  C   UNL     1     -46.450  32.590  26.745  1.00  0.00     0.035 A 
ATOM      7  N   UNL     1     -46.978  34.597  25.534  1.00  0.00    -0.225 NA
ATOM      8  C   UNL     1     -46.187  33.383  27.953  1.00  0.00     0.258 A 
ATOM      9  H   UNL     1     -46.331  31.517  26.813  1.00  0.00     0.071 H 
ATOM     10  C   UNL     1     -46.744  35.294  26.603  1.00  0.00     0.140 A 
ATOM     11  O   UNL     1     -45.844  32.799  28.980  1.00  0.00    -0.269 OA
ATOM     12  N   UNL     1     -46.352  34.755  27.824  1.00  0.00    -0.268 N 
ATOM     13  C   UNL     1     -46.902  36.775  26.539  1.00  0.00    -0.019 A 
ATOM     14  C   UNL     1     -46.122  35.572  28.925  1.00  0.00     0.014 A 
ATOM     15  C   UNL     1     -46.668  37.520  27.626  1.00  0.00    -0.057 A 
ATOM     16  H   UNL     1     -47.205  37.205  25.593  1.00  0.00     0.066 H 
ATOM     17  C   UNL     1     -46.265  36.901  28.861  1.00  0.00    -0.045 A 
ATOM     18  H   UNL     1     -45.817  35.082  29.849  1.00  0.00     0.082 H 
ATOM     19  H   UNL     1     -46.776  38.599  27.599  1.00  0.00     0.062 H 
ATOM     20  H   UNL     1     -46.082  37.529  29.727  1.00  0.00     0.064 H 
ENDBRANCH   2   5
BRANCH   3  21
ATOM     21  C   UNL     1     -48.642  30.707  23.541  1.00  0.00     0.058 C 
ATOM     22  H   UNL     1     -48.080  30.881  22.618  1.00  0.00     0.056 H 
ATOM     23  H   UNL     1     -49.710  30.764  23.307  1.00  0.00     0.056 H 
BRANCH  21  24
ATOM     24  C   UNL     1     -48.288  29.404  24.154  1.00  0.00     0.035 A 
ATOM     25  C   UNL     1     -47.225  28.551  23.928  1.00  0.00    -0.032 A 
ATOM     26  N   UNL     1     -49.066  28.833  25.132  1.00  0.00    -0.357 N 
ATOM     27  C   UNL     1     -47.365  27.434  24.796  1.00  0.00    -0.000 A 
ATOM     28  H   UNL     1     -46.428  28.711  23.213  1.00  0.00     0.065 H 
ATOM     29  C   UNL     1     -48.526  27.636  25.542  1.00  0.00     0.046 A 
ATOM     30  H   UNL     1     -49.911  29.242  25.510  1.00  0.00     0.166 HD
ATOM     31  C   UNL     1     -46.610  26.267  25.021  1.00  0.00    -0.053 A 
ATOM     32  C   UNL     1     -48.972  26.726  26.508  1.00  0.00    -0.038 A 
ATOM     33  C   UNL     1     -47.042  25.346  25.982  1.00  0.00    -0.062 A 
ATOM     34  H   UNL     1     -45.702  26.082  24.455  1.00  0.00     0.063 H 
ATOM     35  C   UNL     1     -48.206  25.574  26.713  1.00  0.00    -0.060 A 
ATOM     36  H   UNL     1     -49.879  26.900  27.078  1.00  0.00     0.064 H 
ATOM     37  H   UNL     1     -46.462  24.443  26.158  1.00  0.00     0.062 H 
ATOM     38  H   UNL     1     -48.526  24.846  27.455  1.00  0.00     0.062 H 
ENDBRANCH  21  24
ENDBRANCH   3  21
TORSDOF 3
ENDMDL
MODEL 5
REMARK VINA RESULT:      -9.1      1.771      2.872
REMARK SMILES O=C(NCc1cc2ccccc2[nH]1)c1cc(=O)n2ccccc2n1
REMARK SMILES IDX 1 1 2 2 3 3 14 5 15 6 24 7 16 8 23 10 17 11 18 12 22 13
REMARK SMILES IDX 19 14 21 15 20 17 4 21 5 24 6 25 13 26 7 27 12 29 8 31 11 32
REMARK SMILES IDX 9 33 10 35
REMARK H PARENT 3 4 15 9 22 16 19 18 21 19 20 20 4 22 4 23 6 28 13 30 8 34
REMARK H PARENT 11 36 9 37 10 38
REMARK Flexibility Score: inf
ROOT
ATOM      1  O   UNL     1     -45.216  38.474  29.094  1.00  0.00    -0.268 OA
ATOM      2  C   UNL     1     -45.531  39.216  28.171  1.00  0.00     0.270 C 
ATOM      3  N   UNL     1     -46.768  39.230  27.578  1.00  0.00    -0.345 N 
ATOM      4  H   UNL     1     -46.943  39.991  26.929  1.00  0.00     0.164 HD
ENDROOT
BRANCH   2   5
ATOM      5  C   UNL     1     -44.592  40.233  27.569  1.00  0.00     0.136 A 
ATOM      6  C   UNL     1     -43.479  40.498  28.257  1.00  0.00     0.035 A 
ATOM      7  N   UNL     1     -44.932  40.818  26.371  1.00  0.00    -0.225 NA
ATOM      8  C   UNL     1     -42.539  41.482  27.705  1.00  0.00     0.258 A 
ATOM      9  H   UNL     1     -43.223  40.033  29.199  1.00  0.00     0.071 H 
ATOM     10  C   UNL     1     -44.099  41.687  25.886  1.00  0.00     0.140 A 
ATOM     11  O   UNL     1     -41.510  41.731  28.332  1.00  0.00    -0.269 OA
ATOM     12  N   UNL     1     -42.904  42.055  26.496  1.00  0.00    -0.268 N 
ATOM     13  C   UNL     1     -44.426  42.345  24.589  1.00  0.00    -0.019 A 
ATOM     14  C   UNL     1     -42.065  42.997  25.911  1.00  0.00     0.014 A 
ATOM     15  C   UNL     1     -43.585  43.245  24.066  1.00  0.00    -0.057 A 
ATOM     16  H   UNL     1     -45.353  42.063  24.106  1.00  0.00     0.066 H 
ATOM     17  C   UNL     1     -42.364  43.585  24.747  1.00  0.00    -0.045 A 
ATOM     18  H   UNL     1     -41.146  43.239  26.444  1.00  0.00     0.082 H 
ATOM     19  H   UNL     1     -43.805  43.734  23.122  1.00  0.00     0.062 H 
ATOM     20  H   UNL     1     -41.701  44.318  24.299  1.00  0.00     0.064 H 
ENDBRANCH   2   5
BRANCH   3  21
ATOM     21  C   UNL     1     -47.878  38.509  28.134  1.00  0.00     0.058 C 
ATOM     22  H   UNL     1     -48.795  39.052  27.888  1.00  0.00     0.056 H 
ATOM     23  H   UNL     1     -47.788  38.465  29.225  1.00  0.00     0.056 H 
BRANCH  21  24
ATOM     24  C   UNL     1     -47.874  37.153  27.534  1.00  0.00     0.035 A 
ATOM     25  C   UNL     1     -48.857  36.185  27.465  1.00  0.00    -0.032 A 
ATOM     26  N   UNL     1     -46.762  36.648  26.903  1.00  0.00    -0.357 N 
ATOM     27  C   UNL     1     -48.324  35.065  26.769  1.00  0.00    -0.000 A 
ATOM     28  H   UNL     1     -49.856  36.271  27.871  1.00  0.00     0.065 H 
ATOM     29  C   UNL     1     -47.010  35.381  26.426  1.00  0.00     0.046 A 
ATOM     30  H   UNL     1     -45.887  37.144  26.789  1.00  0.00     0.166 HD
ATOM     31  C   UNL     1     -48.838  33.808  26.396  1.00  0.00    -0.053 A 
ATOM     32  C   UNL     1     -46.179  34.501  25.723  1.00  0.00    -0.038 A 
ATOM     33  C   UNL     1     -48.021  32.915  25.695  1.00  0.00    -0.062 A 
ATOM     34  H   UNL     1     -49.857  33.533  26.651  1.00  0.00     0.063 H 
ATOM     35  C   UNL     1     -46.711  33.259  25.364  1.00  0.00    -0.060 A 
ATOM     36  H   UNL     1     -45.159  34.765  25.466  1.00  0.00     0.064 H 
ATOM     37  H   UNL     1     -48.414  31.943  25.405  1.00  0.00     0.062 H 
ATOM     38  H   UNL     1     -46.092  32.551  24.819  1.00  0.00     0.062 H 
ENDBRANCH  21  24
ENDBRANCH   3  21
TORSDOF 3
ENDMDL
MODEL 6
REMARK VINA RESULT:      -9.0      4.626      9.898
REMARK SMILES O=C(NCc1cc2ccccc2[nH]1)c1cc(=O)n2ccccc2n1
REMARK SMILES IDX 1 1 2 2 3 3 14 5 15 6 24 7 16 8 23 10 17 11 18 12 22 13
REMARK SMILES IDX 19 14 21 15 20 17 4 21 5 24 6 25 13 26 7 27 12 29 8 31 11 32
REMARK SMILES IDX 9 33 10 35
REMARK H PARENT 3 4 15 9 22 16 19 18 21 19 20 20 4 22 4 23 6 28 13 30 8 34
REMARK H PARENT 11 36 9 37 10 38
REMARK Flexibility Score: inf
ROOT
ATOM      1  O   UNL     1     -48.345  31.069  26.506  1.00  0.00    -0.268 OA
ATOM      2  C   UNL     1     -47.804  31.671  25.586  1.00  0.00     0.270 C 
ATOM      3  N   UNL     1     -46.906  32.695  25.755  1.00  0.00    -0.345 N 
ATOM      4  H   UNL     1     -46.422  33.006  24.918  1.00  0.00     0.164 HD
ENDROOT
BRANCH   2   5
ATOM      5  C   UNL     1     -48.047  31.351  24.131  1.00  0.00     0.136 A 
ATOM      6  C   UNL     1     -47.003  30.885  23.440  1.00  0.00     0.035 A 
ATOM      7  N   UNL     1     -49.304  31.558  23.610  1.00  0.00    -0.225 NA
ATOM      8  C   UNL     1     -47.197  30.562  22.021  1.00  0.00     0.258 A 
ATOM      9  H   UNL     1     -46.019  30.729  23.861  1.00  0.00     0.071 H 
ATOM     10  C   UNL     1     -49.472  31.270  22.355  1.00  0.00     0.140 A 
ATOM     11  O   UNL     1     -46.242  30.130  21.378  1.00  0.00    -0.269 OA
ATOM     12  N   UNL     1     -48.474  30.777  21.521  1.00  0.00    -0.268 N 
ATOM     13  C   UNL     1     -50.817  31.477  21.749  1.00  0.00    -0.019 A 
ATOM     14  C   UNL     1     -48.735  30.495  20.185  1.00  0.00     0.014 A 
ATOM     15  C   UNL     1     -51.020  31.190  20.458  1.00  0.00    -0.057 A 
ATOM     16  H   UNL     1     -51.602  31.859  22.391  1.00  0.00     0.066 H 
ATOM     17  C   UNL     1     -49.946  30.682  19.646  1.00  0.00    -0.045 A 
ATOM     18  H   UNL     1     -47.908  30.112  19.590  1.00  0.00     0.082 H 
ATOM     19  H   UNL     1     -51.993  31.331  19.999  1.00  0.00     0.062 H 
ATOM     20  H   UNL     1     -50.138  30.458  18.602  1.00  0.00     0.064 H 
ENDBRANCH   2   5
BRANCH   3  21
ATOM     21  C   UNL     1     -46.362  33.014  27.044  1.00  0.00     0.058 C 
ATOM     22  H   UNL     1     -45.368  32.561  27.116  1.00  0.00     0.056 H 
ATOM     23  H   UNL     1     -46.990  32.587  27.832  1.00  0.00     0.056 H 
BRANCH  21  24
ATOM     24  C   UNL     1     -46.292  34.492  27.145  1.00  0.00     0.035 A 
ATOM     25  C   UNL     1     -46.896  35.485  26.400  1.00  0.00    -0.032 A 
ATOM     26  N   UNL     1     -45.530  35.112  28.106  1.00  0.00    -0.357 N 
ATOM     27  C   UNL     1     -46.490  36.741  26.927  1.00  0.00    -0.000 A 
ATOM     28  H   UNL     1     -47.563  35.327  25.561  1.00  0.00     0.065 H 
ATOM     29  C   UNL     1     -45.635  36.480  27.998  1.00  0.00     0.046 A 
ATOM     30  H   UNL     1     -44.980  34.631  28.806  1.00  0.00     0.166 HD
ATOM     31  C   UNL     1     -46.771  38.080  26.596  1.00  0.00    -0.053 A 
ATOM     32  C   UNL     1     -45.044  37.495  28.759  1.00  0.00    -0.038 A 
ATOM     33  C   UNL     1     -46.188  39.108  27.346  1.00  0.00    -0.062 A 
ATOM     34  H   UNL     1     -47.432  38.315  25.768  1.00  0.00     0.063 H 
ATOM     35  C   UNL     1     -45.337  38.817  28.411  1.00  0.00    -0.060 A 
ATOM     36  H   UNL     1     -44.380  37.272  29.588  1.00  0.00     0.064 H 
ATOM     37  H   UNL     1     -46.402  40.144  27.093  1.00  0.00     0.062 H 
ATOM     38  H   UNL     1     -44.894  39.630  28.981  1.00  0.00     0.062 H 
ENDBRANCH  21  24
ENDBRANCH   3  21
TORSDOF 3
ENDMDL
MODEL 7
REMARK VINA RESULT:      -8.8      1.869      7.872
REMARK SMILES O=C(NCc1cc2ccccc2[nH]1)c1cc(=O)n2ccccc2n1
REMARK SMILES IDX 1 1 2 2 3 3 14 5 15 6 24 7 16 8 23 10 17 11 18 12 22 13
REMARK SMILES IDX 19 14 21 15 20 17 4 21 5 24 6 25 13 26 7 27 12 29 8 31 11 32
REMARK SMILES IDX 9 33 10 35
REMARK H PARENT 3 4 15 9 22 16 19 18 21 19 20 20 4 22 4 23 6 28 13 30 8 34
REMARK H PARENT 11 36 9 37 10 38
REMARK Flexibility Score: inf
ROOT
ATOM      1  O   UNL     1     -47.146  39.424  28.864  1.00  0.00    -0.268 OA
ATOM      2  C   UNL     1     -46.500  38.529  28.334  1.00  0.00     0.270 C 
ATOM      3  N   UNL     1     -45.135  38.542  28.190  1.00  0.00    -0.345 N 
ATOM      4  H   UNL     1     -44.712  37.677  27.869  1.00  0.00     0.164 HD
ENDROOT
BRANCH   2   5
ATOM      5  C   UNL     1     -47.126  37.274  27.776  1.00  0.00     0.136 A 
ATOM      6  C   UNL     1     -48.445  37.145  27.932  1.00  0.00     0.035 A 
ATOM      7  N   UNL     1     -46.316  36.352  27.153  1.00  0.00    -0.225 NA
ATOM      8  C   UNL     1     -49.093  35.939  27.403  1.00  0.00     0.258 A 
ATOM      9  H   UNL     1     -49.072  37.876  28.425  1.00  0.00     0.071 H 
ATOM     10  C   UNL     1     -46.892  35.287  26.687  1.00  0.00     0.140 A 
ATOM     11  O   UNL     1     -50.309  35.813  27.541  1.00  0.00    -0.269 OA
ATOM     12  N   UNL     1     -48.255  35.026  26.779  1.00  0.00    -0.268 N 
ATOM     13  C   UNL     1     -46.053  34.262  26.003  1.00  0.00    -0.019 A 
ATOM     14  C   UNL     1     -48.796  33.858  26.254  1.00  0.00     0.014 A 
ATOM     15  C   UNL     1     -46.620  33.153  25.513  1.00  0.00    -0.057 A 
ATOM     16  H   UNL     1     -44.991  34.456  25.925  1.00  0.00     0.066 H 
ATOM     17  C   UNL     1     -48.038  32.941  25.641  1.00  0.00    -0.045 A 
ATOM     18  H   UNL     1     -49.870  33.718  26.362  1.00  0.00     0.082 H 
ATOM     19  H   UNL     1     -46.027  32.396  25.011  1.00  0.00     0.062 H 
ATOM     20  H   UNL     1     -48.471  32.033  25.234  1.00  0.00     0.064 H 
ENDBRANCH   2   5
BRANCH   3  21
ATOM     21  C   UNL     1     -44.319  39.526  28.842  1.00  0.00     0.058 C 
ATOM     22  H   UNL     1     -43.458  39.015  29.286  1.00  0.00     0.056 H 
ATOM     23  H   UNL     1     -44.883  40.007  29.648  1.00  0.00     0.056 H 
BRANCH  21  24
ATOM     24  C   UNL     1     -43.896  40.507  27.814  1.00  0.00     0.035 A 
ATOM     25  C   UNL     1     -42.775  41.309  27.728  1.00  0.00    -0.032 A 
ATOM     26  N   UNL     1     -44.660  40.756  26.699  1.00  0.00    -0.357 N 
ATOM     27  C   UNL     1     -42.863  42.062  26.526  1.00  0.00    -0.000 A 
ATOM     28  H   UNL     1     -41.972  41.352  28.454  1.00  0.00     0.065 H 
ATOM     29  C   UNL     1     -44.053  41.696  25.897  1.00  0.00     0.046 A 
ATOM     30  H   UNL     1     -45.538  40.302  26.488  1.00  0.00     0.166 HD
ATOM     31  C   UNL     1     -42.039  43.023  25.908  1.00  0.00    -0.053 A 
ATOM     32  C   UNL     1     -44.463  42.242  24.676  1.00  0.00    -0.038 A 
ATOM     33  C   UNL     1     -42.434  43.581  24.687  1.00  0.00    -0.062 A 
ATOM     34  H   UNL     1     -41.107  43.329  26.373  1.00  0.00     0.063 H 
ATOM     35  C   UNL     1     -43.629  43.195  24.082  1.00  0.00    -0.060 A 
ATOM     36  H   UNL     1     -45.393  41.945  24.203  1.00  0.00     0.064 H 
ATOM     37  H   UNL     1     -41.801  44.324  24.207  1.00  0.00     0.062 H 
ATOM     38  H   UNL     1     -43.918  43.640  23.134  1.00  0.00     0.062 H 
ENDBRANCH  21  24
ENDBRANCH   3  21
TORSDOF 3
ENDMDL
