MODEL 1
REMARK VINA RESULT:     -10.5      0.000      0.000
REMARK SMILES CCc1cc(N2CCOCC2)c2ccc(OC[C@H]3O[C@@H](n4cc(-c5ccn(C)n5)c5c(N)ncnc54)[C@@H](F)[C@@H]3O)cc2n1
REMARK SMILES IDX 17 1 16 4 15 5 3 6 4 7 43 8 5 9 42 11 12 12 41 13 13 14
REMARK SMILES IDX 14 16 2 19 1 22 6 26 7 27 11 28 8 29 10 32 9 35 18 40 19 41
REMARK SMILES IDX 39 42 20 44 37 45 38 48 40 50 21 52 22 53 36 54 23 55 30 57
REMARK SMILES IDX 35 58 31 59 34 60 33 61 24 63 25 64 29 65 26 66 27 68 28 70
REMARK SMILES IDX 32 74
REMARK H PARENT 17 2 17 3 4 10 41 15 13 17 14 18 2 20 2 21 1 23 1 24 1 25 7 30
REMARK H PARENT 7 31 11 33 11 34 8 36 8 37 10 38 10 39 18 43 39 46 20 47 37 49
REMARK H PARENT 40 51 22 56 34 62 25 67 26 69 28 71 28 72 28 73 32 75 32 76
REMARK Flexibility Score: inf
ROOT
ATOM      1  C   UNL     1     -46.147  35.563  27.177  1.00  0.00     0.117 C 
ATOM      2  H   UNL     1     -45.609  34.645  27.434  1.00  0.00     0.073 H 
ATOM      3  H   UNL     1     -45.428  36.360  26.955  1.00  0.00     0.073 H 
ENDROOT
BRANCH   1   4
ATOM      4  O   UNL     1     -46.965  35.374  26.012  1.00  0.00    -0.491 OA
BRANCH   4   5
ATOM      5  C   UNL     1     -47.290  34.074  25.737  1.00  0.00     0.121 A 
ATOM      6  C   UNL     1     -46.117  30.309  23.091  1.00  0.00     0.043 A 
ATOM      7  C   UNL     1     -47.203  29.566  23.534  1.00  0.00    -0.016 A 
ATOM      8  N   UNL     1     -45.876  31.569  23.513  1.00  0.00    -0.253 NA
ATOM      9  C   UNL     1     -48.083  30.120  24.468  1.00  0.00     0.048 A 
ATOM     10  H   UNL     1     -47.369  28.576  23.126  1.00  0.00     0.066 H 
ATOM     11  C   UNL     1     -46.702  32.115  24.417  1.00  0.00     0.076 A 
ATOM     12  C   UNL     1     -47.820  31.432  24.940  1.00  0.00     0.024 A 
ATOM     13  C   UNL     1     -46.459  33.418  24.827  1.00  0.00     0.007 A 
ATOM     14  C   UNL     1     -48.618  32.080  25.910  1.00  0.00    -0.047 A 
ATOM     15  H   UNL     1     -45.611  33.951  24.404  1.00  0.00     0.069 H 
ATOM     16  C   UNL     1     -48.352  33.389  26.311  1.00  0.00    -0.019 A 
ATOM     17  H   UNL     1     -49.458  31.554  26.359  1.00  0.00     0.063 H 
ATOM     18  H   UNL     1     -48.986  33.846  27.065  1.00  0.00     0.066 H 
BRANCH   6  19
ATOM     19  C   UNL     1     -45.176  29.749  22.056  1.00  0.00    -0.013 C 
ATOM     20  H   UNL     1     -45.720  29.605  21.115  1.00  0.00     0.033 H 
ATOM     21  H   UNL     1     -44.378  30.470  21.849  1.00  0.00     0.033 H 
BRANCH  19  22
ATOM     22  C   UNL     1     -44.580  28.423  22.503  1.00  0.00    -0.060 C 
ATOM     23  H   UNL     1     -43.543  28.319  22.169  1.00  0.00     0.023 H 
ATOM     24  H   UNL     1     -44.593  28.331  23.595  1.00  0.00     0.023 H 
ATOM     25  H   UNL     1     -45.155  27.590  22.085  1.00  0.00     0.023 H 
ENDBRANCH  19  22
ENDBRANCH   6  19
BRANCH   9  26
ATOM     26  N   UNL     1     -49.243  29.432  24.891  1.00  0.00    -0.366 N 
ATOM     27  C   UNL     1     -49.067  28.191  25.678  1.00  0.00     0.041 C 
ATOM     28  C   UNL     1     -50.231  29.311  23.789  1.00  0.00     0.041 C 
ATOM     29  C   UNL     1     -49.479  26.950  24.871  1.00  0.00     0.064 C 
ATOM     30  H   UNL     1     -48.047  28.082  26.064  1.00  0.00     0.052 H 
ATOM     31  H   UNL     1     -49.726  28.273  26.551  1.00  0.00     0.052 H 
ATOM     32  C   UNL     1     -51.332  28.316  24.185  1.00  0.00     0.064 C 
ATOM     33  H   UNL     1     -49.740  28.946  22.878  1.00  0.00     0.052 H 
ATOM     34  H   UNL     1     -50.683  30.286  23.575  1.00  0.00     0.052 H 
ATOM     35  O   UNL     1     -50.838  26.983  24.406  1.00  0.00    -0.378 OA
ATOM     36  H   UNL     1     -48.834  26.827  23.993  1.00  0.00     0.059 H 
ATOM     37  H   UNL     1     -49.366  26.050  25.483  1.00  0.00     0.059 H 
ATOM     38  H   UNL     1     -52.089  28.256  23.397  1.00  0.00     0.059 H 
ATOM     39  H   UNL     1     -51.835  28.642  25.102  1.00  0.00     0.059 H 
ENDBRANCH   9  26
ENDBRANCH   4   5
ENDBRANCH   1   4
BRANCH   1  40
ATOM     40  C   UNL     1     -47.058  35.970  28.348  1.00  0.00     0.123 C 
ATOM     41  O   UNL     1     -46.381  36.973  29.141  1.00  0.00    -0.345 OA
ATOM     42  C   UNL     1     -48.357  36.629  27.888  1.00  0.00     0.119 C 
ATOM     43  H   UNL     1     -47.241  35.113  29.005  1.00  0.00     0.067 H 
ATOM     44  C   UNL     1     -46.897  38.276  28.759  1.00  0.00     0.169 C 
ATOM     45  C   UNL     1     -47.924  38.058  27.647  1.00  0.00     0.173 C 
ATOM     46  H   UNL     1     -48.779  36.156  26.996  1.00  0.00     0.066 H 
ATOM     47  H   UNL     1     -47.367  38.693  29.658  1.00  0.00     0.088 H 
ATOM     48  F   UNL     1     -47.349  38.113  26.412  1.00  0.00    -0.239 F 
ATOM     49  H   UNL     1     -48.739  38.786  27.680  1.00  0.00     0.074 H 
BRANCH  42  50
ATOM     50  O   UNL     1     -49.349  36.603  28.918  1.00  0.00    -0.387 OA
ATOM     51  H   UNL     1     -50.226  36.629  28.495  1.00  0.00     0.211 HD
ENDBRANCH  42  50
BRANCH  44  52
ATOM     52  N   UNL     1     -45.797  39.158  28.400  1.00  0.00    -0.302 N 
ATOM     53  C   UNL     1     -45.734  40.012  27.328  1.00  0.00     0.019 A 
ATOM     54  C   UNL     1     -44.621  39.227  29.104  1.00  0.00     0.148 A 
ATOM     55  C   UNL     1     -44.514  40.665  27.361  1.00  0.00     0.033 A 
ATOM     56  H   UNL     1     -46.553  40.076  26.623  1.00  0.00     0.083 H 
ATOM     57  C   UNL     1     -43.809  40.194  28.516  1.00  0.00     0.071 A 
ATOM     58  N   UNL     1     -44.335  38.482  30.187  1.00  0.00    -0.218 NA
ATOM     59  C   UNL     1     -42.579  40.431  29.157  1.00  0.00     0.137 A 
ATOM     60  C   UNL     1     -43.123  38.776  30.682  1.00  0.00     0.120 A 
ATOM     61  N   UNL     1     -42.245  39.688  30.233  1.00  0.00    -0.219 NA
ATOM     62  H   UNL     1     -42.814  38.210  31.554  1.00  0.00     0.106 H 
BRANCH  55  63
ATOM     63  C   UNL     1     -44.031  41.632  26.365  1.00  0.00     0.095 A 
ATOM     64  C   UNL     1     -42.864  42.417  26.513  1.00  0.00    -0.016 A 
ATOM     65  N   UNL     1     -44.663  41.911  25.215  1.00  0.00    -0.173 NA
ATOM     66  C   UNL     1     -42.801  43.191  25.379  1.00  0.00     0.025 A 
ATOM     67  H   UNL     1     -42.166  42.429  27.337  1.00  0.00     0.066 H 
ATOM     68  N   UNL     1     -43.891  42.850  24.638  1.00  0.00    -0.275 N 
ATOM     69  H   UNL     1     -42.090  43.937  25.056  1.00  0.00     0.084 H 
BRANCH  68  70
ATOM     70  C   UNL     1     -44.271  43.390  23.355  1.00  0.00     0.030 C 
ATOM     71  H   UNL     1     -43.574  43.013  22.603  1.00  0.00     0.048 H 
ATOM     72  H   UNL     1     -44.227  44.481  23.392  1.00  0.00     0.048 H 
ATOM     73  H   UNL     1     -45.291  43.064  23.133  1.00  0.00     0.048 H 
ENDBRANCH  68  70
ENDBRANCH  55  63
BRANCH  59  74
ATOM     74  N   UNL     1     -41.664  41.393  28.759  1.00  0.00    -0.383 N 
ATOM     75  H   UNL     1     -41.947  41.855  27.908  1.00  0.00     0.158 HD
ATOM     76  H   UNL     1     -41.351  41.983  29.536  1.00  0.00     0.158 HD
ENDBRANCH  59  74
ENDBRANCH  44  52
ENDBRANCH   1  40
TORSDOF 11
ENDMDL
MODEL 2
REMARK VINA RESULT:     -10.2      2.256      3.326
REMARK SMILES CCc1cc(N2CCOCC2)c2ccc(OC[C@H]3O[C@@H](n4cc(-c5ccn(C)n5)c5c(N)ncnc54)[C@@H](F)[C@@H]3O)cc2n1
REMARK SMILES IDX 17 1 16 4 15 5 3 6 4 7 43 8 5 9 42 11 12 12 41 13 13 14
REMARK SMILES IDX 14 16 2 19 1 22 6 26 7 27 11 28 8 29 10 32 9 35 18 40 19 41
REMARK SMILES IDX 39 42 20 44 37 45 38 48 40 50 21 52 22 53 36 54 23 55 30 57
REMARK SMILES IDX 35 58 31 59 34 60 33 61 24 63 25 64 29 65 26 66 27 68 28 70
REMARK SMILES IDX 32 74
REMARK H PARENT 17 2 17 3 4 10 41 15 13 17 14 18 2 20 2 21 1 23 1 24 1 25 7 30
REMARK H PARENT 7 31 11 33 11 34 8 36 8 37 10 38 10 39 18 43 39 46 20 47 37 49
REMARK H PARENT 40 51 22 56 34 62 25 67 26 69 28 71 28 72 28 73 32 75 32 76
REMARK Flexibility Score: inf
ROOT
ATOM      1  C   UNL     1     -46.489  35.640  26.199  1.00  0.00     0.117 C 
ATOM      2  H   UNL     1     -45.873  34.995  25.564  1.00  0.00     0.073 H 
ATOM      3  H   UNL     1     -46.554  36.639  25.755  1.00  0.00     0.073 H 
ENDROOT
BRANCH   1   4
ATOM      4  O   UNL     1     -47.824  35.124  26.318  1.00  0.00    -0.491 OA
BRANCH   4   5
ATOM      5  C   UNL     1     -47.975  33.814  25.953  1.00  0.00     0.121 A 
ATOM      6  C   UNL     1     -46.289  30.412  23.102  1.00  0.00     0.043 A 
ATOM      7  C   UNL     1     -47.276  29.508  23.472  1.00  0.00    -0.016 A 
ATOM      8  N   UNL     1     -46.218  31.661  23.608  1.00  0.00    -0.253 NA
ATOM      9  C   UNL     1     -48.233  29.883  24.420  1.00  0.00     0.048 A 
ATOM     10  H   UNL     1     -47.307  28.534  22.999  1.00  0.00     0.066 H 
ATOM     11  C   UNL     1     -47.121  32.037  24.526  1.00  0.00     0.076 A 
ATOM     12  C   UNL     1     -48.149  31.185  24.980  1.00  0.00     0.024 A 
ATOM     13  C   UNL     1     -47.054  33.331  25.023  1.00  0.00     0.007 A 
ATOM     14  C   UNL     1     -49.037  31.660  25.970  1.00  0.00    -0.047 A 
ATOM     15  H   UNL     1     -46.275  33.995  24.654  1.00  0.00     0.069 H 
ATOM     16  C   UNL     1     -48.948  32.963  26.459  1.00  0.00    -0.019 A 
ATOM     17  H   UNL     1     -49.809  31.003  26.365  1.00  0.00     0.063 H 
ATOM     18  H   UNL     1     -49.646  33.285  27.225  1.00  0.00     0.066 H 
BRANCH   6  19
ATOM     19  C   UNL     1     -45.269  30.045  22.056  1.00  0.00    -0.013 C 
ATOM     20  H   UNL     1     -45.766  29.961  21.083  1.00  0.00     0.033 H 
ATOM     21  H   UNL     1     -44.528  30.847  21.960  1.00  0.00     0.033 H 
BRANCH  19  22
ATOM     22  C   UNL     1     -44.578  28.731  22.386  1.00  0.00    -0.060 C 
ATOM     23  H   UNL     1     -43.719  28.556  21.729  1.00  0.00     0.023 H 
ATOM     24  H   UNL     1     -44.217  28.722  23.420  1.00  0.00     0.023 H 
ATOM     25  H   UNL     1     -45.275  27.896  22.261  1.00  0.00     0.023 H 
ENDBRANCH  19  22
ENDBRANCH   6  19
BRANCH   9  26
ATOM     26  N   UNL     1     -49.301  29.027  24.772  1.00  0.00    -0.366 N 
ATOM     27  C   UNL     1     -49.032  27.943  25.743  1.00  0.00     0.041 C 
ATOM     28  C   UNL     1     -50.058  28.585  23.573  1.00  0.00     0.041 C 
ATOM     29  C   UNL     1     -49.072  26.562  25.071  1.00  0.00     0.064 C 
ATOM     30  H   UNL     1     -48.086  28.087  26.278  1.00  0.00     0.052 H 
ATOM     31  H   UNL     1     -49.827  27.988  26.497  1.00  0.00     0.052 H 
ATOM     32  C   UNL     1     -51.008  27.439  23.950  1.00  0.00     0.064 C 
ATOM     33  H   UNL     1     -49.367  28.227  22.799  1.00  0.00     0.052 H 
ATOM     34  H   UNL     1     -50.640  29.418  23.162  1.00  0.00     0.052 H 
ATOM     35  O   UNL     1     -50.321  26.267  24.423  1.00  0.00    -0.378 OA
ATOM     36  H   UNL     1     -48.282  26.474  24.316  1.00  0.00     0.059 H 
ATOM     37  H   UNL     1     -48.898  25.778  25.814  1.00  0.00     0.059 H 
ATOM     38  H   UNL     1     -51.603  27.139  23.082  1.00  0.00     0.059 H 
ATOM     39  H   UNL     1     -51.705  27.757  24.734  1.00  0.00     0.059 H 
ENDBRANCH   9  26
ENDBRANCH   4   5
ENDBRANCH   1   4
BRANCH   1  40
ATOM     40  C   UNL     1     -45.873  35.715  27.607  1.00  0.00     0.123 C 
ATOM     41  O   UNL     1     -45.448  37.075  27.860  1.00  0.00    -0.345 OA
ATOM     42  C   UNL     1     -46.877  35.393  28.712  1.00  0.00     0.119 C 
ATOM     43  H   UNL     1     -44.979  35.084  27.666  1.00  0.00     0.067 H 
ATOM     44  C   UNL     1     -46.468  37.724  28.664  1.00  0.00     0.169 C 
ATOM     45  C   UNL     1     -47.593  36.713  28.888  1.00  0.00     0.173 C 
ATOM     46  H   UNL     1     -47.552  34.575  28.447  1.00  0.00     0.066 H 
ATOM     47  H   UNL     1     -45.983  37.995  29.610  1.00  0.00     0.088 H 
ATOM     48  F   UNL     1     -48.547  36.798  27.917  1.00  0.00    -0.239 F 
ATOM     49  H   UNL     1     -48.079  36.836  29.860  1.00  0.00     0.074 H 
BRANCH  42  50
ATOM     50  O   UNL     1     -46.216  35.049  29.934  1.00  0.00    -0.387 OA
ATOM     51  H   UNL     1     -46.006  35.873  30.407  1.00  0.00     0.211 HD
ENDBRANCH  42  50
BRANCH  44  52
ATOM     52  N   UNL     1     -46.887  38.963  28.025  1.00  0.00    -0.302 N 
ATOM     53  C   UNL     1     -48.153  39.490  27.987  1.00  0.00     0.019 A 
ATOM     54  C   UNL     1     -46.035  39.780  27.326  1.00  0.00     0.148 A 
ATOM     55  C   UNL     1     -48.110  40.680  27.281  1.00  0.00     0.033 A 
ATOM     56  H   UNL     1     -48.982  38.971  28.452  1.00  0.00     0.083 H 
ATOM     57  C   UNL     1     -46.749  40.891  26.885  1.00  0.00     0.071 A 
ATOM     58  N   UNL     1     -44.728  39.530  27.128  1.00  0.00    -0.218 NA
ATOM     59  C   UNL     1     -46.003  41.863  26.193  1.00  0.00     0.137 A 
ATOM     60  C   UNL     1     -44.139  40.510  26.427  1.00  0.00     0.120 A 
ATOM     61  N   UNL     1     -44.694  41.639  25.954  1.00  0.00    -0.219 NA
ATOM     62  H   UNL     1     -43.083  40.379  26.217  1.00  0.00     0.106 H 
BRANCH  55  63
ATOM     63  C   UNL     1     -49.264  41.536  26.973  1.00  0.00     0.095 A 
ATOM     64  C   UNL     1     -50.440  41.604  27.755  1.00  0.00    -0.016 A 
ATOM     65  N   UNL     1     -49.350  42.326  25.892  1.00  0.00    -0.173 NA
ATOM     66  C   UNL     1     -51.259  42.496  27.101  1.00  0.00     0.025 A 
ATOM     67  H   UNL     1     -50.671  41.071  28.665  1.00  0.00     0.066 H 
ATOM     68  N   UNL     1     -50.563  42.898  26.002  1.00  0.00    -0.275 N 
ATOM     69  H   UNL     1     -52.251  42.857  27.325  1.00  0.00     0.084 H 
BRANCH  68  70
ATOM     70  C   UNL     1     -51.000  43.833  24.995  1.00  0.00     0.030 C 
ATOM     71  H   UNL     1     -51.995  44.194  25.268  1.00  0.00     0.048 H 
ATOM     72  H   UNL     1     -51.038  43.332  24.024  1.00  0.00     0.048 H 
ATOM     73  H   UNL     1     -50.287  44.661  24.960  1.00  0.00     0.048 H 
ENDBRANCH  68  70
ENDBRANCH  55  63
BRANCH  59  74
ATOM     74  N   UNL     1     -46.521  43.062  25.730  1.00  0.00    -0.383 N 
ATOM     75  H   UNL     1     -46.369  43.818  26.381  1.00  0.00     0.158 HD
ATOM     76  H   UNL     1     -46.295  43.234  24.746  1.00  0.00     0.158 HD
ENDBRANCH  59  74
ENDBRANCH  44  52
ENDBRANCH   1  40
TORSDOF 11
ENDMDL
MODEL 3
REMARK VINA RESULT:     -10.0      1.615      2.361
REMARK SMILES CCc1cc(N2CCOCC2)c2ccc(OC[C@H]3O[C@@H](n4cc(-c5ccn(C)n5)c5c(N)ncnc54)[C@@H](F)[C@@H]3O)cc2n1
REMARK SMILES IDX 17 1 16 4 15 5 3 6 4 7 43 8 5 9 42 11 12 12 41 13 13 14
REMARK SMILES IDX 14 16 2 19 1 22 6 26 7 27 11 28 8 29 10 32 9 35 18 40 19 41
REMARK SMILES IDX 39 42 20 44 37 45 38 48 40 50 21 52 22 53 36 54 23 55 30 57
REMARK SMILES IDX 35 58 31 59 34 60 33 61 24 63 25 64 29 65 26 66 27 68 28 70
REMARK SMILES IDX 32 74
REMARK H PARENT 17 2 17 3 4 10 41 15 13 17 14 18 2 20 2 21 1 23 1 24 1 25 7 30
REMARK H PARENT 7 31 11 33 11 34 8 36 8 37 10 38 10 39 18 43 39 46 20 47 37 49
REMARK H PARENT 40 51 22 56 34 62 25 67 26 69 28 71 28 72 28 73 32 75 32 76
REMARK Flexibility Score: inf
ROOT
ATOM      1  C   UNL     1     -46.199  35.463  26.281  1.00  0.00     0.117 C 
ATOM      2  H   UNL     1     -45.569  34.796  25.683  1.00  0.00     0.073 H 
ATOM      3  H   UNL     1     -46.130  36.483  25.888  1.00  0.00     0.073 H 
ENDROOT
BRANCH   1   4
ATOM      4  O   UNL     1     -47.577  35.063  26.222  1.00  0.00    -0.491 OA
BRANCH   4   5
ATOM      5  C   UNL     1     -47.787  33.756  25.878  1.00  0.00     0.121 A 
ATOM      6  C   UNL     1     -46.235  30.226  23.107  1.00  0.00     0.043 A 
ATOM      7  C   UNL     1     -47.271  29.378  23.479  1.00  0.00    -0.016 A 
ATOM      8  N   UNL     1     -46.109  31.479  23.593  1.00  0.00    -0.253 NA
ATOM      9  C   UNL     1     -48.220  29.816  24.407  1.00  0.00     0.048 A 
ATOM     10  H   UNL     1     -47.343  28.399  23.023  1.00  0.00     0.066 H 
ATOM     11  C   UNL     1     -47.004  31.915  24.493  1.00  0.00     0.076 A 
ATOM     12  C   UNL     1     -48.078  31.122  24.946  1.00  0.00     0.024 A 
ATOM     13  C   UNL     1     -46.880  33.212  24.968  1.00  0.00     0.007 A 
ATOM     14  C   UNL     1     -48.954  31.657  25.917  1.00  0.00    -0.047 A 
ATOM     15  H   UNL     1     -46.064  33.830  24.598  1.00  0.00     0.069 H 
ATOM     16  C   UNL     1     -48.808  32.963  26.384  1.00  0.00    -0.019 A 
ATOM     17  H   UNL     1     -49.763  31.046  26.313  1.00  0.00     0.063 H 
ATOM     18  H   UNL     1     -49.498  33.332  27.136  1.00  0.00     0.066 H 
BRANCH   6  19
ATOM     19  C   UNL     1     -45.221  29.791  22.081  1.00  0.00    -0.013 C 
ATOM     20  H   UNL     1     -45.717  29.680  21.110  1.00  0.00     0.033 H 
ATOM     21  H   UNL     1     -44.460  30.570  21.956  1.00  0.00     0.033 H 
BRANCH  19  22
ATOM     22  C   UNL     1     -44.565  28.474  22.467  1.00  0.00    -0.060 C 
ATOM     23  H   UNL     1     -43.496  28.605  22.665  1.00  0.00     0.023 H 
ATOM     24  H   UNL     1     -45.025  28.052  23.367  1.00  0.00     0.023 H 
ATOM     25  H   UNL     1     -44.672  27.747  21.656  1.00  0.00     0.023 H 
ENDBRANCH  19  22
ENDBRANCH   6  19
BRANCH   9  26
ATOM     26  N   UNL     1     -49.333  29.020  24.760  1.00  0.00    -0.366 N 
ATOM     27  C   UNL     1     -49.122  27.920  25.728  1.00  0.00     0.041 C 
ATOM     28  C   UNL     1     -50.115  28.623  23.561  1.00  0.00     0.041 C 
ATOM     29  C   UNL     1     -49.240  26.545  25.053  1.00  0.00     0.064 C 
ATOM     30  H   UNL     1     -48.169  28.010  26.261  1.00  0.00     0.052 H 
ATOM     31  H   UNL     1     -49.913  28.007  26.483  1.00  0.00     0.052 H 
ATOM     32  C   UNL     1     -51.126  27.530  23.938  1.00  0.00     0.064 C 
ATOM     33  H   UNL     1     -49.447  28.229  22.785  1.00  0.00     0.052 H 
ATOM     34  H   UNL     1     -50.650  29.488  23.153  1.00  0.00     0.052 H 
ATOM     35  O   UNL     1     -50.504  26.321  24.407  1.00  0.00    -0.378 OA
ATOM     36  H   UNL     1     -48.458  26.415  24.297  1.00  0.00     0.059 H 
ATOM     37  H   UNL     1     -49.109  25.751  25.794  1.00  0.00     0.059 H 
ATOM     38  H   UNL     1     -51.738  27.265  23.070  1.00  0.00     0.059 H 
ATOM     39  H   UNL     1     -51.803  27.885  24.723  1.00  0.00     0.059 H 
ENDBRANCH   9  26
ENDBRANCH   4   5
ENDBRANCH   1   4
BRANCH   1  40
ATOM     40  C   UNL     1     -45.745  35.420  27.750  1.00  0.00     0.123 C 
ATOM     41  O   UNL     1     -44.986  36.617  28.041  1.00  0.00    -0.345 OA
ATOM     42  C   UNL     1     -46.914  35.434  28.733  1.00  0.00     0.119 C 
ATOM     43  H   UNL     1     -45.076  34.569  27.917  1.00  0.00     0.067 H 
ATOM     44  C   UNL     1     -45.864  37.556  28.716  1.00  0.00     0.169 C 
ATOM     45  C   UNL     1     -47.246  36.907  28.815  1.00  0.00     0.173 C 
ATOM     46  H   UNL     1     -47.758  34.826  28.397  1.00  0.00     0.066 H 
ATOM     47  H   UNL     1     -45.430  37.719  29.710  1.00  0.00     0.088 H 
ATOM     48  F   UNL     1     -48.025  37.215  27.739  1.00  0.00    -0.239 F 
ATOM     49  H   UNL     1     -47.782  37.198  29.722  1.00  0.00     0.074 H 
BRANCH  42  50
ATOM     50  O   UNL     1     -46.515  34.968  30.026  1.00  0.00    -0.387 OA
ATOM     51  H   UNL     1     -45.559  35.127  30.123  1.00  0.00     0.211 HD
ENDBRANCH  42  50
BRANCH  44  52
ATOM     52  N   UNL     1     -45.846  38.836  28.024  1.00  0.00    -0.302 N 
ATOM     53  C   UNL     1     -44.803  39.386  27.322  1.00  0.00     0.019 A 
ATOM     54  C   UNL     1     -46.909  39.704  28.010  1.00  0.00     0.148 A 
ATOM     55  C   UNL     1     -45.210  40.611  26.823  1.00  0.00     0.033 A 
ATOM     56  H   UNL     1     -43.854  38.870  27.248  1.00  0.00     0.083 H 
ATOM     57  C   UNL     1     -46.571  40.806  27.228  1.00  0.00     0.071 A 
ATOM     58  N   UNL     1     -48.076  39.492  28.645  1.00  0.00    -0.218 NA
ATOM     59  C   UNL     1     -47.581  41.772  27.064  1.00  0.00     0.137 A 
ATOM     60  C   UNL     1     -48.939  40.499  28.440  1.00  0.00     0.120 A 
ATOM     61  N   UNL     1     -48.758  41.607  27.703  1.00  0.00    -0.219 NA
ATOM     62  H   UNL     1     -49.904  40.407  28.927  1.00  0.00     0.106 H 
BRANCH  55  63
ATOM     63  C   UNL     1     -44.376  41.543  26.052  1.00  0.00     0.095 A 
ATOM     64  C   UNL     1     -43.106  42.009  26.466  1.00  0.00    -0.016 A 
ATOM     65  N   UNL     1     -44.738  42.090  24.883  1.00  0.00    -0.173 NA
ATOM     66  C   UNL     1     -42.695  42.869  25.475  1.00  0.00     0.025 A 
ATOM     67  H   UNL     1     -42.564  41.763  27.367  1.00  0.00     0.066 H 
ATOM     68  N   UNL     1     -43.699  42.880  24.555  1.00  0.00    -0.275 N 
ATOM     69  H   UNL     1     -41.797  43.458  25.361  1.00  0.00     0.084 H 
BRANCH  68  70
ATOM     70  C   UNL     1     -43.741  43.635  23.327  1.00  0.00     0.030 C 
ATOM     71  H   UNL     1     -44.137  44.629  23.548  1.00  0.00     0.048 H 
ATOM     72  H   UNL     1     -44.388  43.127  22.608  1.00  0.00     0.048 H 
ATOM     73  H   UNL     1     -42.725  43.705  22.931  1.00  0.00     0.048 H 
ENDBRANCH  68  70
ENDBRANCH  55  63
BRANCH  59  74
ATOM     74  N   UNL     1     -47.456  42.905  26.276  1.00  0.00    -0.383 N 
ATOM     75  H   UNL     1     -48.271  43.497  26.332  1.00  0.00     0.158 HD
ATOM     76  H   UNL     1     -46.540  43.353  26.374  1.00  0.00     0.158 HD
ENDBRANCH  59  74
ENDBRANCH  44  52
ENDBRANCH   1  40
TORSDOF 11
ENDMDL
MODEL 4
REMARK VINA RESULT:      -9.5      1.740      2.839
REMARK SMILES CCc1cc(N2CCOCC2)c2ccc(OC[C@H]3O[C@@H](n4cc(-c5ccn(C)n5)c5c(N)ncnc54)[C@@H](F)[C@@H]3O)cc2n1
REMARK SMILES IDX 17 1 16 4 15 5 3 6 4 7 43 8 5 9 42 11 12 12 41 13 13 14
REMARK SMILES IDX 14 16 2 19 1 22 6 26 7 27 11 28 8 29 10 32 9 35 18 40 19 41
REMARK SMILES IDX 39 42 20 44 37 45 38 48 40 50 21 52 22 53 36 54 23 55 30 57
REMARK SMILES IDX 35 58 31 59 34 60 33 61 24 63 25 64 29 65 26 66 27 68 28 70
REMARK SMILES IDX 32 74
REMARK H PARENT 17 2 17 3 4 10 41 15 13 17 14 18 2 20 2 21 1 23 1 24 1 25 7 30
REMARK H PARENT 7 31 11 33 11 34 8 36 8 37 10 38 10 39 18 43 39 46 20 47 37 49
REMARK H PARENT 40 51 22 56 34 62 25 67 26 69 28 71 28 72 28 73 32 75 32 76
REMARK Flexibility Score: inf
ROOT
ATOM      1  C   UNL     1     -45.992  35.060  27.840  1.00  0.00     0.117 C 
ATOM      2  H   UNL     1     -45.116  35.436  28.378  1.00  0.00     0.073 H 
ATOM      3  H   UNL     1     -45.941  35.371  26.791  1.00  0.00     0.073 H 
ENDROOT
BRANCH   1   4
ATOM      4  O   UNL     1     -46.038  33.624  27.870  1.00  0.00    -0.491 OA
BRANCH   4   5
ATOM      5  C   UNL     1     -46.620  33.040  26.779  1.00  0.00     0.121 A 
ATOM      6  C   UNL     1     -48.891  29.153  25.268  1.00  0.00     0.043 A 
ATOM      7  C   UNL     1     -48.900  29.581  23.947  1.00  0.00    -0.016 A 
ATOM      8  N   UNL     1     -48.342  29.879  26.265  1.00  0.00    -0.253 NA
ATOM      9  C   UNL     1     -48.341  30.820  23.620  1.00  0.00     0.048 A 
ATOM     10  H   UNL     1     -49.317  28.935  23.184  1.00  0.00     0.066 H 
ATOM     11  C   UNL     1     -47.809  31.075  25.974  1.00  0.00     0.076 A 
ATOM     12  C   UNL     1     -47.789  31.604  24.666  1.00  0.00     0.024 A 
ATOM     13  C   UNL     1     -47.228  31.804  27.002  1.00  0.00     0.007 A 
ATOM     14  C   UNL     1     -47.230  32.885  24.461  1.00  0.00    -0.047 A 
ATOM     15  H   UNL     1     -47.223  31.383  28.004  1.00  0.00     0.069 H 
ATOM     16  C   UNL     1     -46.655  33.602  25.510  1.00  0.00    -0.019 A 
ATOM     17  H   UNL     1     -47.245  33.329  23.468  1.00  0.00     0.063 H 
ATOM     18  H   UNL     1     -46.244  34.586  25.310  1.00  0.00     0.066 H 
BRANCH   6  19
ATOM     19  C   UNL     1     -49.453  27.806  25.640  1.00  0.00    -0.013 C 
ATOM     20  H   UNL     1     -48.664  27.050  25.554  1.00  0.00     0.033 H 
ATOM     21  H   UNL     1     -49.768  27.811  26.690  1.00  0.00     0.033 H 
BRANCH  19  22
ATOM     22  C   UNL     1     -50.621  27.421  24.745  1.00  0.00    -0.060 C 
ATOM     23  H   UNL     1     -51.551  27.893  25.078  1.00  0.00     0.023 H 
ATOM     24  H   UNL     1     -50.442  27.727  23.708  1.00  0.00     0.023 H 
ATOM     25  H   UNL     1     -50.768  26.337  24.760  1.00  0.00     0.023 H 
ENDBRANCH  19  22
ENDBRANCH   6  19
BRANCH   9  26
ATOM     26  N   UNL     1     -48.259  31.265  22.281  1.00  0.00    -0.366 N 
ATOM     27  C   UNL     1     -49.461  31.128  21.427  1.00  0.00     0.041 C 
ATOM     28  C   UNL     1     -47.006  30.800  21.633  1.00  0.00     0.041 C 
ATOM     29  C   UNL     1     -49.264  30.055  20.345  1.00  0.00     0.064 C 
ATOM     30  H   UNL     1     -50.367  30.928  22.012  1.00  0.00     0.052 H 
ATOM     31  H   UNL     1     -49.612  32.097  20.936  1.00  0.00     0.052 H 
ATOM     32  C   UNL     1     -47.084  31.039  20.118  1.00  0.00     0.064 C 
ATOM     33  H   UNL     1     -46.862  29.727  21.811  1.00  0.00     0.052 H 
ATOM     34  H   UNL     1     -46.144  31.339  22.041  1.00  0.00     0.052 H 
ATOM     35  O   UNL     1     -48.142  30.300  19.482  1.00  0.00    -0.378 OA
ATOM     36  H   UNL     1     -49.120  29.068  20.798  1.00  0.00     0.059 H 
ATOM     37  H   UNL     1     -50.154  29.994  19.712  1.00  0.00     0.059 H 
ATOM     38  H   UNL     1     -46.146  30.742  19.639  1.00  0.00     0.059 H 
ATOM     39  H   UNL     1     -47.242  32.102  19.903  1.00  0.00     0.059 H 
ENDBRANCH   9  26
ENDBRANCH   4   5
ENDBRANCH   1   4
BRANCH   1  40
ATOM     40  C   UNL     1     -47.272  35.599  28.501  1.00  0.00     0.123 C 
ATOM     41  O   UNL     1     -46.961  36.836  29.183  1.00  0.00    -0.345 OA
ATOM     42  C   UNL     1     -48.357  35.958  27.488  1.00  0.00     0.119 C 
ATOM     43  H   UNL     1     -47.634  34.897  29.261  1.00  0.00     0.067 H 
ATOM     44  C   UNL     1     -47.370  37.937  28.330  1.00  0.00     0.169 C 
ATOM     45  C   UNL     1     -47.933  37.338  27.040  1.00  0.00     0.173 C 
ATOM     46  H   UNL     1     -48.420  35.243  26.662  1.00  0.00     0.066 H 
ATOM     47  H   UNL     1     -48.143  38.483  28.885  1.00  0.00     0.088 H 
ATOM     48  F   UNL     1     -46.966  37.186  26.091  1.00  0.00    -0.239 F 
ATOM     49  H   UNL     1     -48.741  37.941  26.615  1.00  0.00     0.074 H 
BRANCH  42  50
ATOM     50  O   UNL     1     -49.645  36.037  28.107  1.00  0.00    -0.387 OA
ATOM     51  H   UNL     1     -50.276  36.379  27.449  1.00  0.00     0.211 HD
ENDBRANCH  42  50
BRANCH  44  52
ATOM     52  N   UNL     1     -46.255  38.852  28.134  1.00  0.00    -0.302 N 
ATOM     53  C   UNL     1     -46.106  39.775  27.130  1.00  0.00     0.019 A 
ATOM     54  C   UNL     1     -45.152  38.887  28.949  1.00  0.00     0.148 A 
ATOM     55  C   UNL     1     -44.904  40.436  27.320  1.00  0.00     0.033 A 
ATOM     56  H   UNL     1     -46.856  39.878  26.356  1.00  0.00     0.083 H 
ATOM     57  C   UNL     1     -44.304  39.898  28.504  1.00  0.00     0.071 A 
ATOM     58  N   UNL     1     -44.957  38.075  30.004  1.00  0.00    -0.218 NA
ATOM     59  C   UNL     1     -43.143  40.104  29.273  1.00  0.00     0.137 A 
ATOM     60  C   UNL     1     -43.802  38.347  30.629  1.00  0.00     0.120 A 
ATOM     61  N   UNL     1     -42.900  39.295  30.325  1.00  0.00    -0.219 NA
ATOM     62  H   UNL     1     -43.567  37.728  31.488  1.00  0.00     0.106 H 
BRANCH  55  63
ATOM     63  C   UNL     1     -44.346  41.471  26.439  1.00  0.00     0.095 A 
ATOM     64  C   UNL     1     -45.090  42.180  25.467  1.00  0.00    -0.016 A 
ATOM     65  N   UNL     1     -43.056  41.837  26.427  1.00  0.00    -0.173 NA
ATOM     66  C   UNL     1     -44.186  43.020  24.860  1.00  0.00     0.025 A 
ATOM     67  H   UNL     1     -46.139  42.088  25.229  1.00  0.00     0.066 H 
ATOM     68  N   UNL     1     -42.993  42.780  25.469  1.00  0.00    -0.275 N 
ATOM     69  H   UNL     1     -44.297  43.741  24.064  1.00  0.00     0.084 H 
BRANCH  68  70
ATOM     70  C   UNL     1     -41.730  43.415  25.181  1.00  0.00     0.030 C 
ATOM     71  H   UNL     1     -41.888  44.153  24.391  1.00  0.00     0.048 H 
ATOM     72  H   UNL     1     -41.010  42.662  24.851  1.00  0.00     0.048 H 
ATOM     73  H   UNL     1     -41.372  43.899  26.094  1.00  0.00     0.048 H 
ENDBRANCH  68  70
ENDBRANCH  55  63
BRANCH  59  74
ATOM     74  N   UNL     1     -42.210  41.098  29.026  1.00  0.00    -0.383 N 
ATOM     75  H   UNL     1     -41.670  40.913  28.194  1.00  0.00     0.158 HD
ATOM     76  H   UNL     1     -42.601  42.039  29.135  1.00  0.00     0.158 HD
ENDBRANCH  59  74
ENDBRANCH  44  52
ENDBRANCH   1  40
TORSDOF 11
ENDMDL
MODEL 5
REMARK VINA RESULT:      -9.2      2.765      4.843
REMARK SMILES CCc1cc(N2CCOCC2)c2ccc(OC[C@H]3O[C@@H](n4cc(-c5ccn(C)n5)c5c(N)ncnc54)[C@@H](F)[C@@H]3O)cc2n1
REMARK SMILES IDX 17 1 16 4 15 5 3 6 4 7 43 8 5 9 42 11 12 12 41 13 13 14
REMARK SMILES IDX 14 16 2 19 1 22 6 26 7 27 11 28 8 29 10 32 9 35 18 40 19 41
REMARK SMILES IDX 39 42 20 44 37 45 38 48 40 50 21 52 22 53 36 54 23 55 30 57
REMARK SMILES IDX 35 58 31 59 34 60 33 61 24 63 25 64 29 65 26 66 27 68 28 70
REMARK SMILES IDX 32 74
REMARK H PARENT 17 2 17 3 4 10 41 15 13 17 14 18 2 20 2 21 1 23 1 24 1 25 7 30
REMARK H PARENT 7 31 11 33 11 34 8 36 8 37 10 38 10 39 18 43 39 46 20 47 37 49
REMARK H PARENT 40 51 22 56 34 62 25 67 26 69 28 71 28 72 28 73 32 75 32 76
REMARK Flexibility Score: inf
ROOT
ATOM      1  C   UNL     1     -48.335  34.681  26.698  1.00  0.00     0.117 C 
ATOM      2  H   UNL     1     -48.601  34.965  25.675  1.00  0.00     0.073 H 
ATOM      3  H   UNL     1     -48.836  35.348  27.407  1.00  0.00     0.073 H 
ENDROOT
BRANCH   1   4
ATOM      4  O   UNL     1     -48.755  33.338  26.987  1.00  0.00    -0.491 OA
BRANCH   4   5
ATOM      5  C   UNL     1     -48.559  32.438  25.976  1.00  0.00     0.121 A 
ATOM      6  C   UNL     1     -48.343  27.805  24.957  1.00  0.00     0.043 A 
ATOM      7  C   UNL     1     -47.958  28.036  23.643  1.00  0.00    -0.016 A 
ATOM      8  N   UNL     1     -48.581  28.805  25.832  1.00  0.00    -0.253 NA
ATOM      9  C   UNL     1     -47.823  29.349  23.184  1.00  0.00     0.048 A 
ATOM     10  H   UNL     1     -47.739  27.192  22.999  1.00  0.00     0.066 H 
ATOM     11  C   UNL     1     -48.467  30.073  25.410  1.00  0.00     0.076 A 
ATOM     12  C   UNL     1     -48.100  30.407  24.090  1.00  0.00     0.024 A 
ATOM     13  C   UNL     1     -48.691  31.093  26.323  1.00  0.00     0.007 A 
ATOM     14  C   UNL     1     -48.033  31.772  23.729  1.00  0.00    -0.047 A 
ATOM     15  H   UNL     1     -48.950  30.832  27.347  1.00  0.00     0.069 H 
ATOM     16  C   UNL     1     -48.266  32.781  24.663  1.00  0.00    -0.019 A 
ATOM     17  H   UNL     1     -47.795  32.050  22.704  1.00  0.00     0.063 H 
ATOM     18  H   UNL     1     -48.212  33.816  24.341  1.00  0.00     0.066 H 
BRANCH   6  19
ATOM     19  C   UNL     1     -48.459  26.399  25.485  1.00  0.00    -0.013 C 
ATOM     20  H   UNL     1     -49.011  26.415  26.432  1.00  0.00     0.033 H 
ATOM     21  H   UNL     1     -49.047  25.787  24.792  1.00  0.00     0.033 H 
BRANCH  19  22
ATOM     22  C   UNL     1     -47.091  25.771  25.707  1.00  0.00    -0.060 C 
ATOM     23  H   UNL     1     -46.571  25.605  24.758  1.00  0.00     0.023 H 
ATOM     24  H   UNL     1     -46.458  26.413  26.330  1.00  0.00     0.023 H 
ATOM     25  H   UNL     1     -47.196  24.805  26.209  1.00  0.00     0.023 H 
ENDBRANCH  19  22
ENDBRANCH   6  19
BRANCH   9  26
ATOM     26  N   UNL     1     -47.361  29.635  21.880  1.00  0.00    -0.366 N 
ATOM     27  C   UNL     1     -45.942  30.025  21.715  1.00  0.00     0.041 C 
ATOM     28  C   UNL     1     -48.313  30.509  21.148  1.00  0.00     0.041 C 
ATOM     29  C   UNL     1     -45.807  31.506  21.330  1.00  0.00     0.064 C 
ATOM     30  H   UNL     1     -45.341  29.798  22.603  1.00  0.00     0.052 H 
ATOM     31  H   UNL     1     -45.538  29.413  20.899  1.00  0.00     0.052 H 
ATOM     32  C   UNL     1     -47.653  31.038  19.866  1.00  0.00     0.064 C 
ATOM     33  H   UNL     1     -48.601  31.363  21.773  1.00  0.00     0.052 H 
ATOM     34  H   UNL     1     -49.218  29.949  20.886  1.00  0.00     0.052 H 
ATOM     35  O   UNL     1     -46.499  31.858  20.121  1.00  0.00    -0.378 OA
ATOM     36  H   UNL     1     -46.191  32.152  22.128  1.00  0.00     0.059 H 
ATOM     37  H   UNL     1     -44.753  31.761  21.187  1.00  0.00     0.059 H 
ATOM     38  H   UNL     1     -48.365  31.646  19.297  1.00  0.00     0.059 H 
ATOM     39  H   UNL     1     -47.339  30.209  19.223  1.00  0.00     0.059 H 
ENDBRANCH   9  26
ENDBRANCH   4   5
ENDBRANCH   1   4
BRANCH   1  40
ATOM     40  C   UNL     1     -46.808  34.758  26.872  1.00  0.00     0.123 C 
ATOM     41  O   UNL     1     -46.357  36.072  26.469  1.00  0.00    -0.345 OA
ATOM     42  C   UNL     1     -46.369  34.609  28.328  1.00  0.00     0.119 C 
ATOM     43  H   UNL     1     -46.313  34.034  26.216  1.00  0.00     0.067 H 
ATOM     44  C   UNL     1     -46.171  36.873  27.666  1.00  0.00     0.169 C 
ATOM     45  C   UNL     1     -46.562  36.009  28.865  1.00  0.00     0.173 C 
ATOM     46  H   UNL     1     -46.950  33.859  28.872  1.00  0.00     0.066 H 
ATOM     47  H   UNL     1     -45.107  37.135  27.696  1.00  0.00     0.088 H 
ATOM     48  F   UNL     1     -47.881  36.151  29.180  1.00  0.00    -0.239 F 
ATOM     49  H   UNL     1     -45.970  36.235  29.756  1.00  0.00     0.074 H 
BRANCH  42  50
ATOM     50  O   UNL     1     -44.986  34.254  28.422  1.00  0.00    -0.387 OA
ATOM     51  H   UNL     1     -44.751  34.201  29.366  1.00  0.00     0.211 HD
ENDBRANCH  42  50
BRANCH  44  52
ATOM     52  N   UNL     1     -46.918  38.117  27.549  1.00  0.00    -0.302 N 
ATOM     53  C   UNL     1     -48.223  38.339  27.910  1.00  0.00     0.019 A 
ATOM     54  C   UNL     1     -46.394  39.267  27.013  1.00  0.00     0.148 A 
ATOM     55  C   UNL     1     -48.534  39.658  27.632  1.00  0.00     0.033 A 
ATOM     56  H   UNL     1     -48.826  37.539  28.320  1.00  0.00     0.083 H 
ATOM     57  C   UNL     1     -47.356  40.270  27.091  1.00  0.00     0.071 A 
ATOM     58  N   UNL     1     -45.150  39.378  26.515  1.00  0.00    -0.218 NA
ATOM     59  C   UNL     1     -46.956  41.538  26.631  1.00  0.00     0.137 A 
ATOM     60  C   UNL     1     -44.903  40.622  26.078  1.00  0.00     0.120 A 
ATOM     61  N   UNL     1     -45.723  41.686  26.103  1.00  0.00    -0.219 NA
ATOM     62  H   UNL     1     -43.920  40.793  25.652  1.00  0.00     0.106 H 
BRANCH  55  63
ATOM     63  C   UNL     1     -49.847  40.290  27.829  1.00  0.00     0.095 A 
ATOM     64  C   UNL     1     -50.738  39.970  28.880  1.00  0.00    -0.016 A 
ATOM     65  N   UNL     1     -50.369  41.216  27.012  1.00  0.00    -0.173 NA
ATOM     66  C   UNL     1     -51.840  40.765  28.674  1.00  0.00     0.025 A 
ATOM     67  H   UNL     1     -50.605  39.252  29.675  1.00  0.00     0.066 H 
ATOM     68  N   UNL     1     -51.570  41.489  27.553  1.00  0.00    -0.275 N 
ATOM     69  H   UNL     1     -52.768  40.863  29.219  1.00  0.00     0.084 H 
BRANCH  68  70
ATOM     70  C   UNL     1     -52.424  42.469  26.927  1.00  0.00     0.030 C 
ATOM     71  H   UNL     1     -52.753  43.177  27.691  1.00  0.00     0.048 H 
ATOM     72  H   UNL     1     -53.289  41.969  26.484  1.00  0.00     0.048 H 
ATOM     73  H   UNL     1     -51.849  42.980  26.150  1.00  0.00     0.048 H 
ENDBRANCH  68  70
ENDBRANCH  55  63
BRANCH  59  74
ATOM     74  N   UNL     1     -47.750  42.673  26.682  1.00  0.00    -0.383 N 
ATOM     75  H   UNL     1     -47.389  43.358  27.328  1.00  0.00     0.158 HD
ATOM     76  H   UNL     1     -48.026  43.001  25.751  1.00  0.00     0.158 HD
ENDBRANCH  59  74
ENDBRANCH  44  52
ENDBRANCH   1  40
TORSDOF 11
ENDMDL
MODEL 6
REMARK VINA RESULT:      -9.1      1.837      2.875
REMARK SMILES CCc1cc(N2CCOCC2)c2ccc(OC[C@H]3O[C@@H](n4cc(-c5ccn(C)n5)c5c(N)ncnc54)[C@@H](F)[C@@H]3O)cc2n1
REMARK SMILES IDX 17 1 16 4 15 5 3 6 4 7 43 8 5 9 42 11 12 12 41 13 13 14
REMARK SMILES IDX 14 16 2 19 1 22 6 26 7 27 11 28 8 29 10 32 9 35 18 40 19 41
REMARK SMILES IDX 39 42 20 44 37 45 38 48 40 50 21 52 22 53 36 54 23 55 30 57
REMARK SMILES IDX 35 58 31 59 34 60 33 61 24 63 25 64 29 65 26 66 27 68 28 70
REMARK SMILES IDX 32 74
REMARK H PARENT 17 2 17 3 4 10 41 15 13 17 14 18 2 20 2 21 1 23 1 24 1 25 7 30
REMARK H PARENT 7 31 11 33 11 34 8 36 8 37 10 38 10 39 18 43 39 46 20 47 37 49
REMARK H PARENT 40 51 22 56 34 62 25 67 26 69 28 71 28 72 28 73 32 75 32 76
REMARK Flexibility Score: inf
ROOT
ATOM      1  C   UNL     1     -46.369  35.930  26.955  1.00  0.00     0.117 C 
ATOM      2  H   UNL     1     -45.544  36.641  26.841  1.00  0.00     0.073 H 
ATOM      3  H   UNL     1     -47.046  36.012  26.099  1.00  0.00     0.073 H 
ENDROOT
BRANCH   1   4
ATOM      4  O   UNL     1     -45.882  34.579  27.003  1.00  0.00    -0.491 OA
BRANCH   4   5
ATOM      5  C   UNL     1     -46.624  33.670  26.299  1.00  0.00     0.121 A 
ATOM      6  C   UNL     1     -46.756  31.098  22.310  1.00  0.00     0.043 A 
ATOM      7  C   UNL     1     -48.037  30.627  22.567  1.00  0.00    -0.016 A 
ATOM      8  N   UNL     1     -46.108  31.940  23.143  1.00  0.00    -0.253 NA
ATOM      9  C   UNL     1     -48.691  31.015  23.740  1.00  0.00     0.048 A 
ATOM     10  H   UNL     1     -48.522  29.987  21.840  1.00  0.00     0.066 H 
ATOM     11  C   UNL     1     -46.715  32.317  24.279  1.00  0.00     0.076 A 
ATOM     12  C   UNL     1     -48.006  31.877  24.636  1.00  0.00     0.024 A 
ATOM     13  C   UNL     1     -46.051  33.201  25.117  1.00  0.00     0.007 A 
ATOM     14  C   UNL     1     -48.552  32.305  25.867  1.00  0.00    -0.047 A 
ATOM     15  H   UNL     1     -45.065  33.558  24.826  1.00  0.00     0.069 H 
ATOM     16  C   UNL     1     -47.865  33.191  26.696  1.00  0.00    -0.019 A 
ATOM     17  H   UNL     1     -49.528  31.942  26.182  1.00  0.00     0.063 H 
ATOM     18  H   UNL     1     -48.318  33.488  27.637  1.00  0.00     0.066 H 
BRANCH   6  19
ATOM     19  C   UNL     1     -46.044  30.725  21.035  1.00  0.00    -0.013 C 
ATOM     20  H   UNL     1     -45.019  30.418  21.272  1.00  0.00     0.033 H 
ATOM     21  H   UNL     1     -46.532  29.857  20.577  1.00  0.00     0.033 H 
BRANCH  19  22
ATOM     22  C   UNL     1     -46.012  31.886  20.053  1.00  0.00    -0.060 C 
ATOM     23  H   UNL     1     -46.774  32.634  20.295  1.00  0.00     0.023 H 
ATOM     24  H   UNL     1     -45.036  32.385  20.063  1.00  0.00     0.023 H 
ATOM     25  H   UNL     1     -46.200  31.527  19.037  1.00  0.00     0.023 H 
ENDBRANCH  19  22
ENDBRANCH   6  19
BRANCH   9  26
ATOM     26  N   UNL     1     -50.022  30.624  24.009  1.00  0.00    -0.366 N 
ATOM     27  C   UNL     1     -50.321  29.176  24.077  1.00  0.00     0.041 C 
ATOM     28  C   UNL     1     -50.989  31.399  23.191  1.00  0.00     0.041 C 
ATOM     29  C   UNL     1     -51.172  28.720  22.881  1.00  0.00     0.064 C 
ATOM     30  H   UNL     1     -49.414  28.566  24.163  1.00  0.00     0.052 H 
ATOM     31  H   UNL     1     -50.896  29.014  24.997  1.00  0.00     0.052 H 
ATOM     32  C   UNL     1     -52.381  30.756  23.282  1.00  0.00     0.064 C 
ATOM     33  H   UNL     1     -50.676  31.409  22.140  1.00  0.00     0.052 H 
ATOM     34  H   UNL     1     -51.044  32.434  23.547  1.00  0.00     0.052 H 
ATOM     35  O   UNL     1     -52.421  29.418  22.757  1.00  0.00    -0.378 OA
ATOM     36  H   UNL     1     -50.625  28.856  21.941  1.00  0.00     0.059 H 
ATOM     37  H   UNL     1     -51.402  27.654  22.970  1.00  0.00     0.059 H 
ATOM     38  H   UNL     1     -53.109  31.349  22.720  1.00  0.00     0.059 H 
ATOM     39  H   UNL     1     -52.721  30.717  24.324  1.00  0.00     0.059 H 
ENDBRANCH   9  26
ENDBRANCH   4   5
ENDBRANCH   1   4
BRANCH   1  40
ATOM     40  C   UNL     1     -47.120  36.220  28.266  1.00  0.00     0.123 C 
ATOM     41  O   UNL     1     -46.595  37.436  28.847  1.00  0.00    -0.345 OA
ATOM     42  C   UNL     1     -48.609  36.485  28.051  1.00  0.00     0.119 C 
ATOM     43  H   UNL     1     -46.945  35.417  28.991  1.00  0.00     0.067 H 
ATOM     44  C   UNL     1     -47.497  38.523  28.512  1.00  0.00     0.169 C 
ATOM     45  C   UNL     1     -48.619  37.943  27.651  1.00  0.00     0.173 C 
ATOM     46  H   UNL     1     -49.050  35.832  27.293  1.00  0.00     0.066 H 
ATOM     47  H   UNL     1     -47.884  38.903  29.466  1.00  0.00     0.088 H 
ATOM     48  F   UNL     1     -48.320  38.009  26.322  1.00  0.00    -0.239 F 
ATOM     49  H   UNL     1     -49.576  38.447  27.813  1.00  0.00     0.074 H 
BRANCH  42  50
ATOM     50  O   UNL     1     -49.348  36.323  29.265  1.00  0.00    -0.387 OA
ATOM     51  H   UNL     1     -49.476  35.370  29.417  1.00  0.00     0.211 HD
ENDBRANCH  42  50
BRANCH  44  52
ATOM     52  N   UNL     1     -46.754  39.608  27.886  1.00  0.00    -0.302 N 
ATOM     53  C   UNL     1     -45.391  39.729  27.785  1.00  0.00     0.019 A 
ATOM     54  C   UNL     1     -47.351  40.706  27.320  1.00  0.00     0.148 A 
ATOM     55  C   UNL     1     -45.107  40.907  27.115  1.00  0.00     0.033 A 
ATOM     56  H   UNL     1     -44.736  38.979  28.208  1.00  0.00     0.083 H 
ATOM     57  C   UNL     1     -46.359  41.520  26.781  1.00  0.00     0.071 A 
ATOM     58  N   UNL     1     -48.678  40.924  27.293  1.00  0.00    -0.218 NA
ATOM     59  C   UNL     1     -46.810  42.671  26.108  1.00  0.00     0.137 A 
ATOM     60  C   UNL     1     -48.977  42.067  26.657  1.00  0.00     0.120 A 
ATOM     61  N   UNL     1     -48.133  42.937  26.078  1.00  0.00    -0.219 NA
ATOM     62  H   UNL     1     -50.030  42.319  26.599  1.00  0.00     0.106 H 
BRANCH  55  63
ATOM     63  C   UNL     1     -43.763  41.433  26.838  1.00  0.00     0.095 A 
ATOM     64  C   UNL     1     -42.626  41.184  27.641  1.00  0.00    -0.016 A 
ATOM     65  N   UNL     1     -43.467  42.243  25.811  1.00  0.00    -0.173 NA
ATOM     66  C   UNL     1     -41.601  41.877  27.042  1.00  0.00     0.025 A 
ATOM     67  H   UNL     1     -42.559  40.590  28.540  1.00  0.00     0.066 H 
ATOM     68  N   UNL     1     -42.151  42.488  25.957  1.00  0.00    -0.275 N 
ATOM     69  H   UNL     1     -40.558  41.983  27.301  1.00  0.00     0.084 H 
BRANCH  68  70
ATOM     70  C   UNL     1     -41.478  43.336  25.005  1.00  0.00     0.030 C 
ATOM     71  H   UNL     1     -41.421  44.344  25.423  1.00  0.00     0.048 H 
ATOM     72  H   UNL     1     -42.040  43.351  24.068  1.00  0.00     0.048 H 
ATOM     73  H   UNL     1     -40.476  42.934  24.834  1.00  0.00     0.048 H 
ENDBRANCH  68  70
ENDBRANCH  55  63
BRANCH  59  74
ATOM     74  N   UNL     1     -45.981  43.570  25.457  1.00  0.00    -0.383 N 
ATOM     75  H   UNL     1     -45.036  43.227  25.382  1.00  0.00     0.158 HD
ATOM     76  H   UNL     1     -46.411  43.960  24.612  1.00  0.00     0.158 HD
ENDBRANCH  59  74
ENDBRANCH  44  52
ENDBRANCH   1  40
TORSDOF 11
ENDMDL
MODEL 7
REMARK VINA RESULT:      -8.6      3.509     11.546
REMARK SMILES CCc1cc(N2CCOCC2)c2ccc(OC[C@H]3O[C@@H](n4cc(-c5ccn(C)n5)c5c(N)ncnc54)[C@@H](F)[C@@H]3O)cc2n1
REMARK SMILES IDX 17 1 16 4 15 5 3 6 4 7 43 8 5 9 42 11 12 12 41 13 13 14
REMARK SMILES IDX 14 16 2 19 1 22 6 26 7 27 11 28 8 29 10 32 9 35 18 40 19 41
REMARK SMILES IDX 39 42 20 44 37 45 38 48 40 50 21 52 22 53 36 54 23 55 30 57
REMARK SMILES IDX 35 58 31 59 34 60 33 61 24 63 25 64 29 65 26 66 27 68 28 70
REMARK SMILES IDX 32 74
REMARK H PARENT 17 2 17 3 4 10 41 15 13 17 14 18 2 20 2 21 1 23 1 24 1 25 7 30
REMARK H PARENT 7 31 11 33 11 34 8 36 8 37 10 38 10 39 18 43 39 46 20 47 37 49
REMARK H PARENT 40 51 22 56 34 62 25 67 26 69 28 71 28 72 28 73 32 75 32 76
REMARK Flexibility Score: inf
ROOT
ATOM      1  C   UNL     1     -45.937  39.239  27.066  1.00  0.00     0.117 C 
ATOM      2  H   UNL     1     -46.791  39.769  26.631  1.00  0.00     0.073 H 
ATOM      3  H   UNL     1     -45.819  38.266  26.576  1.00  0.00     0.073 H 
ENDROOT
BRANCH   1   4
ATOM      4  O   UNL     1     -44.720  39.977  26.874  1.00  0.00    -0.491 OA
BRANCH   4   5
ATOM      5  C   UNL     1     -44.845  41.120  26.132  1.00  0.00     0.121 A 
ATOM      6  C   UNL     1     -47.743  44.750  25.147  1.00  0.00     0.043 A 
ATOM      7  C   UNL     1     -46.907  45.247  24.156  1.00  0.00    -0.016 A 
ATOM      8  N   UNL     1     -47.451  43.642  25.860  1.00  0.00    -0.253 NA
ATOM      9  C   UNL     1     -45.699  44.598  23.885  1.00  0.00     0.048 A 
ATOM     10  H   UNL     1     -47.216  46.116  23.589  1.00  0.00     0.066 H 
ATOM     11  C   UNL     1     -46.292  43.009  25.622  1.00  0.00     0.076 A 
ATOM     12  C   UNL     1     -45.368  43.448  24.650  1.00  0.00     0.024 A 
ATOM     13  C   UNL     1     -46.011  41.858  26.343  1.00  0.00     0.007 A 
ATOM     14  C   UNL     1     -44.161  42.733  24.490  1.00  0.00    -0.047 A 
ATOM     15  H   UNL     1     -46.736  41.508  27.074  1.00  0.00     0.069 H 
ATOM     16  C   UNL     1     -43.897  41.580  25.229  1.00  0.00    -0.019 A 
ATOM     17  H   UNL     1     -43.416  43.080  23.777  1.00  0.00     0.063 H 
ATOM     18  H   UNL     1     -42.953  41.066  25.080  1.00  0.00     0.066 H 
BRANCH   6  19
ATOM     19  C   UNL     1     -49.068  45.410  25.433  1.00  0.00    -0.013 C 
ATOM     20  H   UNL     1     -49.564  44.881  26.254  1.00  0.00     0.033 H 
ATOM     21  H   UNL     1     -48.905  46.438  25.777  1.00  0.00     0.033 H 
BRANCH  19  22
ATOM     22  C   UNL     1     -49.970  45.404  24.209  1.00  0.00    -0.060 C 
ATOM     23  H   UNL     1     -50.860  44.788  24.373  1.00  0.00     0.023 H 
ATOM     24  H   UNL     1     -50.304  46.417  23.958  1.00  0.00     0.023 H 
ATOM     25  H   UNL     1     -49.433  44.999  23.345  1.00  0.00     0.023 H 
ENDBRANCH  19  22
ENDBRANCH   6  19
BRANCH   9  26
ATOM     26  N   UNL     1     -44.850  45.020  22.836  1.00  0.00    -0.366 N 
ATOM     27  C   UNL     1     -44.326  46.403  22.881  1.00  0.00     0.041 C 
ATOM     28  C   UNL     1     -45.392  44.625  21.511  1.00  0.00     0.041 C 
ATOM     29  C   UNL     1     -44.952  47.279  21.784  1.00  0.00     0.064 C 
ATOM     30  H   UNL     1     -44.452  46.866  23.866  1.00  0.00     0.052 H 
ATOM     31  H   UNL     1     -43.246  46.338  22.702  1.00  0.00     0.052 H 
ATOM     32  C   UNL     1     -44.618  45.345  20.397  1.00  0.00     0.064 C 
ATOM     33  H   UNL     1     -46.451  44.901  21.436  1.00  0.00     0.052 H 
ATOM     34  H   UNL     1     -45.304  43.541  21.371  1.00  0.00     0.052 H 
ATOM     35  O   UNL     1     -44.747  46.777  20.453  1.00  0.00    -0.378 OA
ATOM     36  H   UNL     1     -46.033  47.377  21.935  1.00  0.00     0.059 H 
ATOM     37  H   UNL     1     -44.527  48.286  21.821  1.00  0.00     0.059 H 
ATOM     38  H   UNL     1     -44.980  45.024  19.415  1.00  0.00     0.059 H 
ATOM     39  H   UNL     1     -43.550  45.104  20.450  1.00  0.00     0.059 H 
ENDBRANCH   9  26
ENDBRANCH   4   5
ENDBRANCH   1   4
BRANCH   1  40
ATOM     40  C   UNL     1     -46.160  39.059  28.577  1.00  0.00     0.123 C 
ATOM     41  O   UNL     1     -47.306  38.199  28.782  1.00  0.00    -0.345 OA
ATOM     42  C   UNL     1     -44.996  38.351  29.269  1.00  0.00     0.119 C 
ATOM     43  H   UNL     1     -46.395  40.021  29.046  1.00  0.00     0.067 H 
ATOM     44  C   UNL     1     -46.821  36.859  29.059  1.00  0.00     0.169 C 
ATOM     45  C   UNL     1     -45.294  36.896  28.988  1.00  0.00     0.173 C 
ATOM     46  H   UNL     1     -44.021  38.668  28.887  1.00  0.00     0.066 H 
ATOM     47  H   UNL     1     -47.166  36.613  30.071  1.00  0.00     0.088 H 
ATOM     48  F   UNL     1     -44.841  36.616  27.733  1.00  0.00    -0.239 F 
ATOM     49  H   UNL     1     -44.824  36.198  29.687  1.00  0.00     0.074 H 
BRANCH  42  50
ATOM     50  O   UNL     1     -45.015  38.573  30.682  1.00  0.00    -0.387 OA
ATOM     51  H   UNL     1     -44.755  37.744  31.122  1.00  0.00     0.211 HD
ENDBRANCH  42  50
BRANCH  44  52
ATOM     52  N   UNL     1     -47.445  35.909  28.149  1.00  0.00    -0.302 N 
ATOM     53  C   UNL     1     -46.828  34.901  27.450  1.00  0.00     0.019 A 
ATOM     54  C   UNL     1     -48.782  35.921  27.841  1.00  0.00     0.148 A 
ATOM     55  C   UNL     1     -47.788  34.235  26.707  1.00  0.00     0.033 A 
ATOM     56  H   UNL     1     -45.759  34.749  27.527  1.00  0.00     0.083 H 
ATOM     57  C   UNL     1     -49.048  34.860  26.980  1.00  0.00     0.071 A 
ATOM     58  N   UNL     1     -49.666  36.815  28.319  1.00  0.00    -0.218 NA
ATOM     59  C   UNL     1     -50.396  34.696  26.610  1.00  0.00     0.137 A 
ATOM     60  C   UNL     1     -50.906  36.573  27.865  1.00  0.00     0.120 A 
ATOM     61  N   UNL     1     -51.311  35.585  27.050  1.00  0.00    -0.219 NA
ATOM     62  H   UNL     1     -51.678  37.257  28.200  1.00  0.00     0.106 H 
BRANCH  55  63
ATOM     63  C   UNL     1     -47.536  33.119  25.785  1.00  0.00     0.095 A 
ATOM     64  C   UNL     1     -46.459  33.066  24.869  1.00  0.00    -0.016 A 
ATOM     65  N   UNL     1     -48.320  32.037  25.678  1.00  0.00    -0.173 NA
ATOM     66  C   UNL     1     -46.614  31.878  24.196  1.00  0.00     0.025 A 
ATOM     67  H   UNL     1     -45.680  33.796  24.710  1.00  0.00     0.066 H 
ATOM     68  N   UNL     1     -47.733  31.302  24.716  1.00  0.00    -0.275 N 
ATOM     69  H   UNL     1     -46.036  31.416  23.409  1.00  0.00     0.084 H 
BRANCH  68  70
ATOM     70  C   UNL     1     -48.314  30.038  24.334  1.00  0.00     0.030 C 
ATOM     71  H   UNL     1     -47.836  29.704  23.411  1.00  0.00     0.048 H 
ATOM     72  H   UNL     1     -49.388  30.164  24.175  1.00  0.00     0.048 H 
ATOM     73  H   UNL     1     -48.138  29.321  25.141  1.00  0.00     0.048 H 
ENDBRANCH  68  70
ENDBRANCH  55  63
BRANCH  59  74
ATOM     74  N   UNL     1     -50.866  33.666  25.812  1.00  0.00    -0.383 N 
ATOM     75  H   UNL     1     -51.863  33.726  25.664  1.00  0.00     0.158 HD
ATOM     76  H   UNL     1     -50.276  33.505  24.990  1.00  0.00     0.158 HD
ENDBRANCH  59  74
ENDBRANCH  44  52
ENDBRANCH   1  40
TORSDOF 11
ENDMDL
