MODEL 1
REMARK VINA RESULT:     -11.6      0.000      0.000
REMARK SMILES Cn1ccc(-c2cn([C@@H]3O[C@H](COc4ccc5cnc(N[C@H]6[C@H]7C[C@@H]6C7)nc5c4)[C@@H](O)[C@@H]3F)c3ncnc(N)c23)n1
REMARK SMILES IDX 12 1 11 4 9 5 10 6 32 7 30 9 33 10 8 14 6 15 7 16 40 17
REMARK SMILES IDX 34 19 38 20 35 21 37 22 36 23 5 25 2 26 3 27 41 28 4 29 1 32
REMARK SMILES IDX 39 36 31 39 13 41 14 42 15 43 29 44 16 45 28 47 17 49 27 51
REMARK SMILES IDX 18 52 20 53 19 54 21 56 22 58 23 59 25 60 26 62 24 63
REMARK H PARENT 12 2 12 3 9 8 32 11 11 12 30 13 7 18 36 24 3 30 4 31 1 33 1 34
REMARK H PARENT 1 35 39 37 39 38 31 40 15 46 29 48 16 50 18 55 21 57 22 61
REMARK H PARENT 23 64 25 65 26 66 26 67 24 68 24 69
REMARK Flexibility Score: inf
ROOT
ATOM      1  C   UNL     1     -47.514  36.378  27.282  1.00  0.00     0.117 C 
ATOM      2  H   UNL     1     -47.052  36.661  26.327  1.00  0.00     0.073 H 
ATOM      3  H   UNL     1     -48.149  37.208  27.613  1.00  0.00     0.073 H 
ENDROOT
BRANCH   1   4
ATOM      4  C   UNL     1     -46.404  36.115  28.306  1.00  0.00     0.123 C 
ATOM      5  C   UNL     1     -45.037  37.889  28.974  1.00  0.00     0.169 C 
ATOM      6  O   UNL     1     -45.243  36.893  27.940  1.00  0.00    -0.345 OA
ATOM      7  C   UNL     1     -46.312  37.950  29.803  1.00  0.00     0.173 C 
ATOM      8  H   UNL     1     -44.186  37.539  29.572  1.00  0.00     0.088 H 
ATOM      9  C   UNL     1     -46.791  36.519  29.733  1.00  0.00     0.119 C 
ATOM     10  F   UNL     1     -47.248  38.741  29.202  1.00  0.00    -0.239 F 
ATOM     11  H   UNL     1     -46.143  38.324  30.817  1.00  0.00     0.074 H 
ATOM     12  H   UNL     1     -46.122  35.056  28.272  1.00  0.00     0.067 H 
ATOM     13  H   UNL     1     -47.859  36.420  29.943  1.00  0.00     0.066 H 
BRANCH   5  14
ATOM     14  N   UNL     1     -44.659  39.159  28.377  1.00  0.00    -0.302 N 
ATOM     15  C   UNL     1     -44.576  40.973  27.082  1.00  0.00     0.033 A 
ATOM     16  C   UNL     1     -45.241  39.779  27.301  1.00  0.00     0.019 A 
ATOM     17  C   UNL     1     -43.527  41.067  28.051  1.00  0.00     0.071 A 
ATOM     18  H   UNL     1     -46.084  39.333  26.792  1.00  0.00     0.083 H 
ATOM     19  C   UNL     1     -43.623  39.930  28.845  1.00  0.00     0.148 A 
ATOM     20  C   UNL     1     -42.492  41.961  28.381  1.00  0.00     0.137 A 
ATOM     21  N   UNL     1     -42.851  39.612  29.899  1.00  0.00    -0.218 NA
ATOM     22  N   UNL     1     -41.707  41.691  29.445  1.00  0.00    -0.219 NA
ATOM     23  C   UNL     1     -41.921  40.553  30.127  1.00  0.00     0.120 A 
ATOM     24  H   UNL     1     -41.258  40.374  30.968  1.00  0.00     0.106 H 
BRANCH  15  25
ATOM     25  C   UNL     1     -44.898  41.962  26.049  1.00  0.00     0.095 A 
ATOM     26  N   UNL     1     -44.757  43.231  24.362  1.00  0.00    -0.275 N 
ATOM     27  C   UNL     1     -45.984  43.505  24.888  1.00  0.00     0.025 A 
ATOM     28  N   UNL     1     -44.068  42.303  25.053  1.00  0.00    -0.173 NA
ATOM     29  C   UNL     1     -46.107  42.694  25.993  1.00  0.00    -0.016 A 
ATOM     30  H   UNL     1     -46.653  44.229  24.447  1.00  0.00     0.084 H 
ATOM     31  H   UNL     1     -46.954  42.634  26.659  1.00  0.00     0.066 H 
BRANCH  26  32
ATOM     32  C   UNL     1     -44.166  43.824  23.186  1.00  0.00     0.030 C 
ATOM     33  H   UNL     1     -44.788  43.604  22.315  1.00  0.00     0.048 H 
ATOM     34  H   UNL     1     -43.169  43.396  23.050  1.00  0.00     0.048 H 
ATOM     35  H   UNL     1     -44.104  44.904  23.339  1.00  0.00     0.048 H 
ENDBRANCH  26  32
ENDBRANCH  15  25
BRANCH  20  36
ATOM     36  N   UNL     1     -42.216  43.125  27.679  1.00  0.00    -0.383 N 
ATOM     37  H   UNL     1     -43.062  43.562  27.303  1.00  0.00     0.158 HD
ATOM     38  H   UNL     1     -41.579  43.723  28.186  1.00  0.00     0.158 HD
ENDBRANCH  20  36
ENDBRANCH   5  14
BRANCH   9  39
ATOM     39  O   UNL     1     -46.073  35.737  30.696  1.00  0.00    -0.387 OA
ATOM     40  H   UNL     1     -46.701  35.493  31.400  1.00  0.00     0.211 HD
ENDBRANCH   9  39
ENDBRANCH   1   4
BRANCH   1  41
ATOM     41  O   UNL     1     -48.280  35.184  27.124  1.00  0.00    -0.491 OA
BRANCH  41  42
ATOM     42  C   UNL     1     -47.770  34.217  26.301  1.00  0.00     0.121 A 
ATOM     43  C   UNL     1     -46.597  34.312  25.556  1.00  0.00    -0.019 A 
ATOM     44  C   UNL     1     -48.534  33.046  26.235  1.00  0.00     0.007 A 
ATOM     45  C   UNL     1     -46.202  33.239  24.757  1.00  0.00    -0.048 A 
ATOM     46  H   UNL     1     -45.971  35.198  25.572  1.00  0.00     0.066 H 
ATOM     47  C   UNL     1     -48.163  31.964  25.447  1.00  0.00     0.079 A 
ATOM     48  H   UNL     1     -49.450  32.972  26.817  1.00  0.00     0.069 H 
ATOM     49  C   UNL     1     -46.986  32.072  24.706  1.00  0.00     0.019 A 
ATOM     50  H   UNL     1     -45.286  33.316  24.174  1.00  0.00     0.063 H 
ATOM     51  N   UNL     1     -48.926  30.863  25.418  1.00  0.00    -0.213 NA
ATOM     52  C   UNL     1     -46.672  30.961  23.942  1.00  0.00     0.040 A 
ATOM     53  C   UNL     1     -48.529  29.838  24.649  1.00  0.00     0.223 A 
ATOM     54  N   UNL     1     -47.424  29.845  23.895  1.00  0.00    -0.221 NA
ATOM     55  H   UNL     1     -45.780  30.934  23.323  1.00  0.00     0.085 H 
BRANCH  53  56
ATOM     56  N   UNL     1     -49.295  28.675  24.593  1.00  0.00    -0.351 N 
ATOM     57  H   UNL     1     -50.185  28.889  25.028  1.00  0.00     0.163 HD
BRANCH  56  58
ATOM     58  C   UNL     1     -48.762  27.379  24.849  1.00  0.00     0.035 C 
ATOM     59  C   UNL     1     -49.813  26.218  24.977  1.00  0.00    -0.020 C 
ATOM     60  C   UNL     1     -48.687  26.996  26.371  1.00  0.00    -0.020 C 
ATOM     61  H   UNL     1     -47.861  27.183  24.256  1.00  0.00     0.053 H 
ATOM     62  C   UNL     1     -48.699  25.512  25.840  1.00  0.00    -0.044 C 
ATOM     63  C   UNL     1     -50.250  26.856  26.342  1.00  0.00    -0.044 C 
ATOM     64  H   UNL     1     -50.427  25.767  24.213  1.00  0.00     0.032 H 
ATOM     65  H   UNL     1     -48.058  27.408  27.144  1.00  0.00     0.032 H 
ATOM     66  H   UNL     1     -49.026  24.733  26.539  1.00  0.00     0.027 H 
ATOM     67  H   UNL     1     -47.804  25.161  25.313  1.00  0.00     0.027 H 
ATOM     68  H   UNL     1     -50.844  27.774  26.308  1.00  0.00     0.027 H 
ATOM     69  H   UNL     1     -50.701  26.184  27.081  1.00  0.00     0.027 H 
ENDBRANCH  56  58
ENDBRANCH  53  56
ENDBRANCH  41  42
ENDBRANCH   1  41
TORSDOF 10
ENDMDL
MODEL 2
REMARK VINA RESULT:      -9.1      2.138      3.051
REMARK SMILES Cn1ccc(-c2cn([C@@H]3O[C@H](COc4ccc5cnc(N[C@H]6[C@H]7C[C@@H]6C7)nc5c4)[C@@H](O)[C@@H]3F)c3ncnc(N)c23)n1
REMARK SMILES IDX 12 1 11 4 9 5 10 6 32 7 30 9 33 10 8 14 6 15 7 16 40 17
REMARK SMILES IDX 34 19 38 20 35 21 37 22 36 23 5 25 2 26 3 27 41 28 4 29 1 32
REMARK SMILES IDX 39 36 31 39 13 41 14 42 15 43 29 44 16 45 28 47 17 49 27 51
REMARK SMILES IDX 18 52 20 53 19 54 21 56 22 58 23 59 25 60 26 62 24 63
REMARK H PARENT 12 2 12 3 9 8 32 11 11 12 30 13 7 18 36 24 3 30 4 31 1 33 1 34
REMARK H PARENT 1 35 39 37 39 38 31 40 15 46 29 48 16 50 18 55 21 57 22 61
REMARK H PARENT 23 64 25 65 26 66 26 67 24 68 24 69
REMARK Flexibility Score: inf
ROOT
ATOM      1  C   UNL     1     -48.311  36.494  27.207  1.00  0.00     0.117 C 
ATOM      2  H   UNL     1     -48.612  36.810  26.200  1.00  0.00     0.073 H 
ATOM      3  H   UNL     1     -48.861  37.101  27.935  1.00  0.00     0.073 H 
ENDROOT
BRANCH   1   4
ATOM      4  C   UNL     1     -46.802  36.716  27.361  1.00  0.00     0.123 C 
ATOM      5  C   UNL     1     -45.987  38.903  27.476  1.00  0.00     0.169 C 
ATOM      6  O   UNL     1     -46.420  37.860  26.566  1.00  0.00    -0.345 OA
ATOM      7  C   UNL     1     -46.457  38.511  28.870  1.00  0.00     0.173 C 
ATOM      8  H   UNL     1     -44.891  38.929  27.414  1.00  0.00     0.088 H 
ATOM      9  C   UNL     1     -46.378  37.004  28.805  1.00  0.00     0.119 C 
ATOM     10  F   UNL     1     -47.761  38.861  29.061  1.00  0.00    -0.239 F 
ATOM     11  H   UNL     1     -45.857  38.964  29.664  1.00  0.00     0.074 H 
ATOM     12  H   UNL     1     -46.265  35.843  26.972  1.00  0.00     0.067 H 
ATOM     13  H   UNL     1     -47.009  36.515  29.553  1.00  0.00     0.066 H 
BRANCH   5  14
ATOM     14  N   UNL     1     -46.479  40.195  27.028  1.00  0.00    -0.302 N 
ATOM     15  C   UNL     1     -47.780  41.952  26.590  1.00  0.00     0.033 A 
ATOM     16  C   UNL     1     -47.759  40.679  27.130  1.00  0.00     0.019 A 
ATOM     17  C   UNL     1     -46.462  42.243  26.116  1.00  0.00     0.071 A 
ATOM     18  H   UNL     1     -48.541  40.089  27.588  1.00  0.00     0.083 H 
ATOM     19  C   UNL     1     -45.682  41.134  26.421  1.00  0.00     0.148 A 
ATOM     20  C   UNL     1     -45.800  43.299  25.463  1.00  0.00     0.137 A 
ATOM     21  N   UNL     1     -44.369  40.978  26.179  1.00  0.00    -0.218 NA
ATOM     22  N   UNL     1     -44.476  43.192  25.220  1.00  0.00    -0.219 NA
ATOM     23  C   UNL     1     -43.848  42.059  25.578  1.00  0.00     0.120 A 
ATOM     24  H   UNL     1     -42.787  42.016  25.353  1.00  0.00     0.106 H 
BRANCH  15  25
ATOM     25  C   UNL     1     -48.944  42.843  26.528  1.00  0.00     0.095 A 
ATOM     26  N   UNL     1     -50.748  43.758  25.909  1.00  0.00    -0.275 N 
ATOM     27  C   UNL     1     -50.361  44.478  27.000  1.00  0.00     0.025 A 
ATOM     28  N   UNL     1     -49.900  42.762  25.591  1.00  0.00    -0.173 NA
ATOM     29  C   UNL     1     -49.185  43.907  27.427  1.00  0.00    -0.016 A 
ATOM     30  H   UNL     1     -50.938  45.310  27.376  1.00  0.00     0.084 H 
ATOM     31  H   UNL     1     -48.589  44.212  28.274  1.00  0.00     0.066 H 
BRANCH  26  32
ATOM     32  C   UNL     1     -51.931  43.965  25.109  1.00  0.00     0.030 C 
ATOM     33  H   UNL     1     -52.804  44.044  25.762  1.00  0.00     0.048 H 
ATOM     34  H   UNL     1     -52.044  43.111  24.436  1.00  0.00     0.048 H 
ATOM     35  H   UNL     1     -51.805  44.889  24.540  1.00  0.00     0.048 H 
ENDBRANCH  26  32
ENDBRANCH  15  25
BRANCH  20  36
ATOM     36  N   UNL     1     -46.420  44.466  25.044  1.00  0.00    -0.383 N 
ATOM     37  H   UNL     1     -46.676  45.073  25.828  1.00  0.00     0.158 HD
ATOM     38  H   UNL     1     -45.925  44.896  24.276  1.00  0.00     0.158 HD
ENDBRANCH  20  36
ENDBRANCH   5  14
BRANCH   9  39
ATOM     39  O   UNL     1     -45.023  36.595  29.029  1.00  0.00    -0.387 OA
ATOM     40  H   UNL     1     -44.891  36.538  29.993  1.00  0.00     0.211 HD
ENDBRANCH   9  39
ENDBRANCH   1   4
BRANCH   1  41
ATOM     41  O   UNL     1     -48.588  35.105  27.390  1.00  0.00    -0.491 OA
BRANCH  41  42
ATOM     42  C   UNL     1     -48.006  34.230  26.514  1.00  0.00     0.121 A 
ATOM     43  C   UNL     1     -46.866  34.471  25.752  1.00  0.00    -0.019 A 
ATOM     44  C   UNL     1     -48.654  32.993  26.409  1.00  0.00     0.007 A 
ATOM     45  C   UNL     1     -46.388  33.479  24.896  1.00  0.00    -0.048 A 
ATOM     46  H   UNL     1     -46.329  35.413  25.796  1.00  0.00     0.066 H 
ATOM     47  C   UNL     1     -48.199  31.988  25.566  1.00  0.00     0.079 A 
ATOM     48  H   UNL     1     -49.545  32.805  27.006  1.00  0.00     0.069 H 
ATOM     49  C   UNL     1     -47.056  32.244  24.808  1.00  0.00     0.019 A 
ATOM     50  H   UNL     1     -45.498  33.670  24.301  1.00  0.00     0.063 H 
ATOM     51  N   UNL     1     -48.852  30.820  25.501  1.00  0.00    -0.213 NA
ATOM     52  C   UNL     1     -46.654  31.203  23.988  1.00  0.00     0.040 A 
ATOM     53  C   UNL     1     -48.376  29.873  24.679  1.00  0.00     0.223 A 
ATOM     54  N   UNL     1     -47.294  30.022  23.904  1.00  0.00    -0.221 NA
ATOM     55  H   UNL     1     -45.779  31.290  23.351  1.00  0.00     0.085 H 
BRANCH  53  56
ATOM     56  N   UNL     1     -49.027  28.645  24.585  1.00  0.00    -0.351 N 
ATOM     57  H   UNL     1     -50.002  28.812  24.802  1.00  0.00     0.163 HD
BRANCH  56  58
ATOM     58  C   UNL     1     -48.470  27.429  25.077  1.00  0.00     0.035 C 
ATOM     59  C   UNL     1     -49.404  26.168  25.004  1.00  0.00    -0.020 C 
ATOM     60  C   UNL     1     -48.787  27.133  26.587  1.00  0.00    -0.020 C 
ATOM     61  H   UNL     1     -47.425  27.304  24.769  1.00  0.00     0.053 H 
ATOM     62  C   UNL     1     -48.514  25.632  26.190  1.00  0.00    -0.044 C 
ATOM     63  C   UNL     1     -50.261  26.821  26.144  1.00  0.00    -0.044 C 
ATOM     64  H   UNL     1     -49.735  25.614  24.139  1.00  0.00     0.032 H 
ATOM     65  H   UNL     1     -48.440  27.650  27.468  1.00  0.00     0.032 H 
ATOM     66  H   UNL     1     -48.951  24.858  26.833  1.00  0.00     0.027 H 
ATOM     67  H   UNL     1     -47.480  25.356  25.957  1.00  0.00     0.027 H 
ATOM     68  H   UNL     1     -50.903  27.666  25.877  1.00  0.00     0.027 H 
ATOM     69  H   UNL     1     -50.836  26.142  26.783  1.00  0.00     0.027 H 
ENDBRANCH  56  58
ENDBRANCH  53  56
ENDBRANCH  41  42
ENDBRANCH   1  41
TORSDOF 10
ENDMDL
MODEL 3
REMARK VINA RESULT:      -8.9      4.335      9.773
REMARK SMILES Cn1ccc(-c2cn([C@@H]3O[C@H](COc4ccc5cnc(N[C@H]6[C@H]7C[C@@H]6C7)nc5c4)[C@@H](O)[C@@H]3F)c3ncnc(N)c23)n1
REMARK SMILES IDX 12 1 11 4 9 5 10 6 32 7 30 9 33 10 8 14 6 15 7 16 40 17
REMARK SMILES IDX 34 19 38 20 35 21 37 22 36 23 5 25 2 26 3 27 41 28 4 29 1 32
REMARK SMILES IDX 39 36 31 39 13 41 14 42 15 43 29 44 16 45 28 47 17 49 27 51
REMARK SMILES IDX 18 52 20 53 19 54 21 56 22 58 23 59 25 60 26 62 24 63
REMARK H PARENT 12 2 12 3 9 8 32 11 11 12 30 13 7 18 36 24 3 30 4 31 1 33 1 34
REMARK H PARENT 1 35 39 37 39 38 31 40 15 46 29 48 16 50 18 55 21 57 22 61
REMARK H PARENT 23 64 25 65 26 66 26 67 24 68 24 69
REMARK Flexibility Score: inf
ROOT
ATOM      1  C   UNL     1     -45.130  35.960  28.572  1.00  0.00     0.117 C 
ATOM      2  H   UNL     1     -44.854  36.322  27.573  1.00  0.00     0.073 H 
ATOM      3  H   UNL     1     -44.299  35.357  28.957  1.00  0.00     0.073 H 
ENDROOT
BRANCH   1   4
ATOM      4  C   UNL     1     -46.397  35.105  28.452  1.00  0.00     0.123 C 
ATOM      5  C   UNL     1     -48.413  36.145  27.888  1.00  0.00     0.169 C 
ATOM      6  O   UNL     1     -47.511  35.853  28.986  1.00  0.00    -0.345 OA
ATOM      7  C   UNL     1     -47.652  35.879  26.596  1.00  0.00     0.173 C 
ATOM      8  H   UNL     1     -49.264  35.461  28.000  1.00  0.00     0.088 H 
ATOM      9  C   UNL     1     -46.745  34.742  27.005  1.00  0.00     0.119 C 
ATOM     10  F   UNL     1     -46.871  36.947  26.262  1.00  0.00    -0.239 F 
ATOM     11  H   UNL     1     -48.311  35.655  25.753  1.00  0.00     0.074 H 
ATOM     12  H   UNL     1     -46.282  34.198  29.057  1.00  0.00     0.067 H 
ATOM     13  H   UNL     1     -45.871  34.644  26.355  1.00  0.00     0.066 H 
BRANCH   5  14
ATOM     14  N   UNL     1     -48.923  37.500  28.005  1.00  0.00    -0.302 N 
ATOM     15  C   UNL     1     -49.154  39.716  27.891  1.00  0.00     0.033 A 
ATOM     16  C   UNL     1     -48.309  38.659  27.602  1.00  0.00     0.019 A 
ATOM     17  C   UNL     1     -50.320  39.177  28.521  1.00  0.00     0.071 A 
ATOM     18  H   UNL     1     -47.335  38.637  27.133  1.00  0.00     0.083 H 
ATOM     19  C   UNL     1     -50.144  37.798  28.558  1.00  0.00     0.148 A 
ATOM     20  C   UNL     1     -51.520  39.658  29.075  1.00  0.00     0.137 A 
ATOM     21  N   UNL     1     -51.005  36.886  29.043  1.00  0.00    -0.218 NA
ATOM     22  N   UNL     1     -52.422  38.774  29.554  1.00  0.00    -0.219 NA
ATOM     23  C   UNL     1     -52.119  37.466  29.517  1.00  0.00     0.120 A 
ATOM     24  H   UNL     1     -52.869  36.795  29.923  1.00  0.00     0.106 H 
BRANCH  15  25
ATOM     25  C   UNL     1     -48.900  41.129  27.594  1.00  0.00     0.095 A 
ATOM     26  N   UNL     1     -49.030  43.241  27.589  1.00  0.00    -0.275 N 
ATOM     27  C   UNL     1     -48.038  42.961  26.697  1.00  0.00     0.025 A 
ATOM     28  N   UNL     1     -49.581  42.144  28.143  1.00  0.00    -0.173 NA
ATOM     29  C   UNL     1     -47.929  41.590  26.675  1.00  0.00    -0.016 A 
ATOM     30  H   UNL     1     -47.502  43.737  26.168  1.00  0.00     0.084 H 
ATOM     31  H   UNL     1     -47.239  41.007  26.084  1.00  0.00     0.066 H 
BRANCH  26  32
ATOM     32  C   UNL     1     -49.513  44.547  27.967  1.00  0.00     0.030 C 
ATOM     33  H   UNL     1     -50.532  44.462  28.353  1.00  0.00     0.048 H 
ATOM     34  H   UNL     1     -49.502  45.187  27.081  1.00  0.00     0.048 H 
ATOM     35  H   UNL     1     -48.853  44.948  28.739  1.00  0.00     0.048 H 
ENDBRANCH  26  32
ENDBRANCH  15  25
BRANCH  20  36
ATOM     36  N   UNL     1     -51.853  41.001  29.165  1.00  0.00    -0.383 N 
ATOM     37  H   UNL     1     -51.030  41.598  29.285  1.00  0.00     0.158 HD
ATOM     38  H   UNL     1     -52.512  41.270  28.448  1.00  0.00     0.158 HD
ENDBRANCH  20  36
ENDBRANCH   5  14
BRANCH   9  39
ATOM     39  O   UNL     1     -47.481  33.514  26.951  1.00  0.00    -0.387 OA
ATOM     40  H   UNL     1     -46.983  32.852  27.466  1.00  0.00     0.211 HD
ENDBRANCH   9  39
ENDBRANCH   1   4
BRANCH   1  41
ATOM     41  O   UNL     1     -45.403  37.061  29.438  1.00  0.00    -0.491 OA
BRANCH  41  42
ATOM     42  C   UNL     1     -44.641  38.186  29.279  1.00  0.00     0.121 A 
ATOM     43  C   UNL     1     -43.703  38.674  30.186  1.00  0.00    -0.019 A 
ATOM     44  C   UNL     1     -44.861  38.875  28.080  1.00  0.00     0.007 A 
ATOM     45  C   UNL     1     -42.999  39.840  29.886  1.00  0.00    -0.048 A 
ATOM     46  H   UNL     1     -43.497  38.178  31.128  1.00  0.00     0.066 H 
ATOM     47  C   UNL     1     -44.173  40.038  27.757  1.00  0.00     0.079 A 
ATOM     48  H   UNL     1     -45.593  38.493  27.371  1.00  0.00     0.069 H 
ATOM     49  C   UNL     1     -43.238  40.515  28.675  1.00  0.00     0.019 A 
ATOM     50  H   UNL     1     -42.268  40.221  30.597  1.00  0.00     0.063 H 
ATOM     51  N   UNL     1     -44.418  40.661  26.597  1.00  0.00    -0.213 NA
ATOM     52  C   UNL     1     -42.588  41.677  28.295  1.00  0.00     0.040 A 
ATOM     53  C   UNL     1     -43.728  41.777  26.320  1.00  0.00     0.223 A 
ATOM     54  N   UNL     1     -42.817  42.322  27.136  1.00  0.00    -0.221 NA
ATOM     55  H   UNL     1     -41.840  42.141  28.932  1.00  0.00     0.085 H 
BRANCH  53  56
ATOM     56  N   UNL     1     -43.953  42.453  25.123  1.00  0.00    -0.351 N 
ATOM     57  H   UNL     1     -43.607  41.857  24.379  1.00  0.00     0.163 HD
BRANCH  56  58
ATOM     58  C   UNL     1     -43.731  43.852  24.965  1.00  0.00     0.035 C 
ATOM     59  C   UNL     1     -44.920  44.787  25.389  1.00  0.00    -0.020 C 
ATOM     60  C   UNL     1     -44.228  44.438  23.595  1.00  0.00    -0.020 C 
ATOM     61  H   UNL     1     -42.721  44.144  25.278  1.00  0.00     0.053 H 
ATOM     62  C   UNL     1     -44.276  45.808  24.375  1.00  0.00    -0.044 C 
ATOM     63  C   UNL     1     -45.694  44.260  24.129  1.00  0.00    -0.044 C 
ATOM     64  H   UNL     1     -45.299  45.003  26.376  1.00  0.00     0.032 H 
ATOM     65  H   UNL     1     -43.843  44.265  22.602  1.00  0.00     0.032 H 
ATOM     66  H   UNL     1     -44.928  46.591  23.971  1.00  0.00     0.027 H 
ATOM     67  H   UNL     1     -43.317  46.257  24.657  1.00  0.00     0.027 H 
ATOM     68  H   UNL     1     -46.101  43.245  24.171  1.00  0.00     0.027 H 
ATOM     69  H   UNL     1     -46.459  44.920  23.706  1.00  0.00     0.027 H 
ENDBRANCH  56  58
ENDBRANCH  53  56
ENDBRANCH  41  42
ENDBRANCH   1  41
TORSDOF 10
ENDMDL
MODEL 4
REMARK VINA RESULT:      -8.6      5.118      8.533
REMARK SMILES Cn1ccc(-c2cn([C@@H]3O[C@H](COc4ccc5cnc(N[C@H]6[C@H]7C[C@@H]6C7)nc5c4)[C@@H](O)[C@@H]3F)c3ncnc(N)c23)n1
REMARK SMILES IDX 12 1 11 4 9 5 10 6 32 7 30 9 33 10 8 14 6 15 7 16 40 17
REMARK SMILES IDX 34 19 38 20 35 21 37 22 36 23 5 25 2 26 3 27 41 28 4 29 1 32
REMARK SMILES IDX 39 36 31 39 13 41 14 42 15 43 29 44 16 45 28 47 17 49 27 51
REMARK SMILES IDX 18 52 20 53 19 54 21 56 22 58 23 59 25 60 26 62 24 63
REMARK H PARENT 12 2 12 3 9 8 32 11 11 12 30 13 7 18 36 24 3 30 4 31 1 33 1 34
REMARK H PARENT 1 35 39 37 39 38 31 40 15 46 29 48 16 50 18 55 21 57 22 61
REMARK H PARENT 23 64 25 65 26 66 26 67 24 68 24 69
REMARK Flexibility Score: inf
ROOT
ATOM      1  C   UNL     1     -47.921  36.600  27.297  1.00  0.00     0.117 C 
ATOM      2  H   UNL     1     -48.022  35.968  26.404  1.00  0.00     0.073 H 
ATOM      3  H   UNL     1     -47.813  37.639  26.968  1.00  0.00     0.073 H 
ENDROOT
BRANCH   1   4
ATOM      4  C   UNL     1     -46.678  36.154  28.076  1.00  0.00     0.123 C 
ATOM      5  C   UNL     1     -45.096  37.759  28.696  1.00  0.00     0.169 C 
ATOM      6  O   UNL     1     -45.542  36.911  27.606  1.00  0.00    -0.345 OA
ATOM      7  C   UNL     1     -46.209  37.781  29.735  1.00  0.00     0.173 C 
ATOM      8  H   UNL     1     -44.185  37.294  29.093  1.00  0.00     0.088 H 
ATOM      9  C   UNL     1     -46.793  36.396  29.585  1.00  0.00     0.119 C 
ATOM     10  F   UNL     1     -47.172  38.687  29.400  1.00  0.00    -0.239 F 
ATOM     11  H   UNL     1     -45.847  38.015  30.740  1.00  0.00     0.074 H 
ATOM     12  H   UNL     1     -46.482  35.095  27.873  1.00  0.00     0.067 H 
ATOM     13  H   UNL     1     -47.817  36.325  29.964  1.00  0.00     0.066 H 
BRANCH   5  14
ATOM     14  N   UNL     1     -44.732  39.072  28.192  1.00  0.00    -0.302 N 
ATOM     15  C   UNL     1     -44.641  40.956  27.002  1.00  0.00     0.033 A 
ATOM     16  C   UNL     1     -45.272  39.730  27.116  1.00  0.00     0.019 A 
ATOM     17  C   UNL     1     -43.658  41.035  28.039  1.00  0.00     0.071 A 
ATOM     18  H   UNL     1     -46.065  39.283  26.532  1.00  0.00     0.083 H 
ATOM     19  C   UNL     1     -43.758  39.853  28.764  1.00  0.00     0.148 A 
ATOM     20  C   UNL     1     -42.682  41.946  28.480  1.00  0.00     0.137 A 
ATOM     21  N   UNL     1     -43.040  39.506  29.846  1.00  0.00    -0.218 NA
ATOM     22  N   UNL     1     -41.953  41.645  29.576  1.00  0.00    -0.219 NA
ATOM     23  C   UNL     1     -42.163  40.465  30.182  1.00  0.00     0.120 A 
ATOM     24  H   UNL     1     -41.546  40.264  31.052  1.00  0.00     0.106 H 
BRANCH  15  25
ATOM     25  C   UNL     1     -44.939  41.989  26.005  1.00  0.00     0.095 A 
ATOM     26  N   UNL     1     -44.866  43.185  24.261  1.00  0.00    -0.275 N 
ATOM     27  C   UNL     1     -45.867  43.734  25.005  1.00  0.00     0.025 A 
ATOM     28  N   UNL     1     -44.275  42.128  24.848  1.00  0.00    -0.173 NA
ATOM     29  C   UNL     1     -45.939  42.978  26.152  1.00  0.00    -0.016 A 
ATOM     30  H   UNL     1     -46.434  44.591  24.668  1.00  0.00     0.084 H 
ATOM     31  H   UNL     1     -46.625  43.116  26.974  1.00  0.00     0.066 H 
BRANCH  26  32
ATOM     32  C   UNL     1     -44.411  43.623  22.963  1.00  0.00     0.030 C 
ATOM     33  H   UNL     1     -44.104  44.670  23.017  1.00  0.00     0.048 H 
ATOM     34  H   UNL     1     -45.237  43.511  22.254  1.00  0.00     0.048 H 
ATOM     35  H   UNL     1     -43.564  42.999  22.667  1.00  0.00     0.048 H 
ENDBRANCH  26  32
ENDBRANCH  15  25
BRANCH  20  36
ATOM     36  N   UNL     1     -42.409  43.156  27.860  1.00  0.00    -0.383 N 
ATOM     37  H   UNL     1     -42.508  43.950  28.499  1.00  0.00     0.158 HD
ATOM     38  H   UNL     1     -41.561  43.111  27.313  1.00  0.00     0.158 HD
ENDBRANCH  20  36
ENDBRANCH   5  14
BRANCH   9  39
ATOM     39  O   UNL     1     -45.983  35.464  30.313  1.00  0.00    -0.387 OA
ATOM     40  H   UNL     1     -46.446  34.606  30.303  1.00  0.00     0.211 HD
ENDBRANCH   9  39
ENDBRANCH   1   4
BRANCH   1  41
ATOM     41  O   UNL     1     -49.065  36.449  28.138  1.00  0.00    -0.491 OA
BRANCH  41  42
ATOM     42  C   UNL     1     -50.003  37.444  28.104  1.00  0.00     0.121 A 
ATOM     43  C   UNL     1     -51.370  37.288  28.315  1.00  0.00    -0.019 A 
ATOM     44  C   UNL     1     -49.490  38.718  27.825  1.00  0.00     0.007 A 
ATOM     45  C   UNL     1     -52.208  38.401  28.246  1.00  0.00    -0.048 A 
ATOM     46  H   UNL     1     -51.816  36.323  28.532  1.00  0.00     0.066 H 
ATOM     47  C   UNL     1     -50.303  39.842  27.752  1.00  0.00     0.079 A 
ATOM     48  H   UNL     1     -48.422  38.839  27.661  1.00  0.00     0.069 H 
ATOM     49  C   UNL     1     -51.670  39.671  27.965  1.00  0.00     0.019 A 
ATOM     50  H   UNL     1     -53.276  38.277  28.410  1.00  0.00     0.063 H 
ATOM     51  N   UNL     1     -49.766  41.040  27.484  1.00  0.00    -0.213 NA
ATOM     52  C   UNL     1     -52.425  40.829  27.877  1.00  0.00     0.040 A 
ATOM     53  C   UNL     1     -50.584  42.102  27.428  1.00  0.00     0.223 A 
ATOM     54  N   UNL     1     -51.909  42.043  27.608  1.00  0.00    -0.221 NA
ATOM     55  H   UNL     1     -53.501  40.816  28.023  1.00  0.00     0.085 H 
BRANCH  53  56
ATOM     56  N   UNL     1     -50.063  43.365  27.154  1.00  0.00    -0.351 N 
ATOM     57  H   UNL     1     -49.356  43.242  26.438  1.00  0.00     0.163 HD
BRANCH  56  58
ATOM     58  C   UNL     1     -49.777  44.326  28.166  1.00  0.00     0.035 C 
ATOM     59  C   UNL     1     -50.351  45.768  27.926  1.00  0.00    -0.020 C 
ATOM     60  C   UNL     1     -48.488  45.183  27.902  1.00  0.00    -0.020 C 
ATOM     61  H   UNL     1     -49.877  43.901  29.172  1.00  0.00     0.053 H 
ATOM     62  C   UNL     1     -49.172  46.227  28.865  1.00  0.00    -0.044 C 
ATOM     63  C   UNL     1     -49.294  45.924  26.777  1.00  0.00    -0.044 C 
ATOM     64  H   UNL     1     -51.375  46.107  27.956  1.00  0.00     0.032 H 
ATOM     65  H   UNL     1     -47.454  44.873  27.903  1.00  0.00     0.032 H 
ATOM     66  H   UNL     1     -48.845  47.271  28.784  1.00  0.00     0.027 H 
ATOM     67  H   UNL     1     -49.241  45.959  29.925  1.00  0.00     0.027 H 
ATOM     68  H   UNL     1     -49.476  45.386  25.842  1.00  0.00     0.027 H 
ATOM     69  H   UNL     1     -48.978  46.943  26.531  1.00  0.00     0.027 H 
ENDBRANCH  56  58
ENDBRANCH  53  56
ENDBRANCH  41  42
ENDBRANCH   1  41
TORSDOF 10
ENDMDL
MODEL 5
REMARK VINA RESULT:      -8.6      5.342     10.301
REMARK SMILES Cn1ccc(-c2cn([C@@H]3O[C@H](COc4ccc5cnc(N[C@H]6[C@H]7C[C@@H]6C7)nc5c4)[C@@H](O)[C@@H]3F)c3ncnc(N)c23)n1
REMARK SMILES IDX 12 1 11 4 9 5 10 6 32 7 30 9 33 10 8 14 6 15 7 16 40 17
REMARK SMILES IDX 34 19 38 20 35 21 37 22 36 23 5 25 2 26 3 27 41 28 4 29 1 32
REMARK SMILES IDX 39 36 31 39 13 41 14 42 15 43 29 44 16 45 28 47 17 49 27 51
REMARK SMILES IDX 18 52 20 53 19 54 21 56 22 58 23 59 25 60 26 62 24 63
REMARK H PARENT 12 2 12 3 9 8 32 11 11 12 30 13 7 18 36 24 3 30 4 31 1 33 1 34
REMARK H PARENT 1 35 39 37 39 38 31 40 15 46 29 48 16 50 18 55 21 57 22 61
REMARK H PARENT 23 64 25 65 26 66 26 67 24 68 24 69
REMARK Flexibility Score: inf
ROOT
ATOM      1  C   UNL     1     -44.345  38.237  28.303  1.00  0.00     0.117 C 
ATOM      2  H   UNL     1     -44.267  37.953  27.245  1.00  0.00     0.073 H 
ATOM      3  H   UNL     1     -43.358  38.111  28.764  1.00  0.00     0.073 H 
ENDROOT
BRANCH   1   4
ATOM      4  C   UNL     1     -45.371  37.323  28.983  1.00  0.00     0.123 C 
ATOM      5  C   UNL     1     -47.646  37.695  28.602  1.00  0.00     0.169 C 
ATOM      6  O   UNL     1     -46.504  38.121  29.389  1.00  0.00    -0.345 OA
ATOM      7  C   UNL     1     -47.112  36.868  27.441  1.00  0.00     0.173 C 
ATOM      8  H   UNL     1     -48.271  37.090  29.271  1.00  0.00     0.088 H 
ATOM      9  C   UNL     1     -45.898  36.218  28.063  1.00  0.00     0.119 C 
ATOM     10  F   UNL     1     -46.688  37.673  26.423  1.00  0.00    -0.239 F 
ATOM     11  H   UNL     1     -47.850  36.167  27.043  1.00  0.00     0.074 H 
ATOM     12  H   UNL     1     -44.927  36.889  29.887  1.00  0.00     0.067 H 
ATOM     13  H   UNL     1     -45.171  35.882  27.319  1.00  0.00     0.066 H 
BRANCH   5  14
ATOM     14  N   UNL     1     -48.432  38.848  28.195  1.00  0.00    -0.302 N 
ATOM     15  C   UNL     1     -49.056  40.885  27.534  1.00  0.00     0.033 A 
ATOM     16  C   UNL     1     -47.970  40.101  27.881  1.00  0.00     0.019 A 
ATOM     17  C   UNL     1     -50.231  40.078  27.668  1.00  0.00     0.071 A 
ATOM     18  H   UNL     1     -46.913  40.329  27.916  1.00  0.00     0.083 H 
ATOM     19  C   UNL     1     -49.798  38.818  28.064  1.00  0.00     0.148 A 
ATOM     20  C   UNL     1     -51.620  40.229  27.510  1.00  0.00     0.137 A 
ATOM     21  N   UNL     1     -50.562  37.734  28.286  1.00  0.00    -0.218 NA
ATOM     22  N   UNL     1     -52.422  39.160  27.703  1.00  0.00    -0.219 NA
ATOM     23  C   UNL     1     -51.861  37.998  28.078  1.00  0.00     0.120 A 
ATOM     24  H   UNL     1     -52.547  37.171  28.231  1.00  0.00     0.106 H 
BRANCH  15  25
ATOM     25  C   UNL     1     -49.006  42.284  27.098  1.00  0.00     0.095 A 
ATOM     26  N   UNL     1     -48.738  44.014  25.911  1.00  0.00    -0.275 N 
ATOM     27  C   UNL     1     -49.114  44.495  27.129  1.00  0.00     0.025 A 
ATOM     28  N   UNL     1     -48.654  42.671  25.864  1.00  0.00    -0.173 NA
ATOM     29  C   UNL     1     -49.295  43.391  27.929  1.00  0.00    -0.016 A 
ATOM     30  H   UNL     1     -49.224  45.553  27.324  1.00  0.00     0.084 H 
ATOM     31  H   UNL     1     -49.601  43.386  28.964  1.00  0.00     0.066 H 
BRANCH  26  32
ATOM     32  C   UNL     1     -48.439  44.786  24.729  1.00  0.00     0.030 C 
ATOM     33  H   UNL     1     -49.105  44.483  23.917  1.00  0.00     0.048 H 
ATOM     34  H   UNL     1     -47.399  44.597  24.449  1.00  0.00     0.048 H 
ATOM     35  H   UNL     1     -48.589  45.843  24.961  1.00  0.00     0.048 H 
ENDBRANCH  26  32
ENDBRANCH  15  25
BRANCH  20  36
ATOM     36  N   UNL     1     -52.239  41.420  27.161  1.00  0.00    -0.383 N 
ATOM     37  H   UNL     1     -51.588  42.211  27.159  1.00  0.00     0.158 HD
ATOM     38  H   UNL     1     -52.827  41.310  26.347  1.00  0.00     0.158 HD
ENDBRANCH  20  36
ENDBRANCH   5  14
BRANCH   9  39
ATOM     39  O   UNL     1     -46.317  35.078  28.824  1.00  0.00    -0.387 OA
ATOM     40  H   UNL     1     -45.544  34.491  28.918  1.00  0.00     0.211 HD
ENDBRANCH   9  39
ENDBRANCH   1   4
BRANCH   1  41
ATOM     41  O   UNL     1     -44.791  39.588  28.419  1.00  0.00    -0.491 OA
BRANCH  41  42
ATOM     42  C   UNL     1     -44.026  40.553  27.823  1.00  0.00     0.121 A 
ATOM     43  C   UNL     1     -42.884  41.140  28.361  1.00  0.00    -0.019 A 
ATOM     44  C   UNL     1     -44.476  40.955  26.559  1.00  0.00     0.007 A 
ATOM     45  C   UNL     1     -42.205  42.118  27.633  1.00  0.00    -0.048 A 
ATOM     46  H   UNL     1     -42.496  40.865  29.336  1.00  0.00     0.066 H 
ATOM     47  C   UNL     1     -43.819  41.925  25.814  1.00  0.00     0.079 A 
ATOM     48  H   UNL     1     -45.368  40.496  26.139  1.00  0.00     0.069 H 
ATOM     49  C   UNL     1     -42.676  42.505  26.365  1.00  0.00     0.019 A 
ATOM     50  H   UNL     1     -41.313  42.576  28.056  1.00  0.00     0.063 H 
ATOM     51  N   UNL     1     -44.287  42.275  24.608  1.00  0.00    -0.213 NA
ATOM     52  C   UNL     1     -42.068  43.465  25.573  1.00  0.00     0.040 A 
ATOM     53  C   UNL     1     -43.619  43.212  23.918  1.00  0.00     0.223 A 
ATOM     54  N   UNL     1     -42.520  43.834  24.360  1.00  0.00    -0.221 NA
ATOM     55  H   UNL     1     -41.172  43.984  25.901  1.00  0.00     0.085 H 
BRANCH  53  56
ATOM     56  N   UNL     1     -44.073  43.602  22.660  1.00  0.00    -0.351 N 
ATOM     57  H   UNL     1     -43.254  43.837  22.111  1.00  0.00     0.163 HD
BRANCH  56  58
ATOM     58  C   UNL     1     -45.220  44.425  22.467  1.00  0.00     0.035 C 
ATOM     59  C   UNL     1     -45.276  45.219  21.112  1.00  0.00    -0.020 C 
ATOM     60  C   UNL     1     -45.031  45.917  22.920  1.00  0.00    -0.020 C 
ATOM     61  H   UNL     1     -46.139  43.931  22.802  1.00  0.00     0.053 H 
ATOM     62  C   UNL     1     -46.205  46.211  21.909  1.00  0.00    -0.044 C 
ATOM     63  C   UNL     1     -44.108  46.110  21.664  1.00  0.00    -0.044 C 
ATOM     64  H   UNL     1     -45.429  44.847  20.111  1.00  0.00     0.032 H 
ATOM     65  H   UNL     1     -44.912  46.315  23.916  1.00  0.00     0.032 H 
ATOM     66  H   UNL     1     -46.290  47.235  21.525  1.00  0.00     0.027 H 
ATOM     67  H   UNL     1     -47.203  45.852  22.183  1.00  0.00     0.027 H 
ATOM     68  H   UNL     1     -43.106  45.673  21.697  1.00  0.00     0.027 H 
ATOM     69  H   UNL     1     -44.027  47.125  21.261  1.00  0.00     0.027 H 
ENDBRANCH  56  58
ENDBRANCH  53  56
ENDBRANCH  41  42
ENDBRANCH   1  41
TORSDOF 10
ENDMDL
