MODEL 1
REMARK VINA RESULT:     -11.2      0.000      0.000
REMARK SMILES Nc1cc(C2CC2)nc2cc(OC[C@H]3O[C@@H](n4cc(Br)c5c(N)ncnc54)[C@@H](F)[C@@H]3O)ccc12
REMARK SMILES IDX 13 1 12 4 11 5 2 6 3 7 34 8 4 9 9 11 33 12 8 13 10 14 32 15
REMARK SMILES IDX 1 19 5 22 6 23 7 24 14 30 15 31 30 32 16 34 28 35 29 38
REMARK SMILES IDX 31 40 17 42 18 43 27 44 19 45 21 47 26 48 20 49 22 50 25 51
REMARK SMILES IDX 24 52 23 54
REMARK H PARENT 13 2 13 3 3 10 33 16 10 17 32 18 1 20 1 21 5 25 6 26 6 27 7 28
REMARK H PARENT 7 29 14 33 30 36 16 37 28 39 31 41 18 46 25 53 23 55 23 56
REMARK Flexibility Score: inf
ROOT
ATOM      1  C   UNL     1     -47.082  36.161  27.066  1.00  0.00     0.117 C 
ATOM      2  H   UNL     1     -47.674  37.083  27.112  1.00  0.00     0.073 H 
ATOM      3  H   UNL     1     -46.545  36.240  26.113  1.00  0.00     0.073 H 
ENDROOT
BRANCH   1   4
ATOM      4  O   UNL     1     -48.010  35.076  27.082  1.00  0.00    -0.491 OA
BRANCH   4   5
ATOM      5  C   UNL     1     -47.757  33.980  26.309  1.00  0.00     0.121 A 
ATOM      6  C   UNL     1     -46.692  30.732  23.813  1.00  0.00     0.043 A 
ATOM      7  C   UNL     1     -47.621  29.699  23.694  1.00  0.00    -0.017 A 
ATOM      8  C   UNL     1     -47.007  31.845  24.624  1.00  0.00     0.023 A 
ATOM      9  C   UNL     1     -48.796  29.725  24.435  1.00  0.00     0.046 A 
ATOM     10  H   UNL     1     -47.417  28.858  23.037  1.00  0.00     0.066 H 
ATOM     11  C   UNL     1     -48.217  31.792  25.345  1.00  0.00     0.076 A 
ATOM     12  C   UNL     1     -46.193  32.992  24.755  1.00  0.00    -0.047 A 
ATOM     13  N   UNL     1     -49.073  30.763  25.259  1.00  0.00    -0.252 NA
ATOM     14  C   UNL     1     -48.565  32.851  26.175  1.00  0.00     0.007 A 
ATOM     15  C   UNL     1     -46.570  34.045  25.589  1.00  0.00    -0.019 A 
ATOM     16  H   UNL     1     -45.256  33.082  24.213  1.00  0.00     0.063 H 
ATOM     17  H   UNL     1     -49.504  32.756  26.712  1.00  0.00     0.069 H 
ATOM     18  H   UNL     1     -45.927  34.917  25.681  1.00  0.00     0.066 H 
BRANCH   6  19
ATOM     19  N   UNL     1     -45.571  30.696  22.953  1.00  0.00    -0.398 N 
ATOM     20  H   UNL     1     -44.859  30.063  23.315  1.00  0.00     0.156 HD
ATOM     21  H   UNL     1     -45.806  30.441  22.000  1.00  0.00     0.156 HD
ENDBRANCH   6  19
BRANCH   9  22
ATOM     22  C   UNL     1     -49.787  28.587  24.348  1.00  0.00     0.001 C 
ATOM     23  C   UNL     1     -49.302  27.184  24.066  1.00  0.00    -0.044 C 
ATOM     24  C   UNL     1     -49.825  27.529  25.427  1.00  0.00    -0.044 C 
ATOM     25  H   UNL     1     -50.740  28.852  23.897  1.00  0.00     0.037 H 
ATOM     26  H   UNL     1     -49.913  26.561  23.423  1.00  0.00     0.027 H 
ATOM     27  H   UNL     1     -48.235  27.020  23.953  1.00  0.00     0.027 H 
ATOM     28  H   UNL     1     -50.793  27.136  25.715  1.00  0.00     0.027 H 
ATOM     29  H   UNL     1     -49.109  27.582  26.240  1.00  0.00     0.027 H 
ENDBRANCH   9  22
ENDBRANCH   4   5
ENDBRANCH   1   4
BRANCH   1  30
ATOM     30  C   UNL     1     -46.123  36.104  28.263  1.00  0.00     0.123 C 
ATOM     31  O   UNL     1     -44.982  36.941  27.982  1.00  0.00    -0.345 OA
ATOM     32  C   UNL     1     -46.751  36.609  29.567  1.00  0.00     0.119 C 
ATOM     33  H   UNL     1     -45.752  35.082  28.396  1.00  0.00     0.067 H 
ATOM     34  C   UNL     1     -44.998  38.040  28.928  1.00  0.00     0.169 C 
ATOM     35  C   UNL     1     -46.383  38.074  29.559  1.00  0.00     0.173 C 
ATOM     36  H   UNL     1     -47.830  36.443  29.628  1.00  0.00     0.066 H 
ATOM     37  H   UNL     1     -44.224  37.816  29.672  1.00  0.00     0.088 H 
ATOM     38  F   UNL     1     -47.268  38.733  28.758  1.00  0.00    -0.239 F 
ATOM     39  H   UNL     1     -46.388  38.549  30.544  1.00  0.00     0.074 H 
BRANCH  32  40
ATOM     40  O   UNL     1     -46.140  35.981  30.702  1.00  0.00    -0.387 OA
ATOM     41  H   UNL     1     -46.795  35.368  31.084  1.00  0.00     0.211 HD
ENDBRANCH  32  40
BRANCH  34  42
ATOM     42  N   UNL     1     -44.623  39.278  28.265  1.00  0.00    -0.302 N 
ATOM     43  C   UNL     1     -45.177  39.817  27.129  1.00  0.00     0.023 A 
ATOM     44  C   UNL     1     -43.622  40.103  28.722  1.00  0.00     0.148 A 
ATOM     45  C   UNL     1     -44.513  40.992  26.871  1.00  0.00     0.049 A 
ATOM     46  H   UNL     1     -45.984  39.322  26.605  1.00  0.00     0.083 H 
ATOM     47  C   UNL     1     -43.524  41.193  27.865  1.00  0.00     0.075 A 
ATOM     48  N   UNL     1     -42.880  39.876  29.819  1.00  0.00    -0.218 NA
ATOM     49  Br  UNL     1     -44.867  42.145  25.432  1.00  0.00    -0.048 Br
ATOM     50  C   UNL     1     -42.543  42.147  28.180  1.00  0.00     0.137 A 
ATOM     51  C   UNL     1     -41.982  40.854  30.018  1.00  0.00     0.120 A 
ATOM     52  N   UNL     1     -41.781  41.960  29.277  1.00  0.00    -0.219 NA
ATOM     53  H   UNL     1     -41.339  40.744  30.886  1.00  0.00     0.106 H 
BRANCH  50  54
ATOM     54  N   UNL     1     -42.305  43.295  27.441  1.00  0.00    -0.383 N 
ATOM     55  H   UNL     1     -43.049  43.570  26.813  1.00  0.00     0.158 HD
ATOM     56  H   UNL     1     -41.888  44.022  28.009  1.00  0.00     0.158 HD
ENDBRANCH  50  54
ENDBRANCH  34  42
ENDBRANCH   1  30
TORSDOF 8
ENDMDL
MODEL 2
REMARK VINA RESULT:      -9.7      1.269      2.023
REMARK SMILES Nc1cc(C2CC2)nc2cc(OC[C@H]3O[C@@H](n4cc(Br)c5c(N)ncnc54)[C@@H](F)[C@@H]3O)ccc12
REMARK SMILES IDX 13 1 12 4 11 5 2 6 3 7 34 8 4 9 9 11 33 12 8 13 10 14 32 15
REMARK SMILES IDX 1 19 5 22 6 23 7 24 14 30 15 31 30 32 16 34 28 35 29 38
REMARK SMILES IDX 31 40 17 42 18 43 27 44 19 45 21 47 26 48 20 49 22 50 25 51
REMARK SMILES IDX 24 52 23 54
REMARK H PARENT 13 2 13 3 3 10 33 16 10 17 32 18 1 20 1 21 5 25 6 26 6 27 7 28
REMARK H PARENT 7 29 14 33 30 36 16 37 28 39 31 41 18 46 25 53 23 55 23 56
REMARK Flexibility Score: inf
ROOT
ATOM      1  C   UNL     1     -46.454  35.745  27.146  1.00  0.00     0.117 C 
ATOM      2  H   UNL     1     -47.450  35.318  27.309  1.00  0.00     0.073 H 
ATOM      3  H   UNL     1     -46.656  36.707  26.660  1.00  0.00     0.073 H 
ENDROOT
BRANCH   1   4
ATOM      4  O   UNL     1     -45.752  34.839  26.294  1.00  0.00    -0.491 OA
BRANCH   4   5
ATOM      5  C   UNL     1     -46.367  33.682  25.912  1.00  0.00     0.121 A 
ATOM      6  C   UNL     1     -48.321  30.028  25.051  1.00  0.00     0.043 A 
ATOM      7  C   UNL     1     -48.358  29.635  23.714  1.00  0.00    -0.017 A 
ATOM      8  C   UNL     1     -47.668  31.233  25.391  1.00  0.00     0.023 A 
ATOM      9  C   UNL     1     -47.843  30.463  22.725  1.00  0.00     0.046 A 
ATOM     10  H   UNL     1     -48.814  28.687  23.439  1.00  0.00     0.066 H 
ATOM     11  C   UNL     1     -47.174  32.017  24.329  1.00  0.00     0.076 A 
ATOM     12  C   UNL     1     -47.483  31.694  26.713  1.00  0.00    -0.047 A 
ATOM     13  N   UNL     1     -47.269  31.647  23.043  1.00  0.00    -0.252 NA
ATOM     14  C   UNL     1     -46.542  33.225  24.606  1.00  0.00     0.007 A 
ATOM     15  C   UNL     1     -46.838  32.906  26.965  1.00  0.00    -0.019 A 
ATOM     16  H   UNL     1     -47.839  31.121  27.564  1.00  0.00     0.063 H 
ATOM     17  H   UNL     1     -46.188  33.792  23.751  1.00  0.00     0.069 H 
ATOM     18  H   UNL     1     -46.711  33.247  27.989  1.00  0.00     0.066 H 
BRANCH   6  19
ATOM     19  N   UNL     1     -48.765  29.092  26.013  1.00  0.00    -0.398 N 
ATOM     20  H   UNL     1     -48.050  28.387  26.187  1.00  0.00     0.156 HD
ATOM     21  H   UNL     1     -49.047  29.520  26.888  1.00  0.00     0.156 HD
ENDBRANCH   6  19
BRANCH   9  22
ATOM     22  C   UNL     1     -47.921  30.067  21.269  1.00  0.00     0.001 C 
ATOM     23  C   UNL     1     -49.148  29.355  20.746  1.00  0.00    -0.044 C 
ATOM     24  C   UNL     1     -48.884  30.773  20.340  1.00  0.00    -0.044 C 
ATOM     25  H   UNL     1     -46.976  29.750  20.835  1.00  0.00     0.037 H 
ATOM     26  H   UNL     1     -48.999  28.573  20.010  1.00  0.00     0.027 H 
ATOM     27  H   UNL     1     -49.965  29.163  21.433  1.00  0.00     0.027 H 
ATOM     28  H   UNL     1     -48.558  30.959  19.323  1.00  0.00     0.027 H 
ATOM     29  H   UNL     1     -49.536  31.539  20.744  1.00  0.00     0.027 H 
ENDBRANCH   9  22
ENDBRANCH   4   5
ENDBRANCH   1   4
BRANCH   1  30
ATOM     30  C   UNL     1     -45.742  35.920  28.495  1.00  0.00     0.123 C 
ATOM     31  O   UNL     1     -44.670  36.872  28.332  1.00  0.00    -0.345 OA
ATOM     32  C   UNL     1     -46.660  36.451  29.601  1.00  0.00     0.119 C 
ATOM     33  H   UNL     1     -45.290  34.971  28.805  1.00  0.00     0.067 H 
ATOM     34  C   UNL     1     -44.991  38.037  29.131  1.00  0.00     0.169 C 
ATOM     35  C   UNL     1     -46.465  37.945  29.496  1.00  0.00     0.173 C 
ATOM     36  H   UNL     1     -47.706  36.150  29.486  1.00  0.00     0.066 H 
ATOM     37  H   UNL     1     -44.353  37.983  30.022  1.00  0.00     0.088 H 
ATOM     38  F   UNL     1     -47.249  38.408  28.482  1.00  0.00    -0.239 F 
ATOM     39  H   UNL     1     -46.712  38.500  30.406  1.00  0.00     0.074 H 
BRANCH  32  40
ATOM     40  O   UNL     1     -46.212  36.010  30.889  1.00  0.00    -0.387 OA
ATOM     41  H   UNL     1     -46.391  36.729  31.523  1.00  0.00     0.211 HD
ENDBRANCH  32  40
BRANCH  34  42
ATOM     42  N   UNL     1     -44.638  39.251  28.413  1.00  0.00    -0.302 N 
ATOM     43  C   UNL     1     -45.247  39.765  27.295  1.00  0.00     0.023 A 
ATOM     44  C   UNL     1     -43.602  40.075  28.790  1.00  0.00     0.148 A 
ATOM     45  C   UNL     1     -44.584  40.923  26.966  1.00  0.00     0.049 A 
ATOM     46  H   UNL     1     -46.088  39.268  26.831  1.00  0.00     0.083 H 
ATOM     47  C   UNL     1     -43.539  41.139  27.898  1.00  0.00     0.075 A 
ATOM     48  N   UNL     1     -42.803  39.868  29.851  1.00  0.00    -0.218 NA
ATOM     49  Br  UNL     1     -45.003  42.040  25.517  1.00  0.00    -0.048 Br
ATOM     50  C   UNL     1     -42.530  42.087  28.131  1.00  0.00     0.137 A 
ATOM     51  C   UNL     1     -41.884  40.839  29.971  1.00  0.00     0.120 A 
ATOM     52  N   UNL     1     -41.711  41.921  29.189  1.00  0.00    -0.219 NA
ATOM     53  H   UNL     1     -41.195  40.744  30.805  1.00  0.00     0.106 H 
BRANCH  50  54
ATOM     54  N   UNL     1     -42.319  43.210  27.348  1.00  0.00    -0.383 N 
ATOM     55  H   UNL     1     -42.991  43.957  27.468  1.00  0.00     0.158 HD
ATOM     56  H   UNL     1     -41.341  43.470  27.325  1.00  0.00     0.158 HD
ENDBRANCH  50  54
ENDBRANCH  34  42
ENDBRANCH   1  30
TORSDOF 8
ENDMDL
MODEL 3
REMARK VINA RESULT:      -9.7      3.079     10.357
REMARK SMILES Nc1cc(C2CC2)nc2cc(OC[C@H]3O[C@@H](n4cc(Br)c5c(N)ncnc54)[C@@H](F)[C@@H]3O)ccc12
REMARK SMILES IDX 13 1 12 4 11 5 2 6 3 7 34 8 4 9 9 11 33 12 8 13 10 14 32 15
REMARK SMILES IDX 1 19 5 22 6 23 7 24 14 30 15 31 30 32 16 34 28 35 29 38
REMARK SMILES IDX 31 40 17 42 18 43 27 44 19 45 21 47 26 48 20 49 22 50 25 51
REMARK SMILES IDX 24 52 23 54
REMARK H PARENT 13 2 13 3 3 10 33 16 10 17 32 18 1 20 1 21 5 25 6 26 6 27 7 28
REMARK H PARENT 7 29 14 33 30 36 16 37 28 39 31 41 18 46 25 53 23 55 23 56
REMARK Flexibility Score: inf
ROOT
ATOM      1  C   UNL     1     -48.023  36.122  26.877  1.00  0.00     0.117 C 
ATOM      2  H   UNL     1     -47.441  36.434  26.002  1.00  0.00     0.073 H 
ATOM      3  H   UNL     1     -49.010  35.880  26.465  1.00  0.00     0.073 H 
ENDROOT
BRANCH   1   4
ATOM      4  O   UNL     1     -48.061  37.241  27.764  1.00  0.00    -0.491 OA
BRANCH   4   5
ATOM      5  C   UNL     1     -46.959  38.039  27.868  1.00  0.00     0.121 A 
ATOM      6  C   UNL     1     -43.479  40.367  28.485  1.00  0.00     0.043 A 
ATOM      7  C   UNL     1     -43.214  41.363  27.545  1.00  0.00    -0.017 A 
ATOM      8  C   UNL     1     -44.636  39.573  28.330  1.00  0.00     0.023 A 
ATOM      9  C   UNL     1     -44.027  41.508  26.428  1.00  0.00     0.046 A 
ATOM     10  H   UNL     1     -42.355  42.016  27.674  1.00  0.00     0.066 H 
ATOM     11  C   UNL     1     -45.407  39.779  27.168  1.00  0.00     0.076 A 
ATOM     12  C   UNL     1     -45.062  38.595  29.257  1.00  0.00    -0.047 A 
ATOM     13  N   UNL     1     -45.104  40.707  26.248  1.00  0.00    -0.252 NA
ATOM     14  C   UNL     1     -46.544  39.008  26.955  1.00  0.00     0.007 A 
ATOM     15  C   UNL     1     -46.212  37.841  29.024  1.00  0.00    -0.019 A 
ATOM     16  H   UNL     1     -44.506  38.406  30.170  1.00  0.00     0.063 H 
ATOM     17  H   UNL     1     -47.096  39.204  26.042  1.00  0.00     0.069 H 
ATOM     18  H   UNL     1     -46.520  37.089  29.747  1.00  0.00     0.066 H 
BRANCH   6  19
ATOM     19  N   UNL     1     -42.677  40.346  29.648  1.00  0.00    -0.398 N 
ATOM     20  H   UNL     1     -43.168  39.892  30.416  1.00  0.00     0.156 HD
ATOM     21  H   UNL     1     -41.776  39.902  29.506  1.00  0.00     0.156 HD
ENDBRANCH   6  19
BRANCH   9  22
ATOM     22  C   UNL     1     -43.722  42.553  25.382  1.00  0.00     0.001 C 
ATOM     23  C   UNL     1     -44.837  43.122  24.535  1.00  0.00    -0.044 C 
ATOM     24  C   UNL     1     -44.184  43.980  25.575  1.00  0.00    -0.044 C 
ATOM     25  H   UNL     1     -42.771  42.418  24.873  1.00  0.00     0.037 H 
ATOM     26  H   UNL     1     -44.623  43.325  23.492  1.00  0.00     0.027 H 
ATOM     27  H   UNL     1     -45.850  42.777  24.717  1.00  0.00     0.027 H 
ATOM     28  H   UNL     1     -43.526  44.773  25.240  1.00  0.00     0.027 H 
ATOM     29  H   UNL     1     -44.766  44.228  26.456  1.00  0.00     0.027 H 
ENDBRANCH   9  22
ENDBRANCH   4   5
ENDBRANCH   1   4
BRANCH   1  30
ATOM     30  C   UNL     1     -47.358  34.904  27.531  1.00  0.00     0.123 C 
ATOM     31  O   UNL     1     -48.132  33.728  27.212  1.00  0.00    -0.345 OA
ATOM     32  C   UNL     1     -45.928  34.656  27.039  1.00  0.00     0.119 C 
ATOM     33  H   UNL     1     -47.367  35.013  28.621  1.00  0.00     0.067 H 
ATOM     34  C   UNL     1     -47.308  32.869  26.386  1.00  0.00     0.169 C 
ATOM     35  C   UNL     1     -46.141  33.708  25.884  1.00  0.00     0.173 C 
ATOM     36  H   UNL     1     -45.400  35.569  26.747  1.00  0.00     0.066 H 
ATOM     37  H   UNL     1     -46.966  32.054  27.035  1.00  0.00     0.088 H 
ATOM     38  F   UNL     1     -46.500  34.438  24.791  1.00  0.00    -0.239 F 
ATOM     39  H   UNL     1     -45.267  33.104  25.624  1.00  0.00     0.074 H 
BRANCH  32  40
ATOM     40  O   UNL     1     -45.150  33.997  28.047  1.00  0.00    -0.387 OA
ATOM     41  H   UNL     1     -45.238  33.037  27.903  1.00  0.00     0.211 HD
ENDBRANCH  32  40
BRANCH  34  42
ATOM     42  N   UNL     1     -48.107  32.278  25.325  1.00  0.00    -0.302 N 
ATOM     43  C   UNL     1     -49.473  32.319  25.188  1.00  0.00     0.023 A 
ATOM     44  C   UNL     1     -47.563  31.578  24.273  1.00  0.00     0.148 A 
ATOM     45  C   UNL     1     -49.788  31.634  24.039  1.00  0.00     0.049 A 
ATOM     46  H   UNL     1     -50.099  32.823  25.913  1.00  0.00     0.083 H 
ATOM     47  C   UNL     1     -48.595  31.154  23.444  1.00  0.00     0.075 A 
ATOM     48  N   UNL     1     -46.249  31.356  24.096  1.00  0.00    -0.218 NA
ATOM     49  Br  UNL     1     -51.522  31.380  23.367  1.00  0.00    -0.048 Br
ATOM     50  C   UNL     1     -48.221  30.416  22.311  1.00  0.00     0.137 A 
ATOM     51  C   UNL     1     -46.016  30.645  22.981  1.00  0.00     0.120 A 
ATOM     52  N   UNL     1     -46.911  30.177  22.092  1.00  0.00    -0.219 NA
ATOM     53  H   UNL     1     -44.975  30.420  22.767  1.00  0.00     0.106 H 
BRANCH  50  54
ATOM     54  N   UNL     1     -49.112  29.916  21.375  1.00  0.00    -0.383 N 
ATOM     55  H   UNL     1     -49.259  28.915  21.406  1.00  0.00     0.158 HD
ATOM     56  H   UNL     1     -49.934  30.501  21.295  1.00  0.00     0.158 HD
ENDBRANCH  50  54
ENDBRANCH  34  42
ENDBRANCH   1  30
TORSDOF 8
ENDMDL
MODEL 4
REMARK VINA RESULT:      -9.2      3.228     10.933
REMARK SMILES Nc1cc(C2CC2)nc2cc(OC[C@H]3O[C@@H](n4cc(Br)c5c(N)ncnc54)[C@@H](F)[C@@H]3O)ccc12
REMARK SMILES IDX 13 1 12 4 11 5 2 6 3 7 34 8 4 9 9 11 33 12 8 13 10 14 32 15
REMARK SMILES IDX 1 19 5 22 6 23 7 24 14 30 15 31 30 32 16 34 28 35 29 38
REMARK SMILES IDX 31 40 17 42 18 43 27 44 19 45 21 47 26 48 20 49 22 50 25 51
REMARK SMILES IDX 24 52 23 54
REMARK H PARENT 13 2 13 3 3 10 33 16 10 17 32 18 1 20 1 21 5 25 6 26 6 27 7 28
REMARK H PARENT 7 29 14 33 30 36 16 37 28 39 31 41 18 46 25 53 23 55 23 56
REMARK Flexibility Score: inf
ROOT
ATOM      1  C   UNL     1     -48.087  34.925  26.220  1.00  0.00     0.117 C 
ATOM      2  H   UNL     1     -47.174  35.207  25.683  1.00  0.00     0.073 H 
ATOM      3  H   UNL     1     -48.835  34.809  25.427  1.00  0.00     0.073 H 
ENDROOT
BRANCH   1   4
ATOM      4  O   UNL     1     -48.392  36.004  27.105  1.00  0.00    -0.491 OA
BRANCH   4   5
ATOM      5  C   UNL     1     -47.372  36.776  27.582  1.00  0.00     0.121 A 
ATOM      6  C   UNL     1     -44.206  38.971  29.333  1.00  0.00     0.043 A 
ATOM      7  C   UNL     1     -43.787  40.118  28.659  1.00  0.00    -0.017 A 
ATOM      8  C   UNL     1     -45.269  38.212  28.796  1.00  0.00     0.023 A 
ATOM      9  C   UNL     1     -44.347  40.453  27.432  1.00  0.00     0.046 A 
ATOM     10  H   UNL     1     -43.004  40.741  29.081  1.00  0.00     0.066 H 
ATOM     11  C   UNL     1     -45.780  38.617  27.546  1.00  0.00     0.076 A 
ATOM     12  C   UNL     1     -45.843  37.086  29.427  1.00  0.00    -0.047 A 
ATOM     13  N   UNL     1     -45.326  39.693  26.886  1.00  0.00    -0.252 NA
ATOM     14  C   UNL     1     -46.812  37.891  26.961  1.00  0.00     0.007 A 
ATOM     15  C   UNL     1     -46.883  36.380  28.822  1.00  0.00    -0.019 A 
ATOM     16  H   UNL     1     -45.488  36.741  30.393  1.00  0.00     0.063 H 
ATOM     17  H   UNL     1     -47.162  38.242  25.996  1.00  0.00     0.069 H 
ATOM     18  H   UNL     1     -47.308  35.512  29.321  1.00  0.00     0.066 H 
BRANCH   6  19
ATOM     19  N   UNL     1     -43.672  38.748  30.623  1.00  0.00    -0.398 N 
ATOM     20  H   UNL     1     -43.403  37.772  30.738  1.00  0.00     0.156 HD
ATOM     21  H   UNL     1     -42.886  39.350  30.840  1.00  0.00     0.156 HD
ENDBRANCH   6  19
BRANCH   9  22
ATOM     22  C   UNL     1     -43.867  41.667  26.672  1.00  0.00     0.001 C 
ATOM     23  C   UNL     1     -43.169  42.790  27.406  1.00  0.00    -0.044 C 
ATOM     24  C   UNL     1     -42.386  41.908  26.480  1.00  0.00    -0.044 C 
ATOM     25  H   UNL     1     -44.516  41.975  25.856  1.00  0.00     0.037 H 
ATOM     26  H   UNL     1     -43.382  43.805  27.091  1.00  0.00     0.027 H 
ATOM     27  H   UNL     1     -43.006  42.685  28.473  1.00  0.00     0.027 H 
ATOM     28  H   UNL     1     -42.061  42.325  25.534  1.00  0.00     0.027 H 
ATOM     29  H   UNL     1     -41.681  41.216  26.926  1.00  0.00     0.027 H 
ENDBRANCH   9  22
ENDBRANCH   4   5
ENDBRANCH   1   4
BRANCH   1  30
ATOM     30  C   UNL     1     -47.851  33.616  26.985  1.00  0.00     0.123 C 
ATOM     31  O   UNL     1     -48.911  32.693  26.659  1.00  0.00    -0.345 OA
ATOM     32  C   UNL     1     -46.526  32.935  26.627  1.00  0.00     0.119 C 
ATOM     33  H   UNL     1     -47.900  33.799  28.064  1.00  0.00     0.067 H 
ATOM     34  C   UNL     1     -48.321  31.578  25.946  1.00  0.00     0.169 C 
ATOM     35  C   UNL     1     -46.929  32.009  25.504  1.00  0.00     0.173 C 
ATOM     36  H   UNL     1     -45.736  33.635  26.337  1.00  0.00     0.066 H 
ATOM     37  H   UNL     1     -48.275  30.746  26.660  1.00  0.00     0.088 H 
ATOM     38  F   UNL     1     -46.986  32.733  24.351  1.00  0.00    -0.239 F 
ATOM     39  H   UNL     1     -46.254  31.163  25.348  1.00  0.00     0.074 H 
BRANCH  32  40
ATOM     40  O   UNL     1     -46.042  32.153  27.727  1.00  0.00    -0.387 OA
ATOM     41  H   UNL     1     -46.660  31.409  27.851  1.00  0.00     0.211 HD
ENDBRANCH  32  40
BRANCH  34  42
ATOM     42  N   UNL     1     -49.185  31.168  24.851  1.00  0.00    -0.302 N 
ATOM     43  C   UNL     1     -50.127  31.929  24.203  1.00  0.00     0.023 A 
ATOM     44  C   UNL     1     -49.158  29.908  24.302  1.00  0.00     0.148 A 
ATOM     45  C   UNL     1     -50.697  31.135  23.237  1.00  0.00     0.049 A 
ATOM     46  H   UNL     1     -50.311  32.958  24.482  1.00  0.00     0.083 H 
ATOM     47  C   UNL     1     -50.101  29.851  23.282  1.00  0.00     0.075 A 
ATOM     48  N   UNL     1     -48.343  28.915  24.697  1.00  0.00    -0.218 NA
ATOM     49  Br  UNL     1     -52.047  31.672  22.049  1.00  0.00    -0.048 Br
ATOM     50  C   UNL     1     -50.213  28.627  22.605  1.00  0.00     0.137 A 
ATOM     51  C   UNL     1     -48.540  27.799  23.976  1.00  0.00     0.120 A 
ATOM     52  N   UNL     1     -49.409  27.606  22.966  1.00  0.00    -0.219 NA
ATOM     53  H   UNL     1     -47.921  26.946  24.236  1.00  0.00     0.106 H 
BRANCH  50  54
ATOM     54  N   UNL     1     -51.095  28.389  21.563  1.00  0.00    -0.383 N 
ATOM     55  H   UNL     1     -52.070  28.330  21.824  1.00  0.00     0.158 HD
ATOM     56  H   UNL     1     -50.868  28.947  20.749  1.00  0.00     0.158 HD
ENDBRANCH  50  54
ENDBRANCH  34  42
ENDBRANCH   1  30
TORSDOF 8
ENDMDL
MODEL 5
REMARK VINA RESULT:      -9.2      1.823      2.252
REMARK SMILES Nc1cc(C2CC2)nc2cc(OC[C@H]3O[C@@H](n4cc(Br)c5c(N)ncnc54)[C@@H](F)[C@@H]3O)ccc12
REMARK SMILES IDX 13 1 12 4 11 5 2 6 3 7 34 8 4 9 9 11 33 12 8 13 10 14 32 15
REMARK SMILES IDX 1 19 5 22 6 23 7 24 14 30 15 31 30 32 16 34 28 35 29 38
REMARK SMILES IDX 31 40 17 42 18 43 27 44 19 45 21 47 26 48 20 49 22 50 25 51
REMARK SMILES IDX 24 52 23 54
REMARK H PARENT 13 2 13 3 3 10 33 16 10 17 32 18 1 20 1 21 5 25 6 26 6 27 7 28
REMARK H PARENT 7 29 14 33 30 36 16 37 28 39 31 41 18 46 25 53 23 55 23 56
REMARK Flexibility Score: inf
ROOT
ATOM      1  C   UNL     1     -46.338  35.177  26.546  1.00  0.00     0.117 C 
ATOM      2  H   UNL     1     -46.761  36.022  25.990  1.00  0.00     0.073 H 
ATOM      3  H   UNL     1     -45.538  34.806  25.895  1.00  0.00     0.073 H 
ENDROOT
BRANCH   1   4
ATOM      4  O   UNL     1     -47.391  34.227  26.712  1.00  0.00    -0.491 OA
BRANCH   4   5
ATOM      5  C   UNL     1     -47.395  33.103  25.937  1.00  0.00     0.121 A 
ATOM      6  C   UNL     1     -47.160  29.759  23.355  1.00  0.00     0.043 A 
ATOM      7  C   UNL     1     -48.110  28.754  23.538  1.00  0.00    -0.017 A 
ATOM      8  C   UNL     1     -47.205  30.902  24.183  1.00  0.00     0.023 A 
ATOM      9  C   UNL     1     -49.026  28.838  24.579  1.00  0.00     0.046 A 
ATOM     10  H   UNL     1     -48.121  27.890  22.880  1.00  0.00     0.066 H 
ATOM     11  C   UNL     1     -48.163  30.908  25.218  1.00  0.00     0.076 A 
ATOM     12  C   UNL     1     -46.359  32.024  24.039  1.00  0.00    -0.047 A 
ATOM     13  N   UNL     1     -49.033  29.906  25.412  1.00  0.00    -0.252 NA
ATOM     14  C   UNL     1     -48.235  31.999  26.076  1.00  0.00     0.007 A 
ATOM     15  C   UNL     1     -46.458  33.110  24.909  1.00  0.00    -0.019 A 
ATOM     16  H   UNL     1     -45.612  32.069  23.253  1.00  0.00     0.063 H 
ATOM     17  H   UNL     1     -48.985  31.949  26.859  1.00  0.00     0.069 H 
ATOM     18  H   UNL     1     -45.795  33.963  24.786  1.00  0.00     0.066 H 
BRANCH   6  19
ATOM     19  N   UNL     1     -46.330  29.663  22.215  1.00  0.00    -0.398 N 
ATOM     20  H   UNL     1     -45.552  29.027  22.388  1.00  0.00     0.156 HD
ATOM     21  H   UNL     1     -46.828  29.378  21.379  1.00  0.00     0.156 HD
ENDBRANCH   6  19
BRANCH   9  22
ATOM     22  C   UNL     1     -50.029  27.733  24.815  1.00  0.00     0.001 C 
ATOM     23  C   UNL     1     -49.573  26.291  24.829  1.00  0.00    -0.044 C 
ATOM     24  C   UNL     1     -50.003  26.946  26.106  1.00  0.00    -0.044 C 
ATOM     25  H   UNL     1     -51.007  27.909  24.376  1.00  0.00     0.037 H 
ATOM     26  H   UNL     1     -50.229  25.553  24.383  1.00  0.00     0.027 H 
ATOM     27  H   UNL     1     -48.517  26.083  24.690  1.00  0.00     0.027 H 
ATOM     28  H   UNL     1     -50.953  26.649  26.535  1.00  0.00     0.027 H 
ATOM     29  H   UNL     1     -49.235  27.165  26.839  1.00  0.00     0.027 H 
ENDBRANCH   9  22
ENDBRANCH   4   5
ENDBRANCH   1   4
BRANCH   1  30
ATOM     30  C   UNL     1     -45.801  35.668  27.897  1.00  0.00     0.123 C 
ATOM     31  O   UNL     1     -45.440  37.060  27.773  1.00  0.00    -0.345 OA
ATOM     32  C   UNL     1     -46.824  35.561  29.033  1.00  0.00     0.119 C 
ATOM     33  H   UNL     1     -44.890  35.118  28.159  1.00  0.00     0.067 H 
ATOM     34  C   UNL     1     -46.326  37.823  28.629  1.00  0.00     0.169 C 
ATOM     35  C   UNL     1     -47.492  36.915  28.998  1.00  0.00     0.173 C 
ATOM     36  H   UNL     1     -47.532  34.736  28.910  1.00  0.00     0.066 H 
ATOM     37  H   UNL     1     -45.738  38.099  29.513  1.00  0.00     0.088 H 
ATOM     38  F   UNL     1     -48.432  36.903  28.011  1.00  0.00    -0.239 F 
ATOM     39  H   UNL     1     -47.976  37.207  29.934  1.00  0.00     0.074 H 
BRANCH  32  40
ATOM     40  O   UNL     1     -46.167  35.396  30.296  1.00  0.00    -0.387 OA
ATOM     41  H   UNL     1     -46.146  36.269  30.731  1.00  0.00     0.211 HD
ENDBRANCH  32  40
BRANCH  34  42
ATOM     42  N   UNL     1     -46.726  39.053  27.967  1.00  0.00    -0.302 N 
ATOM     43  C   UNL     1     -47.994  39.572  27.864  1.00  0.00     0.023 A 
ATOM     44  C   UNL     1     -45.836  39.893  27.337  1.00  0.00     0.148 A 
ATOM     45  C   UNL     1     -47.897  40.748  27.160  1.00  0.00     0.049 A 
ATOM     46  H   UNL     1     -48.848  39.064  28.293  1.00  0.00     0.083 H 
ATOM     47  C   UNL     1     -46.541  40.971  26.815  1.00  0.00     0.075 A 
ATOM     48  N   UNL     1     -44.510  39.687  27.258  1.00  0.00    -0.218 NA
ATOM     49  Br  UNL     1     -49.333  41.877  26.730  1.00  0.00    -0.048 Br
ATOM     50  C   UNL     1     -45.786  41.936  26.131  1.00  0.00     0.137 A 
ATOM     51  C   UNL     1     -43.898  40.675  26.585  1.00  0.00     0.120 A 
ATOM     52  N   UNL     1     -44.451  41.771  26.034  1.00  0.00    -0.219 NA
ATOM     53  H   UNL     1     -42.822  40.581  26.474  1.00  0.00     0.106 H 
BRANCH  50  54
ATOM     54  N   UNL     1     -46.318  43.075  25.548  1.00  0.00    -0.383 N 
ATOM     55  H   UNL     1     -47.279  42.997  25.241  1.00  0.00     0.158 HD
ATOM     56  H   UNL     1     -46.064  43.909  26.062  1.00  0.00     0.158 HD
ENDBRANCH  50  54
ENDBRANCH  34  42
ENDBRANCH   1  30
TORSDOF 8
ENDMDL
MODEL 6
REMARK VINA RESULT:      -9.1      1.395      2.114
REMARK SMILES Nc1cc(C2CC2)nc2cc(OC[C@H]3O[C@@H](n4cc(Br)c5c(N)ncnc54)[C@@H](F)[C@@H]3O)ccc12
REMARK SMILES IDX 13 1 12 4 11 5 2 6 3 7 34 8 4 9 9 11 33 12 8 13 10 14 32 15
REMARK SMILES IDX 1 19 5 22 6 23 7 24 14 30 15 31 30 32 16 34 28 35 29 38
REMARK SMILES IDX 31 40 17 42 18 43 27 44 19 45 21 47 26 48 20 49 22 50 25 51
REMARK SMILES IDX 24 52 23 54
REMARK H PARENT 13 2 13 3 3 10 33 16 10 17 32 18 1 20 1 21 5 25 6 26 6 27 7 28
REMARK H PARENT 7 29 14 33 30 36 16 37 28 39 31 41 18 46 25 53 23 55 23 56
REMARK Flexibility Score: inf
ROOT
ATOM      1  C   UNL     1     -47.072  36.446  27.169  1.00  0.00     0.117 C 
ATOM      2  H   UNL     1     -47.549  37.402  27.413  1.00  0.00     0.073 H 
ATOM      3  H   UNL     1     -46.523  36.653  26.243  1.00  0.00     0.073 H 
ENDROOT
BRANCH   1   4
ATOM      4  O   UNL     1     -48.124  35.499  26.980  1.00  0.00    -0.491 OA
BRANCH   4   5
ATOM      5  C   UNL     1     -47.875  34.372  26.252  1.00  0.00     0.121 A 
ATOM      6  C   UNL     1     -46.795  30.996  23.939  1.00  0.00     0.043 A 
ATOM      7  C   UNL     1     -47.800  30.067  23.674  1.00  0.00    -0.017 A 
ATOM      8  C   UNL     1     -47.109  32.147  24.695  1.00  0.00     0.023 A 
ATOM      9  C   UNL     1     -49.065  30.227  24.225  1.00  0.00     0.046 A 
ATOM     10  H   UNL     1     -47.590  29.200  23.054  1.00  0.00     0.066 H 
ATOM     11  C   UNL     1     -48.414  32.233  25.221  1.00  0.00     0.076 A 
ATOM     12  C   UNL     1     -46.206  33.203  24.953  1.00  0.00    -0.047 A 
ATOM     13  N   UNL     1     -49.353  31.300  25.000  1.00  0.00    -0.252 NA
ATOM     14  C   UNL     1     -48.770  33.334  25.992  1.00  0.00     0.007 A 
ATOM     15  C   UNL     1     -46.591  34.301  25.723  1.00  0.00    -0.019 A 
ATOM     16  H   UNL     1     -45.193  33.185  24.563  1.00  0.00     0.063 H 
ATOM     17  H   UNL     1     -49.784  33.346  26.377  1.00  0.00     0.069 H 
ATOM     18  H   UNL     1     -45.880  35.100  25.916  1.00  0.00     0.066 H 
BRANCH   6  19
ATOM     19  N   UNL     1     -45.566  30.829  23.261  1.00  0.00    -0.398 N 
ATOM     20  H   UNL     1     -44.787  31.116  23.851  1.00  0.00     0.156 HD
ATOM     21  H   UNL     1     -45.416  29.883  22.929  1.00  0.00     0.156 HD
ENDBRANCH   6  19
BRANCH   9  22
ATOM     22  C   UNL     1     -50.148  29.201  23.984  1.00  0.00     0.001 C 
ATOM     23  C   UNL     1     -51.577  29.648  23.771  1.00  0.00    -0.044 C 
ATOM     24  C   UNL     1     -50.796  29.087  22.622  1.00  0.00    -0.044 C 
ATOM     25  H   UNL     1     -50.025  28.276  24.540  1.00  0.00     0.037 H 
ATOM     26  H   UNL     1     -52.362  29.040  24.205  1.00  0.00     0.027 H 
ATOM     27  H   UNL     1     -51.790  30.712  23.775  1.00  0.00     0.027 H 
ATOM     28  H   UNL     1     -51.053  28.096  22.267  1.00  0.00     0.027 H 
ATOM     29  H   UNL     1     -50.496  29.774  21.839  1.00  0.00     0.027 H 
ENDBRANCH   9  22
ENDBRANCH   4   5
ENDBRANCH   1   4
BRANCH   1  30
ATOM     30  C   UNL     1     -46.136  36.031  28.313  1.00  0.00     0.123 C 
ATOM     31  O   UNL     1     -44.903  36.772  28.192  1.00  0.00    -0.345 OA
ATOM     32  C   UNL     1     -46.711  36.324  29.703  1.00  0.00     0.119 C 
ATOM     33  H   UNL     1     -45.887  34.968  28.226  1.00  0.00     0.067 H 
ATOM     34  C   UNL     1     -44.799  37.644  29.345  1.00  0.00     0.169 C 
ATOM     35  C   UNL     1     -46.175  37.706  29.992  1.00  0.00     0.173 C 
ATOM     36  H   UNL     1     -47.803  36.274  29.747  1.00  0.00     0.066 H 
ATOM     37  H   UNL     1     -44.062  37.183  30.013  1.00  0.00     0.088 H 
ATOM     38  F   UNL     1     -46.971  38.614  29.360  1.00  0.00    -0.239 F 
ATOM     39  H   UNL     1     -46.132  37.965  31.054  1.00  0.00     0.074 H 
BRANCH  32  40
ATOM     40  O   UNL     1     -46.186  35.408  30.673  1.00  0.00    -0.387 OA
ATOM     41  H   UNL     1     -46.890  34.766  30.881  1.00  0.00     0.211 HD
ENDBRANCH  32  40
BRANCH  34  42
ATOM     42  N   UNL     1     -44.277  38.941  28.946  1.00  0.00    -0.302 N 
ATOM     43  C   UNL     1     -43.261  39.650  29.538  1.00  0.00     0.023 A 
ATOM     44  C   UNL     1     -44.759  39.647  27.868  1.00  0.00     0.148 A 
ATOM     45  C   UNL     1     -43.107  40.814  28.825  1.00  0.00     0.049 A 
ATOM     46  H   UNL     1     -42.742  39.272  30.410  1.00  0.00     0.083 H 
ATOM     47  C   UNL     1     -44.045  40.835  27.764  1.00  0.00     0.075 A 
ATOM     48  N   UNL     1     -45.752  39.235  27.061  1.00  0.00    -0.218 NA
ATOM     49  Br  UNL     1     -41.849  42.157  29.198  1.00  0.00    -0.048 Br
ATOM     50  C   UNL     1     -44.407  41.689  26.710  1.00  0.00     0.137 A 
ATOM     51  C   UNL     1     -46.005  40.131  26.094  1.00  0.00     0.120 A 
ATOM     52  N   UNL     1     -45.394  41.310  25.873  1.00  0.00    -0.219 NA
ATOM     53  H   UNL     1     -46.799  39.873  25.399  1.00  0.00     0.106 H 
BRANCH  50  54
ATOM     54  N   UNL     1     -43.804  42.909  26.453  1.00  0.00    -0.383 N 
ATOM     55  H   UNL     1     -43.963  43.287  25.528  1.00  0.00     0.158 HD
ATOM     56  H   UNL     1     -43.904  43.546  27.234  1.00  0.00     0.158 HD
ENDBRANCH  50  54
ENDBRANCH  34  42
ENDBRANCH   1  30
TORSDOF 8
ENDMDL
MODEL 7
REMARK VINA RESULT:      -9.1      3.136     10.527
REMARK SMILES Nc1cc(C2CC2)nc2cc(OC[C@H]3O[C@@H](n4cc(Br)c5c(N)ncnc54)[C@@H](F)[C@@H]3O)ccc12
REMARK SMILES IDX 13 1 12 4 11 5 2 6 3 7 34 8 4 9 9 11 33 12 8 13 10 14 32 15
REMARK SMILES IDX 1 19 5 22 6 23 7 24 14 30 15 31 30 32 16 34 28 35 29 38
REMARK SMILES IDX 31 40 17 42 18 43 27 44 19 45 21 47 26 48 20 49 22 50 25 51
REMARK SMILES IDX 24 52 23 54
REMARK H PARENT 13 2 13 3 3 10 33 16 10 17 32 18 1 20 1 21 5 25 6 26 6 27 7 28
REMARK H PARENT 7 29 14 33 30 36 16 37 28 39 31 41 18 46 25 53 23 55 23 56
REMARK Flexibility Score: inf
ROOT
ATOM      1  C   UNL     1     -47.975  35.344  26.848  1.00  0.00     0.117 C 
ATOM      2  H   UNL     1     -47.279  35.617  26.047  1.00  0.00     0.073 H 
ATOM      3  H   UNL     1     -48.956  35.349  26.357  1.00  0.00     0.073 H 
ENDROOT
BRANCH   1   4
ATOM      4  O   UNL     1     -47.863  36.353  27.852  1.00  0.00    -0.491 OA
BRANCH   4   5
ATOM      5  C   UNL     1     -47.079  37.444  27.607  1.00  0.00     0.121 A 
ATOM      6  C   UNL     1     -44.826  40.872  26.568  1.00  0.00     0.043 A 
ATOM      7  C   UNL     1     -43.735  41.178  27.382  1.00  0.00    -0.017 A 
ATOM      8  C   UNL     1     -45.601  39.730  26.866  1.00  0.00     0.023 A 
ATOM      9  C   UNL     1     -43.474  40.422  28.517  1.00  0.00     0.046 A 
ATOM     10  H   UNL     1     -43.099  42.025  27.140  1.00  0.00     0.066 H 
ATOM     11  C   UNL     1     -45.273  39.018  28.038  1.00  0.00     0.076 A 
ATOM     12  C   UNL     1     -46.672  39.263  26.070  1.00  0.00    -0.047 A 
ATOM     13  N   UNL     1     -44.252  39.361  28.838  1.00  0.00    -0.252 NA
ATOM     14  C   UNL     1     -46.018  37.899  28.389  1.00  0.00     0.007 A 
ATOM     15  C   UNL     1     -47.398  38.132  26.442  1.00  0.00    -0.019 A 
ATOM     16  H   UNL     1     -46.956  39.773  25.155  1.00  0.00     0.063 H 
ATOM     17  H   UNL     1     -45.727  37.393  29.305  1.00  0.00     0.069 H 
ATOM     18  H   UNL     1     -48.223  37.792  25.820  1.00  0.00     0.066 H 
BRANCH   6  19
ATOM     19  N   UNL     1     -44.970  41.614  25.374  1.00  0.00    -0.398 N 
ATOM     20  H   UNL     1     -45.889  41.459  24.962  1.00  0.00     0.156 HD
ATOM     21  H   UNL     1     -44.810  42.608  25.497  1.00  0.00     0.156 HD
ENDBRANCH   6  19
BRANCH   9  22
ATOM     22  C   UNL     1     -42.323  40.774  29.430  1.00  0.00     0.001 C 
ATOM     23  C   UNL     1     -41.029  41.295  28.846  1.00  0.00    -0.044 C 
ATOM     24  C   UNL     1     -41.918  42.219  29.621  1.00  0.00    -0.044 C 
ATOM     25  H   UNL     1     -42.217  40.125  30.296  1.00  0.00     0.037 H 
ATOM     26  H   UNL     1     -40.103  40.967  29.306  1.00  0.00     0.027 H 
ATOM     27  H   UNL     1     -40.964  41.426  27.771  1.00  0.00     0.027 H 
ATOM     28  H   UNL     1     -41.596  42.527  30.608  1.00  0.00     0.027 H 
ATOM     29  H   UNL     1     -42.444  42.988  29.066  1.00  0.00     0.027 H 
ENDBRANCH   9  22
ENDBRANCH   4   5
ENDBRANCH   1   4
BRANCH   1  30
ATOM     30  C   UNL     1     -47.612  33.958  27.396  1.00  0.00     0.123 C 
ATOM     31  O   UNL     1     -48.521  32.986  26.836  1.00  0.00    -0.345 OA
ATOM     32  C   UNL     1     -46.191  33.515  27.032  1.00  0.00     0.119 C 
ATOM     33  H   UNL     1     -47.745  33.938  28.483  1.00  0.00     0.067 H 
ATOM     34  C   UNL     1     -47.749  32.095  25.993  1.00  0.00     0.169 C 
ATOM     35  C   UNL     1     -46.404  32.762  25.741  1.00  0.00     0.173 C 
ATOM     36  H   UNL     1     -45.485  34.345  26.928  1.00  0.00     0.066 H 
ATOM     37  H   UNL     1     -47.635  31.162  26.557  1.00  0.00     0.088 H 
ATOM     38  F   UNL     1     -46.491  33.668  24.727  1.00  0.00    -0.239 F 
ATOM     39  H   UNL     1     -45.615  32.045  25.497  1.00  0.00     0.074 H 
BRANCH  32  40
ATOM     40  O   UNL     1     -45.671  32.613  28.018  1.00  0.00    -0.387 OA
ATOM     41  H   UNL     1     -46.386  32.431  28.655  1.00  0.00     0.211 HD
ENDBRANCH  32  40
BRANCH  34  42
ATOM     42  N   UNL     1     -48.489  31.787  24.780  1.00  0.00    -0.302 N 
ATOM     43  C   UNL     1     -49.775  32.159  24.470  1.00  0.00     0.023 A 
ATOM     44  C   UNL     1     -47.962  31.054  23.742  1.00  0.00     0.148 A 
ATOM     45  C   UNL     1     -50.056  31.650  23.224  1.00  0.00     0.049 A 
ATOM     46  H   UNL     1     -50.374  32.743  25.155  1.00  0.00     0.083 H 
ATOM     47  C   UNL     1     -48.924  30.946  22.745  1.00  0.00     0.075 A 
ATOM     48  N   UNL     1     -46.719  30.542  23.717  1.00  0.00    -0.218 NA
ATOM     49  Br  UNL     1     -51.680  31.862  22.307  1.00  0.00    -0.048 Br
ATOM     50  C   UNL     1     -48.556  30.223  21.600  1.00  0.00     0.137 A 
ATOM     51  C   UNL     1     -46.484  29.876  22.575  1.00  0.00     0.120 A 
ATOM     52  N   UNL     1     -47.315  29.698  21.531  1.00  0.00    -0.219 NA
ATOM     53  H   UNL     1     -45.500  29.428  22.477  1.00  0.00     0.106 H 
BRANCH  50  54
ATOM     54  N   UNL     1     -49.383  30.015  20.508  1.00  0.00    -0.383 N 
ATOM     55  H   UNL     1     -49.088  29.286  19.871  1.00  0.00     0.158 HD
ATOM     56  H   UNL     1     -50.360  30.029  20.774  1.00  0.00     0.158 HD
ENDBRANCH  50  54
ENDBRANCH  34  42
ENDBRANCH   1  30
TORSDOF 8
ENDMDL
