MODEL 1
REMARK VINA RESULT:     -10.0      0.000      0.000
REMARK SMILES CCNc1ccc2ccc(OCc3cncc(-n4cc(-c5ccn(C)n5)c5c(N)ncnc54)c3)cc2n1
REMARK SMILES IDX 12 1 11 4 10 5 4 6 5 7 37 8 6 9 36 11 7 12 35 14 8 15 9 17
REMARK SMILES IDX 3 20 2 22 1 25 13 29 14 30 34 31 15 32 17 34 16 36 18 38
REMARK SMILES IDX 19 39 33 40 20 41 27 43 32 44 28 45 31 46 30 47 21 49 22 50
REMARK SMILES IDX 26 51 23 52 24 54 25 56 29 60
REMARK H PARENT 12 2 12 3 5 10 6 13 35 16 8 18 9 19 3 21 2 23 2 24 1 26 1 27
REMARK H PARENT 1 28 14 33 34 35 16 37 19 42 31 48 22 53 23 55 25 57 25 58
REMARK H PARENT 25 59 29 61 29 62
REMARK Flexibility Score: inf
ROOT
ATOM      1  C   UNL     1     -47.123  34.425  25.846  1.00  0.00     0.115 C 
ATOM      2  H   UNL     1     -46.042  34.237  25.843  1.00  0.00     0.076 H 
ATOM      3  H   UNL     1     -47.391  34.559  24.790  1.00  0.00     0.076 H 
ENDROOT
BRANCH   1   4
ATOM      4  O   UNL     1     -47.742  33.266  26.423  1.00  0.00    -0.489 OA
BRANCH   4   5
ATOM      5  C   UNL     1     -47.719  32.155  25.623  1.00  0.00     0.122 A 
ATOM      6  C   UNL     1     -49.183  27.794  24.456  1.00  0.00     0.126 A 
ATOM      7  C   UNL     1     -48.286  27.716  23.401  1.00  0.00    -0.019 A 
ATOM      8  N   UNL     1     -49.269  28.877  25.252  1.00  0.00    -0.231 NA
ATOM      9  C   UNL     1     -47.462  28.804  23.136  1.00  0.00    -0.049 A 
ATOM     10  H   UNL     1     -48.206  26.816  22.803  1.00  0.00     0.066 H 
ATOM     11  C   UNL     1     -48.470  29.932  25.003  1.00  0.00     0.076 A 
ATOM     12  C   UNL     1     -47.544  29.944  23.940  1.00  0.00     0.001 A 
ATOM     13  H   UNL     1     -46.755  28.751  22.312  1.00  0.00     0.063 H 
ATOM     14  C   UNL     1     -48.551  31.050  25.820  1.00  0.00     0.007 A 
ATOM     15  C   UNL     1     -46.735  31.070  23.714  1.00  0.00    -0.049 A 
ATOM     16  H   UNL     1     -49.283  31.043  26.621  1.00  0.00     0.069 H 
ATOM     17  C   UNL     1     -46.832  32.178  24.553  1.00  0.00    -0.019 A 
ATOM     18  H   UNL     1     -46.023  31.085  22.894  1.00  0.00     0.063 H 
ATOM     19  H   UNL     1     -46.198  33.045  24.387  1.00  0.00     0.066 H 
BRANCH   6  20
ATOM     20  N   UNL     1     -50.021  26.734  24.804  1.00  0.00    -0.370 N 
ATOM     21  H   UNL     1     -49.799  26.013  24.116  1.00  0.00     0.162 HD
BRANCH  20  22
ATOM     22  C   UNL     1     -49.846  26.247  26.168  1.00  0.00     0.013 C 
ATOM     23  H   UNL     1     -50.689  25.616  26.470  1.00  0.00     0.049 H 
ATOM     24  H   UNL     1     -49.771  27.085  26.871  1.00  0.00     0.049 H 
BRANCH  22  25
ATOM     25  C   UNL     1     -48.573  25.418  26.244  1.00  0.00    -0.048 C 
ATOM     26  H   UNL     1     -48.061  25.591  27.195  1.00  0.00     0.025 H 
ATOM     27  H   UNL     1     -48.795  24.349  26.162  1.00  0.00     0.025 H 
ATOM     28  H   UNL     1     -47.883  25.679  25.434  1.00  0.00     0.025 H 
ENDBRANCH  22  25
ENDBRANCH  20  22
ENDBRANCH   6  20
ENDBRANCH   4   5
ENDBRANCH   1   4
BRANCH   1  29
ATOM     29  C   UNL     1     -47.397  35.667  26.651  1.00  0.00     0.010 A 
ATOM     30  C   UNL     1     -48.602  35.839  27.317  1.00  0.00     0.034 A 
ATOM     31  C   UNL     1     -46.467  36.715  26.708  1.00  0.00    -0.028 A 
ATOM     32  N   UNL     1     -48.913  36.942  28.032  1.00  0.00    -0.262 NA
ATOM     33  H   UNL     1     -49.376  35.077  27.293  1.00  0.00     0.084 H 
ATOM     34  C   UNL     1     -46.759  37.886  27.411  1.00  0.00     0.066 A 
ATOM     35  H   UNL     1     -45.522  36.579  26.195  1.00  0.00     0.065 H 
ATOM     36  C   UNL     1     -47.990  37.936  28.059  1.00  0.00     0.051 A 
ATOM     37  H   UNL     1     -48.329  38.800  28.621  1.00  0.00     0.086 H 
BRANCH  34  38
ATOM     38  N   UNL     1     -45.852  38.993  27.458  1.00  0.00    -0.299 N 
ATOM     39  C   UNL     1     -45.830  40.040  26.553  1.00  0.00     0.021 A 
ATOM     40  C   UNL     1     -44.837  39.227  28.387  1.00  0.00     0.150 A 
ATOM     41  C   UNL     1     -44.828  40.926  26.895  1.00  0.00     0.033 A 
ATOM     42  H   UNL     1     -46.529  40.093  25.731  1.00  0.00     0.083 H 
ATOM     43  C   UNL     1     -44.200  40.427  28.071  1.00  0.00     0.071 A 
ATOM     44  N   UNL     1     -44.497  38.419  29.412  1.00  0.00    -0.218 NA
ATOM     45  C   UNL     1     -43.158  40.828  28.928  1.00  0.00     0.137 A 
ATOM     46  C   UNL     1     -43.472  38.886  30.134  1.00  0.00     0.120 A 
ATOM     47  N   UNL     1     -42.797  40.029  29.949  1.00  0.00    -0.219 NA
ATOM     48  H   UNL     1     -43.152  38.271  30.969  1.00  0.00     0.106 H 
BRANCH  41  49
ATOM     49  C   UNL     1     -44.475  42.147  26.163  1.00  0.00     0.095 A 
ATOM     50  C   UNL     1     -44.165  42.191  24.785  1.00  0.00    -0.016 A 
ATOM     51  N   UNL     1     -44.378  43.355  26.731  1.00  0.00    -0.173 NA
ATOM     52  C   UNL     1     -43.881  43.512  24.525  1.00  0.00     0.025 A 
ATOM     53  H   UNL     1     -44.156  41.379  24.073  1.00  0.00     0.066 H 
ATOM     54  N   UNL     1     -44.025  44.164  25.714  1.00  0.00    -0.275 N 
ATOM     55  H   UNL     1     -43.599  44.024  23.617  1.00  0.00     0.084 H 
BRANCH  54  56
ATOM     56  C   UNL     1     -43.840  45.574  25.957  1.00  0.00     0.030 C 
ATOM     57  H   UNL     1     -43.447  46.031  25.045  1.00  0.00     0.048 H 
ATOM     58  H   UNL     1     -43.135  45.713  26.779  1.00  0.00     0.048 H 
ATOM     59  H   UNL     1     -44.809  46.008  26.218  1.00  0.00     0.048 H 
ENDBRANCH  54  56
ENDBRANCH  41  49
BRANCH  45  60
ATOM     60  N   UNL     1     -42.451  42.014  28.791  1.00  0.00    -0.383 N 
ATOM     61  H   UNL     1     -42.494  42.388  27.839  1.00  0.00     0.158 HD
ATOM     62  H   UNL     1     -41.536  41.945  29.214  1.00  0.00     0.158 HD
ENDBRANCH  45  60
ENDBRANCH  34  38
ENDBRANCH   1  29
TORSDOF 10
ENDMDL
MODEL 2
REMARK VINA RESULT:      -9.6      1.822      2.693
REMARK SMILES CCNc1ccc2ccc(OCc3cncc(-n4cc(-c5ccn(C)n5)c5c(N)ncnc54)c3)cc2n1
REMARK SMILES IDX 12 1 11 4 10 5 4 6 5 7 37 8 6 9 36 11 7 12 35 14 8 15 9 17
REMARK SMILES IDX 3 20 2 22 1 25 13 29 14 30 34 31 15 32 17 34 16 36 18 38
REMARK SMILES IDX 19 39 33 40 20 41 27 43 32 44 28 45 31 46 30 47 21 49 22 50
REMARK SMILES IDX 26 51 23 52 24 54 25 56 29 60
REMARK H PARENT 12 2 12 3 5 10 6 13 35 16 8 18 9 19 3 21 2 23 2 24 1 26 1 27
REMARK H PARENT 1 28 14 33 34 35 16 37 19 42 31 48 22 53 23 55 25 57 25 58
REMARK H PARENT 25 59 29 61 29 62
REMARK Flexibility Score: inf
ROOT
ATOM      1  C   UNL     1     -47.764  34.944  26.451  1.00  0.00     0.115 C 
ATOM      2  H   UNL     1     -47.488  34.881  25.390  1.00  0.00     0.076 H 
ATOM      3  H   UNL     1     -48.817  35.251  26.453  1.00  0.00     0.076 H 
ENDROOT
BRANCH   1   4
ATOM      4  O   UNL     1     -47.575  33.635  27.005  1.00  0.00    -0.489 OA
BRANCH   4   5
ATOM      5  C   UNL     1     -47.519  32.629  26.077  1.00  0.00     0.122 A 
ATOM      6  C   UNL     1     -48.924  28.446  24.333  1.00  0.00     0.126 A 
ATOM      7  C   UNL     1     -47.989  28.496  23.310  1.00  0.00    -0.019 A 
ATOM      8  N   UNL     1     -49.043  29.423  25.251  1.00  0.00    -0.231 NA
ATOM      9  C   UNL     1     -47.160  29.608  23.210  1.00  0.00    -0.049 A 
ATOM     10  H   UNL     1     -47.885  27.676  22.610  1.00  0.00     0.066 H 
ATOM     11  C   UNL     1     -48.240  30.500  25.163  1.00  0.00     0.076 A 
ATOM     12  C   UNL     1     -47.275  30.641  24.145  1.00  0.00     0.001 A 
ATOM     13  H   UNL     1     -46.423  29.655  22.413  1.00  0.00     0.063 H 
ATOM     14  C   UNL     1     -48.354  31.510  26.107  1.00  0.00     0.007 A 
ATOM     15  C   UNL     1     -46.462  31.785  24.088  1.00  0.00    -0.049 A 
ATOM     16  H   UNL     1     -49.114  31.406  26.874  1.00  0.00     0.069 H 
ATOM     17  C   UNL     1     -46.593  32.782  25.051  1.00  0.00    -0.019 A 
ATOM     18  H   UNL     1     -45.720  31.900  23.302  1.00  0.00     0.063 H 
ATOM     19  H   UNL     1     -45.956  33.662  25.016  1.00  0.00     0.066 H 
BRANCH   6  20
ATOM     20  N   UNL     1     -49.771  27.352  24.518  1.00  0.00    -0.370 N 
ATOM     21  H   UNL     1     -49.429  26.665  23.844  1.00  0.00     0.162 HD
BRANCH  20  22
ATOM     22  C   UNL     1     -49.781  26.817  25.874  1.00  0.00     0.013 C 
ATOM     23  H   UNL     1     -50.726  26.305  26.087  1.00  0.00     0.049 H 
ATOM     24  H   UNL     1     -49.651  27.622  26.608  1.00  0.00     0.049 H 
BRANCH  22  25
ATOM     25  C   UNL     1     -48.646  25.817  26.026  1.00  0.00    -0.048 C 
ATOM     26  H   UNL     1     -49.029  24.854  26.376  1.00  0.00     0.025 H 
ATOM     27  H   UNL     1     -48.134  25.655  25.071  1.00  0.00     0.025 H 
ATOM     28  H   UNL     1     -47.902  26.171  26.748  1.00  0.00     0.025 H 
ENDBRANCH  22  25
ENDBRANCH  20  22
ENDBRANCH   6  20
ENDBRANCH   4   5
ENDBRANCH   1   4
BRANCH   1  29
ATOM     29  C   UNL     1     -46.886  35.968  27.119  1.00  0.00     0.010 A 
ATOM     30  C   UNL     1     -46.213  35.677  28.296  1.00  0.00     0.034 A 
ATOM     31  C   UNL     1     -46.765  37.267  26.605  1.00  0.00    -0.028 A 
ATOM     32  N   UNL     1     -45.433  36.563  28.953  1.00  0.00    -0.262 NA
ATOM     33  H   UNL     1     -46.282  34.698  28.762  1.00  0.00     0.084 H 
ATOM     34  C   UNL     1     -45.994  38.225  27.267  1.00  0.00     0.066 A 
ATOM     35  H   UNL     1     -47.284  37.494  25.680  1.00  0.00     0.065 H 
ATOM     36  C   UNL     1     -45.345  37.811  28.428  1.00  0.00     0.051 A 
ATOM     37  H   UNL     1     -44.733  38.473  29.032  1.00  0.00     0.086 H 
BRANCH  34  38
ATOM     38  N   UNL     1     -45.879  39.571  26.795  1.00  0.00    -0.299 N 
ATOM     39  C   UNL     1     -44.733  40.127  26.250  1.00  0.00     0.021 A 
ATOM     40  C   UNL     1     -46.859  40.566  26.800  1.00  0.00     0.150 A 
ATOM     41  C   UNL     1     -44.975  41.442  25.909  1.00  0.00     0.033 A 
ATOM     42  H   UNL     1     -43.827  39.552  26.132  1.00  0.00     0.083 H 
ATOM     43  C   UNL     1     -46.330  41.727  26.239  1.00  0.00     0.071 A 
ATOM     44  N   UNL     1     -48.110  40.445  27.290  1.00  0.00    -0.218 NA
ATOM     45  C   UNL     1     -47.200  42.830  26.144  1.00  0.00     0.137 A 
ATOM     46  C   UNL     1     -48.831  41.565  27.177  1.00  0.00     0.120 A 
ATOM     47  N   UNL     1     -48.448  42.732  26.638  1.00  0.00    -0.219 NA
ATOM     48  H   UNL     1     -49.845  41.526  27.561  1.00  0.00     0.106 H 
BRANCH  41  49
ATOM     49  C   UNL     1     -44.000  42.371  25.328  1.00  0.00     0.095 A 
ATOM     50  C   UNL     1     -42.845  42.839  25.995  1.00  0.00    -0.016 A 
ATOM     51  N   UNL     1     -44.114  42.902  24.104  1.00  0.00    -0.173 NA
ATOM     52  C   UNL     1     -42.237  43.689  25.101  1.00  0.00     0.025 A 
ATOM     53  H   UNL     1     -42.496  42.590  26.986  1.00  0.00     0.066 H 
ATOM     54  N   UNL     1     -43.028  43.690  23.991  1.00  0.00    -0.275 N 
ATOM     55  H   UNL     1     -41.330  44.274  25.164  1.00  0.00     0.084 H 
BRANCH  54  56
ATOM     56  C   UNL     1     -42.807  44.427  22.770  1.00  0.00     0.030 C 
ATOM     57  H   UNL     1     -43.668  44.272  22.114  1.00  0.00     0.048 H 
ATOM     58  H   UNL     1     -41.898  44.067  22.285  1.00  0.00     0.048 H 
ATOM     59  H   UNL     1     -42.702  45.486  23.022  1.00  0.00     0.048 H 
ENDBRANCH  54  56
ENDBRANCH  41  49
BRANCH  45  60
ATOM     60  N   UNL     1     -46.856  44.046  25.571  1.00  0.00    -0.383 N 
ATOM     61  H   UNL     1     -47.167  44.123  24.598  1.00  0.00     0.158 HD
ATOM     62  H   UNL     1     -45.892  44.280  25.762  1.00  0.00     0.158 HD
ENDBRANCH  45  60
ENDBRANCH  34  38
ENDBRANCH   1  29
TORSDOF 10
ENDMDL
MODEL 3
REMARK VINA RESULT:      -9.6      2.283      2.707
REMARK SMILES CCNc1ccc2ccc(OCc3cncc(-n4cc(-c5ccn(C)n5)c5c(N)ncnc54)c3)cc2n1
REMARK SMILES IDX 12 1 11 4 10 5 4 6 5 7 37 8 6 9 36 11 7 12 35 14 8 15 9 17
REMARK SMILES IDX 3 20 2 22 1 25 13 29 14 30 34 31 15 32 17 34 16 36 18 38
REMARK SMILES IDX 19 39 33 40 20 41 27 43 32 44 28 45 31 46 30 47 21 49 22 50
REMARK SMILES IDX 26 51 23 52 24 54 25 56 29 60
REMARK H PARENT 12 2 12 3 5 10 6 13 35 16 8 18 9 19 3 21 2 23 2 24 1 26 1 27
REMARK H PARENT 1 28 14 33 34 35 16 37 19 42 31 48 22 53 23 55 25 57 25 58
REMARK H PARENT 25 59 29 61 29 62
REMARK Flexibility Score: inf
ROOT
ATOM      1  C   UNL     1     -47.504  35.235  26.838  1.00  0.00     0.115 C 
ATOM      2  H   UNL     1     -47.114  35.429  25.831  1.00  0.00     0.076 H 
ATOM      3  H   UNL     1     -48.574  35.474  26.780  1.00  0.00     0.076 H 
ENDROOT
BRANCH   1   4
ATOM      4  O   UNL     1     -47.270  33.847  27.111  1.00  0.00    -0.489 OA
BRANCH   4   5
ATOM      5  C   UNL     1     -47.610  33.003  26.088  1.00  0.00     0.122 A 
ATOM      6  C   UNL     1     -46.514  30.181  22.434  1.00  0.00     0.126 A 
ATOM      7  C   UNL     1     -47.849  29.941  22.148  1.00  0.00    -0.019 A 
ATOM      8  N   UNL     1     -46.125  30.976  23.448  1.00  0.00    -0.231 NA
ATOM      9  C   UNL     1     -48.825  30.518  22.952  1.00  0.00    -0.049 A 
ATOM     10  H   UNL     1     -48.137  29.332  21.298  1.00  0.00     0.066 H 
ATOM     11  C   UNL     1     -47.065  31.542  24.228  1.00  0.00     0.076 A 
ATOM     12  C   UNL     1     -48.444  31.336  24.020  1.00  0.00     0.001 A 
ATOM     13  H   UNL     1     -49.874  30.337  22.735  1.00  0.00     0.063 H 
ATOM     14  C   UNL     1     -46.672  32.365  25.274  1.00  0.00     0.007 A 
ATOM     15  C   UNL     1     -49.389  31.943  24.863  1.00  0.00    -0.049 A 
ATOM     16  H   UNL     1     -45.609  32.500  25.443  1.00  0.00     0.069 H 
ATOM     17  C   UNL     1     -48.969  32.769  25.902  1.00  0.00    -0.019 A 
ATOM     18  H   UNL     1     -50.453  31.783  24.709  1.00  0.00     0.063 H 
ATOM     19  H   UNL     1     -49.699  33.249  26.548  1.00  0.00     0.066 H 
BRANCH   6  20
ATOM     20  N   UNL     1     -45.478  29.662  21.655  1.00  0.00    -0.370 N 
ATOM     21  H   UNL     1     -45.058  30.490  21.229  1.00  0.00     0.162 HD
BRANCH  20  22
ATOM     22  C   UNL     1     -44.495  28.883  22.399  1.00  0.00     0.013 C 
ATOM     23  H   UNL     1     -44.009  29.494  23.167  1.00  0.00     0.049 H 
ATOM     24  H   UNL     1     -43.721  28.495  21.726  1.00  0.00     0.049 H 
BRANCH  22  25
ATOM     25  C   UNL     1     -45.192  27.716  23.080  1.00  0.00    -0.048 C 
ATOM     26  H   UNL     1     -46.135  27.487  22.575  1.00  0.00     0.025 H 
ATOM     27  H   UNL     1     -44.566  26.818  23.060  1.00  0.00     0.025 H 
ATOM     28  H   UNL     1     -45.414  27.946  24.128  1.00  0.00     0.025 H 
ENDBRANCH  22  25
ENDBRANCH  20  22
ENDBRANCH   6  20
ENDBRANCH   4   5
ENDBRANCH   1   4
BRANCH   1  29
ATOM     29  C   UNL     1     -46.788  36.128  27.815  1.00  0.00     0.010 A 
ATOM     30  C   UNL     1     -46.765  35.836  29.171  1.00  0.00     0.034 A 
ATOM     31  C   UNL     1     -46.169  37.314  27.396  1.00  0.00    -0.028 A 
ATOM     32  N   UNL     1     -46.162  36.613  30.096  1.00  0.00    -0.262 NA
ATOM     33  H   UNL     1     -47.247  34.945  29.567  1.00  0.00     0.084 H 
ATOM     34  C   UNL     1     -45.558  38.163  28.321  1.00  0.00     0.066 A 
ATOM     35  H   UNL     1     -46.178  37.541  26.335  1.00  0.00     0.065 H 
ATOM     36  C   UNL     1     -45.578  37.755  29.653  1.00  0.00     0.051 A 
ATOM     37  H   UNL     1     -45.149  38.341  30.458  1.00  0.00     0.086 H 
BRANCH  34  38
ATOM     38  N   UNL     1     -44.952  39.402  27.937  1.00  0.00    -0.299 N 
ATOM     39  C   UNL     1     -45.327  40.164  26.843  1.00  0.00     0.021 A 
ATOM     40  C   UNL     1     -43.890  40.062  28.557  1.00  0.00     0.150 A 
ATOM     41  C   UNL     1     -44.529  41.288  26.768  1.00  0.00     0.033 A 
ATOM     42  H   UNL     1     -46.139  39.865  26.197  1.00  0.00     0.083 H 
ATOM     43  C   UNL     1     -43.621  41.241  27.863  1.00  0.00     0.071 A 
ATOM     44  N   UNL     1     -43.206  39.628  29.636  1.00  0.00    -0.218 NA
ATOM     45  C   UNL     1     -42.586  42.047  28.373  1.00  0.00     0.137 A 
ATOM     46  C   UNL     1     -42.225  40.457  30.007  1.00  0.00     0.120 A 
ATOM     47  N   UNL     1     -41.885  41.625  29.441  1.00  0.00    -0.219 NA
ATOM     48  H   UNL     1     -41.637  40.153  30.867  1.00  0.00     0.106 H 
BRANCH  41  49
ATOM     49  C   UNL     1     -44.602  42.324  25.732  1.00  0.00     0.095 A 
ATOM     50  C   UNL     1     -45.750  43.102  25.459  1.00  0.00    -0.016 A 
ATOM     51  N   UNL     1     -43.591  42.628  24.909  1.00  0.00    -0.173 NA
ATOM     52  C   UNL     1     -45.385  43.923  24.418  1.00  0.00     0.025 A 
ATOM     53  H   UNL     1     -46.710  43.078  25.954  1.00  0.00     0.066 H 
ATOM     54  N   UNL     1     -44.092  43.605  24.129  1.00  0.00    -0.275 N 
ATOM     55  H   UNL     1     -45.927  44.686  23.877  1.00  0.00     0.084 H 
BRANCH  54  56
ATOM     56  C   UNL     1     -43.260  44.198  23.110  1.00  0.00     0.030 C 
ATOM     57  H   UNL     1     -43.695  43.967  22.134  1.00  0.00     0.048 H 
ATOM     58  H   UNL     1     -42.251  43.786  23.177  1.00  0.00     0.048 H 
ATOM     59  H   UNL     1     -43.234  45.279  23.273  1.00  0.00     0.048 H 
ENDBRANCH  54  56
ENDBRANCH  41  49
BRANCH  45  60
ATOM     60  N   UNL     1     -42.218  43.274  27.838  1.00  0.00    -0.383 N 
ATOM     61  H   UNL     1     -41.860  43.192  26.882  1.00  0.00     0.158 HD
ATOM     62  H   UNL     1     -41.660  43.805  28.491  1.00  0.00     0.158 HD
ENDBRANCH  45  60
ENDBRANCH  34  38
ENDBRANCH   1  29
TORSDOF 10
ENDMDL
MODEL 4
REMARK VINA RESULT:      -9.6      2.342     12.619
REMARK SMILES CCNc1ccc2ccc(OCc3cncc(-n4cc(-c5ccn(C)n5)c5c(N)ncnc54)c3)cc2n1
REMARK SMILES IDX 12 1 11 4 10 5 4 6 5 7 37 8 6 9 36 11 7 12 35 14 8 15 9 17
REMARK SMILES IDX 3 20 2 22 1 25 13 29 14 30 34 31 15 32 17 34 16 36 18 38
REMARK SMILES IDX 19 39 33 40 20 41 27 43 32 44 28 45 31 46 30 47 21 49 22 50
REMARK SMILES IDX 26 51 23 52 24 54 25 56 29 60
REMARK H PARENT 12 2 12 3 5 10 6 13 35 16 8 18 9 19 3 21 2 23 2 24 1 26 1 27
REMARK H PARENT 1 28 14 33 34 35 16 37 19 42 31 48 22 53 23 55 25 57 25 58
REMARK H PARENT 25 59 29 61 29 62
REMARK Flexibility Score: inf
ROOT
ATOM      1  C   UNL     1     -48.635  35.113  27.244  1.00  0.00     0.115 C 
ATOM      2  H   UNL     1     -48.360  34.902  28.285  1.00  0.00     0.076 H 
ATOM      3  H   UNL     1     -49.717  34.940  27.195  1.00  0.00     0.076 H 
ENDROOT
BRANCH   1   4
ATOM      4  O   UNL     1     -48.289  36.483  26.995  1.00  0.00    -0.489 OA
BRANCH   4   5
ATOM      5  C   UNL     1     -47.289  36.969  27.794  1.00  0.00     0.122 A 
ATOM      6  C   UNL     1     -43.786  40.027  28.740  1.00  0.00     0.126 A 
ATOM      7  C   UNL     1     -43.465  39.378  29.923  1.00  0.00    -0.019 A 
ATOM      8  N   UNL     1     -44.781  39.610  27.936  1.00  0.00    -0.231 NA
ATOM      9  C   UNL     1     -44.213  38.271  30.308  1.00  0.00    -0.049 A 
ATOM     10  H   UNL     1     -42.630  39.708  30.531  1.00  0.00     0.066 H 
ATOM     11  C   UNL     1     -45.506  38.536  28.301  1.00  0.00     0.076 A 
ATOM     12  C   UNL     1     -45.260  37.829  29.495  1.00  0.00     0.001 A 
ATOM     13  H   UNL     1     -43.967  37.755  31.232  1.00  0.00     0.063 H 
ATOM     14  C   UNL     1     -46.532  38.099  27.475  1.00  0.00     0.007 A 
ATOM     15  C   UNL     1     -46.046  36.717  29.839  1.00  0.00    -0.049 A 
ATOM     16  H   UNL     1     -46.732  38.662  26.570  1.00  0.00     0.069 H 
ATOM     17  C   UNL     1     -47.066  36.295  28.990  1.00  0.00    -0.019 A 
ATOM     18  H   UNL     1     -45.862  36.172  30.760  1.00  0.00     0.063 H 
ATOM     19  H   UNL     1     -47.667  35.427  29.248  1.00  0.00     0.066 H 
BRANCH   6  20
ATOM     20  N   UNL     1     -43.064  41.125  28.271  1.00  0.00    -0.370 N 
ATOM     21  H   UNL     1     -43.684  41.917  28.449  1.00  0.00     0.162 HD
BRANCH  20  22
ATOM     22  C   UNL     1     -41.763  41.309  28.903  1.00  0.00     0.013 C 
ATOM     23  H   UNL     1     -41.544  40.489  29.596  1.00  0.00     0.049 H 
ATOM     24  H   UNL     1     -41.735  42.252  29.464  1.00  0.00     0.049 H 
BRANCH  22  25
ATOM     25  C   UNL     1     -40.684  41.336  27.832  1.00  0.00    -0.048 C 
ATOM     26  H   UNL     1     -40.766  40.456  27.186  1.00  0.00     0.025 H 
ATOM     27  H   UNL     1     -40.774  42.230  27.206  1.00  0.00     0.025 H 
ATOM     28  H   UNL     1     -39.684  41.339  28.279  1.00  0.00     0.025 H 
ENDBRANCH  22  25
ENDBRANCH  20  22
ENDBRANCH   6  20
ENDBRANCH   4   5
ENDBRANCH   1   4
BRANCH   1  29
ATOM     29  C   UNL     1     -47.881  34.171  26.343  1.00  0.00     0.010 A 
ATOM     30  C   UNL     1     -46.666  34.535  25.782  1.00  0.00     0.034 A 
ATOM     31  C   UNL     1     -48.408  32.919  25.998  1.00  0.00    -0.028 A 
ATOM     32  N   UNL     1     -45.958  33.742  24.947  1.00  0.00    -0.262 NA
ATOM     33  H   UNL     1     -46.212  35.500  25.988  1.00  0.00     0.084 H 
ATOM     34  C   UNL     1     -47.726  32.079  25.115  1.00  0.00     0.066 A 
ATOM     35  H   UNL     1     -49.354  32.630  26.442  1.00  0.00     0.065 H 
ATOM     36  C   UNL     1     -46.504  32.541  24.632  1.00  0.00     0.051 A 
ATOM     37  H   UNL     1     -45.895  31.981  23.930  1.00  0.00     0.086 H 
BRANCH  34  38
ATOM     38  N   UNL     1     -48.252  30.812  24.707  1.00  0.00    -0.299 N 
ATOM     39  C   UNL     1     -48.733  29.838  25.566  1.00  0.00     0.021 A 
ATOM     40  C   UNL     1     -48.371  30.314  23.407  1.00  0.00     0.150 A 
ATOM     41  C   UNL     1     -49.154  28.745  24.835  1.00  0.00     0.033 A 
ATOM     42  H   UNL     1     -48.752  29.986  26.635  1.00  0.00     0.083 H 
ATOM     43  C   UNL     1     -48.944  29.044  23.459  1.00  0.00     0.071 A 
ATOM     44  N   UNL     1     -47.975  30.937  22.279  1.00  0.00    -0.218 NA
ATOM     45  C   UNL     1     -49.160  28.403  22.225  1.00  0.00     0.137 A 
ATOM     46  C   UNL     1     -48.197  30.218  21.174  1.00  0.00     0.120 A 
ATOM     47  N   UNL     1     -48.759  29.004  21.089  1.00  0.00    -0.219 NA
ATOM     48  H   UNL     1     -47.890  30.670  20.236  1.00  0.00     0.106 H 
BRANCH  41  49
ATOM     49  C   UNL     1     -49.702  27.503  25.389  1.00  0.00     0.095 A 
ATOM     50  C   UNL     1     -48.988  26.287  25.485  1.00  0.00    -0.016 A 
ATOM     51  N   UNL     1     -50.957  27.377  25.840  1.00  0.00    -0.173 NA
ATOM     52  C   UNL     1     -49.876  25.394  26.040  1.00  0.00     0.025 A 
ATOM     53  H   UNL     1     -47.966  26.085  25.199  1.00  0.00     0.066 H 
ATOM     54  N   UNL     1     -51.031  26.091  26.236  1.00  0.00    -0.275 N 
ATOM     55  H   UNL     1     -49.780  24.351  26.305  1.00  0.00     0.084 H 
BRANCH  54  56
ATOM     56  C   UNL     1     -52.260  25.591  26.802  1.00  0.00     0.030 C 
ATOM     57  H   UNL     1     -52.238  25.766  27.880  1.00  0.00     0.048 H 
ATOM     58  H   UNL     1     -52.347  24.522  26.597  1.00  0.00     0.048 H 
ATOM     59  H   UNL     1     -53.094  26.129  26.342  1.00  0.00     0.048 H 
ENDBRANCH  54  56
ENDBRANCH  41  49
BRANCH  45  60
ATOM     60  N   UNL     1     -49.762  27.160  22.088  1.00  0.00    -0.383 N 
ATOM     61  H   UNL     1     -49.344  26.453  22.698  1.00  0.00     0.158 HD
ATOM     62  H   UNL     1     -49.875  26.914  21.114  1.00  0.00     0.158 HD
ENDBRANCH  45  60
ENDBRANCH  34  38
ENDBRANCH   1  29
TORSDOF 10
ENDMDL
MODEL 5
REMARK VINA RESULT:      -9.2      1.849      3.388
REMARK SMILES CCNc1ccc2ccc(OCc3cncc(-n4cc(-c5ccn(C)n5)c5c(N)ncnc54)c3)cc2n1
REMARK SMILES IDX 12 1 11 4 10 5 4 6 5 7 37 8 6 9 36 11 7 12 35 14 8 15 9 17
REMARK SMILES IDX 3 20 2 22 1 25 13 29 14 30 34 31 15 32 17 34 16 36 18 38
REMARK SMILES IDX 19 39 33 40 20 41 27 43 32 44 28 45 31 46 30 47 21 49 22 50
REMARK SMILES IDX 26 51 23 52 24 54 25 56 29 60
REMARK H PARENT 12 2 12 3 5 10 6 13 35 16 8 18 9 19 3 21 2 23 2 24 1 26 1 27
REMARK H PARENT 1 28 14 33 34 35 16 37 19 42 31 48 22 53 23 55 25 57 25 58
REMARK H PARENT 25 59 29 61 29 62
REMARK Flexibility Score: inf
ROOT
ATOM      1  C   UNL     1     -46.667  32.537  24.779  1.00  0.00     0.115 C 
ATOM      2  H   UNL     1     -46.397  31.491  24.971  1.00  0.00     0.076 H 
ATOM      3  H   UNL     1     -45.974  32.871  23.997  1.00  0.00     0.076 H 
ENDROOT
BRANCH   1   4
ATOM      4  O   UNL     1     -48.032  32.537  24.335  1.00  0.00    -0.489 OA
BRANCH   4   5
ATOM      5  C   UNL     1     -48.588  31.291  24.215  1.00  0.00     0.122 A 
ATOM      6  C   UNL     1     -49.350  26.869  25.760  1.00  0.00     0.126 A 
ATOM      7  C   UNL     1     -50.079  26.541  24.628  1.00  0.00    -0.019 A 
ATOM      8  N   UNL     1     -48.810  28.089  25.942  1.00  0.00    -0.231 NA
ATOM      9  C   UNL     1     -50.286  27.512  23.654  1.00  0.00    -0.049 A 
ATOM     10  H   UNL     1     -50.466  25.538  24.485  1.00  0.00     0.066 H 
ATOM     11  C   UNL     1     -49.002  29.032  25.001  1.00  0.00     0.076 A 
ATOM     12  C   UNL     1     -49.746  28.789  23.829  1.00  0.00     0.001 A 
ATOM     13  H   UNL     1     -50.854  27.263  22.762  1.00  0.00     0.063 H 
ATOM     14  C   UNL     1     -48.446  30.291  25.180  1.00  0.00     0.007 A 
ATOM     15  C   UNL     1     -49.925  29.806  22.876  1.00  0.00    -0.049 A 
ATOM     16  H   UNL     1     -47.895  30.479  26.095  1.00  0.00     0.069 H 
ATOM     17  C   UNL     1     -49.352  31.059  23.076  1.00  0.00    -0.019 A 
ATOM     18  H   UNL     1     -50.502  29.624  21.973  1.00  0.00     0.063 H 
ATOM     19  H   UNL     1     -49.479  31.843  22.335  1.00  0.00     0.066 H 
BRANCH   6  20
ATOM     20  N   UNL     1     -49.075  25.943  26.767  1.00  0.00    -0.370 N 
ATOM     21  H   UNL     1     -49.965  25.463  26.904  1.00  0.00     0.162 HD
BRANCH  20  22
ATOM     22  C   UNL     1     -48.002  25.006  26.450  1.00  0.00     0.013 C 
ATOM     23  H   UNL     1     -47.928  24.846  25.369  1.00  0.00     0.049 H 
ATOM     24  H   UNL     1     -48.181  24.037  26.931  1.00  0.00     0.049 H 
BRANCH  22  25
ATOM     25  C   UNL     1     -46.681  25.572  26.946  1.00  0.00    -0.048 C 
ATOM     26  H   UNL     1     -46.788  26.633  27.192  1.00  0.00     0.025 H 
ATOM     27  H   UNL     1     -46.339  25.045  27.843  1.00  0.00     0.025 H 
ATOM     28  H   UNL     1     -45.900  25.476  26.184  1.00  0.00     0.025 H 
ENDBRANCH  22  25
ENDBRANCH  20  22
ENDBRANCH   6  20
ENDBRANCH   4   5
ENDBRANCH   1   4
BRANCH   1  29
ATOM     29  C   UNL     1     -46.492  33.323  26.050  1.00  0.00     0.010 A 
ATOM     30  C   UNL     1     -46.257  32.687  27.260  1.00  0.00     0.034 A 
ATOM     31  C   UNL     1     -46.615  34.720  26.063  1.00  0.00    -0.028 A 
ATOM     32  N   UNL     1     -46.117  33.338  28.436  1.00  0.00    -0.262 NA
ATOM     33  H   UNL     1     -46.175  31.606  27.326  1.00  0.00     0.084 H 
ATOM     34  C   UNL     1     -46.507  35.432  27.260  1.00  0.00     0.066 A 
ATOM     35  H   UNL     1     -46.790  35.220  25.117  1.00  0.00     0.065 H 
ATOM     36  C   UNL     1     -46.248  34.689  28.409  1.00  0.00     0.051 A 
ATOM     37  H   UNL     1     -46.160  35.133  29.394  1.00  0.00     0.086 H 
BRANCH  34  38
ATOM     38  N   UNL     1     -46.668  36.853  27.319  1.00  0.00    -0.299 N 
ATOM     39  C   UNL     1     -45.664  37.776  27.077  1.00  0.00     0.021 A 
ATOM     40  C   UNL     1     -47.824  37.571  27.632  1.00  0.00     0.150 A 
ATOM     41  C   UNL     1     -46.166  39.054  27.227  1.00  0.00     0.033 A 
ATOM     42  H   UNL     1     -44.665  37.469  26.807  1.00  0.00     0.083 H 
ATOM     43  C   UNL     1     -47.544  38.935  27.564  1.00  0.00     0.071 A 
ATOM     44  N   UNL     1     -49.017  37.044  27.975  1.00  0.00    -0.218 NA
ATOM     45  C   UNL     1     -48.615  39.809  27.830  1.00  0.00     0.137 A 
ATOM     46  C   UNL     1     -49.945  37.969  28.240  1.00  0.00     0.120 A 
ATOM     47  N   UNL     1     -49.809  39.302  28.186  1.00  0.00    -0.219 NA
ATOM     48  H   UNL     1     -50.925  37.599  28.528  1.00  0.00     0.106 H 
BRANCH  41  49
ATOM     49  C   UNL     1     -45.403  40.298  27.079  1.00  0.00     0.095 A 
ATOM     50  C   UNL     1     -44.124  40.523  27.637  1.00  0.00    -0.016 A 
ATOM     51  N   UNL     1     -45.851  41.373  26.419  1.00  0.00    -0.173 NA
ATOM     52  C   UNL     1     -43.796  41.808  27.269  1.00  0.00     0.025 A 
ATOM     53  H   UNL     1     -43.518  39.845  28.219  1.00  0.00     0.066 H 
ATOM     54  N   UNL     1     -44.853  42.269  26.544  1.00  0.00    -0.275 N 
ATOM     55  H   UNL     1     -42.920  42.411  27.460  1.00  0.00     0.084 H 
BRANCH  54  56
ATOM     56  C   UNL     1     -44.984  43.569  25.932  1.00  0.00     0.030 C 
ATOM     57  H   UNL     1     -45.433  43.441  24.944  1.00  0.00     0.048 H 
ATOM     58  H   UNL     1     -43.998  44.029  25.838  1.00  0.00     0.048 H 
ATOM     59  H   UNL     1     -45.624  44.186  26.568  1.00  0.00     0.048 H 
ENDBRANCH  54  56
ENDBRANCH  41  49
BRANCH  45  60
ATOM     60  N   UNL     1     -48.526  41.192  27.760  1.00  0.00    -0.383 N 
ATOM     61  H   UNL     1     -47.561  41.519  27.664  1.00  0.00     0.158 HD
ATOM     62  H   UNL     1     -49.088  41.631  28.477  1.00  0.00     0.158 HD
ENDBRANCH  45  60
ENDBRANCH  34  38
ENDBRANCH   1  29
TORSDOF 10
ENDMDL
MODEL 6
REMARK VINA RESULT:      -9.0      2.609      3.707
REMARK SMILES CCNc1ccc2ccc(OCc3cncc(-n4cc(-c5ccn(C)n5)c5c(N)ncnc54)c3)cc2n1
REMARK SMILES IDX 12 1 11 4 10 5 4 6 5 7 37 8 6 9 36 11 7 12 35 14 8 15 9 17
REMARK SMILES IDX 3 20 2 22 1 25 13 29 14 30 34 31 15 32 17 34 16 36 18 38
REMARK SMILES IDX 19 39 33 40 20 41 27 43 32 44 28 45 31 46 30 47 21 49 22 50
REMARK SMILES IDX 26 51 23 52 24 54 25 56 29 60
REMARK H PARENT 12 2 12 3 5 10 6 13 35 16 8 18 9 19 3 21 2 23 2 24 1 26 1 27
REMARK H PARENT 1 28 14 33 34 35 16 37 19 42 31 48 22 53 23 55 25 57 25 58
REMARK H PARENT 25 59 29 61 29 62
REMARK Flexibility Score: inf
ROOT
ATOM      1  C   UNL     1     -45.750  34.543  27.799  1.00  0.00     0.115 C 
ATOM      2  H   UNL     1     -46.592  33.944  28.168  1.00  0.00     0.076 H 
ATOM      3  H   UNL     1     -44.853  33.974  28.074  1.00  0.00     0.076 H 
ENDROOT
BRANCH   1   4
ATOM      4  O   UNL     1     -45.912  34.652  26.377  1.00  0.00    -0.489 OA
BRANCH   4   5
ATOM      5  C   UNL     1     -46.826  33.783  25.843  1.00  0.00     0.122 A 
ATOM      6  C   UNL     1     -48.181  30.571  22.623  1.00  0.00     0.126 A 
ATOM      7  C   UNL     1     -49.454  30.484  23.164  1.00  0.00    -0.019 A 
ATOM      8  N   UNL     1     -47.235  31.384  23.130  1.00  0.00    -0.231 NA
ATOM      9  C   UNL     1     -49.761  31.244  24.288  1.00  0.00    -0.049 A 
ATOM     10  H   UNL     1     -50.211  29.855  22.711  1.00  0.00     0.066 H 
ATOM     11  C   UNL     1     -47.527  32.126  24.214  1.00  0.00     0.076 A 
ATOM     12  C   UNL     1     -48.790  32.085  24.839  1.00  0.00     0.001 A 
ATOM     13  H   UNL     1     -50.757  31.184  24.718  1.00  0.00     0.063 H 
ATOM     14  C   UNL     1     -46.559  32.968  24.741  1.00  0.00     0.007 A 
ATOM     15  C   UNL     1     -49.049  32.872  25.974  1.00  0.00    -0.049 A 
ATOM     16  H   UNL     1     -45.582  32.977  24.270  1.00  0.00     0.069 H 
ATOM     17  C   UNL     1     -48.062  33.714  26.478  1.00  0.00    -0.019 A 
ATOM     18  H   UNL     1     -50.020  32.840  26.461  1.00  0.00     0.063 H 
ATOM     19  H   UNL     1     -48.264  34.333  27.348  1.00  0.00     0.066 H 
BRANCH   6  20
ATOM     20  N   UNL     1     -47.805  29.865  21.479  1.00  0.00    -0.370 N 
ATOM     21  H   UNL     1     -47.434  28.988  21.848  1.00  0.00     0.162 HD
BRANCH  20  22
ATOM     22  C   UNL     1     -48.887  29.634  20.528  1.00  0.00     0.013 C 
ATOM     23  H   UNL     1     -49.860  29.649  21.031  1.00  0.00     0.049 H 
ATOM     24  H   UNL     1     -48.767  28.661  20.037  1.00  0.00     0.049 H 
BRANCH  22  25
ATOM     25  C   UNL     1     -48.870  30.730  19.475  1.00  0.00    -0.048 C 
ATOM     26  H   UNL     1     -49.811  30.738  18.917  1.00  0.00     0.025 H 
ATOM     27  H   UNL     1     -48.736  31.716  19.935  1.00  0.00     0.025 H 
ATOM     28  H   UNL     1     -48.051  30.580  18.763  1.00  0.00     0.025 H 
ENDBRANCH  22  25
ENDBRANCH  20  22
ENDBRANCH   6  20
ENDBRANCH   4   5
ENDBRANCH   1   4
BRANCH   1  29
ATOM     29  C   UNL     1     -45.781  35.889  28.471  1.00  0.00     0.010 A 
ATOM     30  C   UNL     1     -46.001  36.004  29.835  1.00  0.00     0.034 A 
ATOM     31  C   UNL     1     -45.644  37.073  27.733  1.00  0.00    -0.028 A 
ATOM     32  N   UNL     1     -46.065  37.185  30.488  1.00  0.00    -0.262 NA
ATOM     33  H   UNL     1     -46.140  35.128  30.463  1.00  0.00     0.084 H 
ATOM     34  C   UNL     1     -45.733  38.317  28.361  1.00  0.00     0.066 A 
ATOM     35  H   UNL     1     -45.463  36.985  26.667  1.00  0.00     0.065 H 
ATOM     36  C   UNL     1     -45.934  38.309  29.739  1.00  0.00     0.051 A 
ATOM     37  H   UNL     1     -46.034  39.214  30.328  1.00  0.00     0.086 H 
BRANCH  34  38
ATOM     38  N   UNL     1     -45.639  39.547  27.635  1.00  0.00    -0.299 N 
ATOM     39  C   UNL     1     -44.470  40.072  27.110  1.00  0.00     0.021 A 
ATOM     40  C   UNL     1     -46.668  40.441  27.329  1.00  0.00     0.150 A 
ATOM     41  C   UNL     1     -44.744  41.270  26.479  1.00  0.00     0.033 A 
ATOM     42  H   UNL     1     -43.525  39.560  27.209  1.00  0.00     0.083 H 
ATOM     43  C   UNL     1     -46.143  41.506  26.599  1.00  0.00     0.071 A 
ATOM     44  N   UNL     1     -47.960  40.320  27.699  1.00  0.00    -0.218 NA
ATOM     45  C   UNL     1     -47.056  42.494  26.185  1.00  0.00     0.137 A 
ATOM     46  C   UNL     1     -48.724  41.334  27.280  1.00  0.00     0.120 A 
ATOM     47  N   UNL     1     -48.346  42.397  26.555  1.00  0.00    -0.219 NA
ATOM     48  H   UNL     1     -49.774  41.292  27.556  1.00  0.00     0.106 H 
BRANCH  41  49
ATOM     49  C   UNL     1     -43.761  42.138  25.824  1.00  0.00     0.095 A 
ATOM     50  C   UNL     1     -42.560  42.582  26.424  1.00  0.00    -0.016 A 
ATOM     51  N   UNL     1     -43.909  42.633  24.588  1.00  0.00    -0.173 NA
ATOM     52  C   UNL     1     -41.960  43.377  25.475  1.00  0.00     0.025 A 
ATOM     53  H   UNL     1     -42.177  42.352  27.407  1.00  0.00     0.066 H 
ATOM     54  N   UNL     1     -42.799  43.372  24.401  1.00  0.00    -0.275 N 
ATOM     55  H   UNL     1     -41.029  43.926  25.478  1.00  0.00     0.084 H 
BRANCH  54  56
ATOM     56  C   UNL     1     -42.605  44.059  23.146  1.00  0.00     0.030 C 
ATOM     57  H   UNL     1     -41.541  44.029  22.899  1.00  0.00     0.048 H 
ATOM     58  H   UNL     1     -42.938  45.095  23.242  1.00  0.00     0.048 H 
ATOM     59  H   UNL     1     -43.192  43.547  22.380  1.00  0.00     0.048 H 
ENDBRANCH  54  56
ENDBRANCH  41  49
BRANCH  45  60
ATOM     60  N   UNL     1     -46.715  43.594  25.412  1.00  0.00    -0.383 N 
ATOM     61  H   UNL     1     -47.443  44.314  25.413  1.00  0.00     0.158 HD
ATOM     62  H   UNL     1     -46.355  43.311  24.512  1.00  0.00     0.158 HD
ENDBRANCH  45  60
ENDBRANCH  34  38
ENDBRANCH   1  29
TORSDOF 10
ENDMDL
MODEL 7
REMARK VINA RESULT:      -8.9      2.304     12.204
REMARK SMILES CCNc1ccc2ccc(OCc3cncc(-n4cc(-c5ccn(C)n5)c5c(N)ncnc54)c3)cc2n1
REMARK SMILES IDX 12 1 11 4 10 5 4 6 5 7 37 8 6 9 36 11 7 12 35 14 8 15 9 17
REMARK SMILES IDX 3 20 2 22 1 25 13 29 14 30 34 31 15 32 17 34 16 36 18 38
REMARK SMILES IDX 19 39 33 40 20 41 27 43 32 44 28 45 31 46 30 47 21 49 22 50
REMARK SMILES IDX 26 51 23 52 24 54 25 56 29 60
REMARK H PARENT 12 2 12 3 5 10 6 13 35 16 8 18 9 19 3 21 2 23 2 24 1 26 1 27
REMARK H PARENT 1 28 14 33 34 35 16 37 19 42 31 48 22 53 23 55 25 57 25 58
REMARK H PARENT 25 59 29 61 29 62
REMARK Flexibility Score: inf
ROOT
ATOM      1  C   UNL     1     -47.846  36.466  27.357  1.00  0.00     0.115 C 
ATOM      2  H   UNL     1     -47.840  36.837  28.390  1.00  0.00     0.076 H 
ATOM      3  H   UNL     1     -48.893  36.537  27.036  1.00  0.00     0.076 H 
ENDROOT
BRANCH   1   4
ATOM      4  O   UNL     1     -46.984  37.331  26.603  1.00  0.00    -0.489 OA
BRANCH   4   5
ATOM      5  C   UNL     1     -46.055  38.000  27.353  1.00  0.00     0.122 A 
ATOM      6  C   UNL     1     -42.810  41.411  27.951  1.00  0.00     0.126 A 
ATOM      7  C   UNL     1     -42.498  40.966  29.227  1.00  0.00    -0.019 A 
ATOM      8  N   UNL     1     -43.740  40.810  27.185  1.00  0.00    -0.231 NA
ATOM      9  C   UNL     1     -43.186  39.876  29.747  1.00  0.00    -0.049 A 
ATOM     10  H   UNL     1     -41.714  41.441  29.806  1.00  0.00     0.066 H 
ATOM     11  C   UNL     1     -44.406  39.750  27.681  1.00  0.00     0.076 A 
ATOM     12  C   UNL     1     -44.164  39.244  28.974  1.00  0.00     0.001 A 
ATOM     13  H   UNL     1     -42.946  39.519  30.745  1.00  0.00     0.063 H 
ATOM     14  C   UNL     1     -45.363  39.123  26.896  1.00  0.00     0.007 A 
ATOM     15  C   UNL     1     -44.888  38.140  29.453  1.00  0.00    -0.049 A 
ATOM     16  H   UNL     1     -45.560  39.532  25.911  1.00  0.00     0.069 H 
ATOM     17  C   UNL     1     -45.839  37.525  28.643  1.00  0.00    -0.019 A 
ATOM     18  H   UNL     1     -44.708  37.749  30.451  1.00  0.00     0.063 H 
ATOM     19  H   UNL     1     -46.391  36.663  29.007  1.00  0.00     0.066 H 
BRANCH   6  20
ATOM     20  N   UNL     1     -42.144  42.479  27.348  1.00  0.00    -0.370 N 
ATOM     21  H   UNL     1     -41.158  42.234  27.443  1.00  0.00     0.162 HD
BRANCH  20  22
ATOM     22  C   UNL     1     -42.509  42.710  25.955  1.00  0.00     0.013 C 
ATOM     23  H   UNL     1     -43.259  41.986  25.621  1.00  0.00     0.049 H 
ATOM     24  H   UNL     1     -41.629  42.620  25.306  1.00  0.00     0.049 H 
BRANCH  22  25
ATOM     25  C   UNL     1     -43.091  44.108  25.815  1.00  0.00    -0.048 C 
ATOM     26  H   UNL     1     -43.161  44.592  26.793  1.00  0.00     0.025 H 
ATOM     27  H   UNL     1     -42.465  44.731  25.167  1.00  0.00     0.025 H 
ATOM     28  H   UNL     1     -44.095  44.074  25.378  1.00  0.00     0.025 H 
ENDBRANCH  22  25
ENDBRANCH  20  22
ENDBRANCH   6  20
ENDBRANCH   4   5
ENDBRANCH   1   4
BRANCH   1  29
ATOM     29  C   UNL     1     -47.358  35.043  27.351  1.00  0.00     0.010 A 
ATOM     30  C   UNL     1     -46.397  34.610  28.253  1.00  0.00     0.034 A 
ATOM     31  C   UNL     1     -47.817  34.122  26.398  1.00  0.00    -0.028 A 
ATOM     32  N   UNL     1     -45.903  33.353  28.277  1.00  0.00    -0.262 NA
ATOM     33  H   UNL     1     -45.980  35.278  29.002  1.00  0.00     0.084 H 
ATOM     34  C   UNL     1     -47.312  32.820  26.367  1.00  0.00     0.066 A 
ATOM     35  H   UNL     1     -48.574  34.456  25.698  1.00  0.00     0.065 H 
ATOM     36  C   UNL     1     -46.367  32.492  27.336  1.00  0.00     0.051 A 
ATOM     37  H   UNL     1     -45.896  31.517  27.398  1.00  0.00     0.086 H 
BRANCH  34  38
ATOM     38  N   UNL     1     -47.726  31.865  25.384  1.00  0.00    -0.299 N 
ATOM     39  C   UNL     1     -48.719  30.918  25.567  1.00  0.00     0.021 A 
ATOM     40  C   UNL     1     -47.222  31.693  24.093  1.00  0.00     0.150 A 
ATOM     41  C   UNL     1     -48.853  30.161  24.420  1.00  0.00     0.033 A 
ATOM     42  H   UNL     1     -49.271  30.847  26.492  1.00  0.00     0.083 H 
ATOM     43  C   UNL     1     -47.916  30.657  23.470  1.00  0.00     0.071 A 
ATOM     44  N   UNL     1     -46.211  32.390  23.537  1.00  0.00    -0.218 NA
ATOM     45  C   UNL     1     -47.548  30.365  22.143  1.00  0.00     0.137 A 
ATOM     46  C   UNL     1     -45.927  32.002  22.289  1.00  0.00     0.120 A 
ATOM     47  N   UNL     1     -46.532  31.042  21.575  1.00  0.00    -0.219 NA
ATOM     48  H   UNL     1     -45.115  32.526  21.795  1.00  0.00     0.106 H 
BRANCH  41  49
ATOM     49  C   UNL     1     -49.782  29.042  24.234  1.00  0.00     0.095 A 
ATOM     50  C   UNL     1     -49.778  27.860  25.010  1.00  0.00    -0.016 A 
ATOM     51  N   UNL     1     -50.724  29.006  23.283  1.00  0.00    -0.173 NA
ATOM     52  C   UNL     1     -50.790  27.088  24.489  1.00  0.00     0.025 A 
ATOM     53  H   UNL     1     -49.135  27.605  25.839  1.00  0.00     0.066 H 
ATOM     54  N   UNL     1     -51.324  27.814  23.467  1.00  0.00    -0.275 N 
ATOM     55  H   UNL     1     -51.162  26.109  24.758  1.00  0.00     0.084 H 
BRANCH  54  56
ATOM     56  C   UNL     1     -52.421  27.430  22.612  1.00  0.00     0.030 C 
ATOM     57  H   UNL     1     -52.090  26.604  21.978  1.00  0.00     0.048 H 
ATOM     58  H   UNL     1     -52.717  28.281  21.993  1.00  0.00     0.048 H 
ATOM     59  H   UNL     1     -53.257  27.119  23.243  1.00  0.00     0.048 H 
ENDBRANCH  54  56
ENDBRANCH  41  49
BRANCH  45  60
ATOM     60  N   UNL     1     -48.164  29.401  21.358  1.00  0.00    -0.383 N 
ATOM     61  H   UNL     1     -48.302  28.518  21.859  1.00  0.00     0.158 HD
ATOM     62  H   UNL     1     -47.736  29.345  20.444  1.00  0.00     0.158 HD
ENDBRANCH  45  60
ENDBRANCH  34  38
ENDBRANCH   1  29
TORSDOF 10
ENDMDL
