MODEL 1
REMARK VINA RESULT:     -10.4      0.000      0.000
REMARK SMILES Nc1ccc2ccc(NC[C@H]3C[C@@H](n4ccc5c(N)ncnc54)[C@H](O)[C@@H]3O)cc2n1
REMARK SMILES IDX 10 1 9 4 8 6 2 7 3 8 30 9 4 10 29 12 5 13 28 15 6 16 7 18
REMARK SMILES IDX 1 21 11 24 12 25 26 26 13 28 24 31 27 35 14 37 15 38 23 39
REMARK SMILES IDX 16 40 17 42 22 43 18 45 21 46 20 47 19 49 25 52
REMARK H PARENT 10 2 10 3 9 5 3 11 4 14 28 17 6 19 7 20 1 22 1 23 11 27 12 29
REMARK H PARENT 12 30 26 32 13 33 24 34 27 36 15 41 16 44 21 48 19 50 19 51
REMARK H PARENT 25 53
REMARK Flexibility Score: inf
ROOT
ATOM      1  C   UNL     1     -46.463  35.485  28.275  1.00  0.00     0.020 C 
ATOM      2  H   UNL     1     -47.266  34.883  28.716  1.00  0.00     0.049 H 
ATOM      3  H   UNL     1     -45.503  35.094  28.628  1.00  0.00     0.049 H 
ENDROOT
BRANCH   1   4
ATOM      4  N   UNL     1     -46.549  35.433  26.814  1.00  0.00    -0.385 N 
ATOM      5  H   UNL     1     -46.922  36.303  26.427  1.00  0.00     0.160 HD
BRANCH   4   6
ATOM      6  C   UNL     1     -47.178  34.338  26.200  1.00  0.00     0.036 A 
ATOM      7  C   UNL     1     -46.586  30.471  23.461  1.00  0.00     0.124 A 
ATOM      8  C   UNL     1     -47.904  30.071  23.631  1.00  0.00    -0.019 A 
ATOM      9  N   UNL     1     -46.091  31.577  24.036  1.00  0.00    -0.231 NA
ATOM     10  C   UNL     1     -48.743  30.846  24.426  1.00  0.00    -0.049 A 
ATOM     11  H   UNL     1     -48.282  29.172  23.159  1.00  0.00     0.066 H 
ATOM     12  C   UNL     1     -46.896  32.332  24.806  1.00  0.00     0.075 A 
ATOM     13  C   UNL     1     -48.244  32.003  25.031  1.00  0.00     0.000 A 
ATOM     14  H   UNL     1     -49.777  30.543  24.569  1.00  0.00     0.063 H 
ATOM     15  C   UNL     1     -46.393  33.481  25.407  1.00  0.00    -0.012 A 
ATOM     16  C   UNL     1     -49.038  32.818  25.850  1.00  0.00    -0.051 A 
ATOM     17  H   UNL     1     -45.342  33.710  25.242  1.00  0.00     0.067 H 
ATOM     18  C   UNL     1     -48.501  33.966  26.438  1.00  0.00    -0.038 A 
ATOM     19  H   UNL     1     -50.076  32.560  26.047  1.00  0.00     0.063 H 
ATOM     20  H   UNL     1     -49.147  34.551  27.085  1.00  0.00     0.064 H 
BRANCH   7  21
ATOM     21  N   UNL     1     -45.721  29.708  22.670  1.00  0.00    -0.384 N 
ATOM     22  H   UNL     1     -45.067  29.210  23.265  1.00  0.00     0.158 HD
ATOM     23  H   UNL     1     -46.255  29.026  22.140  1.00  0.00     0.158 HD
ENDBRANCH   7  21
ENDBRANCH   4   6
ENDBRANCH   1   4
BRANCH   1  24
ATOM     24  C   UNL     1     -46.598  36.940  28.728  1.00  0.00     0.007 C 
ATOM     25  C   UNL     1     -45.268  37.694  28.743  1.00  0.00    -0.022 C 
ATOM     26  C   UNL     1     -47.444  37.775  27.766  1.00  0.00     0.086 C 
ATOM     27  H   UNL     1     -47.047  36.962  29.732  1.00  0.00     0.035 H 
ATOM     28  C   UNL     1     -45.659  39.185  28.651  1.00  0.00     0.064 C 
ATOM     29  H   UNL     1     -44.633  37.382  27.905  1.00  0.00     0.029 H 
ATOM     30  H   UNL     1     -44.707  37.489  29.661  1.00  0.00     0.029 H 
ATOM     31  C   UNL     1     -47.126  39.218  28.175  1.00  0.00     0.101 C 
ATOM     32  H   UNL     1     -47.164  37.593  26.723  1.00  0.00     0.063 H 
ATOM     33  H   UNL     1     -45.603  39.613  29.661  1.00  0.00     0.056 H 
ATOM     34  H   UNL     1     -47.331  39.928  27.368  1.00  0.00     0.065 H 
BRANCH  26  35
ATOM     35  O   UNL     1     -48.836  37.504  27.921  1.00  0.00    -0.390 OA
ATOM     36  H   UNL     1     -49.038  37.709  28.860  1.00  0.00     0.211 HD
ENDBRANCH  26  35
BRANCH  28  37
ATOM     37  N   UNL     1     -44.752  39.966  27.827  1.00  0.00    -0.327 N 
ATOM     38  C   UNL     1     -44.983  40.292  26.510  1.00  0.00     0.007 A 
ATOM     39  C   UNL     1     -43.546  40.493  28.222  1.00  0.00     0.145 A 
ATOM     40  C   UNL     1     -43.910  41.030  26.058  1.00  0.00    -0.031 A 
ATOM     41  H   UNL     1     -45.881  39.967  26.000  1.00  0.00     0.082 H 
ATOM     42  C   UNL     1     -42.994  41.166  27.139  1.00  0.00     0.061 A 
ATOM     43  N   UNL     1     -43.000  40.376  29.445  1.00  0.00    -0.218 NA
ATOM     44  H   UNL     1     -43.791  41.423  25.058  1.00  0.00     0.065 H 
ATOM     45  C   UNL     1     -41.749  41.776  27.342  1.00  0.00     0.136 A 
ATOM     46  C   UNL     1     -41.809  40.994  29.516  1.00  0.00     0.120 A 
ATOM     47  N   UNL     1     -41.168  41.684  28.553  1.00  0.00    -0.219 NA
ATOM     48  H   UNL     1     -41.297  40.934  30.472  1.00  0.00     0.106 H 
BRANCH  45  49
ATOM     49  N   UNL     1     -41.075  42.494  26.364  1.00  0.00    -0.383 N 
ATOM     50  H   UNL     1     -40.112  42.710  26.580  1.00  0.00     0.158 HD
ATOM     51  H   UNL     1     -41.262  42.114  25.445  1.00  0.00     0.158 HD
ENDBRANCH  45  49
ENDBRANCH  28  37
BRANCH  31  52
ATOM     52  O   UNL     1     -47.974  39.584  29.279  1.00  0.00    -0.388 OA
ATOM     53  H   UNL     1     -48.465  38.760  29.487  1.00  0.00     0.211 HD
ENDBRANCH  31  52
ENDBRANCH   1  24
TORSDOF 8
ENDMDL
MODEL 2
REMARK VINA RESULT:      -9.9      2.021      9.798
REMARK SMILES Nc1ccc2ccc(NC[C@H]3C[C@@H](n4ccc5c(N)ncnc54)[C@H](O)[C@@H]3O)cc2n1
REMARK SMILES IDX 10 1 9 4 8 6 2 7 3 8 30 9 4 10 29 12 5 13 28 15 6 16 7 18
REMARK SMILES IDX 1 21 11 24 12 25 26 26 13 28 24 31 27 35 14 37 15 38 23 39
REMARK SMILES IDX 16 40 17 42 22 43 18 45 21 46 20 47 19 49 25 52
REMARK H PARENT 10 2 10 3 9 5 3 11 4 14 28 17 6 19 7 20 1 22 1 23 11 27 12 29
REMARK H PARENT 12 30 26 32 13 33 24 34 27 36 15 41 16 44 21 48 19 50 19 51
REMARK H PARENT 25 53
REMARK Flexibility Score: inf
ROOT
ATOM      1  C   UNL     1     -47.704  36.211  26.847  1.00  0.00     0.020 C 
ATOM      2  H   UNL     1     -48.761  36.503  26.821  1.00  0.00     0.049 H 
ATOM      3  H   UNL     1     -47.244  36.493  25.895  1.00  0.00     0.049 H 
ENDROOT
BRANCH   1   4
ATOM      4  N   UNL     1     -47.036  36.870  27.971  1.00  0.00    -0.385 N 
ATOM      5  H   UNL     1     -47.674  37.012  28.758  1.00  0.00     0.160 HD
BRANCH   4   6
ATOM      6  C   UNL     1     -46.302  38.046  27.744  1.00  0.00     0.036 A 
ATOM      7  C   UNL     1     -42.670  40.779  29.207  1.00  0.00     0.124 A 
ATOM      8  C   UNL     1     -42.794  41.635  28.122  1.00  0.00    -0.019 A 
ATOM      9  N   UNL     1     -43.468  39.713  29.377  1.00  0.00    -0.231 NA
ATOM     10  C   UNL     1     -43.782  41.380  27.176  1.00  0.00    -0.049 A 
ATOM     11  H   UNL     1     -42.136  42.488  28.004  1.00  0.00     0.066 H 
ATOM     12  C   UNL     1     -44.426  39.461  28.467  1.00  0.00     0.075 A 
ATOM     13  C   UNL     1     -44.623  40.275  27.339  1.00  0.00     0.000 A 
ATOM     14  H   UNL     1     -43.889  42.041  26.320  1.00  0.00     0.063 H 
ATOM     15  C   UNL     1     -45.259  38.359  28.633  1.00  0.00    -0.012 A 
ATOM     16  C   UNL     1     -45.629  39.963  26.414  1.00  0.00    -0.051 A 
ATOM     17  H   UNL     1     -45.079  37.725  29.499  1.00  0.00     0.067 H 
ATOM     18  C   UNL     1     -46.450  38.849  26.612  1.00  0.00    -0.038 A 
ATOM     19  H   UNL     1     -45.776  40.576  25.528  1.00  0.00     0.063 H 
ATOM     20  H   UNL     1     -47.197  38.631  25.856  1.00  0.00     0.064 H 
BRANCH   7  21
ATOM     21  N   UNL     1     -41.682  41.010  30.170  1.00  0.00    -0.384 N 
ATOM     22  H   UNL     1     -41.176  40.149  30.351  1.00  0.00     0.158 HD
ATOM     23  H   UNL     1     -41.025  41.702  29.825  1.00  0.00     0.158 HD
ENDBRANCH   7  21
ENDBRANCH   4   6
ENDBRANCH   1   4
BRANCH   1  24
ATOM     24  C   UNL     1     -47.589  34.696  27.021  1.00  0.00     0.007 C 
ATOM     25  C   UNL     1     -48.714  33.922  26.335  1.00  0.00    -0.022 C 
ATOM     26  C   UNL     1     -46.336  34.125  26.354  1.00  0.00     0.086 C 
ATOM     27  H   UNL     1     -47.577  34.459  28.095  1.00  0.00     0.035 H 
ATOM     28  C   UNL     1     -48.145  32.502  26.124  1.00  0.00     0.064 C 
ATOM     29  H   UNL     1     -48.995  34.398  25.389  1.00  0.00     0.029 H 
ATOM     30  H   UNL     1     -49.615  33.897  26.959  1.00  0.00     0.029 H 
ATOM     31  C   UNL     1     -46.617  32.619  26.303  1.00  0.00     0.101 C 
ATOM     32  H   UNL     1     -46.198  34.532  25.346  1.00  0.00     0.063 H 
ATOM     33  H   UNL     1     -48.547  31.854  26.915  1.00  0.00     0.056 H 
ATOM     34  H   UNL     1     -46.025  32.117  25.531  1.00  0.00     0.065 H 
BRANCH  26  35
ATOM     35  O   UNL     1     -45.165  34.393  27.121  1.00  0.00    -0.390 OA
ATOM     36  H   UNL     1     -44.436  33.928  26.655  1.00  0.00     0.211 HD
ENDBRANCH  26  35
BRANCH  28  37
ATOM     37  N   UNL     1     -48.549  31.904  24.862  1.00  0.00    -0.327 N 
ATOM     38  C   UNL     1     -49.853  31.796  24.436  1.00  0.00     0.007 A 
ATOM     39  C   UNL     1     -47.713  31.365  23.915  1.00  0.00     0.145 A 
ATOM     40  C   UNL     1     -49.848  31.174  23.205  1.00  0.00    -0.031 A 
ATOM     41  H   UNL     1     -50.674  32.156  25.041  1.00  0.00     0.082 H 
ATOM     42  C   UNL     1     -48.495  30.900  22.865  1.00  0.00     0.061 A 
ATOM     43  N   UNL     1     -46.372  31.301  23.995  1.00  0.00    -0.218 NA
ATOM     44  H   UNL     1     -50.724  30.936  22.616  1.00  0.00     0.065 H 
ATOM     45  C   UNL     1     -47.820  30.306  21.789  1.00  0.00     0.136 A 
ATOM     46  C   UNL     1     -45.840  30.707  22.913  1.00  0.00     0.120 A 
ATOM     47  N   UNL     1     -46.476  30.223  21.829  1.00  0.00    -0.219 NA
ATOM     48  H   UNL     1     -44.759  30.606  22.908  1.00  0.00     0.106 H 
BRANCH  45  49
ATOM     49  N   UNL     1     -48.457  29.806  20.663  1.00  0.00    -0.383 N 
ATOM     50  H   UNL     1     -48.774  30.505  20.005  1.00  0.00     0.158 HD
ATOM     51  H   UNL     1     -47.947  29.019  20.281  1.00  0.00     0.158 HD
ENDBRANCH  45  49
ENDBRANCH  28  37
BRANCH  31  52
ATOM     52  O   UNL     1     -46.242  32.035  27.564  1.00  0.00    -0.388 OA
ATOM     53  H   UNL     1     -45.880  32.789  28.079  1.00  0.00     0.211 HD
ENDBRANCH  31  52
ENDBRANCH   1  24
TORSDOF 8
ENDMDL
MODEL 3
REMARK VINA RESULT:      -9.4      2.304      9.855
REMARK SMILES Nc1ccc2ccc(NC[C@H]3C[C@@H](n4ccc5c(N)ncnc54)[C@H](O)[C@@H]3O)cc2n1
REMARK SMILES IDX 10 1 9 4 8 6 2 7 3 8 30 9 4 10 29 12 5 13 28 15 6 16 7 18
REMARK SMILES IDX 1 21 11 24 12 25 26 26 13 28 24 31 27 35 14 37 15 38 23 39
REMARK SMILES IDX 16 40 17 42 22 43 18 45 21 46 20 47 19 49 25 52
REMARK H PARENT 10 2 10 3 9 5 3 11 4 14 28 17 6 19 7 20 1 22 1 23 11 27 12 29
REMARK H PARENT 12 30 26 32 13 33 24 34 27 36 15 41 16 44 21 48 19 50 19 51
REMARK H PARENT 25 53
REMARK Flexibility Score: inf
ROOT
ATOM      1  C   UNL     1     -47.740  36.122  26.802  1.00  0.00     0.020 C 
ATOM      2  H   UNL     1     -48.770  36.309  26.477  1.00  0.00     0.049 H 
ATOM      3  H   UNL     1     -47.062  36.446  26.005  1.00  0.00     0.049 H 
ENDROOT
BRANCH   1   4
ATOM      4  N   UNL     1     -47.473  36.845  28.046  1.00  0.00    -0.385 N 
ATOM      5  H   UNL     1     -48.318  37.287  28.414  1.00  0.00     0.160 HD
BRANCH   4   6
ATOM      6  C   UNL     1     -46.405  37.754  28.100  1.00  0.00     0.036 A 
ATOM      7  C   UNL     1     -44.326  41.529  26.043  1.00  0.00     0.124 A 
ATOM      8  C   UNL     1     -43.395  41.653  27.065  1.00  0.00    -0.019 A 
ATOM      9  N   UNL     1     -45.272  40.578  26.045  1.00  0.00    -0.231 NA
ATOM     10  C   UNL     1     -43.443  40.758  28.128  1.00  0.00    -0.049 A 
ATOM     11  H   UNL     1     -42.640  42.431  27.044  1.00  0.00     0.066 H 
ATOM     12  C   UNL     1     -45.325  39.708  27.070  1.00  0.00     0.075 A 
ATOM     13  C   UNL     1     -44.422  39.760  28.145  1.00  0.00     0.000 A 
ATOM     14  H   UNL     1     -42.721  40.845  28.936  1.00  0.00     0.063 H 
ATOM     15  C   UNL     1     -46.303  38.719  27.081  1.00  0.00    -0.012 A 
ATOM     16  C   UNL     1     -44.527  38.836  29.194  1.00  0.00    -0.051 A 
ATOM     17  H   UNL     1     -47.009  38.707  26.254  1.00  0.00     0.067 H 
ATOM     18  C   UNL     1     -45.520  37.853  29.175  1.00  0.00    -0.038 A 
ATOM     19  H   UNL     1     -43.845  38.880  30.040  1.00  0.00     0.063 H 
ATOM     20  H   UNL     1     -45.579  37.177  30.021  1.00  0.00     0.064 H 
BRANCH   7  21
ATOM     21  N   UNL     1     -44.301  42.419  24.964  1.00  0.00    -0.384 N 
ATOM     22  H   UNL     1     -44.408  43.369  25.304  1.00  0.00     0.158 HD
ATOM     23  H   UNL     1     -43.409  42.349  24.484  1.00  0.00     0.158 HD
ENDBRANCH   7  21
ENDBRANCH   4   6
ENDBRANCH   1   4
BRANCH   1  24
ATOM     24  C   UNL     1     -47.536  34.625  27.043  1.00  0.00     0.007 C 
ATOM     25  C   UNL     1     -48.296  33.744  26.052  1.00  0.00    -0.022 C 
ATOM     26  C   UNL     1     -46.085  34.192  26.830  1.00  0.00     0.086 C 
ATOM     27  H   UNL     1     -47.848  34.383  28.070  1.00  0.00     0.035 H 
ATOM     28  C   UNL     1     -47.550  32.393  26.073  1.00  0.00     0.064 C 
ATOM     29  H   UNL     1     -48.302  34.196  25.053  1.00  0.00     0.029 H 
ATOM     30  H   UNL     1     -49.342  33.622  26.353  1.00  0.00     0.029 H 
ATOM     31  C   UNL     1     -46.181  32.665  26.731  1.00  0.00     0.101 C 
ATOM     32  H   UNL     1     -45.670  34.618  25.911  1.00  0.00     0.063 H 
ATOM     33  H   UNL     1     -48.119  31.700  26.709  1.00  0.00     0.056 H 
ATOM     34  H   UNL     1     -45.325  32.232  26.205  1.00  0.00     0.065 H 
BRANCH  26  35
ATOM     35  O   UNL     1     -45.257  34.573  27.926  1.00  0.00    -0.390 OA
ATOM     36  H   UNL     1     -45.560  35.472  28.182  1.00  0.00     0.211 HD
ENDBRANCH  26  35
BRANCH  28  37
ATOM     37  N   UNL     1     -47.463  31.765  24.764  1.00  0.00    -0.327 N 
ATOM     38  C   UNL     1     -46.317  31.708  24.005  1.00  0.00     0.007 A 
ATOM     39  C   UNL     1     -48.487  31.142  24.093  1.00  0.00     0.145 A 
ATOM     40  C   UNL     1     -46.616  31.046  22.832  1.00  0.00    -0.031 A 
ATOM     41  H   UNL     1     -45.391  32.147  24.350  1.00  0.00     0.082 H 
ATOM     42  C   UNL     1     -47.990  30.680  22.881  1.00  0.00     0.061 A 
ATOM     43  N   UNL     1     -49.749  31.005  24.537  1.00  0.00    -0.218 NA
ATOM     44  H   UNL     1     -45.924  30.853  22.024  1.00  0.00     0.065 H 
ATOM     45  C   UNL     1     -48.891  30.012  22.042  1.00  0.00     0.136 A 
ATOM     46  C   UNL     1     -50.518  30.357  23.646  1.00  0.00     0.120 A 
ATOM     47  N   UNL     1     -50.165  29.852  22.448  1.00  0.00    -0.219 NA
ATOM     48  H   UNL     1     -51.558  30.217  23.927  1.00  0.00     0.106 H 
BRANCH  45  49
ATOM     49  N   UNL     1     -48.545  29.482  20.807  1.00  0.00    -0.383 N 
ATOM     50  H   UNL     1     -48.294  28.503  20.817  1.00  0.00     0.158 HD
ATOM     51  H   UNL     1     -49.200  29.777  20.092  1.00  0.00     0.158 HD
ENDBRANCH  45  49
ENDBRANCH  28  37
BRANCH  31  52
ATOM     52  O   UNL     1     -46.177  32.113  28.060  1.00  0.00    -0.388 OA
ATOM     53  H   UNL     1     -47.117  31.881  28.226  1.00  0.00     0.211 HD
ENDBRANCH  31  52
ENDBRANCH   1  24
TORSDOF 8
ENDMDL
MODEL 4
REMARK VINA RESULT:      -9.1      4.579     11.410
REMARK SMILES Nc1ccc2ccc(NC[C@H]3C[C@@H](n4ccc5c(N)ncnc54)[C@H](O)[C@@H]3O)cc2n1
REMARK SMILES IDX 10 1 9 4 8 6 2 7 3 8 30 9 4 10 29 12 5 13 28 15 6 16 7 18
REMARK SMILES IDX 1 21 11 24 12 25 26 26 13 28 24 31 27 35 14 37 15 38 23 39
REMARK SMILES IDX 16 40 17 42 22 43 18 45 21 46 20 47 19 49 25 52
REMARK H PARENT 10 2 10 3 9 5 3 11 4 14 28 17 6 19 7 20 1 22 1 23 11 27 12 29
REMARK H PARENT 12 30 26 32 13 33 24 34 27 36 15 41 16 44 21 48 19 50 19 51
REMARK H PARENT 25 53
REMARK Flexibility Score: inf
ROOT
ATOM      1  C   UNL     1     -46.257  31.398  22.905  1.00  0.00     0.020 C 
ATOM      2  H   UNL     1     -46.653  32.379  22.619  1.00  0.00     0.049 H 
ATOM      3  H   UNL     1     -45.207  31.346  22.600  1.00  0.00     0.049 H 
ENDROOT
BRANCH   1   4
ATOM      4  N   UNL     1     -46.396  31.210  24.351  1.00  0.00    -0.385 N 
ATOM      5  H   UNL     1     -46.749  30.278  24.578  1.00  0.00     0.160 HD
BRANCH   4   6
ATOM      6  C   UNL     1     -47.087  32.171  25.107  1.00  0.00     0.036 A 
ATOM      7  C   UNL     1     -47.021  36.612  26.860  1.00  0.00     0.124 A 
ATOM      8  C   UNL     1     -48.318  36.510  27.341  1.00  0.00    -0.019 A 
ATOM      9  N   UNL     1     -46.415  35.610  26.205  1.00  0.00    -0.231 NA
ATOM     10  C   UNL     1     -49.017  35.324  27.139  1.00  0.00    -0.049 A 
ATOM     11  H   UNL     1     -48.788  37.334  27.865  1.00  0.00     0.066 H 
ATOM     12  C   UNL     1     -47.084  34.459  26.006  1.00  0.00     0.075 A 
ATOM     13  C   UNL     1     -48.400  34.268  26.460  1.00  0.00     0.000 A 
ATOM     14  H   UNL     1     -50.035  35.231  27.508  1.00  0.00     0.063 H 
ATOM     15  C   UNL     1     -46.466  33.413  25.328  1.00  0.00    -0.012 A 
ATOM     16  C   UNL     1     -49.057  33.054  26.217  1.00  0.00    -0.051 A 
ATOM     17  H   UNL     1     -45.456  33.585  24.962  1.00  0.00     0.067 H 
ATOM     18  C   UNL     1     -48.407  32.022  25.534  1.00  0.00    -0.038 A 
ATOM     19  H   UNL     1     -50.083  32.904  26.547  1.00  0.00     0.063 H 
ATOM     20  H   UNL     1     -48.965  31.111  25.347  1.00  0.00     0.064 H 
BRANCH   7  21
ATOM     21  N   UNL     1     -46.298  37.795  27.047  1.00  0.00    -0.384 N 
ATOM     22  H   UNL     1     -45.606  37.891  26.310  1.00  0.00     0.158 HD
ATOM     23  H   UNL     1     -46.927  38.591  27.000  1.00  0.00     0.158 HD
ENDBRANCH   7  21
ENDBRANCH   4   6
ENDBRANCH   1   4
BRANCH   1  24
ATOM     24  C   UNL     1     -47.034  30.295  22.185  1.00  0.00     0.007 C 
ATOM     25  C   UNL     1     -47.430  29.137  23.101  1.00  0.00    -0.022 C 
ATOM     26  C   UNL     1     -48.386  30.781  21.659  1.00  0.00     0.086 C 
ATOM     27  H   UNL     1     -46.426  29.916  21.350  1.00  0.00     0.035 H 
ATOM     28  C   UNL     1     -48.628  28.467  22.394  1.00  0.00     0.064 C 
ATOM     29  H   UNL     1     -47.694  29.503  24.100  1.00  0.00     0.029 H 
ATOM     30  H   UNL     1     -46.602  28.432  23.229  1.00  0.00     0.029 H 
ATOM     31  C   UNL     1     -49.134  29.480  21.347  1.00  0.00     0.101 C 
ATOM     32  H   UNL     1     -48.921  31.369  22.411  1.00  0.00     0.063 H 
ATOM     33  H   UNL     1     -48.258  27.572  21.874  1.00  0.00     0.056 H 
ATOM     34  H   UNL     1     -50.219  29.623  21.334  1.00  0.00     0.065 H 
BRANCH  26  35
ATOM     35  O   UNL     1     -48.237  31.570  20.480  1.00  0.00    -0.390 OA
ATOM     36  H   UNL     1     -48.695  31.068  19.771  1.00  0.00     0.211 HD
ENDBRANCH  26  35
BRANCH  28  37
ATOM     37  N   UNL     1     -49.653  28.006  23.316  1.00  0.00    -0.327 N 
ATOM     38  C   UNL     1     -50.979  28.371  23.249  1.00  0.00     0.007 A 
ATOM     39  C   UNL     1     -49.468  27.152  24.376  1.00  0.00     0.145 A 
ATOM     40  C   UNL     1     -51.645  27.746  24.283  1.00  0.00    -0.031 A 
ATOM     41  H   UNL     1     -51.338  29.047  22.485  1.00  0.00     0.082 H 
ATOM     42  C   UNL     1     -50.695  26.968  25.001  1.00  0.00     0.061 A 
ATOM     43  N   UNL     1     -48.301  26.594  24.740  1.00  0.00    -0.218 NA
ATOM     44  H   UNL     1     -52.699  27.845  24.503  1.00  0.00     0.065 H 
ATOM     45  C   UNL     1     -50.714  26.123  26.119  1.00  0.00     0.136 A 
ATOM     46  C   UNL     1     -48.443  25.812  25.824  1.00  0.00     0.120 A 
ATOM     47  N   UNL     1     -49.566  25.542  26.517  1.00  0.00    -0.219 NA
ATOM     48  H   UNL     1     -47.539  25.333  26.189  1.00  0.00     0.106 H 
BRANCH  45  49
ATOM     49  N   UNL     1     -51.861  25.830  26.842  1.00  0.00    -0.383 N 
ATOM     50  H   UNL     1     -51.823  26.074  27.822  1.00  0.00     0.158 HD
ATOM     51  H   UNL     1     -52.690  26.114  26.334  1.00  0.00     0.158 HD
ENDBRANCH  45  49
ENDBRANCH  28  37
BRANCH  31  52
ATOM     52  O   UNL     1     -48.755  29.031  20.033  1.00  0.00    -0.388 OA
ATOM     53  H   UNL     1     -49.611  28.899  19.570  1.00  0.00     0.211 HD
ENDBRANCH  31  52
ENDBRANCH   1  24
TORSDOF 8
ENDMDL
MODEL 5
REMARK VINA RESULT:      -8.9      3.212      5.277
REMARK SMILES Nc1ccc2ccc(NC[C@H]3C[C@@H](n4ccc5c(N)ncnc54)[C@H](O)[C@@H]3O)cc2n1
REMARK SMILES IDX 10 1 9 4 8 6 2 7 3 8 30 9 4 10 29 12 5 13 28 15 6 16 7 18
REMARK SMILES IDX 1 21 11 24 12 25 26 26 13 28 24 31 27 35 14 37 15 38 23 39
REMARK SMILES IDX 16 40 17 42 22 43 18 45 21 46 20 47 19 49 25 52
REMARK H PARENT 10 2 10 3 9 5 3 11 4 14 28 17 6 19 7 20 1 22 1 23 11 27 12 29
REMARK H PARENT 12 30 26 32 13 33 24 34 27 36 15 41 16 44 21 48 19 50 19 51
REMARK H PARENT 25 53
REMARK Flexibility Score: inf
ROOT
ATOM      1  C   UNL     1     -47.000  32.590  24.668  1.00  0.00     0.020 C 
ATOM      2  H   UNL     1     -46.444  31.647  24.593  1.00  0.00     0.049 H 
ATOM      3  H   UNL     1     -46.947  33.100  23.700  1.00  0.00     0.049 H 
ENDROOT
BRANCH   1   4
ATOM      4  N   UNL     1     -48.388  32.317  25.045  1.00  0.00    -0.385 N 
ATOM      5  H   UNL     1     -48.574  32.581  26.015  1.00  0.00     0.160 HD
BRANCH   4   6
ATOM      6  C   UNL     1     -48.936  31.050  24.789  1.00  0.00     0.036 A 
ATOM      7  C   UNL     1     -49.074  26.466  26.120  1.00  0.00     0.124 A 
ATOM      8  C   UNL     1     -50.083  26.168  25.215  1.00  0.00    -0.019 A 
ATOM      9  N   UNL     1     -48.562  27.700  26.245  1.00  0.00    -0.231 NA
ATOM     10  C   UNL     1     -50.581  27.185  24.407  1.00  0.00    -0.049 A 
ATOM     11  H   UNL     1     -50.484  25.165  25.133  1.00  0.00     0.066 H 
ATOM     12  C   UNL     1     -49.038  28.689  25.466  1.00  0.00     0.075 A 
ATOM     13  C   UNL     1     -50.057  28.476  24.522  1.00  0.00     0.000 A 
ATOM     14  H   UNL     1     -51.373  26.966  23.695  1.00  0.00     0.063 H 
ATOM     15  C   UNL     1     -48.514  29.972  25.587  1.00  0.00    -0.012 A 
ATOM     16  C   UNL     1     -50.525  29.543  23.743  1.00  0.00    -0.051 A 
ATOM     17  H   UNL     1     -47.742  30.125  26.339  1.00  0.00     0.067 H 
ATOM     18  C   UNL     1     -49.976  30.820  23.888  1.00  0.00    -0.038 A 
ATOM     19  H   UNL     1     -51.328  29.392  23.024  1.00  0.00     0.063 H 
ATOM     20  H   UNL     1     -50.389  31.619  23.282  1.00  0.00     0.064 H 
BRANCH   7  21
ATOM     21  N   UNL     1     -48.559  25.463  26.947  1.00  0.00    -0.384 N 
ATOM     22  H   UNL     1     -47.784  25.002  26.481  1.00  0.00     0.158 HD
ATOM     23  H   UNL     1     -48.216  25.874  27.810  1.00  0.00     0.158 HD
ENDBRANCH   7  21
ENDBRANCH   4   6
ENDBRANCH   1   4
BRANCH   1  24
ATOM     24  C   UNL     1     -46.362  33.485  25.732  1.00  0.00     0.007 C 
ATOM     25  C   UNL     1     -46.758  34.955  25.601  1.00  0.00    -0.022 C 
ATOM     26  C   UNL     1     -46.833  33.137  27.145  1.00  0.00     0.086 C 
ATOM     27  H   UNL     1     -45.268  33.388  25.671  1.00  0.00     0.035 H 
ATOM     28  C   UNL     1     -46.522  35.553  27.004  1.00  0.00     0.064 C 
ATOM     29  H   UNL     1     -47.802  35.052  25.282  1.00  0.00     0.029 H 
ATOM     30  H   UNL     1     -46.147  35.463  24.847  1.00  0.00     0.029 H 
ATOM     31  C   UNL     1     -46.408  34.356  27.971  1.00  0.00     0.101 C 
ATOM     32  H   UNL     1     -47.919  32.998  27.183  1.00  0.00     0.063 H 
ATOM     33  H   UNL     1     -45.564  36.091  26.988  1.00  0.00     0.056 H 
ATOM     34  H   UNL     1     -46.991  34.453  28.891  1.00  0.00     0.065 H 
BRANCH  26  35
ATOM     35  O   UNL     1     -46.203  31.955  27.632  1.00  0.00    -0.390 OA
ATOM     36  H   UNL     1     -45.487  32.268  28.228  1.00  0.00     0.211 HD
ENDBRANCH  26  35
BRANCH  28  37
ATOM     37  N   UNL     1     -47.529  36.530  27.388  1.00  0.00    -0.327 N 
ATOM     38  C   UNL     1     -48.855  36.234  27.608  1.00  0.00     0.007 A 
ATOM     39  C   UNL     1     -47.322  37.873  27.589  1.00  0.00     0.145 A 
ATOM     40  C   UNL     1     -49.502  37.403  27.948  1.00  0.00    -0.031 A 
ATOM     41  H   UNL     1     -49.231  35.226  27.497  1.00  0.00     0.082 H 
ATOM     42  C   UNL     1     -48.536  38.448  27.941  1.00  0.00     0.061 A 
ATOM     43  N   UNL     1     -46.147  38.514  27.466  1.00  0.00    -0.218 NA
ATOM     44  H   UNL     1     -50.556  37.499  28.168  1.00  0.00     0.065 H 
ATOM     45  C   UNL     1     -48.534  39.828  28.187  1.00  0.00     0.136 A 
ATOM     46  C   UNL     1     -46.271  39.828  27.719  1.00  0.00     0.120 A 
ATOM     47  N   UNL     1     -47.377  40.508  28.076  1.00  0.00    -0.219 NA
ATOM     48  H   UNL     1     -45.365  40.419  27.628  1.00  0.00     0.106 H 
BRANCH  45  49
ATOM     49  N   UNL     1     -49.662  40.545  28.560  1.00  0.00    -0.383 N 
ATOM     50  H   UNL     1     -50.022  41.173  27.855  1.00  0.00     0.158 HD
ATOM     51  H   UNL     1     -50.335  39.945  29.021  1.00  0.00     0.158 HD
ENDBRANCH  45  49
ENDBRANCH  28  37
BRANCH  31  52
ATOM     52  O   UNL     1     -45.032  34.194  28.362  1.00  0.00    -0.388 OA
ATOM     53  H   UNL     1     -44.560  34.035  27.516  1.00  0.00     0.211 HD
ENDBRANCH  31  52
ENDBRANCH   1  24
TORSDOF 8
ENDMDL
MODEL 6
REMARK VINA RESULT:      -8.9      2.213      2.937
REMARK SMILES Nc1ccc2ccc(NC[C@H]3C[C@@H](n4ccc5c(N)ncnc54)[C@H](O)[C@@H]3O)cc2n1
REMARK SMILES IDX 10 1 9 4 8 6 2 7 3 8 30 9 4 10 29 12 5 13 28 15 6 16 7 18
REMARK SMILES IDX 1 21 11 24 12 25 26 26 13 28 24 31 27 35 14 37 15 38 23 39
REMARK SMILES IDX 16 40 17 42 22 43 18 45 21 46 20 47 19 49 25 52
REMARK H PARENT 10 2 10 3 9 5 3 11 4 14 28 17 6 19 7 20 1 22 1 23 11 27 12 29
REMARK H PARENT 12 30 26 32 13 33 24 34 27 36 15 41 16 44 21 48 19 50 19 51
REMARK H PARENT 25 53
REMARK Flexibility Score: inf
ROOT
ATOM      1  C   UNL     1     -46.441  34.797  27.891  1.00  0.00     0.020 C 
ATOM      2  H   UNL     1     -47.394  34.716  28.428  1.00  0.00     0.049 H 
ATOM      3  H   UNL     1     -45.822  33.933  28.154  1.00  0.00     0.049 H 
ENDROOT
BRANCH   1   4
ATOM      4  N   UNL     1     -46.687  34.851  26.449  1.00  0.00    -0.385 N 
ATOM      5  H   UNL     1     -47.219  35.685  26.188  1.00  0.00     0.160 HD
BRANCH   4   6
ATOM      6  C   UNL     1     -47.225  33.728  25.799  1.00  0.00     0.036 A 
ATOM      7  C   UNL     1     -46.372  30.128  22.781  1.00  0.00     0.124 A 
ATOM      8  C   UNL     1     -47.622  29.566  22.997  1.00  0.00    -0.019 A 
ATOM      9  N   UNL     1     -45.970  31.248  23.400  1.00  0.00    -0.231 NA
ATOM     10  C   UNL     1     -48.492  30.188  23.887  1.00  0.00    -0.049 A 
ATOM     11  H   UNL     1     -47.924  28.659  22.488  1.00  0.00     0.066 H 
ATOM     12  C   UNL     1     -46.806  31.856  24.262  1.00  0.00     0.075 A 
ATOM     13  C   UNL     1     -48.090  31.358  24.540  1.00  0.00     0.000 A 
ATOM     14  H   UNL     1     -49.473  29.758  24.068  1.00  0.00     0.063 H 
ATOM     15  C   UNL     1     -46.400  33.018  24.909  1.00  0.00    -0.012 A 
ATOM     16  C   UNL     1     -48.918  32.023  25.454  1.00  0.00    -0.051 A 
ATOM     17  H   UNL     1     -45.394  33.378  24.701  1.00  0.00     0.067 H 
ATOM     18  C   UNL     1     -48.480  33.190  26.087  1.00  0.00    -0.038 A 
ATOM     19  H   UNL     1     -49.906  31.634  25.691  1.00  0.00     0.063 H 
ATOM     20  H   UNL     1     -49.145  33.655  26.806  1.00  0.00     0.064 H 
BRANCH   7  21
ATOM     21  N   UNL     1     -45.477  29.520  21.894  1.00  0.00    -0.384 N 
ATOM     22  H   UNL     1     -44.687  30.136  21.732  1.00  0.00     0.158 HD
ATOM     23  H   UNL     1     -45.131  28.655  22.297  1.00  0.00     0.158 HD
ENDBRANCH   7  21
ENDBRANCH   4   6
ENDBRANCH   1   4
BRANCH   1  24
ATOM     24  C   UNL     1     -45.713  36.073  28.319  1.00  0.00     0.007 C 
ATOM     25  C   UNL     1     -45.818  37.201  27.293  1.00  0.00    -0.022 C 
ATOM     26  C   UNL     1     -46.324  36.702  29.571  1.00  0.00     0.086 C 
ATOM     27  H   UNL     1     -44.655  35.836  28.502  1.00  0.00     0.035 H 
ATOM     28  C   UNL     1     -45.559  38.492  28.099  1.00  0.00     0.064 C 
ATOM     29  H   UNL     1     -46.805  37.204  26.815  1.00  0.00     0.029 H 
ATOM     30  H   UNL     1     -45.079  37.079  26.494  1.00  0.00     0.029 H 
ATOM     31  C   UNL     1     -45.729  38.115  29.585  1.00  0.00     0.101 C 
ATOM     32  H   UNL     1     -47.417  36.739  29.509  1.00  0.00     0.063 H 
ATOM     33  H   UNL     1     -44.518  38.797  27.926  1.00  0.00     0.056 H 
ATOM     34  H   UNL     1     -46.338  38.812  30.168  1.00  0.00     0.065 H 
BRANCH  26  35
ATOM     35  O   UNL     1     -45.956  35.990  30.750  1.00  0.00    -0.390 OA
ATOM     36  H   UNL     1     -46.592  35.244  30.813  1.00  0.00     0.211 HD
ENDBRANCH  26  35
BRANCH  28  37
ATOM     37  N   UNL     1     -46.387  39.609  27.673  1.00  0.00    -0.327 N 
ATOM     38  C   UNL     1     -47.721  39.749  27.981  1.00  0.00     0.007 A 
ATOM     39  C   UNL     1     -45.979  40.679  26.915  1.00  0.00     0.145 A 
ATOM     40  C   UNL     1     -48.170  40.920  27.407  1.00  0.00    -0.031 A 
ATOM     41  H   UNL     1     -48.243  39.007  28.570  1.00  0.00     0.082 H 
ATOM     42  C   UNL     1     -47.070  41.518  26.731  1.00  0.00     0.061 A 
ATOM     43  N   UNL     1     -44.738  40.876  26.437  1.00  0.00    -0.218 NA
ATOM     44  H   UNL     1     -49.181  41.300  27.460  1.00  0.00     0.065 H 
ATOM     45  C   UNL     1     -46.856  42.677  25.972  1.00  0.00     0.136 A 
ATOM     46  C   UNL     1     -44.657  42.011  25.723  1.00  0.00     0.120 A 
ATOM     47  N   UNL     1     -45.627  42.913  25.475  1.00  0.00    -0.219 NA
ATOM     48  H   UNL     1     -43.686  42.235  25.291  1.00  0.00     0.106 H 
BRANCH  45  49
ATOM     49  N   UNL     1     -47.840  43.619  25.710  1.00  0.00    -0.383 N 
ATOM     50  H   UNL     1     -47.724  44.503  26.185  1.00  0.00     0.158 HD
ATOM     51  H   UNL     1     -48.047  43.658  24.719  1.00  0.00     0.158 HD
ENDBRANCH  45  49
ENDBRANCH  28  37
BRANCH  31  52
ATOM     52  O   UNL     1     -44.434  38.066  30.211  1.00  0.00    -0.388 OA
ATOM     53  H   UNL     1     -43.849  38.551  29.590  1.00  0.00     0.211 HD
ENDBRANCH  31  52
ENDBRANCH   1  24
TORSDOF 8
ENDMDL
MODEL 7
REMARK VINA RESULT:      -8.9      2.056      2.915
REMARK SMILES Nc1ccc2ccc(NC[C@H]3C[C@@H](n4ccc5c(N)ncnc54)[C@H](O)[C@@H]3O)cc2n1
REMARK SMILES IDX 10 1 9 4 8 6 2 7 3 8 30 9 4 10 29 12 5 13 28 15 6 16 7 18
REMARK SMILES IDX 1 21 11 24 12 25 26 26 13 28 24 31 27 35 14 37 15 38 23 39
REMARK SMILES IDX 16 40 17 42 22 43 18 45 21 46 20 47 19 49 25 52
REMARK H PARENT 10 2 10 3 9 5 3 11 4 14 28 17 6 19 7 20 1 22 1 23 11 27 12 29
REMARK H PARENT 12 30 26 32 13 33 24 34 27 36 15 41 16 44 21 48 19 50 19 51
REMARK H PARENT 25 53
REMARK Flexibility Score: inf
ROOT
ATOM      1  C   UNL     1     -46.441  33.684  26.455  1.00  0.00     0.020 C 
ATOM      2  H   UNL     1     -45.450  33.292  26.713  1.00  0.00     0.049 H 
ATOM      3  H   UNL     1     -46.388  34.124  25.454  1.00  0.00     0.049 H 
ENDROOT
BRANCH   1   4
ATOM      4  N   UNL     1     -47.429  32.605  26.505  1.00  0.00    -0.385 N 
ATOM      5  H   UNL     1     -47.382  32.091  27.388  1.00  0.00     0.160 HD
BRANCH   4   6
ATOM      6  C   UNL     1     -47.513  31.697  25.437  1.00  0.00     0.036 A 
ATOM      7  C   UNL     1     -49.764  27.873  23.672  1.00  0.00     0.124 A 
ATOM      8  C   UNL     1     -49.078  27.946  22.468  1.00  0.00    -0.019 A 
ATOM      9  N   UNL     1     -49.565  28.751  24.667  1.00  0.00    -0.231 NA
ATOM     10  C   UNL     1     -48.150  28.966  22.286  1.00  0.00    -0.049 A 
ATOM     11  H   UNL     1     -49.257  27.228  21.677  1.00  0.00     0.066 H 
ATOM     12  C   UNL     1     -48.668  29.739  24.499  1.00  0.00     0.075 A 
ATOM     13  C   UNL     1     -47.929  29.888  23.313  1.00  0.00     0.000 A 
ATOM     14  H   UNL     1     -47.607  29.036  21.347  1.00  0.00     0.063 H 
ATOM     15  C   UNL     1     -48.454  30.655  25.524  1.00  0.00    -0.012 A 
ATOM     16  C   UNL     1     -47.014  30.942  23.184  1.00  0.00    -0.051 A 
ATOM     17  H   UNL     1     -49.051  30.541  26.426  1.00  0.00     0.067 H 
ATOM     18  C   UNL     1     -46.821  31.844  24.234  1.00  0.00    -0.038 A 
ATOM     19  H   UNL     1     -46.451  31.077  22.263  1.00  0.00     0.063 H 
ATOM     20  H   UNL     1     -46.123  32.659  24.078  1.00  0.00     0.064 H 
BRANCH   7  21
ATOM     21  N   UNL     1     -50.706  26.860  23.879  1.00  0.00    -0.384 N 
ATOM     22  H   UNL     1     -50.301  26.132  24.460  1.00  0.00     0.158 HD
ATOM     23  H   UNL     1     -51.516  27.239  24.359  1.00  0.00     0.158 HD
ENDBRANCH   7  21
ENDBRANCH   4   6
ENDBRANCH   1   4
BRANCH   1  24
ATOM     24  C   UNL     1     -46.845  34.773  27.451  1.00  0.00     0.007 C 
ATOM     25  C   UNL     1     -45.726  35.775  27.737  1.00  0.00    -0.022 C 
ATOM     26  C   UNL     1     -47.965  35.666  26.917  1.00  0.00     0.086 C 
ATOM     27  H   UNL     1     -47.165  34.297  28.390  1.00  0.00     0.035 H 
ATOM     28  C   UNL     1     -46.450  37.037  28.252  1.00  0.00     0.064 C 
ATOM     29  H   UNL     1     -45.142  35.976  26.832  1.00  0.00     0.029 H 
ATOM     30  H   UNL     1     -45.029  35.386  28.486  1.00  0.00     0.029 H 
ATOM     31  C   UNL     1     -47.933  36.876  27.858  1.00  0.00     0.101 C 
ATOM     32  H   UNL     1     -47.777  35.971  25.882  1.00  0.00     0.063 H 
ATOM     33  H   UNL     1     -46.372  37.049  29.348  1.00  0.00     0.056 H 
ATOM     34  H   UNL     1     -48.386  37.762  27.404  1.00  0.00     0.065 H 
BRANCH  26  35
ATOM     35  O   UNL     1     -49.231  35.014  26.979  1.00  0.00    -0.390 OA
ATOM     36  H   UNL     1     -49.109  34.267  27.605  1.00  0.00     0.211 HD
ENDBRANCH  26  35
BRANCH  28  37
ATOM     37  N   UNL     1     -45.845  38.275  27.788  1.00  0.00    -0.327 N 
ATOM     38  C   UNL     1     -46.222  38.943  26.645  1.00  0.00     0.007 A 
ATOM     39  C   UNL     1     -44.825  38.961  28.402  1.00  0.00     0.145 A 
ATOM     40  C   UNL     1     -45.429  40.064  26.526  1.00  0.00    -0.031 A 
ATOM     41  H   UNL     1     -47.011  38.565  26.007  1.00  0.00     0.082 H 
ATOM     42  C   UNL     1     -44.542  40.086  27.638  1.00  0.00     0.061 A 
ATOM     43  N   UNL     1     -44.213  38.602  29.543  1.00  0.00    -0.218 NA
ATOM     44  H   UNL     1     -45.476  40.787  25.722  1.00  0.00     0.065 H 
ATOM     45  C   UNL     1     -43.517  40.922  28.101  1.00  0.00     0.136 A 
ATOM     46  C   UNL     1     -43.248  39.474  29.882  1.00  0.00     0.120 A 
ATOM     47  N   UNL     1     -42.878  40.599  29.242  1.00  0.00    -0.219 NA
ATOM     48  H   UNL     1     -42.696  39.245  30.789  1.00  0.00     0.106 H 
BRANCH  45  49
ATOM     49  N   UNL     1     -43.125  42.087  27.459  1.00  0.00    -0.383 N 
ATOM     50  H   UNL     1     -42.287  42.517  27.826  1.00  0.00     0.158 HD
ATOM     51  H   UNL     1     -43.178  41.980  26.453  1.00  0.00     0.158 HD
ENDBRANCH  45  49
ENDBRANCH  28  37
BRANCH  31  52
ATOM     52  O   UNL     1     -48.704  36.569  29.034  1.00  0.00    -0.388 OA
ATOM     53  H   UNL     1     -48.034  36.282  29.691  1.00  0.00     0.211 HD
ENDBRANCH  31  52
ENDBRANCH   1  24
TORSDOF 8
ENDMDL
