MODEL 1
REMARK VINA RESULT:     -10.0      0.000      0.000
REMARK SMILES Cc1cc2c(NCCc3ccccc3)ncnc2n1[C@@H]1C[C@H](CCc2ccc3ccc(N)nc3c2)[C@@H](O)[C@H]1O
REMARK SMILES IDX 2 1 3 2 4 3 5 4 15 5 16 6 17 7 18 8 19 9 1 12 20 16 21 17
REMARK SMILES IDX 38 18 22 20 36 23 39 27 23 29 24 32 25 35 26 36 35 37 27 38
REMARK SMILES IDX 34 40 28 42 33 44 29 45 31 46 30 47 32 50 37 53 6 55 7 57
REMARK SMILES IDX 8 60 9 63 10 64 14 65 11 66 13 68 12 70
REMARK H PARENT 3 10 16 11 1 13 1 14 1 15 20 19 21 21 21 22 38 24 22 25 36 26
REMARK H PARENT 39 28 23 30 23 31 24 33 24 34 26 39 35 41 27 43 29 48 30 49
REMARK H PARENT 32 51 32 52 37 54 6 56 7 58 7 59 8 61 8 62 10 67 14 69 11 71
REMARK H PARENT 13 72 12 73
REMARK Flexibility Score: inf
ROOT
ATOM      1  C   UNL     1     -45.242  40.080  27.021  1.00  0.00     0.018 A 
ATOM      2  C   UNL     1     -44.560  41.248  26.723  1.00  0.00    -0.028 A 
ATOM      3  C   UNL     1     -43.516  41.420  27.670  1.00  0.00     0.062 A 
ATOM      4  C   UNL     1     -42.461  42.334  27.863  1.00  0.00     0.138 A 
ATOM      5  N   UNL     1     -41.645  42.142  28.926  1.00  0.00    -0.219 NA
ATOM      6  C   UNL     1     -41.860  41.078  29.721  1.00  0.00     0.120 A 
ATOM      7  N   UNL     1     -42.810  40.138  29.612  1.00  0.00    -0.218 NA
ATOM      8  C   UNL     1     -43.615  40.363  28.558  1.00  0.00     0.146 A 
ATOM      9  N   UNL     1     -44.673  39.558  28.172  1.00  0.00    -0.324 N 
ATOM     10  H   UNL     1     -44.770  41.893  25.881  1.00  0.00     0.065 H 
ATOM     11  H   UNL     1     -41.175  40.966  30.555  1.00  0.00     0.106 H 
ENDROOT
BRANCH   1  12
ATOM     12  C   UNL     1     -46.365  39.478  26.256  1.00  0.00    -0.024 C 
ATOM     13  H   UNL     1     -47.334  39.762  26.665  1.00  0.00     0.029 H 
ATOM     14  H   UNL     1     -46.320  39.773  25.203  1.00  0.00     0.029 H 
ATOM     15  H   UNL     1     -46.311  38.385  26.292  1.00  0.00     0.029 H 
ENDBRANCH   1  12
BRANCH   9  16
ATOM     16  C   UNL     1     -45.011  38.336  28.888  1.00  0.00     0.064 C 
ATOM     17  C   UNL     1     -44.756  37.056  28.068  1.00  0.00    -0.024 C 
ATOM     18  C   UNL     1     -46.460  38.227  29.423  1.00  0.00     0.101 C 
ATOM     19  H   UNL     1     -44.350  38.296  29.764  1.00  0.00     0.056 H 
ATOM     20  C   UNL     1     -45.725  36.048  28.686  1.00  0.00    -0.010 C 
ATOM     21  H   UNL     1     -44.957  37.222  27.008  1.00  0.00     0.029 H 
ATOM     22  H   UNL     1     -43.715  36.728  28.156  1.00  0.00     0.029 H 
ATOM     23  C   UNL     1     -46.987  36.894  28.859  1.00  0.00     0.085 C 
ATOM     24  H   UNL     1     -47.102  39.070  29.158  1.00  0.00     0.065 H 
ATOM     25  H   UNL     1     -45.339  35.791  29.684  1.00  0.00     0.033 H 
ATOM     26  H   UNL     1     -47.478  37.073  27.898  1.00  0.00     0.063 H 
BRANCH  18  27
ATOM     27  O   UNL     1     -46.455  38.151  30.859  1.00  0.00    -0.388 OA
ATOM     28  H   UNL     1     -47.082  38.832  31.167  1.00  0.00     0.211 HD
ENDBRANCH  18  27
BRANCH  20  29
ATOM     29  C   UNL     1     -45.883  34.707  27.957  1.00  0.00    -0.044 C 
ATOM     30  H   UNL     1     -46.804  34.247  28.342  1.00  0.00     0.027 H 
ATOM     31  H   UNL     1     -45.073  34.037  28.268  1.00  0.00     0.027 H 
BRANCH  29  32
ATOM     32  C   UNL     1     -46.020  34.711  26.428  1.00  0.00    -0.027 C 
ATOM     33  H   UNL     1     -46.341  35.716  26.120  1.00  0.00     0.032 H 
ATOM     34  H   UNL     1     -45.031  34.574  25.976  1.00  0.00     0.032 H 
BRANCH  32  35
ATOM     35  C   UNL     1     -47.007  33.741  25.826  1.00  0.00    -0.046 A 
ATOM     36  C   UNL     1     -48.284  33.609  26.378  1.00  0.00    -0.058 A 
ATOM     37  C   UNL     1     -46.649  32.904  24.756  1.00  0.00    -0.033 A 
ATOM     38  C   UNL     1     -49.187  32.687  25.850  1.00  0.00    -0.053 A 
ATOM     39  H   UNL     1     -48.586  34.220  27.227  1.00  0.00     0.063 H 
ATOM     40  C   UNL     1     -47.532  31.983  24.203  1.00  0.00     0.073 A 
ATOM     41  H   UNL     1     -45.651  32.959  24.327  1.00  0.00     0.065 H 
ATOM     42  C   UNL     1     -48.819  31.876  24.764  1.00  0.00     0.000 A 
ATOM     43  H   UNL     1     -50.177  32.601  26.292  1.00  0.00     0.063 H 
ATOM     44  N   UNL     1     -47.136  31.235  23.160  1.00  0.00    -0.231 NA
ATOM     45  C   UNL     1     -49.696  30.943  24.204  1.00  0.00    -0.049 A 
ATOM     46  C   UNL     1     -47.992  30.345  22.634  1.00  0.00     0.124 A 
ATOM     47  C   UNL     1     -49.279  30.171  23.125  1.00  0.00    -0.019 A 
ATOM     48  H   UNL     1     -50.701  30.817  24.597  1.00  0.00     0.063 H 
ATOM     49  H   UNL     1     -49.957  29.456  22.673  1.00  0.00     0.066 H 
BRANCH  46  50
ATOM     50  N   UNL     1     -47.569  29.626  21.511  1.00  0.00    -0.384 N 
ATOM     51  H   UNL     1     -47.746  30.162  20.668  1.00  0.00     0.158 HD
ATOM     52  H   UNL     1     -46.568  29.458  21.580  1.00  0.00     0.158 HD
ENDBRANCH  46  50
ENDBRANCH  32  35
ENDBRANCH  29  32
ENDBRANCH  20  29
BRANCH  23  53
ATOM     53  O   UNL     1     -47.923  36.278  29.732  1.00  0.00    -0.390 OA
ATOM     54  H   UNL     1     -47.557  35.398  29.946  1.00  0.00     0.211 HD
ENDBRANCH  23  53
ENDBRANCH   9  16
BRANCH   4  55
ATOM     55  N   UNL     1     -42.242  43.414  26.997  1.00  0.00    -0.369 N 
ATOM     56  H   UNL     1     -43.066  44.002  26.947  1.00  0.00     0.162 HD
BRANCH  55  57
ATOM     57  C   UNL     1     -41.711  43.044  25.683  1.00  0.00     0.020 C 
ATOM     58  H   UNL     1     -40.642  43.293  25.691  1.00  0.00     0.049 H 
ATOM     59  H   UNL     1     -41.762  41.968  25.485  1.00  0.00     0.049 H 
BRANCH  57  60
ATOM     60  C   UNL     1     -42.360  43.846  24.539  1.00  0.00    -0.010 C 
ATOM     61  H   UNL     1     -41.685  44.657  24.237  1.00  0.00     0.033 H 
ATOM     62  H   UNL     1     -42.457  43.197  23.659  1.00  0.00     0.033 H 
BRANCH  60  63
ATOM     63  C   UNL     1     -43.722  44.416  24.860  1.00  0.00    -0.046 A 
ATOM     64  C   UNL     1     -43.839  45.593  25.612  1.00  0.00    -0.059 A 
ATOM     65  C   UNL     1     -44.888  43.756  24.448  1.00  0.00    -0.059 A 
ATOM     66  C   UNL     1     -45.095  46.081  25.969  1.00  0.00    -0.062 A 
ATOM     67  H   UNL     1     -42.953  46.119  25.956  1.00  0.00     0.063 H 
ATOM     68  C   UNL     1     -46.144  44.257  24.793  1.00  0.00    -0.062 A 
ATOM     69  H   UNL     1     -44.825  42.835  23.874  1.00  0.00     0.063 H 
ATOM     70  C   UNL     1     -46.248  45.417  25.558  1.00  0.00    -0.062 A 
ATOM     71  H   UNL     1     -45.178  46.971  26.586  1.00  0.00     0.062 H 
ATOM     72  H   UNL     1     -47.043  43.732  24.482  1.00  0.00     0.062 H 
ATOM     73  H   UNL     1     -47.226  45.800  25.844  1.00  0.00     0.062 H 
ENDBRANCH  60  63
ENDBRANCH  57  60
ENDBRANCH  55  57
ENDBRANCH   4  55
TORSDOF 12
ENDMDL
MODEL 2
REMARK VINA RESULT:      -9.7      2.658     12.343
REMARK SMILES Cc1cc2c(NCCc3ccccc3)ncnc2n1[C@@H]1C[C@H](CCc2ccc3ccc(N)nc3c2)[C@@H](O)[C@H]1O
REMARK SMILES IDX 2 1 3 2 4 3 5 4 15 5 16 6 17 7 18 8 19 9 1 12 20 16 21 17
REMARK SMILES IDX 38 18 22 20 36 23 39 27 23 29 24 32 25 35 26 36 35 37 27 38
REMARK SMILES IDX 34 40 28 42 33 44 29 45 31 46 30 47 32 50 37 53 6 55 7 57
REMARK SMILES IDX 8 60 9 63 10 64 14 65 11 66 13 68 12 70
REMARK H PARENT 3 10 16 11 1 13 1 14 1 15 20 19 21 21 21 22 38 24 22 25 36 26
REMARK H PARENT 39 28 23 30 23 31 24 33 24 34 26 39 35 41 27 43 29 48 30 49
REMARK H PARENT 32 51 32 52 37 54 6 56 7 58 7 59 8 61 8 62 10 67 14 69 11 71
REMARK H PARENT 13 72 12 73
REMARK Flexibility Score: inf
ROOT
ATOM      1  C   UNL     1     -49.973  32.354  24.769  1.00  0.00     0.018 A 
ATOM      2  C   UNL     1     -50.029  31.543  23.647  1.00  0.00    -0.028 A 
ATOM      3  C   UNL     1     -48.719  31.082  23.354  1.00  0.00     0.062 A 
ATOM      4  C   UNL     1     -48.138  30.200  22.421  1.00  0.00     0.138 A 
ATOM      5  N   UNL     1     -46.798  30.015  22.475  1.00  0.00    -0.219 NA
ATOM      6  C   UNL     1     -46.096  30.653  23.429  1.00  0.00     0.120 A 
ATOM      7  N   UNL     1     -46.550  31.486  24.377  1.00  0.00    -0.218 NA
ATOM      8  C   UNL     1     -47.880  31.663  24.290  1.00  0.00     0.146 A 
ATOM      9  N   UNL     1     -48.641  32.448  25.139  1.00  0.00    -0.324 N 
ATOM     10  H   UNL     1     -50.932  31.279  23.115  1.00  0.00     0.065 H 
ATOM     11  H   UNL     1     -45.027  30.467  23.432  1.00  0.00     0.106 H 
ENDROOT
BRANCH   1  12
ATOM     12  C   UNL     1     -51.117  32.999  25.465  1.00  0.00    -0.024 C 
ATOM     13  H   UNL     1     -51.596  32.324  26.174  1.00  0.00     0.029 H 
ATOM     14  H   UNL     1     -50.793  33.901  25.992  1.00  0.00     0.029 H 
ATOM     15  H   UNL     1     -51.884  33.299  24.743  1.00  0.00     0.029 H 
ENDBRANCH   1  12
BRANCH   9  16
ATOM     16  C   UNL     1     -48.050  33.165  26.260  1.00  0.00     0.064 C 
ATOM     17  C   UNL     1     -48.361  34.675  26.252  1.00  0.00    -0.024 C 
ATOM     18  C   UNL     1     -46.517  33.038  26.430  1.00  0.00     0.101 C 
ATOM     19  H   UNL     1     -48.502  32.747  27.170  1.00  0.00     0.056 H 
ATOM     20  C   UNL     1     -47.197  35.274  27.040  1.00  0.00    -0.010 C 
ATOM     21  H   UNL     1     -48.408  35.061  25.232  1.00  0.00     0.029 H 
ATOM     22  H   UNL     1     -49.326  34.886  26.725  1.00  0.00     0.029 H 
ATOM     23  C   UNL     1     -46.007  34.491  26.484  1.00  0.00     0.085 C 
ATOM     24  H   UNL     1     -46.024  32.457  25.648  1.00  0.00     0.065 H 
ATOM     25  H   UNL     1     -47.335  34.992  28.096  1.00  0.00     0.033 H 
ATOM     26  H   UNL     1     -45.752  34.825  25.473  1.00  0.00     0.063 H 
BRANCH  18  27
ATOM     27  O   UNL     1     -46.207  32.394  27.678  1.00  0.00    -0.388 OA
ATOM     28  H   UNL     1     -46.645  31.522  27.647  1.00  0.00     0.211 HD
ENDBRANCH  18  27
BRANCH  20  29
ATOM     29  C   UNL     1     -47.080  36.805  27.044  1.00  0.00    -0.044 C 
ATOM     30  H   UNL     1     -47.954  37.187  26.497  1.00  0.00     0.027 H 
ATOM     31  H   UNL     1     -46.212  37.095  26.440  1.00  0.00     0.027 H 
BRANCH  29  32
ATOM     32  C   UNL     1     -47.069  37.539  28.391  1.00  0.00    -0.027 C 
ATOM     33  H   UNL     1     -47.848  38.314  28.361  1.00  0.00     0.032 H 
ATOM     34  H   UNL     1     -47.383  36.847  29.182  1.00  0.00     0.032 H 
BRANCH  32  35
ATOM     35  C   UNL     1     -45.788  38.233  28.782  1.00  0.00    -0.046 A 
ATOM     36  C   UNL     1     -45.061  37.787  29.889  1.00  0.00    -0.058 A 
ATOM     37  C   UNL     1     -45.336  39.374  28.098  1.00  0.00    -0.033 A 
ATOM     38  C   UNL     1     -43.896  38.447  30.278  1.00  0.00    -0.053 A 
ATOM     39  H   UNL     1     -45.397  36.924  30.462  1.00  0.00     0.063 H 
ATOM     40  C   UNL     1     -44.174  40.046  28.458  1.00  0.00     0.073 A 
ATOM     41  H   UNL     1     -45.899  39.766  27.254  1.00  0.00     0.065 H 
ATOM     42  C   UNL     1     -43.447  39.572  29.567  1.00  0.00     0.000 A 
ATOM     43  H   UNL     1     -43.343  38.083  31.141  1.00  0.00     0.063 H 
ATOM     44  N   UNL     1     -43.781  41.113  27.742  1.00  0.00    -0.231 NA
ATOM     45  C   UNL     1     -42.283  40.259  29.924  1.00  0.00    -0.049 A 
ATOM     46  C   UNL     1     -42.660  41.760  28.098  1.00  0.00     0.124 A 
ATOM     47  C   UNL     1     -41.883  41.364  29.178  1.00  0.00    -0.019 A 
ATOM     48  H   UNL     1     -41.684  39.939  30.771  1.00  0.00     0.063 H 
ATOM     49  H   UNL     1     -40.974  41.894  29.436  1.00  0.00     0.066 H 
BRANCH  46  50
ATOM     50  N   UNL     1     -42.248  42.828  27.295  1.00  0.00    -0.384 N 
ATOM     51  H   UNL     1     -42.268  43.692  27.826  1.00  0.00     0.158 HD
ATOM     52  H   UNL     1     -41.293  42.664  26.985  1.00  0.00     0.158 HD
ENDBRANCH  46  50
ENDBRANCH  32  35
ENDBRANCH  29  32
ENDBRANCH  20  29
BRANCH  23  53
ATOM     53  O   UNL     1     -44.855  34.623  27.303  1.00  0.00    -0.390 OA
ATOM     54  H   UNL     1     -44.548  35.544  27.195  1.00  0.00     0.211 HD
ENDBRANCH  23  53
ENDBRANCH   9  16
BRANCH   4  55
ATOM     55  N   UNL     1     -48.900  29.522  21.459  1.00  0.00    -0.369 N 
ATOM     56  H   UNL     1     -49.763  30.021  21.275  1.00  0.00     0.162 HD
BRANCH  55  57
ATOM     57  C   UNL     1     -49.100  28.097  21.733  1.00  0.00     0.020 C 
ATOM     58  H   UNL     1     -49.599  27.672  20.852  1.00  0.00     0.049 H 
ATOM     59  H   UNL     1     -48.161  27.542  21.836  1.00  0.00     0.049 H 
BRANCH  57  60
ATOM     60  C   UNL     1     -50.019  27.853  22.944  1.00  0.00    -0.010 C 
ATOM     61  H   UNL     1     -50.395  28.815  23.313  1.00  0.00     0.033 H 
ATOM     62  H   UNL     1     -50.905  27.294  22.613  1.00  0.00     0.033 H 
BRANCH  60  63
ATOM     63  C   UNL     1     -49.378  27.093  24.081  1.00  0.00    -0.046 A 
ATOM     64  C   UNL     1     -50.151  26.262  24.905  1.00  0.00    -0.059 A 
ATOM     65  C   UNL     1     -48.011  27.238  24.357  1.00  0.00    -0.059 A 
ATOM     66  C   UNL     1     -49.574  25.616  25.997  1.00  0.00    -0.062 A 
ATOM     67  H   UNL     1     -51.215  26.140  24.723  1.00  0.00     0.063 H 
ATOM     68  C   UNL     1     -47.433  26.576  25.441  1.00  0.00    -0.062 A 
ATOM     69  H   UNL     1     -47.391  27.886  23.742  1.00  0.00     0.063 H 
ATOM     70  C   UNL     1     -48.216  25.769  26.265  1.00  0.00    -0.062 A 
ATOM     71  H   UNL     1     -50.187  25.007  26.654  1.00  0.00     0.062 H 
ATOM     72  H   UNL     1     -46.377  26.705  25.658  1.00  0.00     0.062 H 
ATOM     73  H   UNL     1     -47.772  25.266  27.122  1.00  0.00     0.062 H 
ENDBRANCH  60  63
ENDBRANCH  57  60
ENDBRANCH  55  57
ENDBRANCH   4  55
TORSDOF 12
ENDMDL
MODEL 3
REMARK VINA RESULT:      -9.7      2.200     10.550
REMARK SMILES Cc1cc2c(NCCc3ccccc3)ncnc2n1[C@@H]1C[C@H](CCc2ccc3ccc(N)nc3c2)[C@@H](O)[C@H]1O
REMARK SMILES IDX 2 1 3 2 4 3 5 4 15 5 16 6 17 7 18 8 19 9 1 12 20 16 21 17
REMARK SMILES IDX 38 18 22 20 36 23 39 27 23 29 24 32 25 35 26 36 35 37 27 38
REMARK SMILES IDX 34 40 28 42 33 44 29 45 31 46 30 47 32 50 37 53 6 55 7 57
REMARK SMILES IDX 8 60 9 63 10 64 14 65 11 66 13 68 12 70
REMARK H PARENT 3 10 16 11 1 13 1 14 1 15 20 19 21 21 21 22 38 24 22 25 36 26
REMARK H PARENT 39 28 23 30 23 31 24 33 24 34 26 39 35 41 27 43 29 48 30 49
REMARK H PARENT 32 51 32 52 37 54 6 56 7 58 7 59 8 61 8 62 10 67 14 69 11 71
REMARK H PARENT 13 72 12 73
REMARK Flexibility Score: inf
ROOT
ATOM      1  C   UNL     1     -49.102  35.370  27.029  1.00  0.00     0.018 A 
ATOM      2  C   UNL     1     -49.529  34.161  26.504  1.00  0.00    -0.028 A 
ATOM      3  C   UNL     1     -48.408  33.481  25.959  1.00  0.00     0.062 A 
ATOM      4  C   UNL     1     -48.171  32.224  25.369  1.00  0.00     0.138 A 
ATOM      5  N   UNL     1     -46.909  31.940  24.969  1.00  0.00    -0.219 NA
ATOM      6  C   UNL     1     -45.945  32.852  25.182  1.00  0.00     0.120 A 
ATOM      7  N   UNL     1     -46.054  34.060  25.756  1.00  0.00    -0.218 NA
ATOM      8  C   UNL     1     -47.320  34.321  26.128  1.00  0.00     0.146 A 
ATOM      9  N   UNL     1     -47.746  35.475  26.764  1.00  0.00    -0.324 N 
ATOM     10  H   UNL     1     -50.543  33.788  26.545  1.00  0.00     0.065 H 
ATOM     11  H   UNL     1     -44.950  32.574  24.848  1.00  0.00     0.106 H 
ENDROOT
BRANCH   1  12
ATOM     12  C   UNL     1     -49.927  36.373  27.753  1.00  0.00    -0.024 C 
ATOM     13  H   UNL     1     -50.989  36.133  27.710  1.00  0.00     0.029 H 
ATOM     14  H   UNL     1     -49.617  36.448  28.800  1.00  0.00     0.029 H 
ATOM     15  H   UNL     1     -49.805  37.365  27.304  1.00  0.00     0.029 H 
ENDBRANCH   1  12
BRANCH   9  16
ATOM     16  C   UNL     1     -46.822  36.542  27.119  1.00  0.00     0.064 C 
ATOM     17  C   UNL     1     -46.146  36.334  28.489  1.00  0.00    -0.024 C 
ATOM     18  C   UNL     1     -47.400  37.979  27.134  1.00  0.00     0.101 C 
ATOM     19  H   UNL     1     -46.027  36.531  26.362  1.00  0.00     0.056 H 
ATOM     20  C   UNL     1     -45.789  37.757  28.921  1.00  0.00    -0.010 C 
ATOM     21  H   UNL     1     -46.825  35.850  29.193  1.00  0.00     0.029 H 
ATOM     22  H   UNL     1     -45.257  35.700  28.402  1.00  0.00     0.029 H 
ATOM     23  C   UNL     1     -47.052  38.527  28.532  1.00  0.00     0.085 C 
ATOM     24  H   UNL     1     -48.469  38.036  26.923  1.00  0.00     0.065 H 
ATOM     25  H   UNL     1     -44.962  38.098  28.278  1.00  0.00     0.033 H 
ATOM     26  H   UNL     1     -47.874  38.313  29.222  1.00  0.00     0.063 H 
BRANCH  18  27
ATOM     27  O   UNL     1     -46.741  38.788  26.144  1.00  0.00    -0.388 OA
ATOM     28  H   UNL     1     -47.446  39.303  25.706  1.00  0.00     0.211 HD
ENDBRANCH  18  27
BRANCH  20  29
ATOM     29  C   UNL     1     -45.283  37.936  30.359  1.00  0.00    -0.044 C 
ATOM     30  H   UNL     1     -45.342  36.948  30.837  1.00  0.00     0.027 H 
ATOM     31  H   UNL     1     -45.992  38.566  30.908  1.00  0.00     0.027 H 
BRANCH  29  32
ATOM     32  C   UNL     1     -43.845  38.426  30.577  1.00  0.00    -0.027 C 
ATOM     33  H   UNL     1     -43.776  38.831  31.596  1.00  0.00     0.032 H 
ATOM     34  H   UNL     1     -43.164  37.567  30.562  1.00  0.00     0.032 H 
BRANCH  32  35
ATOM     35  C   UNL     1     -43.342  39.506  29.651  1.00  0.00    -0.046 A 
ATOM     36  C   UNL     1     -42.216  40.257  29.999  1.00  0.00    -0.058 A 
ATOM     37  C   UNL     1     -44.024  39.829  28.466  1.00  0.00    -0.033 A 
ATOM     38  C   UNL     1     -41.768  41.282  29.166  1.00  0.00    -0.053 A 
ATOM     39  H   UNL     1     -41.680  40.055  30.925  1.00  0.00     0.063 H 
ATOM     40  C   UNL     1     -43.595  40.839  27.612  1.00  0.00     0.073 A 
ATOM     41  H   UNL     1     -44.923  39.286  28.185  1.00  0.00     0.065 H 
ATOM     42  C   UNL     1     -42.450  41.575  27.974  1.00  0.00     0.000 A 
ATOM     43  H   UNL     1     -40.888  41.853  29.453  1.00  0.00     0.063 H 
ATOM     44  N   UNL     1     -44.275  41.077  26.479  1.00  0.00    -0.231 NA
ATOM     45  C   UNL     1     -42.031  42.591  27.110  1.00  0.00    -0.049 A 
ATOM     46  C   UNL     1     -43.858  42.056  25.661  1.00  0.00     0.124 A 
ATOM     47  C   UNL     1     -42.741  42.832  25.939  1.00  0.00    -0.019 A 
ATOM     48  H   UNL     1     -41.155  43.191  27.339  1.00  0.00     0.063 H 
ATOM     49  H   UNL     1     -42.416  43.607  25.255  1.00  0.00     0.066 H 
BRANCH  46  50
ATOM     50  N   UNL     1     -44.553  42.235  24.460  1.00  0.00    -0.384 N 
ATOM     51  H   UNL     1     -44.925  43.179  24.410  1.00  0.00     0.158 HD
ATOM     52  H   UNL     1     -43.914  42.101  23.681  1.00  0.00     0.158 HD
ENDBRANCH  46  50
ENDBRANCH  32  35
ENDBRANCH  29  32
ENDBRANCH  20  29
BRANCH  23  53
ATOM     53  O   UNL     1     -46.834  39.930  28.515  1.00  0.00    -0.390 OA
ATOM     54  H   UNL     1     -45.934  40.061  28.159  1.00  0.00     0.211 HD
ENDBRANCH  23  53
ENDBRANCH   9  16
BRANCH   4  55
ATOM     55  N   UNL     1     -49.192  31.279  25.191  1.00  0.00    -0.369 N 
ATOM     56  H   UNL     1     -48.890  30.367  25.513  1.00  0.00     0.162 HD
BRANCH  55  57
ATOM     57  C   UNL     1     -49.776  31.258  23.848  1.00  0.00     0.020 C 
ATOM     58  H   UNL     1     -50.843  31.035  23.970  1.00  0.00     0.049 H 
ATOM     59  H   UNL     1     -49.733  32.231  23.344  1.00  0.00     0.049 H 
BRANCH  57  60
ATOM     60  C   UNL     1     -49.174  30.152  22.961  1.00  0.00    -0.010 C 
ATOM     61  H   UNL     1     -48.491  29.538  23.562  1.00  0.00     0.033 H 
ATOM     62  H   UNL     1     -49.978  29.476  22.640  1.00  0.00     0.033 H 
BRANCH  60  63
ATOM     63  C   UNL     1     -48.454  30.650  21.731  1.00  0.00    -0.046 A 
ATOM     64  C   UNL     1     -47.056  30.761  21.723  1.00  0.00    -0.059 A 
ATOM     65  C   UNL     1     -49.171  31.048  20.594  1.00  0.00    -0.059 A 
ATOM     66  C   UNL     1     -46.395  31.287  20.614  1.00  0.00    -0.062 A 
ATOM     67  H   UNL     1     -46.474  30.472  22.594  1.00  0.00     0.063 H 
ATOM     68  C   UNL     1     -48.504  31.558  19.479  1.00  0.00    -0.062 A 
ATOM     69  H   UNL     1     -50.256  30.984  20.578  1.00  0.00     0.063 H 
ATOM     70  C   UNL     1     -47.117  31.683  19.491  1.00  0.00    -0.062 A 
ATOM     71  H   UNL     1     -45.316  31.408  20.631  1.00  0.00     0.062 H 
ATOM     72  H   UNL     1     -49.068  31.879  18.608  1.00  0.00     0.062 H 
ATOM     73  H   UNL     1     -46.595  32.098  18.630  1.00  0.00     0.062 H 
ENDBRANCH  60  63
ENDBRANCH  57  60
ENDBRANCH  55  57
ENDBRANCH   4  55
TORSDOF 12
ENDMDL
MODEL 4
REMARK VINA RESULT:      -9.0      1.950      2.755
REMARK SMILES Cc1cc2c(NCCc3ccccc3)ncnc2n1[C@@H]1C[C@H](CCc2ccc3ccc(N)nc3c2)[C@@H](O)[C@H]1O
REMARK SMILES IDX 2 1 3 2 4 3 5 4 15 5 16 6 17 7 18 8 19 9 1 12 20 16 21 17
REMARK SMILES IDX 38 18 22 20 36 23 39 27 23 29 24 32 25 35 26 36 35 37 27 38
REMARK SMILES IDX 34 40 28 42 33 44 29 45 31 46 30 47 32 50 37 53 6 55 7 57
REMARK SMILES IDX 8 60 9 63 10 64 14 65 11 66 13 68 12 70
REMARK H PARENT 3 10 16 11 1 13 1 14 1 15 20 19 21 21 21 22 38 24 22 25 36 26
REMARK H PARENT 39 28 23 30 23 31 24 33 24 34 26 39 35 41 27 43 29 48 30 49
REMARK H PARENT 32 51 32 52 37 54 6 56 7 58 7 59 8 61 8 62 10 67 14 69 11 71
REMARK H PARENT 13 72 12 73
REMARK Flexibility Score: inf
ROOT
ATOM      1  C   UNL     1     -43.122  40.361  28.922  1.00  0.00     0.018 A 
ATOM      2  C   UNL     1     -42.572  41.381  28.162  1.00  0.00    -0.028 A 
ATOM      3  C   UNL     1     -43.491  41.732  27.138  1.00  0.00     0.062 A 
ATOM      4  C   UNL     1     -43.557  42.707  26.124  1.00  0.00     0.138 A 
ATOM      5  N   UNL     1     -44.650  42.716  25.324  1.00  0.00    -0.219 NA
ATOM      6  C   UNL     1     -45.626  41.820  25.556  1.00  0.00     0.120 A 
ATOM      7  N   UNL     1     -45.677  40.874  26.505  1.00  0.00    -0.218 NA
ATOM      8  C   UNL     1     -44.573  40.878  27.273  1.00  0.00     0.146 A 
ATOM      9  N   UNL     1     -44.341  40.036  28.347  1.00  0.00    -0.324 N 
ATOM     10  H   UNL     1     -41.619  41.853  28.352  1.00  0.00     0.065 H 
ATOM     11  H   UNL     1     -46.481  41.872  24.891  1.00  0.00     0.106 H 
ENDROOT
BRANCH   1  12
ATOM     12  C   UNL     1     -42.536  39.731  30.133  1.00  0.00    -0.024 C 
ATOM     13  H   UNL     1     -42.899  38.714  30.280  1.00  0.00     0.029 H 
ATOM     14  H   UNL     1     -41.444  39.717  30.074  1.00  0.00     0.029 H 
ATOM     15  H   UNL     1     -42.808  40.299  31.030  1.00  0.00     0.029 H 
ENDBRANCH   1  12
BRANCH   9  16
ATOM     16  C   UNL     1     -45.318  39.043  28.771  1.00  0.00     0.064 C 
ATOM     17  C   UNL     1     -44.954  37.607  28.344  1.00  0.00    -0.024 C 
ATOM     18  C   UNL     1     -46.779  39.274  28.317  1.00  0.00     0.101 C 
ATOM     19  H   UNL     1     -45.323  39.061  29.869  1.00  0.00     0.056 H 
ATOM     20  C   UNL     1     -46.310  36.905  28.295  1.00  0.00    -0.010 C 
ATOM     21  H   UNL     1     -44.453  37.600  27.374  1.00  0.00     0.029 H 
ATOM     22  H   UNL     1     -44.277  37.136  29.065  1.00  0.00     0.029 H 
ATOM     23  C   UNL     1     -47.185  37.961  27.619  1.00  0.00     0.085 C 
ATOM     24  H   UNL     1     -46.918  40.144  27.672  1.00  0.00     0.065 H 
ATOM     25  H   UNL     1     -46.655  36.781  29.333  1.00  0.00     0.033 H 
ATOM     26  H   UNL     1     -46.963  38.034  26.550  1.00  0.00     0.063 H 
BRANCH  18  27
ATOM     27  O   UNL     1     -47.629  39.470  29.461  1.00  0.00    -0.388 OA
ATOM     28  H   UNL     1     -48.436  38.946  29.289  1.00  0.00     0.211 HD
ENDBRANCH  18  27
BRANCH  20  29
ATOM     29  C   UNL     1     -46.336  35.493  27.691  1.00  0.00    -0.044 C 
ATOM     30  H   UNL     1     -47.108  34.933  28.235  1.00  0.00     0.027 H 
ATOM     31  H   UNL     1     -45.391  34.990  27.928  1.00  0.00     0.027 H 
BRANCH  29  32
ATOM     32  C   UNL     1     -46.670  35.336  26.201  1.00  0.00    -0.027 C 
ATOM     33  H   UNL     1     -47.470  36.049  25.957  1.00  0.00     0.032 H 
ATOM     34  H   UNL     1     -45.809  35.654  25.602  1.00  0.00     0.032 H 
BRANCH  32  35
ATOM     35  C   UNL     1     -47.149  33.980  25.747  1.00  0.00    -0.046 A 
ATOM     36  C   UNL     1     -48.320  33.435  26.282  1.00  0.00    -0.058 A 
ATOM     37  C   UNL     1     -46.404  33.207  24.840  1.00  0.00    -0.033 A 
ATOM     38  C   UNL     1     -48.748  32.166  25.894  1.00  0.00    -0.053 A 
ATOM     39  H   UNL     1     -48.907  33.993  27.010  1.00  0.00     0.063 H 
ATOM     40  C   UNL     1     -46.812  31.943  24.429  1.00  0.00     0.073 A 
ATOM     41  H   UNL     1     -45.471  33.588  24.432  1.00  0.00     0.065 H 
ATOM     42  C   UNL     1     -48.002  31.419  24.969  1.00  0.00     0.000 A 
ATOM     43  H   UNL     1     -49.663  31.761  26.321  1.00  0.00     0.063 H 
ATOM     44  N   UNL     1     -46.068  31.269  23.535  1.00  0.00    -0.231 NA
ATOM     45  C   UNL     1     -48.399  30.145  24.552  1.00  0.00    -0.049 A 
ATOM     46  C   UNL     1     -46.465  30.048  23.145  1.00  0.00     0.124 A 
ATOM     47  C   UNL     1     -47.624  29.453  23.627  1.00  0.00    -0.019 A 
ATOM     48  H   UNL     1     -49.307  29.690  24.937  1.00  0.00     0.063 H 
ATOM     49  H   UNL     1     -47.930  28.471  23.286  1.00  0.00     0.066 H 
BRANCH  46  50
ATOM     50  N   UNL     1     -45.701  29.401  22.169  1.00  0.00    -0.384 N 
ATOM     51  H   UNL     1     -46.118  29.536  21.254  1.00  0.00     0.158 HD
ATOM     52  H   UNL     1     -44.766  29.801  22.157  1.00  0.00     0.158 HD
ENDBRANCH  46  50
ENDBRANCH  32  35
ENDBRANCH  29  32
ENDBRANCH  20  29
BRANCH  23  53
ATOM     53  O   UNL     1     -48.569  37.682  27.770  1.00  0.00    -0.390 OA
ATOM     54  H   UNL     1     -48.640  36.714  27.882  1.00  0.00     0.211 HD
ENDBRANCH  23  53
ENDBRANCH   9  16
BRANCH   4  55
ATOM     55  N   UNL     1     -42.538  43.650  25.928  1.00  0.00    -0.369 N 
ATOM     56  H   UNL     1     -42.325  44.127  26.796  1.00  0.00     0.162 HD
BRANCH  55  57
ATOM     57  C   UNL     1     -42.760  44.562  24.803  1.00  0.00     0.020 C 
ATOM     58  H   UNL     1     -43.845  44.698  24.715  1.00  0.00     0.049 H 
ATOM     59  H   UNL     1     -42.350  45.565  24.973  1.00  0.00     0.049 H 
BRANCH  57  60
ATOM     60  C   UNL     1     -42.260  43.983  23.467  1.00  0.00    -0.010 C 
ATOM     61  H   UNL     1     -41.185  44.179  23.366  1.00  0.00     0.033 H 
ATOM     62  H   UNL     1     -42.361  42.890  23.492  1.00  0.00     0.033 H 
BRANCH  60  63
ATOM     63  C   UNL     1     -42.983  44.498  22.244  1.00  0.00    -0.046 A 
ATOM     64  C   UNL     1     -42.268  44.827  21.084  1.00  0.00    -0.059 A 
ATOM     65  C   UNL     1     -44.370  44.694  22.264  1.00  0.00    -0.059 A 
ATOM     66  C   UNL     1     -42.925  45.368  19.979  1.00  0.00    -0.062 A 
ATOM     67  H   UNL     1     -41.190  44.697  21.043  1.00  0.00     0.063 H 
ATOM     68  C   UNL     1     -45.027  45.221  21.151  1.00  0.00    -0.062 A 
ATOM     69  H   UNL     1     -44.947  44.459  23.156  1.00  0.00     0.063 H 
ATOM     70  C   UNL     1     -44.304  45.563  20.010  1.00  0.00    -0.062 A 
ATOM     71  H   UNL     1     -42.360  45.658  19.099  1.00  0.00     0.062 H 
ATOM     72  H   UNL     1     -46.101  45.384  21.179  1.00  0.00     0.062 H 
ATOM     73  H   UNL     1     -44.810  45.991  19.147  1.00  0.00     0.062 H 
ENDBRANCH  60  63
ENDBRANCH  57  60
ENDBRANCH  55  57
ENDBRANCH   4  55
TORSDOF 12
ENDMDL
MODEL 5
REMARK VINA RESULT:      -9.0      1.791      2.407
REMARK SMILES Cc1cc2c(NCCc3ccccc3)ncnc2n1[C@@H]1C[C@H](CCc2ccc3ccc(N)nc3c2)[C@@H](O)[C@H]1O
REMARK SMILES IDX 2 1 3 2 4 3 5 4 15 5 16 6 17 7 18 8 19 9 1 12 20 16 21 17
REMARK SMILES IDX 38 18 22 20 36 23 39 27 23 29 24 32 25 35 26 36 35 37 27 38
REMARK SMILES IDX 34 40 28 42 33 44 29 45 31 46 30 47 32 50 37 53 6 55 7 57
REMARK SMILES IDX 8 60 9 63 10 64 14 65 11 66 13 68 12 70
REMARK H PARENT 3 10 16 11 1 13 1 14 1 15 20 19 21 21 21 22 38 24 22 25 36 26
REMARK H PARENT 39 28 23 30 23 31 24 33 24 34 26 39 35 41 27 43 29 48 30 49
REMARK H PARENT 32 51 32 52 37 54 6 56 7 58 7 59 8 61 8 62 10 67 14 69 11 71
REMARK H PARENT 13 72 12 73
REMARK Flexibility Score: inf
ROOT
ATOM      1  C   UNL     1     -46.266  40.917  26.748  1.00  0.00     0.018 A 
ATOM      2  C   UNL     1     -45.931  42.156  26.226  1.00  0.00    -0.028 A 
ATOM      3  C   UNL     1     -44.530  42.343  26.360  1.00  0.00     0.062 A 
ATOM      4  C   UNL     1     -43.594  43.322  25.974  1.00  0.00     0.138 A 
ATOM      5  N   UNL     1     -42.295  43.120  26.297  1.00  0.00    -0.219 NA
ATOM      6  C   UNL     1     -41.960  41.986  26.939  1.00  0.00     0.120 A 
ATOM      7  N   UNL     1     -42.760  40.982  27.326  1.00  0.00    -0.218 NA
ATOM      8  C   UNL     1     -44.045  41.218  27.006  1.00  0.00     0.146 A 
ATOM      9  N   UNL     1     -45.103  40.359  27.255  1.00  0.00    -0.324 N 
ATOM     10  H   UNL     1     -46.624  42.843  25.759  1.00  0.00     0.065 H 
ATOM     11  H   UNL     1     -40.906  41.869  27.171  1.00  0.00     0.106 H 
ENDROOT
BRANCH   1  12
ATOM     12  C   UNL     1     -47.611  40.284  26.758  1.00  0.00    -0.024 C 
ATOM     13  H   UNL     1     -47.620  39.340  26.216  1.00  0.00     0.029 H 
ATOM     14  H   UNL     1     -47.951  40.113  27.784  1.00  0.00     0.029 H 
ATOM     15  H   UNL     1     -48.345  40.938  26.274  1.00  0.00     0.029 H 
ENDBRANCH   1  12
BRANCH   9  16
ATOM     16  C   UNL     1     -44.910  39.065  27.892  1.00  0.00     0.064 C 
ATOM     17  C   UNL     1     -45.488  37.891  27.077  1.00  0.00    -0.024 C 
ATOM     18  C   UNL     1     -45.466  38.912  29.329  1.00  0.00     0.101 C 
ATOM     19  H   UNL     1     -43.825  38.909  27.957  1.00  0.00     0.056 H 
ATOM     20  C   UNL     1     -45.759  36.829  28.142  1.00  0.00    -0.010 C 
ATOM     21  H   UNL     1     -46.398  38.187  26.552  1.00  0.00     0.029 H 
ATOM     22  H   UNL     1     -44.775  37.540  26.323  1.00  0.00     0.029 H 
ATOM     23  C   UNL     1     -46.368  37.664  29.269  1.00  0.00     0.085 C 
ATOM     24  H   UNL     1     -45.999  39.789  29.700  1.00  0.00     0.065 H 
ATOM     25  H   UNL     1     -44.784  36.446  28.481  1.00  0.00     0.033 H 
ATOM     26  H   UNL     1     -47.392  37.966  29.029  1.00  0.00     0.063 H 
BRANCH  18  27
ATOM     27  O   UNL     1     -44.392  38.662  30.252  1.00  0.00    -0.388 OA
ATOM     28  H   UNL     1     -43.855  39.477  30.268  1.00  0.00     0.211 HD
ENDBRANCH  18  27
BRANCH  20  29
ATOM     29  C   UNL     1     -46.545  35.588  27.696  1.00  0.00    -0.044 C 
ATOM     30  H   UNL     1     -47.532  35.653  28.175  1.00  0.00     0.027 H 
ATOM     31  H   UNL     1     -46.073  34.696  28.126  1.00  0.00     0.027 H 
BRANCH  29  32
ATOM     32  C   UNL     1     -46.814  35.386  26.199  1.00  0.00    -0.027 C 
ATOM     33  H   UNL     1     -47.626  36.066  25.906  1.00  0.00     0.032 H 
ATOM     34  H   UNL     1     -45.940  35.718  25.627  1.00  0.00     0.032 H 
BRANCH  32  35
ATOM     35  C   UNL     1     -47.231  34.005  25.759  1.00  0.00    -0.046 A 
ATOM     36  C   UNL     1     -48.355  33.399  26.327  1.00  0.00    -0.058 A 
ATOM     37  C   UNL     1     -46.471  33.272  24.831  1.00  0.00    -0.033 A 
ATOM     38  C   UNL     1     -48.724  32.107  25.951  1.00  0.00    -0.053 A 
ATOM     39  H   UNL     1     -48.951  33.924  27.071  1.00  0.00     0.063 H 
ATOM     40  C   UNL     1     -46.820  31.987  24.432  1.00  0.00     0.073 A 
ATOM     41  H   UNL     1     -45.572  33.703  24.397  1.00  0.00     0.065 H 
ATOM     42  C   UNL     1     -47.964  31.400  25.005  1.00  0.00     0.000 A 
ATOM     43  H   UNL     1     -49.603  31.654  26.403  1.00  0.00     0.063 H 
ATOM     44  N   UNL     1     -46.067  31.354  23.518  1.00  0.00    -0.231 NA
ATOM     45  C   UNL     1     -48.303  30.106  24.600  1.00  0.00    -0.049 A 
ATOM     46  C   UNL     1     -46.407  30.111  23.139  1.00  0.00     0.124 A 
ATOM     47  C   UNL     1     -47.517  29.455  23.654  1.00  0.00    -0.019 A 
ATOM     48  H   UNL     1     -49.174  29.603  25.010  1.00  0.00     0.063 H 
ATOM     49  H   UNL     1     -47.780  28.458  23.321  1.00  0.00     0.066 H 
BRANCH  46  50
ATOM     50  N   UNL     1     -45.637  29.506  22.142  1.00  0.00    -0.384 N 
ATOM     51  H   UNL     1     -44.786  29.124  22.542  1.00  0.00     0.158 HD
ATOM     52  H   UNL     1     -46.167  28.743  21.727  1.00  0.00     0.158 HD
ENDBRANCH  46  50
ENDBRANCH  32  35
ENDBRANCH  29  32
ENDBRANCH  20  29
BRANCH  23  53
ATOM     53  O   UNL     1     -46.387  36.960  30.502  1.00  0.00    -0.390 OA
ATOM     54  H   UNL     1     -47.064  37.397  31.054  1.00  0.00     0.211 HD
ENDBRANCH  23  53
ENDBRANCH   9  16
BRANCH   4  55
ATOM     55  N   UNL     1     -43.970  44.478  25.275  1.00  0.00    -0.369 N 
ATOM     56  H   UNL     1     -43.262  44.727  24.594  1.00  0.00     0.162 HD
BRANCH  55  57
ATOM     57  C   UNL     1     -44.376  45.600  26.126  1.00  0.00     0.020 C 
ATOM     58  H   UNL     1     -44.238  45.275  27.165  1.00  0.00     0.049 H 
ATOM     59  H   UNL     1     -43.741  46.485  26.007  1.00  0.00     0.049 H 
BRANCH  57  60
ATOM     60  C   UNL     1     -45.863  45.962  25.951  1.00  0.00    -0.010 C 
ATOM     61  H   UNL     1     -45.942  46.968  25.520  1.00  0.00     0.033 H 
ATOM     62  H   UNL     1     -46.311  45.285  25.213  1.00  0.00     0.033 H 
BRANCH  60  63
ATOM     63  C   UNL     1     -46.683  45.892  27.218  1.00  0.00    -0.046 A 
ATOM     64  C   UNL     1     -46.197  46.446  28.410  1.00  0.00    -0.059 A 
ATOM     65  C   UNL     1     -47.923  45.237  27.231  1.00  0.00    -0.059 A 
ATOM     66  C   UNL     1     -46.921  46.320  29.595  1.00  0.00    -0.062 A 
ATOM     67  H   UNL     1     -45.234  46.949  28.433  1.00  0.00     0.063 H 
ATOM     68  C   UNL     1     -48.653  45.127  28.416  1.00  0.00    -0.062 A 
ATOM     69  H   UNL     1     -48.317  44.788  26.324  1.00  0.00     0.063 H 
ATOM     70  C   UNL     1     -48.149  45.664  29.599  1.00  0.00    -0.062 A 
ATOM     71  H   UNL     1     -46.519  46.715  30.523  1.00  0.00     0.062 H 
ATOM     72  H   UNL     1     -49.605  44.605  28.422  1.00  0.00     0.062 H 
ATOM     73  H   UNL     1     -48.708  45.564  30.528  1.00  0.00     0.062 H 
ENDBRANCH  60  63
ENDBRANCH  57  60
ENDBRANCH  55  57
ENDBRANCH   4  55
TORSDOF 12
ENDMDL
MODEL 6
REMARK VINA RESULT:      -8.9      1.992      2.681
REMARK SMILES Cc1cc2c(NCCc3ccccc3)ncnc2n1[C@@H]1C[C@H](CCc2ccc3ccc(N)nc3c2)[C@@H](O)[C@H]1O
REMARK SMILES IDX 2 1 3 2 4 3 5 4 15 5 16 6 17 7 18 8 19 9 1 12 20 16 21 17
REMARK SMILES IDX 38 18 22 20 36 23 39 27 23 29 24 32 25 35 26 36 35 37 27 38
REMARK SMILES IDX 34 40 28 42 33 44 29 45 31 46 30 47 32 50 37 53 6 55 7 57
REMARK SMILES IDX 8 60 9 63 10 64 14 65 11 66 13 68 12 70
REMARK H PARENT 3 10 16 11 1 13 1 14 1 15 20 19 21 21 21 22 38 24 22 25 36 26
REMARK H PARENT 39 28 23 30 23 31 24 33 24 34 26 39 35 41 27 43 29 48 30 49
REMARK H PARENT 32 51 32 52 37 54 6 56 7 58 7 59 8 61 8 62 10 67 14 69 11 71
REMARK H PARENT 13 72 12 73
REMARK Flexibility Score: inf
ROOT
ATOM      1  C   UNL     1     -47.387  39.885  27.433  1.00  0.00     0.018 A 
ATOM      2  C   UNL     1     -47.386  41.156  26.882  1.00  0.00    -0.028 A 
ATOM      3  C   UNL     1     -46.050  41.510  26.556  1.00  0.00     0.062 A 
ATOM      4  C   UNL     1     -45.413  42.596  25.925  1.00  0.00     0.138 A 
ATOM      5  N   UNL     1     -44.065  42.551  25.796  1.00  0.00    -0.219 NA
ATOM      6  C   UNL     1     -43.411  41.466  26.245  1.00  0.00     0.120 A 
ATOM      7  N   UNL     1     -43.918  40.372  26.832  1.00  0.00    -0.218 NA
ATOM      8  C   UNL     1     -45.255  40.451  26.961  1.00  0.00     0.146 A 
ATOM      9  N   UNL     1     -46.066  39.471  27.508  1.00  0.00    -0.324 N 
ATOM     10  H   UNL     1     -48.267  41.754  26.696  1.00  0.00     0.065 H 
ATOM     11  H   UNL     1     -42.334  41.477  26.114  1.00  0.00     0.106 H 
ENDROOT
BRANCH   1  12
ATOM     12  C   UNL     1     -48.571  39.094  27.859  1.00  0.00    -0.024 C 
ATOM     13  H   UNL     1     -48.652  38.156  27.311  1.00  0.00     0.029 H 
ATOM     14  H   UNL     1     -48.532  38.882  28.931  1.00  0.00     0.029 H 
ATOM     15  H   UNL     1     -49.493  39.655  27.669  1.00  0.00     0.029 H 
ENDBRANCH   1  12
BRANCH   9  16
ATOM     16  C   UNL     1     -45.527  38.209  27.993  1.00  0.00     0.064 C 
ATOM     17  C   UNL     1     -45.965  36.994  27.151  1.00  0.00    -0.024 C 
ATOM     18  C   UNL     1     -45.832  37.849  29.467  1.00  0.00     0.101 C 
ATOM     19  H   UNL     1     -44.435  38.284  27.907  1.00  0.00     0.056 H 
ATOM     20  C   UNL     1     -45.863  35.832  28.138  1.00  0.00    -0.010 C 
ATOM     21  H   UNL     1     -46.982  37.124  26.774  1.00  0.00     0.029 H 
ATOM     22  H   UNL     1     -45.311  36.852  26.285  1.00  0.00     0.029 H 
ATOM     23  C   UNL     1     -46.463  36.444  29.405  1.00  0.00     0.085 C 
ATOM     24  H   UNL     1     -46.473  38.567  29.982  1.00  0.00     0.065 H 
ATOM     25  H   UNL     1     -44.793  35.644  28.316  1.00  0.00     0.033 H 
ATOM     26  H   UNL     1     -47.550  36.536  29.323  1.00  0.00     0.063 H 
BRANCH  18  27
ATOM     27  O   UNL     1     -44.610  37.773  30.222  1.00  0.00    -0.388 OA
ATOM     28  H   UNL     1     -44.252  38.681  30.246  1.00  0.00     0.211 HD
ENDBRANCH  18  27
BRANCH  20  29
ATOM     29  C   UNL     1     -46.438  34.484  27.681  1.00  0.00    -0.044 C 
ATOM     30  H   UNL     1     -46.976  34.064  28.541  1.00  0.00     0.027 H 
ATOM     31  H   UNL     1     -45.609  33.792  27.492  1.00  0.00     0.027 H 
BRANCH  29  32
ATOM     32  C   UNL     1     -47.431  34.466  26.511  1.00  0.00    -0.027 C 
ATOM     33  H   UNL     1     -48.414  34.767  26.897  1.00  0.00     0.032 H 
ATOM     34  H   UNL     1     -47.154  35.245  25.790  1.00  0.00     0.032 H 
BRANCH  32  35
ATOM     35  C   UNL     1     -47.631  33.149  25.803  1.00  0.00    -0.046 A 
ATOM     36  C   UNL     1     -48.718  32.335  26.133  1.00  0.00    -0.058 A 
ATOM     37  C   UNL     1     -46.704  32.678  24.858  1.00  0.00    -0.033 A 
ATOM     38  C   UNL     1     -48.888  31.100  25.509  1.00  0.00    -0.053 A 
ATOM     39  H   UNL     1     -49.441  32.654  26.882  1.00  0.00     0.063 H 
ATOM     40  C   UNL     1     -46.853  31.455  24.214  1.00  0.00     0.073 A 
ATOM     41  H   UNL     1     -45.829  33.273  24.605  1.00  0.00     0.065 H 
ATOM     42  C   UNL     1     -47.963  30.657  24.550  1.00  0.00     0.000 A 
ATOM     43  H   UNL     1     -49.742  30.483  25.778  1.00  0.00     0.063 H 
ATOM     44  N   UNL     1     -45.946  31.078  23.297  1.00  0.00    -0.231 NA
ATOM     45  C   UNL     1     -48.100  29.427  23.900  1.00  0.00    -0.049 A 
ATOM     46  C   UNL     1     -46.094  29.894  22.682  1.00  0.00     0.124 A 
ATOM     47  C   UNL     1     -47.156  29.043  22.953  1.00  0.00    -0.019 A 
ATOM     48  H   UNL     1     -48.936  28.770  24.120  1.00  0.00     0.063 H 
ATOM     49  H   UNL     1     -47.261  28.099  22.432  1.00  0.00     0.066 H 
BRANCH  46  50
ATOM     50  N   UNL     1     -45.165  29.561  21.690  1.00  0.00    -0.384 N 
ATOM     51  H   UNL     1     -45.635  29.114  20.909  1.00  0.00     0.158 HD
ATOM     52  H   UNL     1     -44.719  30.410  21.352  1.00  0.00     0.158 HD
ENDBRANCH  46  50
ENDBRANCH  32  35
ENDBRANCH  29  32
ENDBRANCH  20  29
BRANCH  23  53
ATOM     53  O   UNL     1     -46.164  35.674  30.560  1.00  0.00    -0.390 OA
ATOM     54  H   UNL     1     -45.297  35.257  30.392  1.00  0.00     0.211 HD
ENDBRANCH  23  53
ENDBRANCH   9  16
BRANCH   4  55
ATOM     55  N   UNL     1     -46.127  43.699  25.436  1.00  0.00    -0.369 N 
ATOM     56  H   UNL     1     -46.455  43.520  24.494  1.00  0.00     0.162 HD
BRANCH  55  57
ATOM     57  C   UNL     1     -45.436  44.983  25.576  1.00  0.00     0.020 C 
ATOM     58  H   UNL     1     -45.791  45.434  26.511  1.00  0.00     0.049 H 
ATOM     59  H   UNL     1     -44.351  44.879  25.693  1.00  0.00     0.049 H 
BRANCH  57  60
ATOM     60  C   UNL     1     -45.775  45.962  24.436  1.00  0.00    -0.010 C 
ATOM     61  H   UNL     1     -46.749  45.694  24.006  1.00  0.00     0.033 H 
ATOM     62  H   UNL     1     -45.903  46.969  24.857  1.00  0.00     0.033 H 
BRANCH  60  63
ATOM     63  C   UNL     1     -44.741  46.035  23.337  1.00  0.00    -0.046 A 
ATOM     64  C   UNL     1     -44.658  47.168  22.516  1.00  0.00    -0.059 A 
ATOM     65  C   UNL     1     -43.879  44.957  23.095  1.00  0.00    -0.059 A 
ATOM     66  C   UNL     1     -43.752  47.208  21.456  1.00  0.00    -0.062 A 
ATOM     67  H   UNL     1     -45.322  48.014  22.672  1.00  0.00     0.063 H 
ATOM     68  C   UNL     1     -42.961  45.007  22.044  1.00  0.00    -0.062 A 
ATOM     69  H   UNL     1     -43.931  44.062  23.709  1.00  0.00     0.063 H 
ATOM     70  C   UNL     1     -42.902  46.130  21.221  1.00  0.00    -0.062 A 
ATOM     71  H   UNL     1     -43.721  48.071  20.800  1.00  0.00     0.062 H 
ATOM     72  H   UNL     1     -42.306  44.162  21.853  1.00  0.00     0.062 H 
ATOM     73  H   UNL     1     -42.200  46.165  20.390  1.00  0.00     0.062 H 
ENDBRANCH  60  63
ENDBRANCH  57  60
ENDBRANCH  55  57
ENDBRANCH   4  55
TORSDOF 12
ENDMDL
MODEL 7
REMARK VINA RESULT:      -8.8      2.332      3.350
REMARK SMILES Cc1cc2c(NCCc3ccccc3)ncnc2n1[C@@H]1C[C@H](CCc2ccc3ccc(N)nc3c2)[C@@H](O)[C@H]1O
REMARK SMILES IDX 2 1 3 2 4 3 5 4 15 5 16 6 17 7 18 8 19 9 1 12 20 16 21 17
REMARK SMILES IDX 38 18 22 20 36 23 39 27 23 29 24 32 25 35 26 36 35 37 27 38
REMARK SMILES IDX 34 40 28 42 33 44 29 45 31 46 30 47 32 50 37 53 6 55 7 57
REMARK SMILES IDX 8 60 9 63 10 64 14 65 11 66 13 68 12 70
REMARK H PARENT 3 10 16 11 1 13 1 14 1 15 20 19 21 21 21 22 38 24 22 25 36 26
REMARK H PARENT 39 28 23 30 23 31 24 33 24 34 26 39 35 41 27 43 29 48 30 49
REMARK H PARENT 32 51 32 52 37 54 6 56 7 58 7 59 8 61 8 62 10 67 14 69 11 71
REMARK H PARENT 13 72 12 73
REMARK Flexibility Score: inf
ROOT
ATOM      1  C   UNL     1     -47.375  39.858  27.381  1.00  0.00     0.018 A 
ATOM      2  C   UNL     1     -47.376  41.108  26.784  1.00  0.00    -0.028 A 
ATOM      3  C   UNL     1     -46.036  41.468  26.482  1.00  0.00     0.062 A 
ATOM      4  C   UNL     1     -45.396  42.539  25.829  1.00  0.00     0.138 A 
ATOM      5  N   UNL     1     -44.045  42.509  25.739  1.00  0.00    -0.219 NA
ATOM      6  C   UNL     1     -43.389  41.450  26.245  1.00  0.00     0.120 A 
ATOM      7  N   UNL     1     -43.898  40.371  26.858  1.00  0.00    -0.218 NA
ATOM      8  C   UNL     1     -45.238  40.436  26.948  1.00  0.00     0.146 A 
ATOM      9  N   UNL     1     -46.052  39.466  27.507  1.00  0.00    -0.324 N 
ATOM     10  H   UNL     1     -48.260  41.686  26.552  1.00  0.00     0.065 H 
ATOM     11  H   UNL     1     -42.309  41.472  26.143  1.00  0.00     0.106 H 
ENDROOT
BRANCH   1  12
ATOM     12  C   UNL     1     -48.561  39.066  27.803  1.00  0.00    -0.024 C 
ATOM     13  H   UNL     1     -48.275  38.140  28.301  1.00  0.00     0.029 H 
ATOM     14  H   UNL     1     -49.201  39.651  28.470  1.00  0.00     0.029 H 
ATOM     15  H   UNL     1     -49.164  38.787  26.932  1.00  0.00     0.029 H 
ENDBRANCH   1  12
BRANCH   9  16
ATOM     16  C   UNL     1     -45.510  38.230  28.053  1.00  0.00     0.064 C 
ATOM     17  C   UNL     1     -45.952  36.974  27.276  1.00  0.00    -0.024 C 
ATOM     18  C   UNL     1     -45.808  37.944  29.545  1.00  0.00     0.101 C 
ATOM     19  H   UNL     1     -44.418  38.300  27.959  1.00  0.00     0.056 H 
ATOM     20  C   UNL     1     -45.844  35.863  28.320  1.00  0.00    -0.010 C 
ATOM     21  H   UNL     1     -46.970  37.083  26.897  1.00  0.00     0.029 H 
ATOM     22  H   UNL     1     -45.301  36.788  26.415  1.00  0.00     0.029 H 
ATOM     23  C   UNL     1     -46.438  36.538  29.557  1.00  0.00     0.085 C 
ATOM     24  H   UNL     1     -46.447  38.687  30.026  1.00  0.00     0.065 H 
ATOM     25  H   UNL     1     -44.773  35.685  28.502  1.00  0.00     0.033 H 
ATOM     26  H   UNL     1     -47.526  36.626  29.476  1.00  0.00     0.063 H 
BRANCH  18  27
ATOM     27  O   UNL     1     -44.582  37.907  30.297  1.00  0.00    -0.388 OA
ATOM     28  H   UNL     1     -44.182  38.792  30.203  1.00  0.00     0.211 HD
ENDBRANCH  18  27
BRANCH  20  29
ATOM     29  C   UNL     1     -46.420  34.493  27.934  1.00  0.00    -0.044 C 
ATOM     30  H   UNL     1     -46.832  34.055  28.854  1.00  0.00     0.027 H 
ATOM     31  H   UNL     1     -45.596  33.832  27.642  1.00  0.00     0.027 H 
BRANCH  29  32
ATOM     32  C   UNL     1     -47.550  34.436  26.897  1.00  0.00    -0.027 C 
ATOM     33  H   UNL     1     -48.501  34.329  27.437  1.00  0.00     0.032 H 
ATOM     34  H   UNL     1     -47.618  35.402  26.383  1.00  0.00     0.032 H 
BRANCH  32  35
ATOM     35  C   UNL     1     -47.499  33.313  25.891  1.00  0.00    -0.046 A 
ATOM     36  C   UNL     1     -46.356  33.125  25.108  1.00  0.00    -0.058 A 
ATOM     37  C   UNL     1     -48.609  32.482  25.665  1.00  0.00    -0.033 A 
ATOM     38  C   UNL     1     -46.317  32.113  24.151  1.00  0.00    -0.053 A 
ATOM     39  H   UNL     1     -45.487  33.769  25.234  1.00  0.00     0.063 H 
ATOM     40  C   UNL     1     -48.595  31.459  24.724  1.00  0.00     0.073 A 
ATOM     41  H   UNL     1     -49.525  32.624  26.234  1.00  0.00     0.065 H 
ATOM     42  C   UNL     1     -47.429  31.277  23.956  1.00  0.00     0.000 A 
ATOM     43  H   UNL     1     -45.417  31.982  23.553  1.00  0.00     0.063 H 
ATOM     44  N   UNL     1     -49.681  30.681  24.580  1.00  0.00    -0.231 NA
ATOM     45  C   UNL     1     -47.428  30.249  23.009  1.00  0.00    -0.049 A 
ATOM     46  C   UNL     1     -49.662  29.697  23.667  1.00  0.00     0.124 A 
ATOM     47  C   UNL     1     -48.556  29.448  22.865  1.00  0.00    -0.019 A 
ATOM     48  H   UNL     1     -46.556  30.064  22.388  1.00  0.00     0.063 H 
ATOM     49  H   UNL     1     -48.560  28.638  22.145  1.00  0.00     0.066 H 
BRANCH  46  50
ATOM     50  N   UNL     1     -50.785  28.868  23.586  1.00  0.00    -0.384 N 
ATOM     51  H   UNL     1     -51.614  29.422  23.397  1.00  0.00     0.158 HD
ATOM     52  H   UNL     1     -50.659  28.208  22.822  1.00  0.00     0.158 HD
ENDBRANCH  46  50
ENDBRANCH  32  35
ENDBRANCH  29  32
ENDBRANCH  20  29
BRANCH  23  53
ATOM     53  O   UNL     1     -46.134  35.828  30.749  1.00  0.00    -0.390 OA
ATOM     54  H   UNL     1     -45.631  35.037  30.472  1.00  0.00     0.211 HD
ENDBRANCH  23  53
ENDBRANCH   9  16
BRANCH   4  55
ATOM     55  N   UNL     1     -46.110  43.614  25.280  1.00  0.00    -0.369 N 
ATOM     56  H   UNL     1     -45.527  44.135  24.637  1.00  0.00     0.162 HD
BRANCH  55  57
ATOM     57  C   UNL     1     -46.791  44.459  26.264  1.00  0.00     0.020 C 
ATOM     58  H   UNL     1     -47.281  43.784  26.977  1.00  0.00     0.049 H 
ATOM     59  H   UNL     1     -46.101  45.067  26.861  1.00  0.00     0.049 H 
BRANCH  57  60
ATOM     60  C   UNL     1     -47.888  45.335  25.630  1.00  0.00    -0.010 C 
ATOM     61  H   UNL     1     -48.169  46.129  26.334  1.00  0.00     0.033 H 
ATOM     62  H   UNL     1     -47.473  45.848  24.753  1.00  0.00     0.033 H 
BRANCH  60  63
ATOM     63  C   UNL     1     -49.125  44.583  25.198  1.00  0.00    -0.046 A 
ATOM     64  C   UNL     1     -49.775  43.716  26.088  1.00  0.00    -0.059 A 
ATOM     65  C   UNL     1     -49.617  44.707  23.892  1.00  0.00    -0.059 A 
ATOM     66  C   UNL     1     -50.875  42.968  25.669  1.00  0.00    -0.062 A 
ATOM     67  H   UNL     1     -49.410  43.590  27.103  1.00  0.00     0.063 H 
ATOM     68  C   UNL     1     -50.728  43.969  23.480  1.00  0.00    -0.062 A 
ATOM     69  H   UNL     1     -49.123  45.362  23.178  1.00  0.00     0.063 H 
ATOM     70  C   UNL     1     -51.354  43.096  24.367  1.00  0.00    -0.062 A 
ATOM     71  H   UNL     1     -51.349  42.269  26.351  1.00  0.00     0.062 H 
ATOM     72  H   UNL     1     -51.094  44.059  22.462  1.00  0.00     0.062 H 
ATOM     73  H   UNL     1     -52.210  42.505  24.044  1.00  0.00     0.062 H 
ENDBRANCH  60  63
ENDBRANCH  57  60
ENDBRANCH  55  57
ENDBRANCH   4  55
TORSDOF 12
ENDMDL
