MODEL 1
REMARK VINA RESULT:     -10.2      0.000      0.000
REMARK SMILES Nc1ncnc2c1ccn2[C@H]1C[C@H](O)[C@@H](COc2ccc3ccc(N4CC(N)C4)nc3c2)O1
REMARK SMILES IDX 16 1 15 4 11 5 12 6 33 7 13 9 10 14 2 15 3 16 7 17 4 18 6 19
REMARK SMILES IDX 8 20 5 21 9 23 1 26 14 29 17 31 18 32 19 33 32 34 20 35
REMARK SMILES IDX 31 37 21 39 30 41 22 42 24 43 23 44 25 47 26 48 29 49 27 50
REMARK SMILES IDX 28 56
REMARK H PARENT 16 2 16 3 11 8 12 10 12 11 13 12 15 13 4 22 8 24 9 25 1 27
REMARK H PARENT 1 28 14 30 19 36 32 38 20 40 22 45 23 46 26 51 26 52 29 53
REMARK H PARENT 29 54 27 55 28 57 28 58
REMARK Flexibility Score: inf
ROOT
ATOM      1  C   UNL     1     -46.561  35.247  26.331  1.00  0.00     0.117 C 
ATOM      2  H   UNL     1     -45.861  34.905  25.560  1.00  0.00     0.073 H 
ATOM      3  H   UNL     1     -46.945  36.243  26.081  1.00  0.00     0.073 H 
ENDROOT
BRANCH   1   4
ATOM      4  C   UNL     1     -45.863  35.300  27.698  1.00  0.00     0.120 C 
ATOM      5  C   UNL     1     -45.686  37.514  28.482  1.00  0.00     0.138 C 
ATOM      6  C   UNL     1     -47.056  36.976  28.881  1.00  0.00     0.022 C 
ATOM      7  O   UNL     1     -44.998  36.458  27.770  1.00  0.00    -0.348 OA
ATOM      8  H   UNL     1     -45.074  37.754  29.361  1.00  0.00     0.085 H 
ATOM      9  C   UNL     1     -46.845  35.482  28.849  1.00  0.00     0.088 C 
ATOM     10  H   UNL     1     -47.363  37.353  29.863  1.00  0.00     0.034 H 
ATOM     11  H   UNL     1     -47.821  37.267  28.151  1.00  0.00     0.034 H 
ATOM     12  H   UNL     1     -47.776  34.923  28.724  1.00  0.00     0.063 H 
ATOM     13  H   UNL     1     -45.226  34.419  27.832  1.00  0.00     0.067 H 
BRANCH   5  14
ATOM     14  N   UNL     1     -45.746  38.716  27.661  1.00  0.00    -0.306 N 
ATOM     15  C   UNL     1     -44.417  41.892  26.836  1.00  0.00     0.136 A 
ATOM     16  N   UNL     1     -43.388  41.996  27.698  1.00  0.00    -0.219 NA
ATOM     17  C   UNL     1     -45.208  40.735  26.861  1.00  0.00     0.061 A 
ATOM     18  C   UNL     1     -43.156  40.971  28.542  1.00  0.00     0.120 A 
ATOM     19  C   UNL     1     -44.860  39.762  27.786  1.00  0.00     0.147 A 
ATOM     20  C   UNL     1     -46.341  40.246  26.154  1.00  0.00    -0.031 A 
ATOM     21  N   UNL     1     -43.841  39.820  28.661  1.00  0.00    -0.218 NA
ATOM     22  H   UNL     1     -42.310  41.092  29.211  1.00  0.00     0.106 H 
ATOM     23  C   UNL     1     -46.649  39.002  26.666  1.00  0.00     0.009 A 
ATOM     24  H   UNL     1     -46.868  40.742  25.349  1.00  0.00     0.065 H 
ATOM     25  H   UNL     1     -47.426  38.298  26.393  1.00  0.00     0.082 H 
BRANCH  15  26
ATOM     26  N   UNL     1     -44.643  42.960  25.979  1.00  0.00    -0.383 N 
ATOM     27  H   UNL     1     -45.009  42.638  25.092  1.00  0.00     0.158 HD
ATOM     28  H   UNL     1     -43.898  43.642  25.942  1.00  0.00     0.158 HD
ENDBRANCH  15  26
ENDBRANCH   5  14
BRANCH   9  29
ATOM     29  O   UNL     1     -46.262  35.068  30.087  1.00  0.00    -0.390 OA
ATOM     30  H   UNL     1     -45.398  35.511  30.190  1.00  0.00     0.211 HD
ENDBRANCH   9  29
ENDBRANCH   1   4
BRANCH   1  31
ATOM     31  O   UNL     1     -47.655  34.328  26.420  1.00  0.00    -0.491 OA
BRANCH  31  32
ATOM     32  C   UNL     1     -47.533  33.146  25.742  1.00  0.00     0.121 A 
ATOM     33  C   UNL     1     -46.513  33.124  24.793  1.00  0.00    -0.019 A 
ATOM     34  C   UNL     1     -48.319  32.006  25.929  1.00  0.00     0.007 A 
ATOM     35  C   UNL     1     -46.284  31.976  24.036  1.00  0.00    -0.049 A 
ATOM     36  H   UNL     1     -45.896  34.006  24.642  1.00  0.00     0.066 H 
ATOM     37  C   UNL     1     -48.113  30.849  25.187  1.00  0.00     0.076 A 
ATOM     38  H   UNL     1     -49.117  31.981  26.663  1.00  0.00     0.069 H 
ATOM     39  C   UNL     1     -47.081  30.839  24.230  1.00  0.00     0.001 A 
ATOM     40  H   UNL     1     -45.484  31.978  23.301  1.00  0.00     0.063 H 
ATOM     41  N   UNL     1     -48.903  29.782  25.407  1.00  0.00    -0.231 NA
ATOM     42  C   UNL     1     -46.885  29.667  23.495  1.00  0.00    -0.049 A 
ATOM     43  C   UNL     1     -48.709  28.654  24.687  1.00  0.00     0.129 A 
ATOM     44  C   UNL     1     -47.704  28.567  23.730  1.00  0.00    -0.019 A 
ATOM     45  H   UNL     1     -46.099  29.599  22.749  1.00  0.00     0.063 H 
ATOM     46  H   UNL     1     -47.546  27.649  23.174  1.00  0.00     0.066 H 
BRANCH  43  47
ATOM     47  N   UNL     1     -49.535  27.543  24.941  1.00  0.00    -0.353 N 
ATOM     48  C   UNL     1     -49.508  26.775  26.158  1.00  0.00     0.036 C 
ATOM     49  C   UNL     1     -50.971  27.508  24.865  1.00  0.00     0.036 C 
ATOM     50  C   UNL     1     -50.901  26.254  25.756  1.00  0.00     0.040 C 
ATOM     51  H   UNL     1     -48.711  26.027  26.170  1.00  0.00     0.051 H 
ATOM     52  H   UNL     1     -49.455  27.406  27.053  1.00  0.00     0.051 H 
ATOM     53  H   UNL     1     -51.434  28.402  25.298  1.00  0.00     0.051 H 
ATOM     54  H   UNL     1     -51.340  27.341  23.850  1.00  0.00     0.051 H 
ATOM     55  H   UNL     1     -50.914  25.299  25.221  1.00  0.00     0.050 H 
BRANCH  50  56
ATOM     56  N   UNL     1     -51.847  26.366  26.875  1.00  0.00    -0.325 NA
ATOM     57  H   UNL     1     -51.744  25.621  27.564  1.00  0.00     0.119 HD
ATOM     58  H   UNL     1     -51.774  27.238  27.401  1.00  0.00     0.119 HD
ENDBRANCH  50  56
ENDBRANCH  43  47
ENDBRANCH  31  32
ENDBRANCH   1  31
TORSDOF 8
ENDMDL
MODEL 2
REMARK VINA RESULT:      -9.7      2.157     11.339
REMARK SMILES Nc1ncnc2c1ccn2[C@H]1C[C@H](O)[C@@H](COc2ccc3ccc(N4CC(N)C4)nc3c2)O1
REMARK SMILES IDX 16 1 15 4 11 5 12 6 33 7 13 9 10 14 2 15 3 16 7 17 4 18 6 19
REMARK SMILES IDX 8 20 5 21 9 23 1 26 14 29 17 31 18 32 19 33 32 34 20 35
REMARK SMILES IDX 31 37 21 39 30 41 22 42 24 43 23 44 25 47 26 48 29 49 27 50
REMARK SMILES IDX 28 56
REMARK H PARENT 16 2 16 3 11 8 12 10 12 11 13 12 15 13 4 22 8 24 9 25 1 27
REMARK H PARENT 1 28 14 30 19 36 32 38 20 40 22 45 23 46 26 51 26 52 29 53
REMARK H PARENT 29 54 27 55 28 57 28 58
REMARK Flexibility Score: inf
ROOT
ATOM      1  C   UNL     1     -47.381  31.606  24.316  1.00  0.00     0.117 C 
ATOM      2  H   UNL     1     -47.997  31.021  25.008  1.00  0.00     0.073 H 
ATOM      3  H   UNL     1     -48.014  32.248  23.692  1.00  0.00     0.073 H 
ENDROOT
BRANCH   1   4
ATOM      4  C   UNL     1     -46.557  30.674  23.416  1.00  0.00     0.120 C 
ATOM      5  C   UNL     1     -47.768  28.731  22.861  1.00  0.00     0.138 C 
ATOM      6  C   UNL     1     -48.145  29.826  21.870  1.00  0.00     0.022 C 
ATOM      7  O   UNL     1     -46.798  29.293  23.777  1.00  0.00    -0.348 OA
ATOM      8  H   UNL     1     -47.279  27.885  22.364  1.00  0.00     0.085 H 
ATOM      9  C   UNL     1     -46.965  30.764  21.951  1.00  0.00     0.088 C 
ATOM     10  H   UNL     1     -48.309  29.418  20.867  1.00  0.00     0.034 H 
ATOM     11  H   UNL     1     -49.061  30.341  22.181  1.00  0.00     0.034 H 
ATOM     12  H   UNL     1     -47.205  31.780  21.624  1.00  0.00     0.063 H 
ATOM     13  H   UNL     1     -45.487  30.858  23.561  1.00  0.00     0.067 H 
BRANCH   5  14
ATOM     14  N   UNL     1     -48.903  28.195  23.601  1.00  0.00    -0.306 N 
ATOM     15  C   UNL     1     -50.132  26.021  26.109  1.00  0.00     0.136 A 
ATOM     16  N   UNL     1     -49.000  25.448  26.561  1.00  0.00    -0.219 NA
ATOM     17  C   UNL     1     -50.049  26.968  25.079  1.00  0.00     0.061 A 
ATOM     18  C   UNL     1     -47.830  25.825  26.008  1.00  0.00     0.120 A 
ATOM     19  C   UNL     1     -48.780  27.255  24.598  1.00  0.00     0.147 A 
ATOM     20  C   UNL     1     -50.962  27.772  24.343  1.00  0.00    -0.031 A 
ATOM     21  N   UNL     1     -47.624  26.714  25.021  1.00  0.00    -0.218 NA
ATOM     22  H   UNL     1     -46.943  25.347  26.410  1.00  0.00     0.106 H 
ATOM     23  C   UNL     1     -50.229  28.518  23.442  1.00  0.00     0.009 A 
ATOM     24  H   UNL     1     -52.036  27.813  24.466  1.00  0.00     0.065 H 
ATOM     25  H   UNL     1     -50.545  29.256  22.714  1.00  0.00     0.082 H 
BRANCH  15  26
ATOM     26  N   UNL     1     -51.327  25.615  26.687  1.00  0.00    -0.383 N 
ATOM     27  H   UNL     1     -51.928  26.411  26.866  1.00  0.00     0.158 HD
ATOM     28  H   UNL     1     -51.233  24.941  27.433  1.00  0.00     0.158 HD
ENDBRANCH  15  26
ENDBRANCH   5  14
BRANCH   9  29
ATOM     29  O   UNL     1     -45.924  30.277  21.101  1.00  0.00    -0.390 OA
ATOM     30  H   UNL     1     -46.262  30.231  20.186  1.00  0.00     0.211 HD
ENDBRANCH   9  29
ENDBRANCH   1   4
BRANCH   1  31
ATOM     31  O   UNL     1     -46.475  32.424  25.065  1.00  0.00    -0.491 OA
BRANCH  31  32
ATOM     32  C   UNL     1     -46.998  33.519  25.695  1.00  0.00     0.121 A 
ATOM     33  C   UNL     1     -48.325  33.379  26.095  1.00  0.00    -0.019 A 
ATOM     34  C   UNL     1     -46.326  34.715  25.961  1.00  0.00     0.007 A 
ATOM     35  C   UNL     1     -48.975  34.425  26.750  1.00  0.00    -0.049 A 
ATOM     36  H   UNL     1     -48.856  32.453  25.893  1.00  0.00     0.066 H 
ATOM     37  C   UNL     1     -46.949  35.773  26.612  1.00  0.00     0.076 A 
ATOM     38  H   UNL     1     -45.291  34.860  25.673  1.00  0.00     0.069 H 
ATOM     39  C   UNL     1     -48.291  35.621  27.009  1.00  0.00     0.001 A 
ATOM     40  H   UNL     1     -50.010  34.297  27.054  1.00  0.00     0.063 H 
ATOM     41  N   UNL     1     -46.253  36.902  26.839  1.00  0.00    -0.231 NA
ATOM     42  C   UNL     1     -48.902  36.692  27.665  1.00  0.00    -0.049 A 
ATOM     43  C   UNL     1     -46.855  37.936  27.469  1.00  0.00     0.129 A 
ATOM     44  C   UNL     1     -48.176  37.856  27.899  1.00  0.00    -0.019 A 
ATOM     45  H   UNL     1     -49.932  36.629  28.001  1.00  0.00     0.063 H 
ATOM     46  H   UNL     1     -48.640  38.685  28.421  1.00  0.00     0.066 H 
BRANCH  43  47
ATOM     47  N   UNL     1     -46.107  39.104  27.712  1.00  0.00    -0.353 N 
ATOM     48  C   UNL     1     -44.745  39.112  28.175  1.00  0.00     0.036 C 
ATOM     49  C   UNL     1     -45.876  40.180  26.786  1.00  0.00     0.036 C 
ATOM     50  C   UNL     1     -44.675  40.564  27.669  1.00  0.00     0.040 C 
ATOM     51  H   UNL     1     -44.664  38.985  29.257  1.00  0.00     0.051 H 
ATOM     52  H   UNL     1     -44.120  38.376  27.656  1.00  0.00     0.051 H 
ATOM     53  H   UNL     1     -45.657  39.821  25.774  1.00  0.00     0.051 H 
ATOM     54  H   UNL     1     -46.693  40.907  26.764  1.00  0.00     0.051 H 
ATOM     55  H   UNL     1     -44.873  41.338  28.418  1.00  0.00     0.050 H 
BRANCH  50  56
ATOM     56  N   UNL     1     -43.477  40.776  26.842  1.00  0.00    -0.325 NA
ATOM     57  H   UNL     1     -43.610  41.481  26.117  1.00  0.00     0.119 HD
ATOM     58  H   UNL     1     -42.653  41.073  27.366  1.00  0.00     0.119 HD
ENDBRANCH  50  56
ENDBRANCH  43  47
ENDBRANCH  31  32
ENDBRANCH   1  31
TORSDOF 8
ENDMDL
MODEL 3
REMARK VINA RESULT:      -9.4      3.837     10.739
REMARK SMILES Nc1ncnc2c1ccn2[C@H]1C[C@H](O)[C@@H](COc2ccc3ccc(N4CC(N)C4)nc3c2)O1
REMARK SMILES IDX 16 1 15 4 11 5 12 6 33 7 13 9 10 14 2 15 3 16 7 17 4 18 6 19
REMARK SMILES IDX 8 20 5 21 9 23 1 26 14 29 17 31 18 32 19 33 32 34 20 35
REMARK SMILES IDX 31 37 21 39 30 41 22 42 24 43 23 44 25 47 26 48 29 49 27 50
REMARK SMILES IDX 28 56
REMARK H PARENT 16 2 16 3 11 8 12 10 12 11 13 12 15 13 4 22 8 24 9 25 1 27
REMARK H PARENT 1 28 14 30 19 36 32 38 20 40 22 45 23 46 26 51 26 52 29 53
REMARK H PARENT 29 54 27 55 28 57 28 58
REMARK Flexibility Score: inf
ROOT
ATOM      1  C   UNL     1     -46.544  31.585  24.212  1.00  0.00     0.117 C 
ATOM      2  H   UNL     1     -45.971  32.502  24.040  1.00  0.00     0.073 H 
ATOM      3  H   UNL     1     -45.871  30.758  24.469  1.00  0.00     0.073 H 
ENDROOT
BRANCH   1   4
ATOM      4  C   UNL     1     -47.348  31.214  22.957  1.00  0.00     0.120 C 
ATOM      5  C   UNL     1     -48.099  28.983  23.049  1.00  0.00     0.138 C 
ATOM      6  C   UNL     1     -49.107  29.856  23.787  1.00  0.00     0.022 C 
ATOM      7  O   UNL     1     -47.051  29.854  22.560  1.00  0.00    -0.348 OA
ATOM      8  H   UNL     1     -48.546  28.503  22.171  1.00  0.00     0.085 H 
ATOM      9  C   UNL     1     -48.852  31.223  23.201  1.00  0.00     0.088 C 
ATOM     10  H   UNL     1     -50.132  29.500  23.634  1.00  0.00     0.034 H 
ATOM     11  H   UNL     1     -48.909  29.863  24.866  1.00  0.00     0.034 H 
ATOM     12  H   UNL     1     -49.185  32.036  23.853  1.00  0.00     0.063 H 
ATOM     13  H   UNL     1     -47.059  31.860  22.120  1.00  0.00     0.067 H 
BRANCH   5  14
ATOM     14  N   UNL     1     -47.527  27.926  23.873  1.00  0.00    -0.306 N 
ATOM     15  C   UNL     1     -47.995  25.365  26.270  1.00  0.00     0.136 A 
ATOM     16  N   UNL     1     -49.322  25.433  26.496  1.00  0.00    -0.219 NA
ATOM     17  C   UNL     1     -47.417  26.251  25.352  1.00  0.00     0.061 A 
ATOM     18  C   UNL     1     -50.038  26.348  25.814  1.00  0.00     0.120 A 
ATOM     19  C   UNL     1     -48.273  27.146  24.726  1.00  0.00     0.147 A 
ATOM     20  C   UNL     1     -46.113  26.505  24.846  1.00  0.00    -0.031 A 
ATOM     21  N   UNL     1     -49.600  27.248  24.917  1.00  0.00    -0.218 NA
ATOM     22  H   UNL     1     -51.104  26.360  26.019  1.00  0.00     0.106 H 
ATOM     23  C   UNL     1     -46.210  27.539  23.937  1.00  0.00     0.009 A 
ATOM     24  H   UNL     1     -45.202  25.981  25.106  1.00  0.00     0.065 H 
ATOM     25  H   UNL     1     -45.453  28.016  23.326  1.00  0.00     0.082 H 
BRANCH  15  26
ATOM     26  N   UNL     1     -47.274  24.420  26.987  1.00  0.00    -0.383 N 
ATOM     27  H   UNL     1     -47.896  23.786  27.473  1.00  0.00     0.158 HD
ATOM     28  H   UNL     1     -46.497  24.789  27.518  1.00  0.00     0.158 HD
ENDBRANCH  15  26
ENDBRANCH   5  14
BRANCH   9  29
ATOM     29  O   UNL     1     -49.568  31.343  21.969  1.00  0.00    -0.390 OA
ATOM     30  H   UNL     1     -49.436  32.243  21.617  1.00  0.00     0.211 HD
ENDBRANCH   9  29
ENDBRANCH   1   4
BRANCH   1  31
ATOM     31  O   UNL     1     -47.464  31.795  25.289  1.00  0.00    -0.491 OA
BRANCH  31  32
ATOM     32  C   UNL     1     -47.542  33.059  25.804  1.00  0.00     0.121 A 
ATOM     33  C   UNL     1     -46.341  33.765  25.796  1.00  0.00    -0.019 A 
ATOM     34  C   UNL     1     -48.692  33.672  26.311  1.00  0.00     0.007 A 
ATOM     35  C   UNL     1     -46.288  35.066  26.293  1.00  0.00    -0.049 A 
ATOM     36  H   UNL     1     -45.442  33.297  25.403  1.00  0.00     0.066 H 
ATOM     37  C   UNL     1     -48.667  34.968  26.813  1.00  0.00     0.076 A 
ATOM     38  H   UNL     1     -49.647  33.160  26.327  1.00  0.00     0.069 H 
ATOM     39  C   UNL     1     -47.447  35.669  26.801  1.00  0.00     0.001 A 
ATOM     40  H   UNL     1     -45.341  35.600  26.278  1.00  0.00     0.063 H 
ATOM     41  N   UNL     1     -49.803  35.505  27.291  1.00  0.00    -0.231 NA
ATOM     42  C   UNL     1     -47.439  36.972  27.306  1.00  0.00    -0.049 A 
ATOM     43  C   UNL     1     -49.785  36.765  27.783  1.00  0.00     0.129 A 
ATOM     44  C   UNL     1     -48.619  37.523  27.797  1.00  0.00    -0.019 A 
ATOM     45  H   UNL     1     -46.529  37.563  27.315  1.00  0.00     0.063 H 
ATOM     46  H   UNL     1     -48.623  38.539  28.175  1.00  0.00     0.066 H 
BRANCH  43  47
ATOM     47  N   UNL     1     -50.987  37.317  28.265  1.00  0.00    -0.353 N 
ATOM     48  C   UNL     1     -51.637  36.906  29.480  1.00  0.00     0.036 C 
ATOM     49  C   UNL     1     -51.253  38.709  28.507  1.00  0.00     0.036 C 
ATOM     50  C   UNL     1     -52.402  38.241  29.419  1.00  0.00     0.040 C 
ATOM     51  H   UNL     1     -52.247  36.008  29.353  1.00  0.00     0.051 H 
ATOM     52  H   UNL     1     -50.934  36.776  30.311  1.00  0.00     0.051 H 
ATOM     53  H   UNL     1     -50.410  39.219  28.988  1.00  0.00     0.051 H 
ATOM     54  H   UNL     1     -51.560  39.248  27.607  1.00  0.00     0.051 H 
ATOM     55  H   UNL     1     -53.389  38.202  28.947  1.00  0.00     0.050 H 
BRANCH  50  56
ATOM     56  N   UNL     1     -52.347  38.939  30.713  1.00  0.00    -0.325 NA
ATOM     57  H   UNL     1     -53.263  39.242  31.043  1.00  0.00     0.119 HD
ATOM     58  H   UNL     1     -51.951  38.384  31.472  1.00  0.00     0.119 HD
ENDBRANCH  50  56
ENDBRANCH  43  47
ENDBRANCH  31  32
ENDBRANCH   1  31
TORSDOF 8
ENDMDL
MODEL 4
REMARK VINA RESULT:      -9.2      2.485     11.110
REMARK SMILES Nc1ncnc2c1ccn2[C@H]1C[C@H](O)[C@@H](COc2ccc3ccc(N4CC(N)C4)nc3c2)O1
REMARK SMILES IDX 16 1 15 4 11 5 12 6 33 7 13 9 10 14 2 15 3 16 7 17 4 18 6 19
REMARK SMILES IDX 8 20 5 21 9 23 1 26 14 29 17 31 18 32 19 33 32 34 20 35
REMARK SMILES IDX 31 37 21 39 30 41 22 42 24 43 23 44 25 47 26 48 29 49 27 50
REMARK SMILES IDX 28 56
REMARK H PARENT 16 2 16 3 11 8 12 10 12 11 13 12 15 13 4 22 8 24 9 25 1 27
REMARK H PARENT 1 28 14 30 19 36 32 38 20 40 22 45 23 46 26 51 26 52 29 53
REMARK H PARENT 29 54 27 55 28 57 28 58
REMARK Flexibility Score: inf
ROOT
ATOM      1  C   UNL     1     -47.978  31.518  25.648  1.00  0.00     0.117 C 
ATOM      2  H   UNL     1     -46.962  31.519  26.058  1.00  0.00     0.073 H 
ATOM      3  H   UNL     1     -48.522  30.627  25.981  1.00  0.00     0.073 H 
ENDROOT
BRANCH   1   4
ATOM      4  C   UNL     1     -47.933  31.542  24.113  1.00  0.00     0.120 C 
ATOM      5  C   UNL     1     -47.780  29.365  23.227  1.00  0.00     0.138 C 
ATOM      6  C   UNL     1     -49.252  29.675  23.476  1.00  0.00     0.022 C 
ATOM      7  O   UNL     1     -47.020  30.530  23.626  1.00  0.00    -0.348 OA
ATOM      8  H   UNL     1     -47.575  29.202  22.163  1.00  0.00     0.085 H 
ATOM      9  C   UNL     1     -49.274  31.184  23.483  1.00  0.00     0.088 C 
ATOM     10  H   UNL     1     -49.890  29.234  22.702  1.00  0.00     0.034 H 
ATOM     11  H   UNL     1     -49.579  29.287  24.448  1.00  0.00     0.034 H 
ATOM     12  H   UNL     1     -50.134  31.596  24.019  1.00  0.00     0.063 H 
ATOM     13  H   UNL     1     -47.554  32.508  23.761  1.00  0.00     0.067 H 
BRANCH   5  14
ATOM     14  N   UNL     1     -47.303  28.187  23.940  1.00  0.00    -0.306 N 
ATOM     15  C   UNL     1     -47.912  25.615  26.294  1.00  0.00     0.136 A 
ATOM     16  N   UNL     1     -49.173  25.886  26.683  1.00  0.00    -0.219 NA
ATOM     17  C   UNL     1     -47.304  26.442  25.340  1.00  0.00     0.061 A 
ATOM     18  C   UNL     1     -49.801  26.939  26.123  1.00  0.00     0.120 A 
ATOM     19  C   UNL     1     -48.064  27.496  24.853  1.00  0.00     0.147 A 
ATOM     20  C   UNL     1     -46.043  26.507  24.686  1.00  0.00    -0.031 A 
ATOM     21  N   UNL     1     -49.325  27.801  25.208  1.00  0.00    -0.218 NA
ATOM     22  H   UNL     1     -50.818  27.114  26.457  1.00  0.00     0.106 H 
ATOM     23  C   UNL     1     -46.071  27.588  23.830  1.00  0.00     0.009 A 
ATOM     24  H   UNL     1     -45.209  25.829  24.816  1.00  0.00     0.065 H 
ATOM     25  H   UNL     1     -45.320  27.968  23.147  1.00  0.00     0.082 H 
BRANCH  15  26
ATOM     26  N   UNL     1     -47.281  24.530  26.886  1.00  0.00    -0.383 N 
ATOM     27  H   UNL     1     -46.475  24.831  27.421  1.00  0.00     0.158 HD
ATOM     28  H   UNL     1     -47.152  23.729  26.283  1.00  0.00     0.158 HD
ENDBRANCH  15  26
ENDBRANCH   5  14
BRANCH   9  29
ATOM     29  O   UNL     1     -49.345  31.656  22.135  1.00  0.00    -0.390 OA
ATOM     30  H   UNL     1     -48.441  31.706  21.773  1.00  0.00     0.211 HD
ENDBRANCH   9  29
ENDBRANCH   1   4
BRANCH   1  31
ATOM     31  O   UNL     1     -48.671  32.688  26.096  1.00  0.00    -0.491 OA
BRANCH  31  32
ATOM     32  C   UNL     1     -47.909  33.721  26.569  1.00  0.00     0.121 A 
ATOM     33  C   UNL     1     -46.620  33.361  26.958  1.00  0.00    -0.019 A 
ATOM     34  C   UNL     1     -48.309  35.055  26.679  1.00  0.00     0.007 A 
ATOM     35  C   UNL     1     -45.743  34.324  27.456  1.00  0.00    -0.049 A 
ATOM     36  H   UNL     1     -46.299  32.326  26.874  1.00  0.00     0.066 H 
ATOM     37  C   UNL     1     -47.456  36.035  27.173  1.00  0.00     0.076 A 
ATOM     38  H   UNL     1     -49.301  35.377  26.380  1.00  0.00     0.069 H 
ATOM     39  C   UNL     1     -46.157  35.659  27.565  1.00  0.00     0.001 A 
ATOM     40  H   UNL     1     -44.742  34.024  27.755  1.00  0.00     0.063 H 
ATOM     41  N   UNL     1     -47.897  37.302  27.260  1.00  0.00    -0.231 NA
ATOM     42  C   UNL     1     -45.311  36.655  28.056  1.00  0.00    -0.049 A 
ATOM     43  C   UNL     1     -47.072  38.259  27.742  1.00  0.00     0.129 A 
ATOM     44  C   UNL     1     -45.772  37.965  28.141  1.00  0.00    -0.019 A 
ATOM     45  H   UNL     1     -44.296  36.425  28.366  1.00  0.00     0.063 H 
ATOM     46  H   UNL     1     -45.115  38.746  28.507  1.00  0.00     0.066 H 
BRANCH  43  47
ATOM     47  N   UNL     1     -47.545  39.584  27.812  1.00  0.00    -0.353 N 
ATOM     48  C   UNL     1     -47.301  40.585  26.808  1.00  0.00     0.036 C 
ATOM     49  C   UNL     1     -48.910  39.996  27.996  1.00  0.00     0.036 C 
ATOM     50  C   UNL     1     -48.485  41.358  27.417  1.00  0.00     0.040 C 
ATOM     51  H   UNL     1     -46.323  41.062  26.913  1.00  0.00     0.051 H 
ATOM     52  H   UNL     1     -47.432  40.201  25.790  1.00  0.00     0.051 H 
ATOM     53  H   UNL     1     -49.611  39.399  27.401  1.00  0.00     0.051 H 
ATOM     54  H   UNL     1     -49.215  40.008  29.046  1.00  0.00     0.051 H 
ATOM     55  H   UNL     1     -48.224  42.120  28.159  1.00  0.00     0.050 H 
BRANCH  50  56
ATOM     56  N   UNL     1     -49.426  41.789  26.373  1.00  0.00    -0.325 NA
ATOM     57  H   UNL     1     -48.988  41.893  25.458  1.00  0.00     0.119 HD
ATOM     58  H   UNL     1     -50.213  41.155  26.230  1.00  0.00     0.119 HD
ENDBRANCH  50  56
ENDBRANCH  43  47
ENDBRANCH  31  32
ENDBRANCH   1  31
TORSDOF 8
ENDMDL
MODEL 5
REMARK VINA RESULT:      -9.0      2.697     11.067
REMARK SMILES Nc1ncnc2c1ccn2[C@H]1C[C@H](O)[C@@H](COc2ccc3ccc(N4CC(N)C4)nc3c2)O1
REMARK SMILES IDX 16 1 15 4 11 5 12 6 33 7 13 9 10 14 2 15 3 16 7 17 4 18 6 19
REMARK SMILES IDX 8 20 5 21 9 23 1 26 14 29 17 31 18 32 19 33 32 34 20 35
REMARK SMILES IDX 31 37 21 39 30 41 22 42 24 43 23 44 25 47 26 48 29 49 27 50
REMARK SMILES IDX 28 56
REMARK H PARENT 16 2 16 3 11 8 12 10 12 11 13 12 15 13 4 22 8 24 9 25 1 27
REMARK H PARENT 1 28 14 30 19 36 32 38 20 40 22 45 23 46 26 51 26 52 29 53
REMARK H PARENT 29 54 27 55 28 57 28 58
REMARK Flexibility Score: inf
ROOT
ATOM      1  C   UNL     1     -46.447  31.428  23.397  1.00  0.00     0.117 C 
ATOM      2  H   UNL     1     -46.246  32.495  23.249  1.00  0.00     0.073 H 
ATOM      3  H   UNL     1     -45.506  30.872  23.489  1.00  0.00     0.073 H 
ENDROOT
BRANCH   1   4
ATOM      4  C   UNL     1     -47.253  30.869  22.215  1.00  0.00     0.120 C 
ATOM      5  C   UNL     1     -48.019  28.686  22.658  1.00  0.00     0.138 C 
ATOM      6  C   UNL     1     -49.022  29.671  23.247  1.00  0.00     0.022 C 
ATOM      7  O   UNL     1     -46.966  29.461  22.039  1.00  0.00    -0.348 OA
ATOM      8  H   UNL     1     -48.469  28.075  21.867  1.00  0.00     0.085 H 
ATOM      9  C   UNL     1     -48.757  30.926  22.453  1.00  0.00     0.088 C 
ATOM     10  H   UNL     1     -50.049  29.302  23.151  1.00  0.00     0.034 H 
ATOM     11  H   UNL     1     -48.824  29.847  24.311  1.00  0.00     0.034 H 
ATOM     12  H   UNL     1     -49.085  31.834  22.967  1.00  0.00     0.063 H 
ATOM     13  H   UNL     1     -46.960  31.372  21.286  1.00  0.00     0.067 H 
BRANCH   5  14
ATOM     14  N   UNL     1     -47.455  27.768  23.640  1.00  0.00    -0.306 N 
ATOM     15  C   UNL     1     -47.968  25.404  26.223  1.00  0.00     0.136 A 
ATOM     16  N   UNL     1     -49.312  25.365  26.303  1.00  0.00    -0.219 NA
ATOM     17  C   UNL     1     -47.368  26.254  25.284  1.00  0.00     0.061 A 
ATOM     18  C   UNL     1     -50.023  26.139  25.460  1.00  0.00     0.120 A 
ATOM     19  C   UNL     1     -48.222  27.002  24.486  1.00  0.00     0.147 A 
ATOM     20  C   UNL     1     -46.042  26.586  24.893  1.00  0.00    -0.031 A 
ATOM     21  N   UNL     1     -49.566  26.992  24.526  1.00  0.00    -0.218 NA
ATOM     22  H   UNL     1     -51.102  26.068  25.551  1.00  0.00     0.106 H 
ATOM     23  C   UNL     1     -46.125  27.517  23.879  1.00  0.00     0.009 A 
ATOM     24  H   UNL     1     -45.125  26.178  25.298  1.00  0.00     0.065 H 
ATOM     25  H   UNL     1     -45.348  28.008  23.304  1.00  0.00     0.082 H 
BRANCH  15  26
ATOM     26  N   UNL     1     -47.253  24.603  27.103  1.00  0.00    -0.383 N 
ATOM     27  H   UNL     1     -46.259  24.666  26.919  1.00  0.00     0.158 HD
ATOM     28  H   UNL     1     -47.631  23.676  27.240  1.00  0.00     0.158 HD
ENDBRANCH  15  26
ENDBRANCH   5  14
BRANCH   9  29
ATOM     29  O   UNL     1     -49.472  30.854  21.216  1.00  0.00    -0.390 OA
ATOM     30  H   UNL     1     -50.220  31.480  21.250  1.00  0.00     0.211 HD
ENDBRANCH   9  29
ENDBRANCH   1   4
BRANCH   1  31
ATOM     31  O   UNL     1     -47.219  31.251  24.590  1.00  0.00    -0.491 OA
BRANCH  31  32
ATOM     32  C   UNL     1     -47.598  32.381  25.261  1.00  0.00     0.121 A 
ATOM     33  C   UNL     1     -48.950  32.433  25.591  1.00  0.00    -0.019 A 
ATOM     34  C   UNL     1     -46.762  33.438  25.630  1.00  0.00     0.007 A 
ATOM     35  C   UNL     1     -49.463  33.533  26.278  1.00  0.00    -0.049 A 
ATOM     36  H   UNL     1     -49.608  31.615  25.310  1.00  0.00     0.066 H 
ATOM     37  C   UNL     1     -47.247  34.547  26.313  1.00  0.00     0.076 A 
ATOM     38  H   UNL     1     -45.703  33.431  25.398  1.00  0.00     0.069 H 
ATOM     39  C   UNL     1     -48.616  34.589  26.640  1.00  0.00     0.001 A 
ATOM     40  H   UNL     1     -50.521  33.556  26.527  1.00  0.00     0.063 H 
ATOM     41  N   UNL     1     -46.396  35.536  26.640  1.00  0.00    -0.231 NA
ATOM     42  C   UNL     1     -49.086  35.708  27.331  1.00  0.00    -0.049 A 
ATOM     43  C   UNL     1     -46.863  36.619  27.303  1.00  0.00     0.129 A 
ATOM     44  C   UNL     1     -48.200  36.728  27.667  1.00  0.00    -0.019 A 
ATOM     45  H   UNL     1     -50.130  35.792  27.615  1.00  0.00     0.063 H 
ATOM     46  H   UNL     1     -48.557  37.592  28.217  1.00  0.00     0.066 H 
BRANCH  43  47
ATOM     47  N   UNL     1     -45.955  37.638  27.650  1.00  0.00    -0.353 N 
ATOM     48  C   UNL     1     -46.267  38.736  28.525  1.00  0.00     0.036 C 
ATOM     49  C   UNL     1     -44.645  37.462  28.217  1.00  0.00     0.036 C 
ATOM     50  C   UNL     1     -44.747  38.925  28.685  1.00  0.00     0.040 C 
ATOM     51  H   UNL     1     -46.792  39.549  28.017  1.00  0.00     0.051 H 
ATOM     52  H   UNL     1     -46.822  38.421  29.416  1.00  0.00     0.051 H 
ATOM     53  H   UNL     1     -44.627  36.690  28.995  1.00  0.00     0.051 H 
ATOM     54  H   UNL     1     -43.878  37.263  27.464  1.00  0.00     0.051 H 
ATOM     55  H   UNL     1     -44.287  39.662  28.018  1.00  0.00     0.050 H 
BRANCH  50  56
ATOM     56  N   UNL     1     -44.376  39.038  30.103  1.00  0.00    -0.325 NA
ATOM     57  H   UNL     1     -45.095  39.485  30.671  1.00  0.00     0.119 HD
ATOM     58  H   UNL     1     -44.181  38.146  30.558  1.00  0.00     0.119 HD
ENDBRANCH  50  56
ENDBRANCH  43  47
ENDBRANCH  31  32
ENDBRANCH   1  31
TORSDOF 8
ENDMDL
MODEL 6
REMARK VINA RESULT:      -9.0      2.558      3.735
REMARK SMILES Nc1ncnc2c1ccn2[C@H]1C[C@H](O)[C@@H](COc2ccc3ccc(N4CC(N)C4)nc3c2)O1
REMARK SMILES IDX 16 1 15 4 11 5 12 6 33 7 13 9 10 14 2 15 3 16 7 17 4 18 6 19
REMARK SMILES IDX 8 20 5 21 9 23 1 26 14 29 17 31 18 32 19 33 32 34 20 35
REMARK SMILES IDX 31 37 21 39 30 41 22 42 24 43 23 44 25 47 26 48 29 49 27 50
REMARK SMILES IDX 28 56
REMARK H PARENT 16 2 16 3 11 8 12 10 12 11 13 12 15 13 4 22 8 24 9 25 1 27
REMARK H PARENT 1 28 14 30 19 36 32 38 20 40 22 45 23 46 26 51 26 52 29 53
REMARK H PARENT 29 54 27 55 28 57 28 58
REMARK Flexibility Score: inf
ROOT
ATOM      1  C   UNL     1     -45.801  36.770  27.752  1.00  0.00     0.117 C 
ATOM      2  H   UNL     1     -45.771  35.801  28.263  1.00  0.00     0.073 H 
ATOM      3  H   UNL     1     -44.783  37.140  27.578  1.00  0.00     0.073 H 
ENDROOT
BRANCH   1   4
ATOM      4  C   UNL     1     -46.576  37.794  28.595  1.00  0.00     0.120 C 
ATOM      5  C   UNL     1     -45.986  40.000  28.017  1.00  0.00     0.138 C 
ATOM      6  C   UNL     1     -47.076  39.533  27.060  1.00  0.00     0.022 C 
ATOM      7  O   UNL     1     -45.720  38.910  28.933  1.00  0.00    -0.348 OA
ATOM      8  H   UNL     1     -46.318  40.849  28.625  1.00  0.00     0.085 H 
ATOM      9  C   UNL     1     -47.739  38.419  27.833  1.00  0.00     0.088 C 
ATOM     10  H   UNL     1     -47.758  40.350  26.802  1.00  0.00     0.034 H 
ATOM     11  H   UNL     1     -46.644  39.144  26.130  1.00  0.00     0.034 H 
ATOM     12  H   UNL     1     -48.272  37.712  27.190  1.00  0.00     0.063 H 
ATOM     13  H   UNL     1     -46.895  37.341  29.540  1.00  0.00     0.067 H 
BRANCH   5  14
ATOM     14  N   UNL     1     -44.755  40.405  27.350  1.00  0.00    -0.306 N 
ATOM     15  C   UNL     1     -41.351  41.347  27.582  1.00  0.00     0.136 A 
ATOM     16  N   UNL     1     -41.136  41.291  28.910  1.00  0.00    -0.219 NA
ATOM     17  C   UNL     1     -42.624  41.032  27.086  1.00  0.00     0.061 A 
ATOM     18  C   UNL     1     -42.158  40.919  29.706  1.00  0.00     0.120 A 
ATOM     19  C   UNL     1     -43.585  40.672  28.021  1.00  0.00     0.147 A 
ATOM     20  C   UNL     1     -43.247  40.971  25.810  1.00  0.00    -0.031 A 
ATOM     21  N   UNL     1     -43.414  40.598  29.353  1.00  0.00    -0.218 NA
ATOM     22  H   UNL     1     -41.937  40.877  30.768  1.00  0.00     0.106 H 
ATOM     23  C   UNL     1     -44.557  40.581  26.002  1.00  0.00     0.009 A 
ATOM     24  H   UNL     1     -42.787  41.176  24.853  1.00  0.00     0.065 H 
ATOM     25  H   UNL     1     -45.353  40.405  25.288  1.00  0.00     0.082 H 
BRANCH  15  26
ATOM     26  N   UNL     1     -40.289  41.738  26.779  1.00  0.00    -0.383 N 
ATOM     27  H   UNL     1     -39.573  41.022  26.757  1.00  0.00     0.158 HD
ATOM     28  H   UNL     1     -39.975  42.689  26.919  1.00  0.00     0.158 HD
ENDBRANCH  15  26
ENDBRANCH   5  14
BRANCH   9  29
ATOM     29  O   UNL     1     -48.695  38.981  28.734  1.00  0.00    -0.390 OA
ATOM     30  H   UNL     1     -49.133  38.256  29.218  1.00  0.00     0.211 HD
ENDBRANCH   9  29
ENDBRANCH   1   4
BRANCH   1  31
ATOM     31  O   UNL     1     -46.471  36.623  26.495  1.00  0.00    -0.491 OA
BRANCH  31  32
ATOM     32  C   UNL     1     -47.053  35.413  26.237  1.00  0.00     0.121 A 
ATOM     33  C   UNL     1     -48.256  35.194  26.904  1.00  0.00    -0.019 A 
ATOM     34  C   UNL     1     -46.555  34.426  25.382  1.00  0.00     0.007 A 
ATOM     35  C   UNL     1     -48.951  33.999  26.724  1.00  0.00    -0.049 A 
ATOM     36  H   UNL     1     -48.652  35.957  27.570  1.00  0.00     0.066 H 
ATOM     37  C   UNL     1     -47.226  33.225  25.185  1.00  0.00     0.076 A 
ATOM     38  H   UNL     1     -45.627  34.562  24.839  1.00  0.00     0.069 H 
ATOM     39  C   UNL     1     -48.440  33.014  25.867  1.00  0.00     0.001 A 
ATOM     40  H   UNL     1     -49.887  33.846  27.254  1.00  0.00     0.063 H 
ATOM     41  N   UNL     1     -46.698  32.310  24.354  1.00  0.00    -0.231 NA
ATOM     42  C   UNL     1     -49.104  31.804  25.655  1.00  0.00    -0.049 A 
ATOM     43  C   UNL     1     -47.345  31.138  24.160  1.00  0.00     0.129 A 
ATOM     44  C   UNL     1     -48.552  30.861  24.792  1.00  0.00    -0.019 A 
ATOM     45  H   UNL     1     -50.047  31.589  26.149  1.00  0.00     0.063 H 
ATOM     46  H   UNL     1     -49.071  29.927  24.612  1.00  0.00     0.066 H 
BRANCH  43  47
ATOM     47  N   UNL     1     -46.785  30.198  23.274  1.00  0.00    -0.353 N 
ATOM     48  C   UNL     1     -45.539  30.382  22.579  1.00  0.00     0.036 C 
ATOM     49  C   UNL     1     -46.507  28.816  23.557  1.00  0.00     0.036 C 
ATOM     50  C   UNL     1     -45.535  28.857  22.364  1.00  0.00     0.040 C 
ATOM     51  H   UNL     1     -45.643  30.986  21.673  1.00  0.00     0.051 H 
ATOM     52  H   UNL     1     -44.753  30.793  23.224  1.00  0.00     0.051 H 
ATOM     53  H   UNL     1     -46.069  28.672  24.552  1.00  0.00     0.051 H 
ATOM     54  H   UNL     1     -47.379  28.170  23.428  1.00  0.00     0.051 H 
ATOM     55  H   UNL     1     -45.949  28.511  21.411  1.00  0.00     0.050 H 
BRANCH  50  56
ATOM     56  N   UNL     1     -44.237  28.276  22.737  1.00  0.00    -0.325 NA
ATOM     57  H   UNL     1     -43.594  28.192  21.951  1.00  0.00     0.119 HD
ATOM     58  H   UNL     1     -43.731  28.803  23.450  1.00  0.00     0.119 HD
ENDBRANCH  50  56
ENDBRANCH  43  47
ENDBRANCH  31  32
ENDBRANCH   1  31
TORSDOF 8
ENDMDL
MODEL 7
REMARK VINA RESULT:      -9.0      3.608     10.907
REMARK SMILES Nc1ncnc2c1ccn2[C@H]1C[C@H](O)[C@@H](COc2ccc3ccc(N4CC(N)C4)nc3c2)O1
REMARK SMILES IDX 16 1 15 4 11 5 12 6 33 7 13 9 10 14 2 15 3 16 7 17 4 18 6 19
REMARK SMILES IDX 8 20 5 21 9 23 1 26 14 29 17 31 18 32 19 33 32 34 20 35
REMARK SMILES IDX 31 37 21 39 30 41 22 42 24 43 23 44 25 47 26 48 29 49 27 50
REMARK SMILES IDX 28 56
REMARK H PARENT 16 2 16 3 11 8 12 10 12 11 13 12 15 13 4 22 8 24 9 25 1 27
REMARK H PARENT 1 28 14 30 19 36 32 38 20 40 22 45 23 46 26 51 26 52 29 53
REMARK H PARENT 29 54 27 55 28 57 28 58
REMARK Flexibility Score: inf
ROOT
ATOM      1  C   UNL     1     -49.985  31.562  24.475  1.00  0.00     0.117 C 
ATOM      2  H   UNL     1     -50.700  30.813  24.834  1.00  0.00     0.073 H 
ATOM      3  H   UNL     1     -50.451  32.554  24.455  1.00  0.00     0.073 H 
ENDROOT
BRANCH   1   4
ATOM      4  C   UNL     1     -49.498  31.201  23.064  1.00  0.00     0.120 C 
ATOM      5  C   UNL     1     -49.432  28.867  22.752  1.00  0.00     0.138 C 
ATOM      6  C   UNL     1     -50.848  29.348  22.452  1.00  0.00     0.022 C 
ATOM      7  O   UNL     1     -48.650  30.030  23.115  1.00  0.00    -0.348 OA
ATOM      8  H   UNL     1     -48.957  28.430  21.866  1.00  0.00     0.085 H 
ATOM      9  C   UNL     1     -50.639  30.808  22.133  1.00  0.00     0.088 C 
ATOM     10  H   UNL     1     -51.296  28.781  21.628  1.00  0.00     0.034 H 
ATOM     11  H   UNL     1     -51.495  29.240  23.330  1.00  0.00     0.034 H 
ATOM     12  H   UNL     1     -51.543  31.408  22.271  1.00  0.00     0.063 H 
ATOM     13  H   UNL     1     -48.890  32.016  22.654  1.00  0.00     0.067 H 
BRANCH   5  14
ATOM     14  N   UNL     1     -49.366  27.868  23.811  1.00  0.00    -0.306 N 
ATOM     15  C   UNL     1     -47.408  25.729  25.841  1.00  0.00     0.136 A 
ATOM     16  N   UNL     1     -46.162  25.991  25.401  1.00  0.00    -0.219 NA
ATOM     17  C   UNL     1     -48.489  26.405  25.258  1.00  0.00     0.061 A 
ATOM     18  C   UNL     1     -46.010  26.906  24.424  1.00  0.00     0.120 A 
ATOM     19  C   UNL     1     -48.188  27.316  24.256  1.00  0.00     0.147 A 
ATOM     20  C   UNL     1     -49.902  26.420  25.418  1.00  0.00    -0.031 A 
ATOM     21  N   UNL     1     -46.962  27.612  23.789  1.00  0.00    -0.218 NA
ATOM     22  H   UNL     1     -44.989  27.094  24.108  1.00  0.00     0.106 H 
ATOM     23  C   UNL     1     -50.415  27.331  24.517  1.00  0.00     0.009 A 
ATOM     24  H   UNL     1     -50.481  25.841  26.125  1.00  0.00     0.065 H 
ATOM     25  H   UNL     1     -51.436  27.644  24.334  1.00  0.00     0.082 H 
BRANCH  15  26
ATOM     26  N   UNL     1     -47.545  24.779  26.844  1.00  0.00    -0.383 N 
ATOM     27  H   UNL     1     -47.980  23.938  26.484  1.00  0.00     0.158 HD
ATOM     28  H   UNL     1     -47.897  25.133  27.722  1.00  0.00     0.158 HD
ENDBRANCH  15  26
ENDBRANCH   5  14
BRANCH   9  29
ATOM     29  O   UNL     1     -50.247  30.935  20.764  1.00  0.00    -0.390 OA
ATOM     30  H   UNL     1     -50.974  31.355  20.268  1.00  0.00     0.211 HD
ENDBRANCH   9  29
ENDBRANCH   1   4
BRANCH   1  31
ATOM     31  O   UNL     1     -48.851  31.591  25.348  1.00  0.00    -0.491 OA
BRANCH  31  32
ATOM     32  C   UNL     1     -48.385  32.821  25.724  1.00  0.00     0.121 A 
ATOM     33  C   UNL     1     -47.051  33.060  25.401  1.00  0.00    -0.019 A 
ATOM     34  C   UNL     1     -49.120  33.815  26.375  1.00  0.00     0.007 A 
ATOM     35  C   UNL     1     -46.457  34.278  25.730  1.00  0.00    -0.049 A 
ATOM     36  H   UNL     1     -46.472  32.294  24.894  1.00  0.00     0.066 H 
ATOM     37  C   UNL     1     -48.553  35.037  26.715  1.00  0.00     0.076 A 
ATOM     38  H   UNL     1     -50.163  33.670  26.637  1.00  0.00     0.069 H 
ATOM     39  C   UNL     1     -47.204  35.267  26.386  1.00  0.00     0.001 A 
ATOM     40  H   UNL     1     -45.416  34.446  25.470  1.00  0.00     0.063 H 
ATOM     41  N   UNL     1     -49.308  35.956  27.344  1.00  0.00    -0.231 NA
ATOM     42  C   UNL     1     -46.650  36.502  26.731  1.00  0.00    -0.049 A 
ATOM     43  C   UNL     1     -48.761  37.146  27.680  1.00  0.00     0.129 A 
ATOM     44  C   UNL     1     -47.437  37.448  27.380  1.00  0.00    -0.019 A 
ATOM     45  H   UNL     1     -45.617  36.737  26.495  1.00  0.00     0.063 H 
ATOM     46  H   UNL     1     -47.017  38.414  27.636  1.00  0.00     0.066 H 
BRANCH  43  47
ATOM     47  N   UNL     1     -49.571  38.101  28.324  1.00  0.00    -0.353 N 
ATOM     48  C   UNL     1     -49.428  39.524  28.166  1.00  0.00     0.036 C 
ATOM     49  C   UNL     1     -51.007  38.168  28.292  1.00  0.00     0.036 C 
ATOM     50  C   UNL     1     -50.861  39.641  28.717  1.00  0.00     0.040 C 
ATOM     51  H   UNL     1     -48.643  39.945  28.799  1.00  0.00     0.051 H 
ATOM     52  H   UNL     1     -49.274  39.818  27.121  1.00  0.00     0.051 H 
ATOM     53  H   UNL     1     -51.412  37.976  27.291  1.00  0.00     0.051 H 
ATOM     54  H   UNL     1     -51.481  37.513  29.027  1.00  0.00     0.051 H 
ATOM     55  H   UNL     1     -50.942  39.827  29.793  1.00  0.00     0.050 H 
BRANCH  50  56
ATOM     56  N   UNL     1     -51.685  40.507  27.861  1.00  0.00    -0.325 NA
ATOM     57  H   UNL     1     -52.366  41.056  28.385  1.00  0.00     0.119 HD
ATOM     58  H   UNL     1     -51.153  41.181  27.310  1.00  0.00     0.119 HD
ENDBRANCH  50  56
ENDBRANCH  43  47
ENDBRANCH  31  32
ENDBRANCH   1  31
TORSDOF 8
ENDMDL
