MODEL 1
REMARK VINA RESULT:      -9.8      0.000      0.000
REMARK SMILES CCc1cc(N(C)C2CC2)c2ccc(OCc3cncc(-n4cc([C@@H]5CCCO5)c5c(N)ncnc54)c3)cc2n1
REMARK SMILES IDX 16 1 15 4 14 5 3 6 4 7 40 8 5 9 39 11 11 12 38 13 12 14
REMARK SMILES IDX 13 16 2 19 1 22 6 26 7 27 8 31 9 32 10 33 17 39 18 40 37 41
REMARK SMILES IDX 19 42 21 44 20 46 22 48 23 49 36 50 24 51 30 53 35 54 31 55
REMARK SMILES IDX 34 56 33 57 25 59 26 60 29 61 27 63 28 66 32 71
REMARK H PARENT 16 2 16 3 4 10 38 15 12 17 13 18 2 20 2 21 1 23 1 24 1 25 7 28
REMARK H PARENT 7 29 7 30 8 34 9 35 9 36 10 37 10 38 18 43 37 45 20 47 23 52
REMARK H PARENT 34 58 25 62 26 64 26 65 27 67 27 68 28 69 28 70 32 72 32 73
REMARK Flexibility Score: inf
ROOT
ATOM      1  C   UNL     1     -46.257  35.578  27.277  1.00  0.00     0.115 C 
ATOM      2  H   UNL     1     -45.721  35.926  26.386  1.00  0.00     0.076 H 
ATOM      3  H   UNL     1     -45.524  35.026  27.878  1.00  0.00     0.076 H 
ENDROOT
BRANCH   1   4
ATOM      4  O   UNL     1     -46.699  36.756  27.962  1.00  0.00    -0.489 OA
BRANCH   4   5
ATOM      5  C   UNL     1     -46.116  37.952  27.646  1.00  0.00     0.122 A 
ATOM      6  C   UNL     1     -42.958  41.460  28.223  1.00  0.00     0.043 A 
ATOM      7  C   UNL     1     -43.467  42.200  27.165  1.00  0.00    -0.016 A 
ATOM      8  N   UNL     1     -43.487  40.276  28.603  1.00  0.00    -0.253 NA
ATOM      9  C   UNL     1     -44.562  41.704  26.453  1.00  0.00     0.048 A 
ATOM     10  H   UNL     1     -43.028  43.158  26.909  1.00  0.00     0.066 H 
ATOM     11  C   UNL     1     -44.529  39.780  27.918  1.00  0.00     0.076 A 
ATOM     12  C   UNL     1     -45.112  40.451  26.824  1.00  0.00     0.024 A 
ATOM     13  C   UNL     1     -45.046  38.550  28.313  1.00  0.00     0.007 A 
ATOM     14  C   UNL     1     -46.194  39.843  26.151  1.00  0.00    -0.047 A 
ATOM     15  H   UNL     1     -44.580  38.082  29.174  1.00  0.00     0.069 H 
ATOM     16  C   UNL     1     -46.691  38.609  26.564  1.00  0.00    -0.019 A 
ATOM     17  H   UNL     1     -46.644  40.332  25.290  1.00  0.00     0.063 H 
ATOM     18  H   UNL     1     -47.524  38.157  26.031  1.00  0.00     0.066 H 
BRANCH   6  19
ATOM     19  C   UNL     1     -41.799  41.979  29.032  1.00  0.00    -0.013 C 
ATOM     20  H   UNL     1     -42.021  42.988  29.400  1.00  0.00     0.033 H 
ATOM     21  H   UNL     1     -40.920  42.071  28.382  1.00  0.00     0.033 H 
BRANCH  19  22
ATOM     22  C   UNL     1     -41.472  41.058  30.196  1.00  0.00    -0.060 C 
ATOM     23  H   UNL     1     -41.605  40.013  29.901  1.00  0.00     0.023 H 
ATOM     24  H   UNL     1     -40.436  41.187  30.528  1.00  0.00     0.023 H 
ATOM     25  H   UNL     1     -42.126  41.255  31.052  1.00  0.00     0.023 H 
ENDBRANCH  19  22
ENDBRANCH   6  19
BRANCH   9  26
ATOM     26  N   UNL     1     -45.130  42.459  25.373  1.00  0.00    -0.371 N 
BRANCH  26  27
ATOM     27  C   UNL     1     -45.905  43.580  25.920  1.00  0.00     0.007 C 
ATOM     28  H   UNL     1     -45.405  44.540  25.745  1.00  0.00     0.046 H 
ATOM     29  H   UNL     1     -46.906  43.631  25.479  1.00  0.00     0.046 H 
ATOM     30  H   UNL     1     -46.010  43.483  27.005  1.00  0.00     0.046 H 
ENDBRANCH  26  27
BRANCH  26  31
ATOM     31  C   UNL     1     -44.242  42.724  24.214  1.00  0.00     0.029 C 
ATOM     32  C   UNL     1     -43.387  43.952  24.069  1.00  0.00    -0.031 C 
ATOM     33  C   UNL     1     -44.563  43.745  23.157  1.00  0.00    -0.031 C 
ATOM     34  H   UNL     1     -43.831  41.793  23.822  1.00  0.00     0.053 H 
ATOM     35  H   UNL     1     -42.394  43.825  23.653  1.00  0.00     0.029 H 
ATOM     36  H   UNL     1     -43.454  44.739  24.809  1.00  0.00     0.029 H 
ATOM     37  H   UNL     1     -45.427  44.383  23.279  1.00  0.00     0.029 H 
ATOM     38  H   UNL     1     -44.365  43.475  22.126  1.00  0.00     0.029 H 
ENDBRANCH  26  31
ENDBRANCH   9  26
ENDBRANCH   4   5
ENDBRANCH   1   4
BRANCH   1  39
ATOM     39  C   UNL     1     -47.386  34.698  26.808  1.00  0.00     0.010 A 
ATOM     40  C   UNL     1     -48.701  35.097  27.005  1.00  0.00     0.034 A 
ATOM     41  C   UNL     1     -47.177  33.442  26.220  1.00  0.00    -0.028 A 
ATOM     42  N   UNL     1     -49.772  34.362  26.646  1.00  0.00    -0.262 NA
ATOM     43  H   UNL     1     -48.942  36.050  27.470  1.00  0.00     0.084 H 
ATOM     44  C   UNL     1     -48.262  32.647  25.824  1.00  0.00     0.066 A 
ATOM     45  H   UNL     1     -46.150  33.107  26.100  1.00  0.00     0.065 H 
ATOM     46  C   UNL     1     -49.532  33.159  26.063  1.00  0.00     0.051 A 
ATOM     47  H   UNL     1     -50.446  32.647  25.783  1.00  0.00     0.086 H 
BRANCH  44  48
ATOM     48  N   UNL     1     -48.061  31.378  25.193  1.00  0.00    -0.299 N 
ATOM     49  C   UNL     1     -48.619  30.181  25.619  1.00  0.00     0.018 A 
ATOM     50  C   UNL     1     -47.293  31.092  24.065  1.00  0.00     0.150 A 
ATOM     51  C   UNL     1     -48.215  29.139  24.803  1.00  0.00     0.012 A 
ATOM     52  H   UNL     1     -49.248  30.146  26.496  1.00  0.00     0.083 H 
ATOM     53  C   UNL     1     -47.365  29.726  23.812  1.00  0.00     0.067 A 
ATOM     54  N   UNL     1     -46.603  31.976  23.317  1.00  0.00    -0.218 NA
ATOM     55  C   UNL     1     -46.640  29.242  22.710  1.00  0.00     0.136 A 
ATOM     56  C   UNL     1     -45.962  31.402  22.290  1.00  0.00     0.120 A 
ATOM     57  N   UNL     1     -45.935  30.104  21.955  1.00  0.00    -0.219 NA
ATOM     58  H   UNL     1     -45.391  32.069  21.651  1.00  0.00     0.106 H 
BRANCH  51  59
ATOM     59  C   UNL     1     -48.578  27.679  24.888  1.00  0.00     0.085 C 
ATOM     60  C   UNL     1     -49.299  27.238  26.155  1.00  0.00    -0.020 C 
ATOM     61  O   UNL     1     -47.379  26.868  24.832  1.00  0.00    -0.373 OA
ATOM     62  H   UNL     1     -49.190  27.433  24.012  1.00  0.00     0.066 H 
ATOM     63  C   UNL     1     -48.157  26.880  27.074  1.00  0.00    -0.027 C 
ATOM     64  H   UNL     1     -49.990  27.971  26.579  1.00  0.00     0.030 H 
ATOM     65  H   UNL     1     -49.875  26.328  25.945  1.00  0.00     0.030 H 
ATOM     66  C   UNL     1     -47.171  26.256  26.112  1.00  0.00     0.048 C 
ATOM     67  H   UNL     1     -47.729  27.785  27.519  1.00  0.00     0.029 H 
ATOM     68  H   UNL     1     -48.442  26.205  27.885  1.00  0.00     0.029 H 
ATOM     69  H   UNL     1     -46.132  26.401  26.424  1.00  0.00     0.057 H 
ATOM     70  H   UNL     1     -47.353  25.182  25.999  1.00  0.00     0.057 H 
ENDBRANCH  51  59
BRANCH  55  71
ATOM     71  N   UNL     1     -46.585  27.899  22.353  1.00  0.00    -0.383 N 
ATOM     72  H   UNL     1     -46.396  27.810  21.364  1.00  0.00     0.158 HD
ATOM     73  H   UNL     1     -45.971  27.361  22.966  1.00  0.00     0.158 HD
ENDBRANCH  55  71
ENDBRANCH  44  48
ENDBRANCH   1  39
TORSDOF 11
ENDMDL
MODEL 2
REMARK VINA RESULT:      -9.7      1.762      2.246
REMARK SMILES CCc1cc(N(C)C2CC2)c2ccc(OCc3cncc(-n4cc([C@@H]5CCCO5)c5c(N)ncnc54)c3)cc2n1
REMARK SMILES IDX 16 1 15 4 14 5 3 6 4 7 40 8 5 9 39 11 11 12 38 13 12 14
REMARK SMILES IDX 13 16 2 19 1 22 6 26 7 27 8 31 9 32 10 33 17 39 18 40 37 41
REMARK SMILES IDX 19 42 21 44 20 46 22 48 23 49 36 50 24 51 30 53 35 54 31 55
REMARK SMILES IDX 34 56 33 57 25 59 26 60 29 61 27 63 28 66 32 71
REMARK H PARENT 16 2 16 3 4 10 38 15 12 17 13 18 2 20 2 21 1 23 1 24 1 25 7 28
REMARK H PARENT 7 29 7 30 8 34 9 35 9 36 10 37 10 38 18 43 37 45 20 47 23 52
REMARK H PARENT 34 58 25 62 26 64 26 65 27 67 27 68 28 69 28 70 32 72 32 73
REMARK Flexibility Score: inf
ROOT
ATOM      1  C   UNL     1     -48.531  35.486  27.275  1.00  0.00     0.115 C 
ATOM      2  H   UNL     1     -49.385  35.049  27.806  1.00  0.00     0.076 H 
ATOM      3  H   UNL     1     -48.936  36.303  26.665  1.00  0.00     0.076 H 
ENDROOT
BRANCH   1   4
ATOM      4  O   UNL     1     -47.649  35.989  28.285  1.00  0.00    -0.489 OA
BRANCH   4   5
ATOM      5  C   UNL     1     -46.945  37.132  28.027  1.00  0.00     0.122 A 
ATOM      6  C   UNL     1     -43.458  40.278  28.779  1.00  0.00     0.043 A 
ATOM      7  C   UNL     1     -43.879  41.110  27.752  1.00  0.00    -0.016 A 
ATOM      8  N   UNL     1     -44.107  39.137  29.103  1.00  0.00    -0.253 NA
ATOM      9  C   UNL     1     -45.011  40.759  27.012  1.00  0.00     0.048 A 
ATOM     10  H   UNL     1     -43.344  42.029  27.543  1.00  0.00     0.066 H 
ATOM     11  C   UNL     1     -45.187  38.779  28.390  1.00  0.00     0.076 A 
ATOM     12  C   UNL     1     -45.688  39.552  27.323  1.00  0.00     0.024 A 
ATOM     13  C   UNL     1     -45.828  37.591  28.727  1.00  0.00     0.007 A 
ATOM     14  C   UNL     1     -46.817  39.085  26.616  1.00  0.00    -0.047 A 
ATOM     15  H   UNL     1     -45.421  37.041  29.569  1.00  0.00     0.069 H 
ATOM     16  C   UNL     1     -47.440  37.891  26.971  1.00  0.00    -0.019 A 
ATOM     17  H   UNL     1     -47.207  39.654  25.775  1.00  0.00     0.063 H 
ATOM     18  H   UNL     1     -48.308  37.548  26.413  1.00  0.00     0.066 H 
BRANCH   6  19
ATOM     19  C   UNL     1     -42.262  40.642  29.618  1.00  0.00    -0.013 C 
ATOM     20  H   UNL     1     -41.583  39.784  29.694  1.00  0.00     0.033 H 
ATOM     21  H   UNL     1     -42.594  40.869  30.639  1.00  0.00     0.033 H 
BRANCH  19  22
ATOM     22  C   UNL     1     -41.524  41.843  29.049  1.00  0.00    -0.060 C 
ATOM     23  H   UNL     1     -42.094  42.281  28.224  1.00  0.00     0.023 H 
ATOM     24  H   UNL     1     -41.378  42.618  29.809  1.00  0.00     0.023 H 
ATOM     25  H   UNL     1     -40.538  41.558  28.667  1.00  0.00     0.023 H 
ENDBRANCH  19  22
ENDBRANCH   6  19
BRANCH   9  26
ATOM     26  N   UNL     1     -45.488  41.612  25.963  1.00  0.00    -0.371 N 
BRANCH  26  27
ATOM     27  C   UNL     1     -46.807  42.142  26.332  1.00  0.00     0.007 C 
ATOM     28  H   UNL     1     -46.814  42.533  27.357  1.00  0.00     0.046 H 
ATOM     29  H   UNL     1     -47.122  42.946  25.658  1.00  0.00     0.046 H 
ATOM     30  H   UNL     1     -47.563  41.351  26.301  1.00  0.00     0.046 H 
ENDBRANCH  26  27
BRANCH  26  31
ATOM     31  C   UNL     1     -44.500  42.550  25.373  1.00  0.00     0.029 C 
ATOM     32  C   UNL     1     -44.795  43.474  24.224  1.00  0.00    -0.031 C 
ATOM     33  C   UNL     1     -43.853  42.318  24.035  1.00  0.00    -0.031 C 
ATOM     34  H   UNL     1     -43.817  42.922  26.138  1.00  0.00     0.053 H 
ATOM     35  H   UNL     1     -44.372  44.471  24.262  1.00  0.00     0.029 H 
ATOM     36  H   UNL     1     -45.759  43.426  23.734  1.00  0.00     0.029 H 
ATOM     37  H   UNL     1     -44.176  41.486  23.425  1.00  0.00     0.029 H 
ATOM     38  H   UNL     1     -42.794  42.534  23.949  1.00  0.00     0.029 H 
ENDBRANCH  26  31
ENDBRANCH   9  26
ENDBRANCH   4   5
ENDBRANCH   1   4
BRANCH   1  39
ATOM     39  C   UNL     1     -47.920  34.396  26.434  1.00  0.00     0.010 A 
ATOM     40  C   UNL     1     -46.692  34.604  25.820  1.00  0.00     0.034 A 
ATOM     41  C   UNL     1     -48.565  33.176  26.183  1.00  0.00    -0.028 A 
ATOM     42  N   UNL     1     -46.085  33.699  25.026  1.00  0.00    -0.262 NA
ATOM     43  H   UNL     1     -46.140  35.531  25.952  1.00  0.00     0.084 H 
ATOM     44  C   UNL     1     -47.966  32.203  25.371  1.00  0.00     0.066 A 
ATOM     45  H   UNL     1     -49.544  33.025  26.629  1.00  0.00     0.065 H 
ATOM     46  C   UNL     1     -46.730  32.522  24.821  1.00  0.00     0.051 A 
ATOM     47  H   UNL     1     -46.161  31.844  24.194  1.00  0.00     0.086 H 
BRANCH  44  48
ATOM     48  N   UNL     1     -48.600  30.941  25.135  1.00  0.00    -0.299 N 
ATOM     49  C   UNL     1     -48.379  29.790  25.878  1.00  0.00     0.018 A 
ATOM     50  C   UNL     1     -49.531  30.618  24.148  1.00  0.00     0.150 A 
ATOM     51  C   UNL     1     -49.133  28.740  25.383  1.00  0.00     0.012 A 
ATOM     52  H   UNL     1     -47.676  29.788  26.697  1.00  0.00     0.083 H 
ATOM     53  C   UNL     1     -49.866  29.274  24.276  1.00  0.00     0.067 A 
ATOM     54  N   UNL     1     -50.050  31.456  23.228  1.00  0.00    -0.218 NA
ATOM     55  C   UNL     1     -50.793  28.758  23.354  1.00  0.00     0.136 A 
ATOM     56  C   UNL     1     -50.928  30.855  22.414  1.00  0.00     0.120 A 
ATOM     57  N   UNL     1     -51.315  29.571  22.420  1.00  0.00    -0.219 NA
ATOM     58  H   UNL     1     -51.381  31.484  21.653  1.00  0.00     0.106 H 
BRANCH  51  59
ATOM     59  C   UNL     1     -49.212  27.319  25.879  1.00  0.00     0.085 C 
ATOM     60  C   UNL     1     -48.406  26.998  27.131  1.00  0.00    -0.020 C 
ATOM     61  O   UNL     1     -48.713  26.414  24.864  1.00  0.00    -0.373 OA
ATOM     62  H   UNL     1     -50.269  27.082  26.050  1.00  0.00     0.066 H 
ATOM     63  C   UNL     1     -47.068  26.595  26.565  1.00  0.00    -0.027 C 
ATOM     64  H   UNL     1     -48.347  27.804  27.868  1.00  0.00     0.030 H 
ATOM     65  H   UNL     1     -48.850  26.129  27.633  1.00  0.00     0.030 H 
ATOM     66  C   UNL     1     -47.474  25.849  25.314  1.00  0.00     0.048 C 
ATOM     67  H   UNL     1     -46.483  27.484  26.301  1.00  0.00     0.029 H 
ATOM     68  H   UNL     1     -46.469  25.984  27.246  1.00  0.00     0.029 H 
ATOM     69  H   UNL     1     -46.726  25.925  24.519  1.00  0.00     0.057 H 
ATOM     70  H   UNL     1     -47.651  24.789  25.524  1.00  0.00     0.057 H 
ENDBRANCH  51  59
BRANCH  55  71
ATOM     71  N   UNL     1     -51.197  27.428  23.331  1.00  0.00    -0.383 N 
ATOM     72  H   UNL     1     -51.612  27.206  22.435  1.00  0.00     0.158 HD
ATOM     73  H   UNL     1     -50.459  26.793  23.640  1.00  0.00     0.158 HD
ENDBRANCH  55  71
ENDBRANCH  44  48
ENDBRANCH   1  39
TORSDOF 11
ENDMDL
MODEL 3
REMARK VINA RESULT:      -9.7      2.095     12.113
REMARK SMILES CCc1cc(N(C)C2CC2)c2ccc(OCc3cncc(-n4cc([C@@H]5CCCO5)c5c(N)ncnc54)c3)cc2n1
REMARK SMILES IDX 16 1 15 4 14 5 3 6 4 7 40 8 5 9 39 11 11 12 38 13 12 14
REMARK SMILES IDX 13 16 2 19 1 22 6 26 7 27 8 31 9 32 10 33 17 39 18 40 37 41
REMARK SMILES IDX 19 42 21 44 20 46 22 48 23 49 36 50 24 51 30 53 35 54 31 55
REMARK SMILES IDX 34 56 33 57 25 59 26 60 29 61 27 63 28 66 32 71
REMARK H PARENT 16 2 16 3 4 10 38 15 12 17 13 18 2 20 2 21 1 23 1 24 1 25 7 28
REMARK H PARENT 7 29 7 30 8 34 9 35 9 36 10 37 10 38 18 43 37 45 20 47 23 52
REMARK H PARENT 34 58 25 62 26 64 26 65 27 67 27 68 28 69 28 70 32 72 32 73
REMARK Flexibility Score: inf
ROOT
ATOM      1  C   UNL     1     -46.657  34.635  27.868  1.00  0.00     0.115 C 
ATOM      2  H   UNL     1     -47.619  34.109  27.885  1.00  0.00     0.076 H 
ATOM      3  H   UNL     1     -46.115  34.311  28.766  1.00  0.00     0.076 H 
ENDROOT
BRANCH   1   4
ATOM      4  O   UNL     1     -45.986  34.201  26.680  1.00  0.00    -0.489 OA
BRANCH   4   5
ATOM      5  C   UNL     1     -46.530  33.173  25.962  1.00  0.00     0.122 A 
ATOM      6  C   UNL     1     -47.323  30.665  21.999  1.00  0.00     0.043 A 
ATOM      7  C   UNL     1     -48.145  29.753  22.646  1.00  0.00    -0.016 A 
ATOM      8  N   UNL     1     -46.759  31.714  22.638  1.00  0.00    -0.253 NA
ATOM      9  C   UNL     1     -48.397  29.912  24.011  1.00  0.00     0.048 A 
ATOM     10  H   UNL     1     -48.598  28.940  22.090  1.00  0.00     0.066 H 
ATOM     11  C   UNL     1     -46.979  31.871  23.952  1.00  0.00     0.076 A 
ATOM     12  C   UNL     1     -47.791  30.994  24.699  1.00  0.00     0.024 A 
ATOM     13  C   UNL     1     -46.372  32.946  24.594  1.00  0.00     0.007 A 
ATOM     14  C   UNL     1     -47.949  31.225  26.083  1.00  0.00    -0.047 A 
ATOM     15  H   UNL     1     -45.775  33.607  23.974  1.00  0.00     0.069 H 
ATOM     16  C   UNL     1     -47.328  32.307  26.703  1.00  0.00    -0.019 A 
ATOM     17  H   UNL     1     -48.553  30.548  26.683  1.00  0.00     0.063 H 
ATOM     18  H   UNL     1     -47.461  32.467  27.770  1.00  0.00     0.066 H 
BRANCH   6  19
ATOM     19  C   UNL     1     -47.057  30.543  20.523  1.00  0.00    -0.013 C 
ATOM     20  H   UNL     1     -47.063  29.487  20.228  1.00  0.00     0.033 H 
ATOM     21  H   UNL     1     -46.051  30.922  20.306  1.00  0.00     0.033 H 
BRANCH  19  22
ATOM     22  C   UNL     1     -48.076  31.320  19.704  1.00  0.00    -0.060 C 
ATOM     23  H   UNL     1     -47.690  31.506  18.697  1.00  0.00     0.023 H 
ATOM     24  H   UNL     1     -49.017  30.767  19.610  1.00  0.00     0.023 H 
ATOM     25  H   UNL     1     -48.300  32.287  20.166  1.00  0.00     0.023 H 
ENDBRANCH  19  22
ENDBRANCH   6  19
BRANCH   9  26
ATOM     26  N   UNL     1     -49.265  29.003  24.701  1.00  0.00    -0.371 N 
BRANCH  26  27
ATOM     27  C   UNL     1     -50.532  28.891  23.967  1.00  0.00     0.007 C 
ATOM     28  H   UNL     1     -50.370  28.871  22.882  1.00  0.00     0.046 H 
ATOM     29  H   UNL     1     -51.082  27.986  24.247  1.00  0.00     0.046 H 
ATOM     30  H   UNL     1     -51.170  29.757  24.164  1.00  0.00     0.046 H 
ENDBRANCH  26  27
BRANCH  26  31
ATOM     31  C   UNL     1     -48.644  27.757  25.215  1.00  0.00     0.029 C 
ATOM     32  C   UNL     1     -49.407  26.501  25.531  1.00  0.00    -0.031 C 
ATOM     33  C   UNL     1     -48.788  27.302  26.641  1.00  0.00    -0.031 C 
ATOM     34  H   UNL     1     -47.640  27.630  24.807  1.00  0.00     0.053 H 
ATOM     35  H   UNL     1     -48.947  25.555  25.269  1.00  0.00     0.029 H 
ATOM     36  H   UNL     1     -50.487  26.499  25.451  1.00  0.00     0.029 H 
ATOM     37  H   UNL     1     -49.441  27.846  27.310  1.00  0.00     0.029 H 
ATOM     38  H   UNL     1     -47.907  26.899  27.128  1.00  0.00     0.029 H 
ENDBRANCH  26  31
ENDBRANCH   9  26
ENDBRANCH   4   5
ENDBRANCH   1   4
BRANCH   1  39
ATOM     39  C   UNL     1     -46.953  36.112  27.885  1.00  0.00     0.010 A 
ATOM     40  C   UNL     1     -48.266  36.553  27.975  1.00  0.00     0.034 A 
ATOM     41  C   UNL     1     -45.955  37.089  27.755  1.00  0.00    -0.028 A 
ATOM     42  N   UNL     1     -48.627  37.851  27.967  1.00  0.00    -0.262 NA
ATOM     43  H   UNL     1     -49.095  35.854  28.060  1.00  0.00     0.084 H 
ATOM     44  C   UNL     1     -46.284  38.452  27.750  1.00  0.00     0.066 A 
ATOM     45  H   UNL     1     -44.929  36.749  27.645  1.00  0.00     0.065 H 
ATOM     46  C   UNL     1     -47.633  38.770  27.857  1.00  0.00     0.051 A 
ATOM     47  H   UNL     1     -48.007  39.788  27.886  1.00  0.00     0.086 H 
BRANCH  44  48
ATOM     48  N   UNL     1     -45.271  39.460  27.652  1.00  0.00    -0.299 N 
ATOM     49  C   UNL     1     -45.172  40.390  26.626  1.00  0.00     0.018 A 
ATOM     50  C   UNL     1     -44.215  39.704  28.529  1.00  0.00     0.150 A 
ATOM     51  C   UNL     1     -44.074  41.210  26.820  1.00  0.00     0.012 A 
ATOM     52  H   UNL     1     -45.878  40.388  25.809  1.00  0.00     0.083 H 
ATOM     53  C   UNL     1     -43.464  40.767  28.035  1.00  0.00     0.067 A 
ATOM     54  N   UNL     1     -43.957  39.049  29.679  1.00  0.00    -0.218 NA
ATOM     55  C   UNL     1     -42.342  41.156  28.786  1.00  0.00     0.136 A 
ATOM     56  C   UNL     1     -42.871  39.515  30.311  1.00  0.00     0.120 A 
ATOM     57  N   UNL     1     -42.057  40.510  29.930  1.00  0.00    -0.219 NA
ATOM     58  H   UNL     1     -42.617  39.024  31.246  1.00  0.00     0.106 H 
BRANCH  51  59
ATOM     59  C   UNL     1     -43.590  42.353  25.966  1.00  0.00     0.085 C 
ATOM     60  C   UNL     1     -43.882  43.754  26.489  1.00  0.00    -0.020 C 
ATOM     61  O   UNL     1     -44.218  42.296  24.662  1.00  0.00    -0.373 OA
ATOM     62  H   UNL     1     -42.510  42.232  25.823  1.00  0.00     0.066 H 
ATOM     63  C   UNL     1     -45.237  44.049  25.896  1.00  0.00    -0.027 C 
ATOM     64  H   UNL     1     -43.845  43.865  27.576  1.00  0.00     0.030 H 
ATOM     65  H   UNL     1     -43.155  44.458  26.064  1.00  0.00     0.030 H 
ATOM     66  C   UNL     1     -45.127  43.399  24.535  1.00  0.00     0.048 C 
ATOM     67  H   UNL     1     -46.024  43.562  26.484  1.00  0.00     0.029 H 
ATOM     68  H   UNL     1     -45.469  45.116  25.837  1.00  0.00     0.029 H 
ATOM     69  H   UNL     1     -46.091  43.038  24.164  1.00  0.00     0.057 H 
ATOM     70  H   UNL     1     -44.707  44.091  23.798  1.00  0.00     0.057 H 
ENDBRANCH  51  59
BRANCH  55  71
ATOM     71  N   UNL     1     -41.475  42.174  28.403  1.00  0.00    -0.383 N 
ATOM     72  H   UNL     1     -40.784  41.817  27.758  1.00  0.00     0.158 HD
ATOM     73  H   UNL     1     -41.973  43.009  28.091  1.00  0.00     0.158 HD
ENDBRANCH  55  71
ENDBRANCH  44  48
ENDBRANCH   1  39
TORSDOF 11
ENDMDL
MODEL 4
REMARK VINA RESULT:      -9.6      2.181     11.850
REMARK SMILES CCc1cc(N(C)C2CC2)c2ccc(OCc3cncc(-n4cc([C@@H]5CCCO5)c5c(N)ncnc54)c3)cc2n1
REMARK SMILES IDX 16 1 15 4 14 5 3 6 4 7 40 8 5 9 39 11 11 12 38 13 12 14
REMARK SMILES IDX 13 16 2 19 1 22 6 26 7 27 8 31 9 32 10 33 17 39 18 40 37 41
REMARK SMILES IDX 19 42 21 44 20 46 22 48 23 49 36 50 24 51 30 53 35 54 31 55
REMARK SMILES IDX 34 56 33 57 25 59 26 60 29 61 27 63 28 66 32 71
REMARK H PARENT 16 2 16 3 4 10 38 15 12 17 13 18 2 20 2 21 1 23 1 24 1 25 7 28
REMARK H PARENT 7 29 7 30 8 34 9 35 9 36 10 37 10 38 18 43 37 45 20 47 23 52
REMARK H PARENT 34 58 25 62 26 64 26 65 27 67 27 68 28 69 28 70 32 72 32 73
REMARK Flexibility Score: inf
ROOT
ATOM      1  C   UNL     1     -48.184  35.056  26.608  1.00  0.00     0.115 C 
ATOM      2  H   UNL     1     -47.770  35.080  25.593  1.00  0.00     0.076 H 
ATOM      3  H   UNL     1     -49.224  35.393  26.522  1.00  0.00     0.076 H 
ENDROOT
BRANCH   1   4
ATOM      4  O   UNL     1     -48.121  33.689  27.031  1.00  0.00    -0.489 OA
BRANCH   4   5
ATOM      5  C   UNL     1     -47.887  32.725  26.091  1.00  0.00     0.122 A 
ATOM      6  C   UNL     1     -48.650  28.537  23.970  1.00  0.00     0.043 A 
ATOM      7  C   UNL     1     -47.642  28.735  23.037  1.00  0.00    -0.016 A 
ATOM      8  N   UNL     1     -48.933  29.438  24.937  1.00  0.00    -0.253 NA
ATOM      9  C   UNL     1     -46.892  29.913  23.086  1.00  0.00     0.048 A 
ATOM     10  H   UNL     1     -47.431  27.975  22.294  1.00  0.00     0.066 H 
ATOM     11  C   UNL     1     -48.231  30.581  24.987  1.00  0.00     0.076 A 
ATOM     12  C   UNL     1     -47.194  30.879  24.080  1.00  0.00     0.024 A 
ATOM     13  C   UNL     1     -48.552  31.503  25.978  1.00  0.00     0.007 A 
ATOM     14  C   UNL     1     -46.524  32.116  24.196  1.00  0.00    -0.047 A 
ATOM     15  H   UNL     1     -49.341  31.220  26.667  1.00  0.00     0.069 H 
ATOM     16  C   UNL     1     -46.866  33.024  25.195  1.00  0.00    -0.019 A 
ATOM     17  H   UNL     1     -45.736  32.377  23.493  1.00  0.00     0.063 H 
ATOM     18  H   UNL     1     -46.338  33.972  25.266  1.00  0.00     0.066 H 
BRANCH   6  19
ATOM     19  C   UNL     1     -49.456  27.265  23.967  1.00  0.00    -0.013 C 
ATOM     20  H   UNL     1     -49.157  26.635  23.120  1.00  0.00     0.033 H 
ATOM     21  H   UNL     1     -50.514  27.511  23.815  1.00  0.00     0.033 H 
BRANCH  19  22
ATOM     22  C   UNL     1     -49.298  26.499  25.270  1.00  0.00    -0.060 C 
ATOM     23  H   UNL     1     -49.688  27.088  26.106  1.00  0.00     0.023 H 
ATOM     24  H   UNL     1     -49.842  25.548  25.242  1.00  0.00     0.023 H 
ATOM     25  H   UNL     1     -48.244  26.277  25.473  1.00  0.00     0.023 H 
ENDBRANCH  19  22
ENDBRANCH   6  19
BRANCH   9  26
ATOM     26  N   UNL     1     -45.824  30.135  22.155  1.00  0.00    -0.371 N 
BRANCH  26  27
ATOM     27  C   UNL     1     -44.804  29.093  22.330  1.00  0.00     0.007 C 
ATOM     28  H   UNL     1     -44.367  28.790  21.371  1.00  0.00     0.046 H 
ATOM     29  H   UNL     1     -43.992  29.430  22.984  1.00  0.00     0.046 H 
ATOM     30  H   UNL     1     -45.244  28.191  22.764  1.00  0.00     0.046 H 
ENDBRANCH  26  27
BRANCH  26  31
ATOM     31  C   UNL     1     -46.219  30.499  20.771  1.00  0.00     0.029 C 
ATOM     32  C   UNL     1     -45.950  31.837  20.140  1.00  0.00    -0.031 C 
ATOM     33  C   UNL     1     -47.360  31.430  20.466  1.00  0.00    -0.031 C 
ATOM     34  H   UNL     1     -46.168  29.629  20.115  1.00  0.00     0.053 H 
ATOM     35  H   UNL     1     -45.654  31.849  19.098  1.00  0.00     0.029 H 
ATOM     36  H   UNL     1     -45.502  32.625  20.732  1.00  0.00     0.029 H 
ATOM     37  H   UNL     1     -47.867  31.934  21.277  1.00  0.00     0.029 H 
ATOM     38  H   UNL     1     -48.015  31.164  19.644  1.00  0.00     0.029 H 
ENDBRANCH  26  31
ENDBRANCH   9  26
ENDBRANCH   4   5
ENDBRANCH   1   4
BRANCH   1  39
ATOM     39  C   UNL     1     -47.353  35.985  27.454  1.00  0.00     0.010 A 
ATOM     40  C   UNL     1     -46.929  35.579  28.712  1.00  0.00     0.034 A 
ATOM     41  C   UNL     1     -47.024  37.288  27.054  1.00  0.00    -0.028 A 
ATOM     42  N   UNL     1     -46.210  36.353  29.550  1.00  0.00    -0.262 NA
ATOM     43  H   UNL     1     -47.160  34.590  29.099  1.00  0.00     0.084 H 
ATOM     44  C   UNL     1     -46.270  38.124  27.890  1.00  0.00     0.066 A 
ATOM     45  H   UNL     1     -47.387  37.624  26.087  1.00  0.00     0.065 H 
ATOM     46  C   UNL     1     -45.894  37.603  29.122  1.00  0.00     0.051 A 
ATOM     47  H   UNL     1     -45.293  38.146  29.843  1.00  0.00     0.086 H 
BRANCH  44  48
ATOM     48  N   UNL     1     -45.900  39.445  27.479  1.00  0.00    -0.299 N 
ATOM     49  C   UNL     1     -44.604  39.942  27.473  1.00  0.00     0.018 A 
ATOM     50  C   UNL     1     -46.731  40.467  27.020  1.00  0.00     0.150 A 
ATOM     51  C   UNL     1     -44.589  41.255  27.037  1.00  0.00     0.012 A 
ATOM     52  H   UNL     1     -43.777  39.333  27.807  1.00  0.00     0.083 H 
ATOM     53  C   UNL     1     -45.951  41.587  26.751  1.00  0.00     0.067 A 
ATOM     54  N   UNL     1     -48.066  40.398  26.840  1.00  0.00    -0.218 NA
ATOM     55  C   UNL     1     -46.621  42.732  26.284  1.00  0.00     0.136 A 
ATOM     56  C   UNL     1     -48.589  41.542  26.383  1.00  0.00     0.120 A 
ATOM     57  N   UNL     1     -47.952  42.690  26.107  1.00  0.00    -0.219 NA
ATOM     58  H   UNL     1     -49.662  41.543  26.216  1.00  0.00     0.106 H 
BRANCH  51  59
ATOM     59  C   UNL     1     -43.411  42.179  26.867  1.00  0.00     0.085 C 
ATOM     60  C   UNL     1     -42.034  41.553  27.043  1.00  0.00    -0.020 C 
ATOM     61  O   UNL     1     -43.473  43.243  27.847  1.00  0.00    -0.373 OA
ATOM     62  H   UNL     1     -43.483  42.636  25.872  1.00  0.00     0.066 H 
ATOM     63  C   UNL     1     -41.788  41.714  28.523  1.00  0.00    -0.027 C 
ATOM     64  H   UNL     1     -41.940  40.522  26.693  1.00  0.00     0.030 H 
ATOM     65  H   UNL     1     -41.292  42.152  26.499  1.00  0.00     0.030 H 
ATOM     66  C   UNL     1     -42.409  43.066  28.793  1.00  0.00     0.048 C 
ATOM     67  H   UNL     1     -42.319  40.936  29.084  1.00  0.00     0.029 H 
ATOM     68  H   UNL     1     -40.732  41.671  28.800  1.00  0.00     0.029 H 
ATOM     69  H   UNL     1     -42.805  43.149  29.810  1.00  0.00     0.057 H 
ATOM     70  H   UNL     1     -41.687  43.873  28.634  1.00  0.00     0.057 H 
ENDBRANCH  51  59
BRANCH  55  71
ATOM     71  N   UNL     1     -45.983  43.936  26.007  1.00  0.00    -0.383 N 
ATOM     72  H   UNL     1     -45.675  44.371  26.867  1.00  0.00     0.158 HD
ATOM     73  H   UNL     1     -45.268  43.839  25.286  1.00  0.00     0.158 HD
ENDBRANCH  55  71
ENDBRANCH  44  48
ENDBRANCH   1  39
TORSDOF 11
ENDMDL
MODEL 5
REMARK VINA RESULT:      -9.5      2.414     12.205
REMARK SMILES CCc1cc(N(C)C2CC2)c2ccc(OCc3cncc(-n4cc([C@@H]5CCCO5)c5c(N)ncnc54)c3)cc2n1
REMARK SMILES IDX 16 1 15 4 14 5 3 6 4 7 40 8 5 9 39 11 11 12 38 13 12 14
REMARK SMILES IDX 13 16 2 19 1 22 6 26 7 27 8 31 9 32 10 33 17 39 18 40 37 41
REMARK SMILES IDX 19 42 21 44 20 46 22 48 23 49 36 50 24 51 30 53 35 54 31 55
REMARK SMILES IDX 34 56 33 57 25 59 26 60 29 61 27 63 28 66 32 71
REMARK H PARENT 16 2 16 3 4 10 38 15 12 17 13 18 2 20 2 21 1 23 1 24 1 25 7 28
REMARK H PARENT 7 29 7 30 8 34 9 35 9 36 10 37 10 38 18 43 37 45 20 47 23 52
REMARK H PARENT 34 58 25 62 26 64 26 65 27 67 27 68 28 69 28 70 32 72 32 73
REMARK Flexibility Score: inf
ROOT
ATOM      1  C   UNL     1     -46.942  35.466  27.759  1.00  0.00     0.115 C 
ATOM      2  H   UNL     1     -47.911  35.502  28.271  1.00  0.00     0.076 H 
ATOM      3  H   UNL     1     -46.423  34.582  28.150  1.00  0.00     0.076 H 
ENDROOT
BRANCH   1   4
ATOM      4  O   UNL     1     -47.234  35.316  26.365  1.00  0.00    -0.489 OA
BRANCH   4   5
ATOM      5  C   UNL     1     -47.379  34.053  25.861  1.00  0.00     0.122 A 
ATOM      6  C   UNL     1     -46.198  30.398  23.057  1.00  0.00     0.043 A 
ATOM      7  C   UNL     1     -47.245  29.608  23.511  1.00  0.00    -0.016 A 
ATOM      8  N   UNL     1     -45.996  31.659  23.498  1.00  0.00    -0.253 NA
ATOM      9  C   UNL     1     -48.122  30.125  24.468  1.00  0.00     0.048 A 
ATOM     10  H   UNL     1     -47.386  28.610  23.112  1.00  0.00     0.066 H 
ATOM     11  C   UNL     1     -46.821  32.164  24.428  1.00  0.00     0.076 A 
ATOM     12  C   UNL     1     -47.907  31.439  24.958  1.00  0.00     0.024 A 
ATOM     13  C   UNL     1     -46.583  33.457  24.882  1.00  0.00     0.007 A 
ATOM     14  C   UNL     1     -48.711  32.043  25.949  1.00  0.00    -0.047 A 
ATOM     15  H   UNL     1     -45.750  33.985  24.429  1.00  0.00     0.069 H 
ATOM     16  C   UNL     1     -48.450  33.338  26.389  1.00  0.00    -0.019 A 
ATOM     17  H   UNL     1     -49.540  31.493  26.388  1.00  0.00     0.063 H 
ATOM     18  H   UNL     1     -49.079  33.786  27.155  1.00  0.00     0.066 H 
BRANCH   6  19
ATOM     19  C   UNL     1     -45.253  29.884  22.004  1.00  0.00    -0.013 C 
ATOM     20  H   UNL     1     -44.521  30.660  21.748  1.00  0.00     0.033 H 
ATOM     21  H   UNL     1     -45.817  29.673  21.087  1.00  0.00     0.033 H 
BRANCH  19  22
ATOM     22  C   UNL     1     -44.540  28.621  22.460  1.00  0.00    -0.060 C 
ATOM     23  H   UNL     1     -44.509  28.577  23.553  1.00  0.00     0.023 H 
ATOM     24  H   UNL     1     -45.051  27.722  22.099  1.00  0.00     0.023 H 
ATOM     25  H   UNL     1     -43.509  28.593  22.089  1.00  0.00     0.023 H 
ENDBRANCH  19  22
ENDBRANCH   6  19
BRANCH   9  26
ATOM     26  N   UNL     1     -49.230  29.345  24.935  1.00  0.00    -0.371 N 
BRANCH  26  27
ATOM     27  C   UNL     1     -50.396  29.595  24.078  1.00  0.00     0.007 C 
ATOM     28  H   UNL     1     -50.896  30.536  24.341  1.00  0.00     0.046 H 
ATOM     29  H   UNL     1     -50.116  29.642  23.020  1.00  0.00     0.046 H 
ATOM     30  H   UNL     1     -51.144  28.806  24.203  1.00  0.00     0.046 H 
ENDBRANCH  26  27
BRANCH  26  31
ATOM     31  C   UNL     1     -48.936  27.941  25.319  1.00  0.00     0.029 C 
ATOM     32  C   UNL     1     -49.899  27.045  26.047  1.00  0.00    -0.031 C 
ATOM     33  C   UNL     1     -48.652  27.525  26.736  1.00  0.00    -0.031 C 
ATOM     34  H   UNL     1     -48.289  27.467  24.579  1.00  0.00     0.053 H 
ATOM     35  H   UNL     1     -49.942  26.005  25.744  1.00  0.00     0.029 H 
ATOM     36  H   UNL     1     -50.847  27.443  26.384  1.00  0.00     0.029 H 
ATOM     37  H   UNL     1     -48.752  28.249  27.534  1.00  0.00     0.029 H 
ATOM     38  H   UNL     1     -47.853  26.811  26.896  1.00  0.00     0.029 H 
ENDBRANCH  26  31
ENDBRANCH   9  26
ENDBRANCH   4   5
ENDBRANCH   1   4
BRANCH   1  39
ATOM     39  C   UNL     1     -46.214  36.744  28.085  1.00  0.00     0.010 A 
ATOM     40  C   UNL     1     -45.318  36.777  29.145  1.00  0.00     0.034 A 
ATOM     41  C   UNL     1     -46.438  37.945  27.396  1.00  0.00    -0.028 A 
ATOM     42  N   UNL     1     -44.646  37.881  29.529  1.00  0.00    -0.262 NA
ATOM     43  H   UNL     1     -45.106  35.891  29.738  1.00  0.00     0.084 H 
ATOM     44  C   UNL     1     -45.754  39.114  27.755  1.00  0.00     0.066 A 
ATOM     45  H   UNL     1     -47.167  37.934  26.591  1.00  0.00     0.065 H 
ATOM     46  C   UNL     1     -44.874  39.021  28.827  1.00  0.00     0.051 A 
ATOM     47  H   UNL     1     -44.274  39.851  29.183  1.00  0.00     0.086 H 
BRANCH  44  48
ATOM     48  N   UNL     1     -45.949  40.338  27.037  1.00  0.00    -0.299 N 
ATOM     49  C   UNL     1     -45.019  40.917  26.185  1.00  0.00     0.018 A 
ATOM     50  C   UNL     1     -47.068  41.170  27.048  1.00  0.00     0.150 A 
ATOM     51  C   UNL     1     -45.510  42.101  25.663  1.00  0.00     0.012 A 
ATOM     52  H   UNL     1     -44.055  40.458  26.026  1.00  0.00     0.083 H 
ATOM     53  C   UNL     1     -46.819  42.261  26.220  1.00  0.00     0.067 A 
ATOM     54  N   UNL     1     -48.217  40.965  27.722  1.00  0.00    -0.218 NA
ATOM     55  C   UNL     1     -47.837  43.223  26.110  1.00  0.00     0.136 A 
ATOM     56  C   UNL     1     -49.115  41.940  27.531  1.00  0.00     0.120 A 
ATOM     57  N   UNL     1     -48.988  43.045  26.782  1.00  0.00    -0.219 NA
ATOM     58  H   UNL     1     -50.062  41.825  28.050  1.00  0.00     0.106 H 
BRANCH  51  59
ATOM     59  C   UNL     1     -44.851  43.052  24.697  1.00  0.00     0.085 C 
ATOM     60  C   UNL     1     -43.442  42.685  24.250  1.00  0.00    -0.020 C 
ATOM     61  O   UNL     1     -44.728  44.363  25.301  1.00  0.00    -0.373 OA
ATOM     62  H   UNL     1     -45.502  43.146  23.821  1.00  0.00     0.066 H 
ATOM     63  C   UNL     1     -42.582  43.349  25.297  1.00  0.00    -0.027 C 
ATOM     64  H   UNL     1     -43.249  41.614  24.138  1.00  0.00     0.030 H 
ATOM     65  H   UNL     1     -43.236  43.156  23.280  1.00  0.00     0.030 H 
ATOM     66  C   UNL     1     -43.341  44.631  25.552  1.00  0.00     0.048 C 
ATOM     67  H   UNL     1     -42.554  42.740  26.208  1.00  0.00     0.029 H 
ATOM     68  H   UNL     1     -41.553  43.524  24.973  1.00  0.00     0.029 H 
ATOM     69  H   UNL     1     -43.217  44.995  26.576  1.00  0.00     0.057 H 
ATOM     70  H   UNL     1     -43.028  45.422  24.862  1.00  0.00     0.057 H 
ENDBRANCH  51  59
BRANCH  55  71
ATOM     71  N   UNL     1     -47.722  44.383  25.351  1.00  0.00    -0.383 N 
ATOM     72  H   UNL     1     -46.842  44.385  24.852  1.00  0.00     0.158 HD
ATOM     73  H   UNL     1     -48.549  44.554  24.778  1.00  0.00     0.158 HD
ENDBRANCH  55  71
ENDBRANCH  44  48
ENDBRANCH   1  39
TORSDOF 11
ENDMDL
MODEL 6
REMARK VINA RESULT:      -9.3      2.072      3.461
REMARK SMILES CCc1cc(N(C)C2CC2)c2ccc(OCc3cncc(-n4cc([C@@H]5CCCO5)c5c(N)ncnc54)c3)cc2n1
REMARK SMILES IDX 16 1 15 4 14 5 3 6 4 7 40 8 5 9 39 11 11 12 38 13 12 14
REMARK SMILES IDX 13 16 2 19 1 22 6 26 7 27 8 31 9 32 10 33 17 39 18 40 37 41
REMARK SMILES IDX 19 42 21 44 20 46 22 48 23 49 36 50 24 51 30 53 35 54 31 55
REMARK SMILES IDX 34 56 33 57 25 59 26 60 29 61 27 63 28 66 32 71
REMARK H PARENT 16 2 16 3 4 10 38 15 12 17 13 18 2 20 2 21 1 23 1 24 1 25 7 28
REMARK H PARENT 7 29 7 30 8 34 9 35 9 36 10 37 10 38 18 43 37 45 20 47 23 52
REMARK H PARENT 34 58 25 62 26 64 26 65 27 67 27 68 28 69 28 70 32 72 32 73
REMARK Flexibility Score: inf
ROOT
ATOM      1  C   UNL     1     -48.674  35.688  27.241  1.00  0.00     0.115 C 
ATOM      2  H   UNL     1     -49.418  35.218  27.896  1.00  0.00     0.076 H 
ATOM      3  H   UNL     1     -49.234  36.350  26.569  1.00  0.00     0.076 H 
ENDROOT
BRANCH   1   4
ATOM      4  O   UNL     1     -47.808  36.440  28.098  1.00  0.00    -0.489 OA
BRANCH   4   5
ATOM      5  C   UNL     1     -47.417  37.688  27.698  1.00  0.00     0.122 A 
ATOM      6  C   UNL     1     -48.153  42.243  26.546  1.00  0.00     0.043 A 
ATOM      7  C   UNL     1     -46.814  42.472  26.267  1.00  0.00    -0.016 A 
ATOM      8  N   UNL     1     -48.619  41.035  26.934  1.00  0.00    -0.253 NA
ATOM      9  C   UNL     1     -45.902  41.422  26.400  1.00  0.00     0.048 A 
ATOM     10  H   UNL     1     -46.487  43.450  25.934  1.00  0.00     0.066 H 
ATOM     11  C   UNL     1     -47.752  40.020  27.081  1.00  0.00     0.076 A 
ATOM     12  C   UNL     1     -46.372  40.155  26.831  1.00  0.00     0.024 A 
ATOM     13  C   UNL     1     -48.249  38.790  27.501  1.00  0.00     0.007 A 
ATOM     14  C   UNL     1     -45.532  39.038  27.033  1.00  0.00    -0.047 A 
ATOM     15  H   UNL     1     -49.321  38.729  27.658  1.00  0.00     0.069 H 
ATOM     16  C   UNL     1     -46.053  37.818  27.456  1.00  0.00    -0.019 A 
ATOM     17  H   UNL     1     -44.460  39.125  26.868  1.00  0.00     0.063 H 
ATOM     18  H   UNL     1     -45.389  36.970  27.607  1.00  0.00     0.066 H 
BRANCH   6  19
ATOM     19  C   UNL     1     -49.168  43.343  26.382  1.00  0.00    -0.013 C 
ATOM     20  H   UNL     1     -48.766  44.129  25.732  1.00  0.00     0.033 H 
ATOM     21  H   UNL     1     -49.354  43.809  27.357  1.00  0.00     0.033 H 
BRANCH  19  22
ATOM     22  C   UNL     1     -50.478  42.816  25.817  1.00  0.00    -0.060 C 
ATOM     23  H   UNL     1     -50.550  41.735  25.971  1.00  0.00     0.023 H 
ATOM     24  H   UNL     1     -51.339  43.286  26.304  1.00  0.00     0.023 H 
ATOM     25  H   UNL     1     -50.552  43.012  24.742  1.00  0.00     0.023 H 
ENDBRANCH  19  22
ENDBRANCH   6  19
BRANCH   9  26
ATOM     26  N   UNL     1     -44.515  41.619  26.092  1.00  0.00    -0.371 N 
BRANCH  26  27
ATOM     27  C   UNL     1     -44.396  42.223  24.759  1.00  0.00     0.007 C 
ATOM     28  H   UNL     1     -45.034  41.714  24.026  1.00  0.00     0.046 H 
ATOM     29  H   UNL     1     -44.669  43.284  24.771  1.00  0.00     0.046 H 
ATOM     30  H   UNL     1     -43.371  42.135  24.385  1.00  0.00     0.046 H 
ENDBRANCH  26  27
BRANCH  26  31
ATOM     31  C   UNL     1     -43.666  42.161  27.182  1.00  0.00     0.029 C 
ATOM     32  C   UNL     1     -42.184  42.383  27.067  1.00  0.00    -0.031 C 
ATOM     33  C   UNL     1     -42.714  41.310  27.976  1.00  0.00    -0.031 C 
ATOM     34  H   UNL     1     -44.224  42.881  27.783  1.00  0.00     0.053 H 
ATOM     35  H   UNL     1     -41.774  43.277  27.523  1.00  0.00     0.029 H 
ATOM     36  H   UNL     1     -41.666  42.074  26.168  1.00  0.00     0.029 H 
ATOM     37  H   UNL     1     -42.563  40.276  27.694  1.00  0.00     0.029 H 
ATOM     38  H   UNL     1     -42.665  41.479  29.045  1.00  0.00     0.029 H 
ENDBRANCH  26  31
ENDBRANCH   9  26
ENDBRANCH   4   5
ENDBRANCH   1   4
BRANCH   1  39
ATOM     39  C   UNL     1     -47.971  34.584  26.496  1.00  0.00     0.010 A 
ATOM     40  C   UNL     1     -46.658  34.759  26.081  1.00  0.00     0.034 A 
ATOM     41  C   UNL     1     -48.602  33.383  26.141  1.00  0.00    -0.028 A 
ATOM     42  N   UNL     1     -45.960  33.840  25.383  1.00  0.00    -0.262 NA
ATOM     43  H   UNL     1     -46.108  35.670  26.302  1.00  0.00     0.084 H 
ATOM     44  C   UNL     1     -47.912  32.396  25.423  1.00  0.00     0.066 A 
ATOM     45  H   UNL     1     -49.642  33.258  26.429  1.00  0.00     0.065 H 
ATOM     46  C   UNL     1     -46.598  32.682  25.073  1.00  0.00     0.051 A 
ATOM     47  H   UNL     1     -45.958  31.990  24.537  1.00  0.00     0.086 H 
BRANCH  44  48
ATOM     48  N   UNL     1     -48.535  31.152  25.085  1.00  0.00    -0.299 N 
ATOM     49  C   UNL     1     -48.453  29.990  25.839  1.00  0.00     0.018 A 
ATOM     50  C   UNL     1     -49.321  30.861  23.970  1.00  0.00     0.150 A 
ATOM     51  C   UNL     1     -49.153  28.964  25.228  1.00  0.00     0.012 A 
ATOM     52  H   UNL     1     -47.877  29.964  26.752  1.00  0.00     0.083 H 
ATOM     53  C   UNL     1     -49.704  29.525  24.032  1.00  0.00     0.067 A 
ATOM     54  N   UNL     1     -49.679  31.719  22.993  1.00  0.00    -0.218 NA
ATOM     55  C   UNL     1     -50.499  29.040  22.979  1.00  0.00     0.136 A 
ATOM     56  C   UNL     1     -50.444  31.147  22.053  1.00  0.00     0.120 A 
ATOM     57  N   UNL     1     -50.860  29.874  21.989  1.00  0.00    -0.219 NA
ATOM     58  H   UNL     1     -50.766  31.793  21.241  1.00  0.00     0.106 H 
BRANCH  51  59
ATOM     59  C   UNL     1     -49.339  27.543  25.691  1.00  0.00     0.085 C 
ATOM     60  C   UNL     1     -48.686  27.177  27.019  1.00  0.00    -0.020 C 
ATOM     61  O   UNL     1     -48.767  26.629  24.723  1.00  0.00    -0.373 OA
ATOM     62  H   UNL     1     -50.415  27.344  25.744  1.00  0.00     0.066 H 
ATOM     63  C   UNL     1     -47.310  26.728  26.595  1.00  0.00    -0.027 C 
ATOM     64  H   UNL     1     -48.677  27.972  27.770  1.00  0.00     0.030 H 
ATOM     65  H   UNL     1     -49.213  26.320  27.457  1.00  0.00     0.030 H 
ATOM     66  C   UNL     1     -47.605  26.012  25.297  1.00  0.00     0.048 C 
ATOM     67  H   UNL     1     -46.667  27.597  26.409  1.00  0.00     0.029 H 
ATOM     68  H   UNL     1     -46.812  26.088  27.327  1.00  0.00     0.029 H 
ATOM     69  H   UNL     1     -46.773  26.068  24.588  1.00  0.00     0.057 H 
ATOM     70  H   UNL     1     -47.844  24.957  25.470  1.00  0.00     0.057 H 
ENDBRANCH  51  59
BRANCH  55  71
ATOM     71  N   UNL     1     -50.929  27.721  22.884  1.00  0.00    -0.383 N 
ATOM     72  H   UNL     1     -50.627  27.198  23.695  1.00  0.00     0.158 HD
ATOM     73  H   UNL     1     -51.924  27.653  22.666  1.00  0.00     0.158 HD
ENDBRANCH  55  71
ENDBRANCH  44  48
ENDBRANCH   1  39
TORSDOF 11
ENDMDL
MODEL 7
REMARK VINA RESULT:      -9.2      2.459     12.544
REMARK SMILES CCc1cc(N(C)C2CC2)c2ccc(OCc3cncc(-n4cc([C@@H]5CCCO5)c5c(N)ncnc54)c3)cc2n1
REMARK SMILES IDX 16 1 15 4 14 5 3 6 4 7 40 8 5 9 39 11 11 12 38 13 12 14
REMARK SMILES IDX 13 16 2 19 1 22 6 26 7 27 8 31 9 32 10 33 17 39 18 40 37 41
REMARK SMILES IDX 19 42 21 44 20 46 22 48 23 49 36 50 24 51 30 53 35 54 31 55
REMARK SMILES IDX 34 56 33 57 25 59 26 60 29 61 27 63 28 66 32 71
REMARK H PARENT 16 2 16 3 4 10 38 15 12 17 13 18 2 20 2 21 1 23 1 24 1 25 7 28
REMARK H PARENT 7 29 7 30 8 34 9 35 9 36 10 37 10 38 18 43 37 45 20 47 23 52
REMARK H PARENT 34 58 25 62 26 64 26 65 27 67 27 68 28 69 28 70 32 72 32 73
REMARK Flexibility Score: inf
ROOT
ATOM      1  C   UNL     1     -47.577  34.577  26.215  1.00  0.00     0.115 C 
ATOM      2  H   UNL     1     -47.526  35.009  25.208  1.00  0.00     0.076 H 
ATOM      3  H   UNL     1     -48.643  34.419  26.425  1.00  0.00     0.076 H 
ENDROOT
BRANCH   1   4
ATOM      4  O   UNL     1     -46.877  33.329  26.149  1.00  0.00    -0.489 OA
BRANCH   4   5
ATOM      5  C   UNL     1     -47.468  32.282  25.498  1.00  0.00     0.122 A 
ATOM      6  C   UNL     1     -48.827  29.855  21.640  1.00  0.00     0.043 A 
ATOM      7  C   UNL     1     -49.428  28.852  22.385  1.00  0.00    -0.016 A 
ATOM      8  N   UNL     1     -48.233  30.928  22.210  1.00  0.00    -0.253 NA
ATOM      9  C   UNL     1     -49.416  28.939  23.780  1.00  0.00     0.048 A 
ATOM     10  H   UNL     1     -49.916  28.021  21.887  1.00  0.00     0.066 H 
ATOM     11  C   UNL     1     -48.200  31.017  23.549  1.00  0.00     0.076 A 
ATOM     12  C   UNL     1     -48.775  30.046  24.393  1.00  0.00     0.024 A 
ATOM     13  C   UNL     1     -47.567  32.119  24.115  1.00  0.00     0.007 A 
ATOM     14  C   UNL     1     -48.673  30.213  25.791  1.00  0.00    -0.047 A 
ATOM     15  H   UNL     1     -47.159  32.852  23.426  1.00  0.00     0.069 H 
ATOM     16  C   UNL     1     -48.031  31.323  26.334  1.00  0.00    -0.019 A 
ATOM     17  H   UNL     1     -49.089  29.464  26.461  1.00  0.00     0.063 H 
ATOM     18  H   UNL     1     -47.962  31.433  27.413  1.00  0.00     0.066 H 
BRANCH   6  19
ATOM     19  C   UNL     1     -48.850  29.810  20.135  1.00  0.00    -0.013 C 
ATOM     20  H   UNL     1     -47.831  29.684  19.749  1.00  0.00     0.033 H 
ATOM     21  H   UNL     1     -49.213  30.771  19.752  1.00  0.00     0.033 H 
BRANCH  19  22
ATOM     22  C   UNL     1     -49.744  28.692  19.623  1.00  0.00    -0.060 C 
ATOM     23  H   UNL     1     -49.249  27.724  19.746  1.00  0.00     0.023 H 
ATOM     24  H   UNL     1     -50.693  28.658  20.170  1.00  0.00     0.023 H 
ATOM     25  H   UNL     1     -49.974  28.824  18.560  1.00  0.00     0.023 H 
ENDBRANCH  19  22
ENDBRANCH   6  19
BRANCH   9  26
ATOM     26  N   UNL     1     -50.054  27.933  24.577  1.00  0.00    -0.371 N 
BRANCH  26  27
ATOM     27  C   UNL     1     -51.377  27.633  24.013  1.00  0.00     0.007 C 
ATOM     28  H   UNL     1     -52.184  28.024  24.645  1.00  0.00     0.046 H 
ATOM     29  H   UNL     1     -51.492  28.057  23.010  1.00  0.00     0.046 H 
ATOM     30  H   UNL     1     -51.534  26.552  23.951  1.00  0.00     0.046 H 
ENDBRANCH  26  27
BRANCH  26  31
ATOM     31  C   UNL     1     -49.206  26.794  25.009  1.00  0.00     0.029 C 
ATOM     32  C   UNL     1     -49.718  25.593  25.754  1.00  0.00    -0.031 C 
ATOM     33  C   UNL     1     -48.805  26.570  26.441  1.00  0.00    -0.031 C 
ATOM     34  H   UNL     1     -48.403  26.618  24.291  1.00  0.00     0.053 H 
ATOM     35  H   UNL     1     -49.313  24.625  25.484  1.00  0.00     0.029 H 
ATOM     36  H   UNL     1     -50.753  25.562  26.068  1.00  0.00     0.029 H 
ATOM     37  H   UNL     1     -49.218  27.204  27.214  1.00  0.00     0.029 H 
ATOM     38  H   UNL     1     -47.784  26.263  26.631  1.00  0.00     0.029 H 
ENDBRANCH  26  31
ENDBRANCH   9  26
ENDBRANCH   4   5
ENDBRANCH   1   4
BRANCH   1  39
ATOM     39  C   UNL     1     -46.951  35.567  27.161  1.00  0.00     0.010 A 
ATOM     40  C   UNL     1     -46.655  35.185  28.463  1.00  0.00     0.034 A 
ATOM     41  C   UNL     1     -46.698  36.901  26.810  1.00  0.00    -0.028 A 
ATOM     42  N   UNL     1     -46.124  36.011  29.387  1.00  0.00    -0.262 NA
ATOM     43  H   UNL     1     -46.840  34.173  28.815  1.00  0.00     0.084 H 
ATOM     44  C   UNL     1     -46.138  37.791  27.736  1.00  0.00     0.066 A 
ATOM     45  H   UNL     1     -46.965  37.215  25.805  1.00  0.00     0.065 H 
ATOM     46  C   UNL     1     -45.875  37.290  29.005  1.00  0.00     0.051 A 
ATOM     47  H   UNL     1     -45.424  37.876  29.799  1.00  0.00     0.086 H 
BRANCH  44  48
ATOM     48  N   UNL     1     -45.844  39.146  27.378  1.00  0.00    -0.299 N 
ATOM     49  C   UNL     1     -44.569  39.690  27.303  1.00  0.00     0.018 A 
ATOM     50  C   UNL     1     -46.742  40.161  27.047  1.00  0.00     0.150 A 
ATOM     51  C   UNL     1     -44.631  41.026  26.947  1.00  0.00     0.012 A 
ATOM     52  H   UNL     1     -43.700  39.093  27.535  1.00  0.00     0.083 H 
ATOM     53  C   UNL     1     -46.022  41.323  26.787  1.00  0.00     0.067 A 
ATOM     54  N   UNL     1     -48.083  40.054  26.967  1.00  0.00    -0.218 NA
ATOM     55  C   UNL     1     -46.762  42.467  26.443  1.00  0.00     0.136 A 
ATOM     56  C   UNL     1     -48.678  41.203  26.620  1.00  0.00     0.120 A 
ATOM     57  N   UNL     1     -48.102  42.387  26.367  1.00  0.00    -0.219 NA
ATOM     58  H   UNL     1     -49.760  41.174  26.538  1.00  0.00     0.106 H 
BRANCH  51  59
ATOM     59  C   UNL     1     -43.501  42.001  26.742  1.00  0.00     0.085 C 
ATOM     60  C   UNL     1     -42.096  41.461  26.981  1.00  0.00    -0.020 C 
ATOM     61  O   UNL     1     -43.640  43.116  27.656  1.00  0.00    -0.373 OA
ATOM     62  H   UNL     1     -43.576  42.393  25.721  1.00  0.00     0.066 H 
ATOM     63  C   UNL     1     -41.891  41.723  28.452  1.00  0.00    -0.027 C 
ATOM     64  H   UNL     1     -41.941  40.418  26.695  1.00  0.00     0.030 H 
ATOM     65  H   UNL     1     -41.376  42.066  26.416  1.00  0.00     0.030 H 
ATOM     66  C   UNL     1     -42.588  43.053  28.630  1.00  0.00     0.048 C 
ATOM     67  H   UNL     1     -42.391  40.952  29.049  1.00  0.00     0.029 H 
ATOM     68  H   UNL     1     -40.840  41.754  28.750  1.00  0.00     0.029 H 
ATOM     69  H   UNL     1     -43.009  43.174  29.633  1.00  0.00     0.057 H 
ATOM     70  H   UNL     1     -41.907  43.887  28.436  1.00  0.00     0.057 H 
ENDBRANCH  51  59
BRANCH  55  71
ATOM     71  N   UNL     1     -46.188  43.709  26.191  1.00  0.00    -0.383 N 
ATOM     72  H   UNL     1     -45.904  44.142  27.059  1.00  0.00     0.158 HD
ATOM     73  H   UNL     1     -45.467  43.662  25.470  1.00  0.00     0.158 HD
ENDBRANCH  55  71
ENDBRANCH  44  48
ENDBRANCH   1  39
TORSDOF 11
ENDMDL
