MODEL 1
REMARK VINA RESULT:     -10.3      0.000      0.000
REMARK SMILES CCNc1ccc2ccc(CC[C@H]3O[C@@H](n4ccc5c(N)ncnc54)[C@H](O)[C@@H]3O)cc2n1
REMARK SMILES IDX 11 1 10 4 4 5 5 6 32 7 6 8 31 10 7 11 30 13 8 14 9 16 3 19
REMARK SMILES IDX 2 21 1 24 12 28 13 31 14 32 28 33 15 35 26 36 29 40 16 42
REMARK SMILES IDX 17 43 25 44 18 45 19 47 24 48 20 50 23 51 22 52 21 54 27 57
REMARK H PARENT 11 2 11 3 5 9 6 12 30 15 8 17 9 18 3 20 2 22 2 23 1 25 1 26
REMARK H PARENT 1 27 12 29 12 30 13 34 28 37 15 38 26 39 29 41 17 46 18 49
REMARK H PARENT 23 53 21 55 21 56 27 58
REMARK Flexibility Score: inf
ROOT
ATOM      1  C   UNL     1     -47.892  34.700  26.662  1.00  0.00    -0.025 C 
ATOM      2  H   UNL     1     -48.052  34.391  27.703  1.00  0.00     0.032 H 
ATOM      3  H   UNL     1     -48.840  35.145  26.331  1.00  0.00     0.032 H 
ENDROOT
BRANCH   1   4
ATOM      4  C   UNL     1     -47.592  33.483  25.824  1.00  0.00    -0.046 A 
ATOM      5  C   UNL     1     -48.738  29.034  24.561  1.00  0.00     0.126 A 
ATOM      6  C   UNL     1     -47.647  28.935  23.710  1.00  0.00    -0.019 A 
ATOM      7  N   UNL     1     -48.990  30.140  25.286  1.00  0.00    -0.231 NA
ATOM      8  C   UNL     1     -46.790  30.023  23.584  1.00  0.00    -0.049 A 
ATOM      9  H   UNL     1     -47.450  28.019  23.166  1.00  0.00     0.066 H 
ATOM     10  C   UNL     1     -48.163  31.195  25.168  1.00  0.00     0.073 A 
ATOM     11  C   UNL     1     -47.040  31.185  24.319  1.00  0.00     0.000 A 
ATOM     12  H   UNL     1     -45.932  29.952  22.923  1.00  0.00     0.063 H 
ATOM     13  C   UNL     1     -48.415  32.346  25.905  1.00  0.00    -0.033 A 
ATOM     14  C   UNL     1     -46.204  32.312  24.231  1.00  0.00    -0.053 A 
ATOM     15  H   UNL     1     -49.280  32.352  26.565  1.00  0.00     0.065 H 
ATOM     16  C   UNL     1     -46.479  33.453  24.981  1.00  0.00    -0.058 A 
ATOM     17  H   UNL     1     -45.333  32.303  23.579  1.00  0.00     0.063 H 
ATOM     18  H   UNL     1     -45.820  34.314  24.907  1.00  0.00     0.063 H 
BRANCH   5  19
ATOM     19  N   UNL     1     -49.634  27.978  24.748  1.00  0.00    -0.370 N 
ATOM     20  H   UNL     1     -49.437  27.363  23.958  1.00  0.00     0.162 HD
BRANCH  19  21
ATOM     21  C   UNL     1     -49.466  27.279  26.018  1.00  0.00     0.013 C 
ATOM     22  H   UNL     1     -48.514  27.555  26.488  1.00  0.00     0.049 H 
ATOM     23  H   UNL     1     -50.278  27.526  26.712  1.00  0.00     0.049 H 
BRANCH  21  24
ATOM     24  C   UNL     1     -49.483  25.778  25.769  1.00  0.00    -0.048 C 
ATOM     25  H   UNL     1     -49.783  25.566  24.739  1.00  0.00     0.025 H 
ATOM     26  H   UNL     1     -48.493  25.342  25.937  1.00  0.00     0.025 H 
ATOM     27  H   UNL     1     -50.188  25.277  26.441  1.00  0.00     0.025 H 
ENDBRANCH  21  24
ENDBRANCH  19  21
ENDBRANCH   5  19
ENDBRANCH   1   4
BRANCH   1  28
ATOM     28  C   UNL     1     -46.765  35.733  26.573  1.00  0.00    -0.020 C 
ATOM     29  H   UNL     1     -47.063  36.555  25.911  1.00  0.00     0.030 H 
ATOM     30  H   UNL     1     -45.884  35.257  26.122  1.00  0.00     0.030 H 
BRANCH  28  31
ATOM     31  C   UNL     1     -46.397  36.288  27.949  1.00  0.00     0.089 C 
ATOM     32  O   UNL     1     -45.075  36.853  27.919  1.00  0.00    -0.349 OA
ATOM     33  C   UNL     1     -47.326  37.413  28.394  1.00  0.00     0.111 C 
ATOM     34  H   UNL     1     -46.402  35.472  28.681  1.00  0.00     0.063 H 
ATOM     35  C   UNL     1     -45.064  38.009  28.793  1.00  0.00     0.164 C 
ATOM     36  C   UNL     1     -46.462  38.141  29.410  1.00  0.00     0.128 C 
ATOM     37  H   UNL     1     -47.566  38.078  27.556  1.00  0.00     0.066 H 
ATOM     38  H   UNL     1     -44.289  37.838  29.548  1.00  0.00     0.088 H 
ATOM     39  H   UNL     1     -46.805  39.166  29.583  1.00  0.00     0.068 H 
BRANCH  33  40
ATOM     40  O   UNL     1     -48.534  36.932  28.968  1.00  0.00    -0.388 OA
ATOM     41  H   UNL     1     -48.450  35.955  28.965  1.00  0.00     0.211 HD
ENDBRANCH  33  40
BRANCH  35  42
ATOM     42  N   UNL     1     -44.671  39.192  28.035  1.00  0.00    -0.303 N 
ATOM     43  C   UNL     1     -45.158  39.614  26.822  1.00  0.00     0.009 A 
ATOM     44  C   UNL     1     -43.714  40.076  28.476  1.00  0.00     0.147 A 
ATOM     45  C   UNL     1     -44.499  40.777  26.481  1.00  0.00    -0.031 A 
ATOM     46  H   UNL     1     -45.917  39.051  26.293  1.00  0.00     0.082 H 
ATOM     47  C   UNL     1     -43.584  41.079  27.527  1.00  0.00     0.061 A 
ATOM     48  N   UNL     1     -43.039  39.974  29.636  1.00  0.00    -0.218 NA
ATOM     49  H   UNL     1     -44.654  41.343  25.573  1.00  0.00     0.065 H 
ATOM     50  C   UNL     1     -42.645  42.084  27.800  1.00  0.00     0.136 A 
ATOM     51  C   UNL     1     -42.169  40.991  29.782  1.00  0.00     0.120 A 
ATOM     52  N   UNL     1     -41.943  42.024  28.949  1.00  0.00    -0.219 NA
ATOM     53  H   UNL     1     -41.572  40.980  30.690  1.00  0.00     0.106 H 
BRANCH  50  54
ATOM     54  N   UNL     1     -42.404  43.159  26.958  1.00  0.00    -0.383 N 
ATOM     55  H   UNL     1     -43.208  43.496  26.448  1.00  0.00     0.158 HD
ATOM     56  H   UNL     1     -41.832  43.858  27.418  1.00  0.00     0.158 HD
ENDBRANCH  50  54
ENDBRANCH  35  42
BRANCH  36  57
ATOM     57  O   UNL     1     -46.558  37.445  30.670  1.00  0.00    -0.386 OA
ATOM     58  H   UNL     1     -46.773  36.515  30.457  1.00  0.00     0.211 HD
ENDBRANCH  36  57
ENDBRANCH  28  31
ENDBRANCH   1  28
TORSDOF 10
ENDMDL
MODEL 2
REMARK VINA RESULT:      -9.8      1.888      2.772
REMARK SMILES CCNc1ccc2ccc(CC[C@H]3O[C@@H](n4ccc5c(N)ncnc54)[C@H](O)[C@@H]3O)cc2n1
REMARK SMILES IDX 11 1 10 4 4 5 5 6 32 7 6 8 31 10 7 11 30 13 8 14 9 16 3 19
REMARK SMILES IDX 2 21 1 24 12 28 13 31 14 32 28 33 15 35 26 36 29 40 16 42
REMARK SMILES IDX 17 43 25 44 18 45 19 47 24 48 20 50 23 51 22 52 21 54 27 57
REMARK H PARENT 11 2 11 3 5 9 6 12 30 15 8 17 9 18 3 20 2 22 2 23 1 25 1 26
REMARK H PARENT 1 27 12 29 12 30 13 34 28 37 15 38 26 39 29 41 17 46 18 49
REMARK H PARENT 23 53 21 55 21 56 27 58
REMARK Flexibility Score: inf
ROOT
ATOM      1  C   UNL     1     -46.532  35.554  26.602  1.00  0.00    -0.025 C 
ATOM      2  H   UNL     1     -47.339  36.180  27.003  1.00  0.00     0.032 H 
ATOM      3  H   UNL     1     -46.053  36.148  25.812  1.00  0.00     0.032 H 
ENDROOT
BRANCH   1   4
ATOM      4  C   UNL     1     -47.125  34.306  25.999  1.00  0.00    -0.046 A 
ATOM      5  C   UNL     1     -46.882  30.869  22.709  1.00  0.00     0.126 A 
ATOM      6  C   UNL     1     -48.068  30.295  23.139  1.00  0.00    -0.019 A 
ATOM      7  N   UNL     1     -46.367  31.976  23.276  1.00  0.00    -0.231 NA
ATOM      8  C   UNL     1     -48.746  30.870  24.209  1.00  0.00    -0.049 A 
ATOM      9  H   UNL     1     -48.477  29.425  22.639  1.00  0.00     0.066 H 
ATOM     10  C   UNL     1     -47.018  32.537  24.312  1.00  0.00     0.073 A 
ATOM     11  C   UNL     1     -48.223  32.013  24.822  1.00  0.00     0.000 A 
ATOM     12  H   UNL     1     -49.677  30.430  24.551  1.00  0.00     0.063 H 
ATOM     13  C   UNL     1     -46.495  33.675  24.912  1.00  0.00    -0.033 A 
ATOM     14  C   UNL     1     -48.868  32.635  25.904  1.00  0.00    -0.053 A 
ATOM     15  H   UNL     1     -45.568  34.083  24.516  1.00  0.00     0.065 H 
ATOM     16  C   UNL     1     -48.322  33.777  26.487  1.00  0.00    -0.058 A 
ATOM     17  H   UNL     1     -49.801  32.235  26.294  1.00  0.00     0.063 H 
ATOM     18  H   UNL     1     -48.836  34.251  27.320  1.00  0.00     0.063 H 
BRANCH   5  19
ATOM     19  N   UNL     1     -46.154  30.354  21.632  1.00  0.00    -0.370 N 
ATOM     20  H   UNL     1     -46.781  29.650  21.243  1.00  0.00     0.162 HD
BRANCH  19  21
ATOM     21  C   UNL     1     -45.794  31.353  20.631  1.00  0.00     0.013 C 
ATOM     22  H   UNL     1     -45.494  32.292  21.112  1.00  0.00     0.049 H 
ATOM     23  H   UNL     1     -44.961  31.003  20.010  1.00  0.00     0.049 H 
BRANCH  21  24
ATOM     24  C   UNL     1     -46.992  31.614  19.731  1.00  0.00    -0.048 C 
ATOM     25  H   UNL     1     -46.937  32.620  19.304  1.00  0.00     0.025 H 
ATOM     26  H   UNL     1     -47.028  30.893  18.908  1.00  0.00     0.025 H 
ATOM     27  H   UNL     1     -47.930  31.531  20.290  1.00  0.00     0.025 H 
ENDBRANCH  21  24
ENDBRANCH  19  21
ENDBRANCH   5  19
ENDBRANCH   1   4
BRANCH   1  28
ATOM     28  C   UNL     1     -45.516  35.218  27.698  1.00  0.00    -0.020 C 
ATOM     29  H   UNL     1     -44.508  35.161  27.268  1.00  0.00     0.030 H 
ATOM     30  H   UNL     1     -45.750  34.225  28.105  1.00  0.00     0.030 H 
BRANCH  28  31
ATOM     31  C   UNL     1     -45.536  36.250  28.824  1.00  0.00     0.089 C 
ATOM     32  O   UNL     1     -44.456  37.185  28.661  1.00  0.00    -0.349 OA
ATOM     33  C   UNL     1     -46.815  37.082  28.834  1.00  0.00     0.111 C 
ATOM     34  H   UNL     1     -45.402  35.739  29.785  1.00  0.00     0.063 H 
ATOM     35  C   UNL     1     -44.920  38.485  29.101  1.00  0.00     0.164 C 
ATOM     36  C   UNL     1     -46.367  38.326  29.583  1.00  0.00     0.128 C 
ATOM     37  H   UNL     1     -47.119  37.345  27.814  1.00  0.00     0.066 H 
ATOM     38  H   UNL     1     -44.248  38.817  29.901  1.00  0.00     0.088 H 
ATOM     39  H   UNL     1     -47.024  39.180  29.393  1.00  0.00     0.068 H 
BRANCH  33  40
ATOM     40  O   UNL     1     -47.892  36.424  29.486  1.00  0.00    -0.388 OA
ATOM     41  H   UNL     1     -48.689  36.652  28.963  1.00  0.00     0.211 HD
ENDBRANCH  33  40
BRANCH  35  42
ATOM     42  N   UNL     1     -44.794  39.445  28.010  1.00  0.00    -0.303 N 
ATOM     43  C   UNL     1     -45.552  39.523  26.867  1.00  0.00     0.009 A 
ATOM     44  C   UNL     1     -43.850  40.445  28.001  1.00  0.00     0.147 A 
ATOM     45  C   UNL     1     -45.082  40.580  26.117  1.00  0.00    -0.031 A 
ATOM     46  H   UNL     1     -46.350  38.817  26.671  1.00  0.00     0.082 H 
ATOM     47  C   UNL     1     -44.004  41.172  26.831  1.00  0.00     0.061 A 
ATOM     48  N   UNL     1     -42.947  40.668  28.974  1.00  0.00    -0.218 NA
ATOM     49  H   UNL     1     -45.467  40.888  25.154  1.00  0.00     0.065 H 
ATOM     50  C   UNL     1     -43.122  42.245  26.637  1.00  0.00     0.136 A 
ATOM     51  C   UNL     1     -42.159  41.717  28.673  1.00  0.00     0.120 A 
ATOM     52  N   UNL     1     -42.199  42.508  27.584  1.00  0.00    -0.219 NA
ATOM     53  H   UNL     1     -41.392  41.961  29.403  1.00  0.00     0.106 H 
BRANCH  50  54
ATOM     54  N   UNL     1     -43.152  43.074  25.527  1.00  0.00    -0.383 N 
ATOM     55  H   UNL     1     -42.518  42.822  24.782  1.00  0.00     0.158 HD
ATOM     56  H   UNL     1     -44.107  43.287  25.258  1.00  0.00     0.158 HD
ENDBRANCH  50  54
ENDBRANCH  35  42
BRANCH  36  57
ATOM     57  O   UNL     1     -46.432  38.050  30.999  1.00  0.00    -0.386 OA
ATOM     58  H   UNL     1     -45.592  37.608  31.233  1.00  0.00     0.211 HD
ENDBRANCH  36  57
ENDBRANCH  28  31
ENDBRANCH   1  28
TORSDOF 10
ENDMDL
MODEL 3
REMARK VINA RESULT:      -9.0      2.697     10.428
REMARK SMILES CCNc1ccc2ccc(CC[C@H]3O[C@@H](n4ccc5c(N)ncnc54)[C@H](O)[C@@H]3O)cc2n1
REMARK SMILES IDX 11 1 10 4 4 5 5 6 32 7 6 8 31 10 7 11 30 13 8 14 9 16 3 19
REMARK SMILES IDX 2 21 1 24 12 28 13 31 14 32 28 33 15 35 26 36 29 40 16 42
REMARK SMILES IDX 17 43 25 44 18 45 19 47 24 48 20 50 23 51 22 52 21 54 27 57
REMARK H PARENT 11 2 11 3 5 9 6 12 30 15 8 17 9 18 3 20 2 22 2 23 1 25 1 26
REMARK H PARENT 1 27 12 29 12 30 13 34 28 37 15 38 26 39 29 41 17 46 18 49
REMARK H PARENT 23 53 21 55 21 56 27 58
REMARK Flexibility Score: inf
ROOT
ATOM      1  C   UNL     1     -48.609  36.476  27.941  1.00  0.00    -0.025 C 
ATOM      2  H   UNL     1     -49.528  37.075  27.965  1.00  0.00     0.032 H 
ATOM      3  H   UNL     1     -48.632  35.851  28.843  1.00  0.00     0.032 H 
ENDROOT
BRANCH   1   4
ATOM      4  C   UNL     1     -47.416  37.397  28.001  1.00  0.00    -0.046 A 
ATOM      5  C   UNL     1     -45.193  41.281  26.368  1.00  0.00     0.126 A 
ATOM      6  C   UNL     1     -44.100  41.072  27.195  1.00  0.00    -0.019 A 
ATOM      7  N   UNL     1     -46.251  40.450  26.345  1.00  0.00    -0.231 NA
ATOM      8  C   UNL     1     -44.101  39.974  28.049  1.00  0.00    -0.049 A 
ATOM      9  H   UNL     1     -43.246  41.738  27.165  1.00  0.00     0.066 H 
ATOM     10  C   UNL     1     -46.258  39.386  27.170  1.00  0.00     0.073 A 
ATOM     11  C   UNL     1     -45.196  39.105  28.051  1.00  0.00     0.000 A 
ATOM     12  H   UNL     1     -43.248  39.801  28.697  1.00  0.00     0.063 H 
ATOM     13  C   UNL     1     -47.347  38.523  27.163  1.00  0.00    -0.033 A 
ATOM     14  C   UNL     1     -45.247  37.980  28.892  1.00  0.00    -0.053 A 
ATOM     15  H   UNL     1     -48.165  38.737  26.479  1.00  0.00     0.065 H 
ATOM     16  C   UNL     1     -46.351  37.131  28.865  1.00  0.00    -0.058 A 
ATOM     17  H   UNL     1     -44.425  37.759  29.568  1.00  0.00     0.063 H 
ATOM     18  H   UNL     1     -46.374  36.260  29.516  1.00  0.00     0.063 H 
BRANCH   5  19
ATOM     19  N   UNL     1     -45.256  42.355  25.475  1.00  0.00    -0.370 N 
ATOM     20  H   UNL     1     -45.803  43.049  25.984  1.00  0.00     0.162 HD
BRANCH  19  21
ATOM     21  C   UNL     1     -43.950  42.885  25.096  1.00  0.00     0.013 C 
ATOM     22  H   UNL     1     -43.737  43.814  25.638  1.00  0.00     0.049 H 
ATOM     23  H   UNL     1     -43.154  42.165  25.322  1.00  0.00     0.049 H 
BRANCH  21  24
ATOM     24  C   UNL     1     -43.938  43.166  23.601  1.00  0.00    -0.048 C 
ATOM     25  H   UNL     1     -43.490  44.144  23.400  1.00  0.00     0.025 H 
ATOM     26  H   UNL     1     -43.360  42.407  23.064  1.00  0.00     0.025 H 
ATOM     27  H   UNL     1     -44.954  43.165  23.193  1.00  0.00     0.025 H 
ENDBRANCH  21  24
ENDBRANCH  19  21
ENDBRANCH   5  19
ENDBRANCH   1   4
BRANCH   1  28
ATOM     28  C   UNL     1     -48.572  35.594  26.689  1.00  0.00    -0.020 C 
ATOM     29  H   UNL     1     -47.992  36.090  25.900  1.00  0.00     0.030 H 
ATOM     30  H   UNL     1     -49.596  35.474  26.311  1.00  0.00     0.030 H 
BRANCH  28  31
ATOM     31  C   UNL     1     -47.971  34.221  26.983  1.00  0.00     0.089 C 
ATOM     32  O   UNL     1     -48.923  33.186  26.678  1.00  0.00    -0.349 OA
ATOM     33  C   UNL     1     -46.741  33.924  26.131  1.00  0.00     0.111 C 
ATOM     34  H   UNL     1     -47.726  34.154  28.049  1.00  0.00     0.063 H 
ATOM     35  C   UNL     1     -48.194  32.049  26.155  1.00  0.00     0.164 C 
ATOM     36  C   UNL     1     -46.702  32.406  26.163  1.00  0.00     0.128 C 
ATOM     37  H   UNL     1     -46.882  34.277  25.102  1.00  0.00     0.066 H 
ATOM     38  H   UNL     1     -48.421  31.193  26.799  1.00  0.00     0.088 H 
ATOM     39  H   UNL     1     -46.114  31.990  25.339  1.00  0.00     0.068 H 
BRANCH  33  40
ATOM     40  O   UNL     1     -45.555  34.500  26.661  1.00  0.00    -0.388 OA
ATOM     41  H   UNL     1     -45.488  34.156  27.577  1.00  0.00     0.211 HD
ENDBRANCH  33  40
BRANCH  35  42
ATOM     42  N   UNL     1     -48.686  31.723  24.821  1.00  0.00    -0.303 N 
ATOM     43  C   UNL     1     -49.955  31.899  24.326  1.00  0.00     0.009 A 
ATOM     44  C   UNL     1     -47.887  31.175  23.845  1.00  0.00     0.147 A 
ATOM     45  C   UNL     1     -49.969  31.451  23.022  1.00  0.00    -0.031 A 
ATOM     46  H   UNL     1     -50.747  32.311  24.940  1.00  0.00     0.082 H 
ATOM     47  C   UNL     1     -48.660  30.992  22.708  1.00  0.00     0.061 A 
ATOM     48  N   UNL     1     -46.582  30.881  23.985  1.00  0.00    -0.218 NA
ATOM     49  H   UNL     1     -50.832  31.445  22.369  1.00  0.00     0.065 H 
ATOM     50  C   UNL     1     -48.017  30.437  21.593  1.00  0.00     0.136 A 
ATOM     51  C   UNL     1     -46.079  30.353  22.853  1.00  0.00     0.120 A 
ATOM     52  N   UNL     1     -46.709  30.126  21.685  1.00  0.00    -0.219 NA
ATOM     53  H   UNL     1     -45.029  30.077  22.882  1.00  0.00     0.106 H 
BRANCH  50  54
ATOM     54  N   UNL     1     -48.646  30.202  20.380  1.00  0.00    -0.383 N 
ATOM     55  H   UNL     1     -49.653  30.281  20.394  1.00  0.00     0.158 HD
ATOM     56  H   UNL     1     -48.164  30.674  19.623  1.00  0.00     0.158 HD
ENDBRANCH  50  54
ENDBRANCH  35  42
BRANCH  36  57
ATOM     57  O   UNL     1     -46.061  31.994  27.389  1.00  0.00    -0.386 OA
ATOM     58  H   UNL     1     -46.770  31.664  27.975  1.00  0.00     0.211 HD
ENDBRANCH  36  57
ENDBRANCH  28  31
ENDBRANCH   1  28
TORSDOF 10
ENDMDL
MODEL 4
REMARK VINA RESULT:      -9.0      2.547     10.669
REMARK SMILES CCNc1ccc2ccc(CC[C@H]3O[C@@H](n4ccc5c(N)ncnc54)[C@H](O)[C@@H]3O)cc2n1
REMARK SMILES IDX 11 1 10 4 4 5 5 6 32 7 6 8 31 10 7 11 30 13 8 14 9 16 3 19
REMARK SMILES IDX 2 21 1 24 12 28 13 31 14 32 28 33 15 35 26 36 29 40 16 42
REMARK SMILES IDX 17 43 25 44 18 45 19 47 24 48 20 50 23 51 22 52 21 54 27 57
REMARK H PARENT 11 2 11 3 5 9 6 12 30 15 8 17 9 18 3 20 2 22 2 23 1 25 1 26
REMARK H PARENT 1 27 12 29 12 30 13 34 28 37 15 38 26 39 29 41 17 46 18 49
REMARK H PARENT 23 53 21 55 21 56 27 58
REMARK Flexibility Score: inf
ROOT
ATOM      1  C   UNL     1     -44.748  39.366  28.615  1.00  0.00    -0.025 C 
ATOM      2  H   UNL     1     -45.686  39.789  28.997  1.00  0.00     0.032 H 
ATOM      3  H   UNL     1     -44.164  39.078  29.500  1.00  0.00     0.032 H 
ENDROOT
BRANCH   1   4
ATOM      4  C   UNL     1     -44.002  40.428  27.848  1.00  0.00    -0.046 A 
ATOM      5  C   UNL     1     -43.698  43.188  23.976  1.00  0.00     0.126 A 
ATOM      6  C   UNL     1     -42.497  43.740  24.395  1.00  0.00    -0.019 A 
ATOM      7  N   UNL     1     -44.350  42.251  24.690  1.00  0.00    -0.231 NA
ATOM      8  C   UNL     1     -41.952  43.329  25.607  1.00  0.00    -0.049 A 
ATOM      9  H   UNL     1     -41.976  44.466  23.782  1.00  0.00     0.066 H 
ATOM     10  C   UNL     1     -43.828  41.849  25.863  1.00  0.00     0.073 A 
ATOM     11  C   UNL     1     -42.619  42.366  26.370  1.00  0.00     0.000 A 
ATOM     12  H   UNL     1     -41.011  43.753  25.941  1.00  0.00     0.063 H 
ATOM     13  C   UNL     1     -44.493  40.888  26.614  1.00  0.00    -0.033 A 
ATOM     14  C   UNL     1     -42.112  41.912  27.600  1.00  0.00    -0.053 A 
ATOM     15  H   UNL     1     -45.424  40.485  26.220  1.00  0.00     0.065 H 
ATOM     16  C   UNL     1     -42.800  40.948  28.333  1.00  0.00    -0.058 A 
ATOM     17  H   UNL     1     -41.176  42.307  27.989  1.00  0.00     0.063 H 
ATOM     18  H   UNL     1     -42.391  40.602  29.279  1.00  0.00     0.063 H 
BRANCH   5  19
ATOM     19  N   UNL     1     -44.298  43.544  22.765  1.00  0.00    -0.370 N 
ATOM     20  H   UNL     1     -44.667  42.657  22.419  1.00  0.00     0.162 HD
BRANCH  19  21
ATOM     21  C   UNL     1     -45.356  44.540  22.900  1.00  0.00     0.013 C 
ATOM     22  H   UNL     1     -46.247  44.237  22.337  1.00  0.00     0.049 H 
ATOM     23  H   UNL     1     -45.640  44.669  23.951  1.00  0.00     0.049 H 
BRANCH  21  24
ATOM     24  C   UNL     1     -44.858  45.875  22.367  1.00  0.00    -0.048 C 
ATOM     25  H   UNL     1     -45.623  46.646  22.497  1.00  0.00     0.025 H 
ATOM     26  H   UNL     1     -43.953  46.194  22.893  1.00  0.00     0.025 H 
ATOM     27  H   UNL     1     -44.619  45.807  21.300  1.00  0.00     0.025 H 
ENDBRANCH  21  24
ENDBRANCH  19  21
ENDBRANCH   5  19
ENDBRANCH   1   4
BRANCH   1  28
ATOM     28  C   UNL     1     -45.026  38.137  27.744  1.00  0.00    -0.020 C 
ATOM     29  H   UNL     1     -44.344  37.323  28.018  1.00  0.00     0.030 H 
ATOM     30  H   UNL     1     -44.820  38.393  26.696  1.00  0.00     0.030 H 
BRANCH  28  31
ATOM     31  C   UNL     1     -46.472  37.664  27.880  1.00  0.00     0.089 C 
ATOM     32  O   UNL     1     -46.927  37.092  26.641  1.00  0.00    -0.349 OA
ATOM     33  C   UNL     1     -46.636  36.572  28.932  1.00  0.00     0.111 C 
ATOM     34  H   UNL     1     -47.113  38.522  28.114  1.00  0.00     0.063 H 
ATOM     35  C   UNL     1     -47.814  35.991  26.956  1.00  0.00     0.164 C 
ATOM     36  C   UNL     1     -47.923  35.902  28.484  1.00  0.00     0.128 C 
ATOM     37  H   UNL     1     -45.804  35.859  28.889  1.00  0.00     0.066 H 
ATOM     38  H   UNL     1     -48.778  36.203  26.481  1.00  0.00     0.088 H 
ATOM     39  H   UNL     1     -48.026  34.891  28.890  1.00  0.00     0.068 H 
BRANCH  33  40
ATOM     40  O   UNL     1     -46.736  37.092  30.251  1.00  0.00    -0.388 OA
ATOM     41  H   UNL     1     -45.869  36.906  30.668  1.00  0.00     0.211 HD
ENDBRANCH  33  40
BRANCH  35  42
ATOM     42  N   UNL     1     -47.302  34.763  26.358  1.00  0.00    -0.303 N 
ATOM     43  C   UNL     1     -45.999  34.458  26.048  1.00  0.00     0.009 A 
ATOM     44  C   UNL     1     -48.112  33.705  26.018  1.00  0.00     0.147 A 
ATOM     45  C   UNL     1     -45.978  33.193  25.499  1.00  0.00    -0.031 A 
ATOM     46  H   UNL     1     -45.197  35.164  26.228  1.00  0.00     0.082 H 
ATOM     47  C   UNL     1     -47.314  32.707  25.479  1.00  0.00     0.061 A 
ATOM     48  N   UNL     1     -49.445  33.660  26.195  1.00  0.00    -0.218 NA
ATOM     49  H   UNL     1     -45.096  32.678  25.141  1.00  0.00     0.065 H 
ATOM     50  C   UNL     1     -47.965  31.535  25.067  1.00  0.00     0.136 A 
ATOM     51  C   UNL     1     -49.954  32.492  25.761  1.00  0.00     0.120 A 
ATOM     52  N   UNL     1     -49.300  31.444  25.223  1.00  0.00    -0.219 NA
ATOM     53  H   UNL     1     -51.029  32.376  25.857  1.00  0.00     0.106 H 
BRANCH  50  54
ATOM     54  N   UNL     1     -47.309  30.444  24.519  1.00  0.00    -0.383 N 
ATOM     55  H   UNL     1     -46.441  30.654  24.048  1.00  0.00     0.158 HD
ATOM     56  H   UNL     1     -47.298  29.664  25.167  1.00  0.00     0.158 HD
ENDBRANCH  50  54
ENDBRANCH  35  42
BRANCH  36  57
ATOM     57  O   UNL     1     -49.035  36.673  28.985  1.00  0.00    -0.386 OA
ATOM     58  H   UNL     1     -49.001  37.537  28.530  1.00  0.00     0.211 HD
ENDBRANCH  36  57
ENDBRANCH  28  31
ENDBRANCH   1  28
TORSDOF 10
ENDMDL
MODEL 5
REMARK VINA RESULT:      -8.8      5.153     11.485
REMARK SMILES CCNc1ccc2ccc(CC[C@H]3O[C@@H](n4ccc5c(N)ncnc54)[C@H](O)[C@@H]3O)cc2n1
REMARK SMILES IDX 11 1 10 4 4 5 5 6 32 7 6 8 31 10 7 11 30 13 8 14 9 16 3 19
REMARK SMILES IDX 2 21 1 24 12 28 13 31 14 32 28 33 15 35 26 36 29 40 16 42
REMARK SMILES IDX 17 43 25 44 18 45 19 47 24 48 20 50 23 51 22 52 21 54 27 57
REMARK H PARENT 11 2 11 3 5 9 6 12 30 15 8 17 9 18 3 20 2 22 2 23 1 25 1 26
REMARK H PARENT 1 27 12 29 12 30 13 34 28 37 15 38 26 39 29 41 17 46 18 49
REMARK H PARENT 23 53 21 55 21 56 27 58
REMARK Flexibility Score: inf
ROOT
ATOM      1  C   UNL     1     -48.183  31.408  24.579  1.00  0.00    -0.025 C 
ATOM      2  H   UNL     1     -49.093  31.546  23.981  1.00  0.00     0.032 H 
ATOM      3  H   UNL     1     -48.438  30.669  25.349  1.00  0.00     0.032 H 
ENDROOT
BRANCH   1   4
ATOM      4  C   UNL     1     -47.822  32.715  25.240  1.00  0.00    -0.046 A 
ATOM      5  C   UNL     1     -49.173  36.446  27.876  1.00  0.00     0.126 A 
ATOM      6  C   UNL     1     -47.926  37.042  27.773  1.00  0.00    -0.019 A 
ATOM      7  N   UNL     1     -49.463  35.271  27.287  1.00  0.00    -0.231 NA
ATOM      8  C   UNL     1     -46.928  36.396  27.052  1.00  0.00    -0.049 A 
ATOM      9  H   UNL     1     -47.733  38.007  28.227  1.00  0.00     0.066 H 
ATOM     10  C   UNL     1     -48.501  34.641  26.588  1.00  0.00     0.073 A 
ATOM     11  C   UNL     1     -47.203  35.168  26.442  1.00  0.00     0.000 A 
ATOM     12  H   UNL     1     -45.949  36.857  26.963  1.00  0.00     0.063 H 
ATOM     13  C   UNL     1     -48.784  33.424  25.981  1.00  0.00    -0.033 A 
ATOM     14  C   UNL     1     -46.232  34.475  25.700  1.00  0.00    -0.053 A 
ATOM     15  H   UNL     1     -49.787  33.019  26.088  1.00  0.00     0.065 H 
ATOM     16  C   UNL     1     -46.542  33.255  25.101  1.00  0.00    -0.058 A 
ATOM     17  H   UNL     1     -45.232  34.884  25.583  1.00  0.00     0.063 H 
ATOM     18  H   UNL     1     -45.782  32.733  24.525  1.00  0.00     0.063 H 
BRANCH   5  19
ATOM     19  N   UNL     1     -50.228  37.043  28.573  1.00  0.00    -0.370 N 
ATOM     20  H   UNL     1     -49.879  37.087  29.531  1.00  0.00     0.162 HD
BRANCH  19  21
ATOM     21  C   UNL     1     -50.586  38.369  28.080  1.00  0.00     0.013 C 
ATOM     22  H   UNL     1     -50.176  39.148  28.733  1.00  0.00     0.049 H 
ATOM     23  H   UNL     1     -50.197  38.528  27.067  1.00  0.00     0.049 H 
BRANCH  21  24
ATOM     24  C   UNL     1     -52.101  38.497  28.040  1.00  0.00    -0.048 C 
ATOM     25  H   UNL     1     -52.570  37.516  28.167  1.00  0.00     0.025 H 
ATOM     26  H   UNL     1     -52.460  39.155  28.838  1.00  0.00     0.025 H 
ATOM     27  H   UNL     1     -52.436  38.914  27.085  1.00  0.00     0.025 H 
ENDBRANCH  21  24
ENDBRANCH  19  21
ENDBRANCH   5  19
ENDBRANCH   1   4
BRANCH   1  28
ATOM     28  C   UNL     1     -47.038  30.888  23.706  1.00  0.00    -0.020 C 
ATOM     29  H   UNL     1     -46.343  30.295  24.314  1.00  0.00     0.030 H 
ATOM     30  H   UNL     1     -46.474  31.745  23.313  1.00  0.00     0.030 H 
BRANCH  28  31
ATOM     31  C   UNL     1     -47.553  30.040  22.544  1.00  0.00     0.089 C 
ATOM     32  O   UNL     1     -47.811  28.695  22.985  1.00  0.00    -0.349 OA
ATOM     33  C   UNL     1     -48.873  30.557  21.980  1.00  0.00     0.111 C 
ATOM     34  H   UNL     1     -46.789  30.000  21.759  1.00  0.00     0.063 H 
ATOM     35  C   UNL     1     -48.970  28.204  22.268  1.00  0.00     0.164 C 
ATOM     36  C   UNL     1     -49.433  29.312  21.314  1.00  0.00     0.128 C 
ATOM     37  H   UNL     1     -49.540  30.887  22.785  1.00  0.00     0.066 H 
ATOM     38  H   UNL     1     -48.663  27.297  21.736  1.00  0.00     0.088 H 
ATOM     39  H   UNL     1     -50.514  29.378  21.159  1.00  0.00     0.068 H 
BRANCH  33  40
ATOM     40  O   UNL     1     -48.694  31.623  21.057  1.00  0.00    -0.388 OA
ATOM     41  H   UNL     1     -48.099  31.267  20.364  1.00  0.00     0.211 HD
ENDBRANCH  33  40
BRANCH  35  42
ATOM     42  N   UNL     1     -50.005  27.814  23.219  1.00  0.00    -0.303 N 
ATOM     43  C   UNL     1     -51.346  28.108  23.170  1.00  0.00     0.009 A 
ATOM     44  C   UNL     1     -49.743  27.058  24.338  1.00  0.00     0.147 A 
ATOM     45  C   UNL     1     -51.946  27.539  24.274  1.00  0.00    -0.031 A 
ATOM     46  H   UNL     1     -51.762  28.707  22.369  1.00  0.00     0.082 H 
ATOM     47  C   UNL     1     -50.937  26.869  25.018  1.00  0.00     0.061 A 
ATOM     48  N   UNL     1     -48.534  26.585  24.689  1.00  0.00    -0.218 NA
ATOM     49  H   UNL     1     -52.996  27.608  24.523  1.00  0.00     0.065 H 
ATOM     50  C   UNL     1     -50.874  26.115  26.199  1.00  0.00     0.136 A 
ATOM     51  C   UNL     1     -48.601  25.884  25.836  1.00  0.00     0.120 A 
ATOM     52  N   UNL     1     -49.684  25.621  26.593  1.00  0.00    -0.219 NA
ATOM     53  H   UNL     1     -47.663  25.473  26.199  1.00  0.00     0.106 H 
BRANCH  50  54
ATOM     54  N   UNL     1     -51.978  25.828  26.987  1.00  0.00    -0.383 N 
ATOM     55  H   UNL     1     -51.787  25.714  27.972  1.00  0.00     0.158 HD
ATOM     56  H   UNL     1     -52.763  26.420  26.742  1.00  0.00     0.158 HD
ENDBRANCH  50  54
ENDBRANCH  35  42
BRANCH  36  57
ATOM     57  O   UNL     1     -48.826  29.183  20.011  1.00  0.00    -0.386 OA
ATOM     58  H   UNL     1     -49.192  29.904  19.462  1.00  0.00     0.211 HD
ENDBRANCH  36  57
ENDBRANCH  28  31
ENDBRANCH   1  28
TORSDOF 10
ENDMDL
MODEL 6
REMARK VINA RESULT:      -8.7      3.297     11.292
REMARK SMILES CCNc1ccc2ccc(CC[C@H]3O[C@@H](n4ccc5c(N)ncnc54)[C@H](O)[C@@H]3O)cc2n1
REMARK SMILES IDX 11 1 10 4 4 5 5 6 32 7 6 8 31 10 7 11 30 13 8 14 9 16 3 19
REMARK SMILES IDX 2 21 1 24 12 28 13 31 14 32 28 33 15 35 26 36 29 40 16 42
REMARK SMILES IDX 17 43 25 44 18 45 19 47 24 48 20 50 23 51 22 52 21 54 27 57
REMARK H PARENT 11 2 11 3 5 9 6 12 30 15 8 17 9 18 3 20 2 22 2 23 1 25 1 26
REMARK H PARENT 1 27 12 29 12 30 13 34 28 37 15 38 26 39 29 41 17 46 18 49
REMARK H PARENT 23 53 21 55 21 56 27 58
REMARK Flexibility Score: inf
ROOT
ATOM      1  C   UNL     1     -47.145  33.042  25.081  1.00  0.00    -0.025 C 
ATOM      2  H   UNL     1     -46.391  32.248  25.015  1.00  0.00     0.032 H 
ATOM      3  H   UNL     1     -47.106  33.576  24.123  1.00  0.00     0.032 H 
ENDROOT
BRANCH   1   4
ATOM      4  C   UNL     1     -46.774  33.987  26.196  1.00  0.00    -0.046 A 
ATOM      5  C   UNL     1     -46.292  38.471  27.732  1.00  0.00     0.126 A 
ATOM      6  C   UNL     1     -45.811  38.056  28.965  1.00  0.00    -0.019 A 
ATOM      7  N   UNL     1     -46.630  37.603  26.760  1.00  0.00    -0.231 NA
ATOM      8  C   UNL     1     -45.690  36.694  29.218  1.00  0.00    -0.049 A 
ATOM      9  H   UNL     1     -45.512  38.778  29.715  1.00  0.00     0.066 H 
ATOM     10  C   UNL     1     -46.515  36.284  26.999  1.00  0.00     0.073 A 
ATOM     11  C   UNL     1     -46.048  35.775  28.227  1.00  0.00     0.000 A 
ATOM     12  H   UNL     1     -45.311  36.360  30.179  1.00  0.00     0.063 H 
ATOM     13  C   UNL     1     -46.867  35.377  26.008  1.00  0.00    -0.033 A 
ATOM     14  C   UNL     1     -45.943  34.388  28.429  1.00  0.00    -0.053 A 
ATOM     15  H   UNL     1     -47.224  35.769  25.058  1.00  0.00     0.065 H 
ATOM     16  C   UNL     1     -46.303  33.500  27.417  1.00  0.00    -0.058 A 
ATOM     17  H   UNL     1     -45.577  33.995  29.374  1.00  0.00     0.063 H 
ATOM     18  H   UNL     1     -46.210  32.430  27.586  1.00  0.00     0.063 H 
BRANCH   5  19
ATOM     19  N   UNL     1     -46.427  39.822  27.403  1.00  0.00    -0.370 N 
ATOM     20  H   UNL     1     -46.340  40.292  28.305  1.00  0.00     0.162 HD
BRANCH  19  21
ATOM     21  C   UNL     1     -45.424  40.303  26.458  1.00  0.00     0.013 C 
ATOM     22  H   UNL     1     -45.147  39.511  25.752  1.00  0.00     0.049 H 
ATOM     23  H   UNL     1     -45.804  41.157  25.885  1.00  0.00     0.049 H 
BRANCH  21  24
ATOM     24  C   UNL     1     -44.187  40.746  27.223  1.00  0.00    -0.048 C 
ATOM     25  H   UNL     1     -44.192  40.324  28.232  1.00  0.00     0.025 H 
ATOM     26  H   UNL     1     -43.274  40.416  26.717  1.00  0.00     0.025 H 
ATOM     27  H   UNL     1     -44.147  41.837  27.308  1.00  0.00     0.025 H 
ENDBRANCH  21  24
ENDBRANCH  19  21
ENDBRANCH   5  19
ENDBRANCH   1   4
BRANCH   1  28
ATOM     28  C   UNL     1     -48.539  32.444  25.295  1.00  0.00    -0.020 C 
ATOM     29  H   UNL     1     -49.255  33.241  25.531  1.00  0.00     0.030 H 
ATOM     30  H   UNL     1     -48.507  31.771  26.163  1.00  0.00     0.030 H 
BRANCH  28  31
ATOM     31  C   UNL     1     -49.017  31.671  24.067  1.00  0.00     0.089 C 
ATOM     32  O   UNL     1     -48.230  30.480  23.892  1.00  0.00    -0.349 OA
ATOM     33  C   UNL     1     -50.464  31.203  24.195  1.00  0.00     0.111 C 
ATOM     34  H   UNL     1     -48.892  32.296  23.175  1.00  0.00     0.063 H 
ATOM     35  C   UNL     1     -49.100  29.441  23.381  1.00  0.00     0.164 C 
ATOM     36  C   UNL     1     -50.500  30.044  23.214  1.00  0.00     0.128 C 
ATOM     37  H   UNL     1     -50.672  30.846  25.210  1.00  0.00     0.066 H 
ATOM     38  H   UNL     1     -48.676  29.101  22.429  1.00  0.00     0.088 H 
ATOM     39  H   UNL     1     -51.333  29.362  23.412  1.00  0.00     0.068 H 
BRANCH  33  40
ATOM     40  O   UNL     1     -51.400  32.218  23.858  1.00  0.00    -0.388 OA
ATOM     41  H   UNL     1     -52.166  31.744  23.472  1.00  0.00     0.211 HD
ENDBRANCH  33  40
BRANCH  35  42
ATOM     42  N   UNL     1     -49.085  28.299  24.289  1.00  0.00    -0.303 N 
ATOM     43  C   UNL     1     -50.121  27.817  25.050  1.00  0.00     0.009 A 
ATOM     44  C   UNL     1     -47.966  27.526  24.496  1.00  0.00     0.147 A 
ATOM     45  C   UNL     1     -49.657  26.727  25.757  1.00  0.00    -0.031 A 
ATOM     46  H   UNL     1     -51.095  28.292  25.042  1.00  0.00     0.082 H 
ATOM     47  C   UNL     1     -48.292  26.534  25.409  1.00  0.00     0.061 A 
ATOM     48  N   UNL     1     -46.774  27.710  23.900  1.00  0.00    -0.218 NA
ATOM     49  H   UNL     1     -50.237  26.140  26.457  1.00  0.00     0.065 H 
ATOM     50  C   UNL     1     -47.271  25.636  25.753  1.00  0.00     0.136 A 
ATOM     51  C   UNL     1     -45.879  26.793  24.311  1.00  0.00     0.120 A 
ATOM     52  N   UNL     1     -46.059  25.781  25.182  1.00  0.00    -0.219 NA
ATOM     53  H   UNL     1     -44.883  26.875  23.886  1.00  0.00     0.106 H 
BRANCH  50  54
ATOM     54  N   UNL     1     -47.439  24.586  26.641  1.00  0.00    -0.383 N 
ATOM     55  H   UNL     1     -47.489  23.669  26.221  1.00  0.00     0.158 HD
ATOM     56  H   UNL     1     -46.824  24.685  27.441  1.00  0.00     0.158 HD
ENDBRANCH  50  54
ENDBRANCH  35  42
BRANCH  36  57
ATOM     57  O   UNL     1     -50.698  30.577  21.887  1.00  0.00    -0.386 OA
ATOM     58  H   UNL     1     -50.632  29.821  21.272  1.00  0.00     0.211 HD
ENDBRANCH  36  57
ENDBRANCH  28  31
ENDBRANCH   1  28
TORSDOF 10
ENDMDL
MODEL 7
REMARK VINA RESULT:      -8.7      2.703     11.244
REMARK SMILES CCNc1ccc2ccc(CC[C@H]3O[C@@H](n4ccc5c(N)ncnc54)[C@H](O)[C@@H]3O)cc2n1
REMARK SMILES IDX 11 1 10 4 4 5 5 6 32 7 6 8 31 10 7 11 30 13 8 14 9 16 3 19
REMARK SMILES IDX 2 21 1 24 12 28 13 31 14 32 28 33 15 35 26 36 29 40 16 42
REMARK SMILES IDX 17 43 25 44 18 45 19 47 24 48 20 50 23 51 22 52 21 54 27 57
REMARK H PARENT 11 2 11 3 5 9 6 12 30 15 8 17 9 18 3 20 2 22 2 23 1 25 1 26
REMARK H PARENT 1 27 12 29 12 30 13 34 28 37 15 38 26 39 29 41 17 46 18 49
REMARK H PARENT 23 53 21 55 21 56 27 58
REMARK Flexibility Score: inf
ROOT
ATOM      1  C   UNL     1     -46.400  32.960  26.837  1.00  0.00    -0.025 C 
ATOM      2  H   UNL     1     -47.353  32.566  27.211  1.00  0.00     0.032 H 
ATOM      3  H   UNL     1     -45.623  32.542  27.489  1.00  0.00     0.032 H 
ENDROOT
BRANCH   1   4
ATOM      4  C   UNL     1     -46.403  34.463  26.962  1.00  0.00    -0.046 A 
ATOM      5  C   UNL     1     -44.975  38.348  29.321  1.00  0.00     0.126 A 
ATOM      6  C   UNL     1     -45.686  39.190  28.479  1.00  0.00    -0.019 A 
ATOM      7  N   UNL     1     -44.979  37.010  29.176  1.00  0.00    -0.231 NA
ATOM      8  C   UNL     1     -46.415  38.636  27.432  1.00  0.00    -0.049 A 
ATOM      9  H   UNL     1     -45.693  40.261  28.641  1.00  0.00     0.066 H 
ATOM     10  C   UNL     1     -45.683  36.469  28.165  1.00  0.00     0.073 A 
ATOM     11  C   UNL     1     -46.423  37.249  27.256  1.00  0.00     0.000 A 
ATOM     12  H   UNL     1     -46.978  39.287  26.770  1.00  0.00     0.063 H 
ATOM     13  C   UNL     1     -45.690  35.090  27.999  1.00  0.00    -0.033 A 
ATOM     14  C   UNL     1     -47.146  36.638  26.217  1.00  0.00    -0.053 A 
ATOM     15  H   UNL     1     -45.123  34.486  28.704  1.00  0.00     0.065 H 
ATOM     16  C   UNL     1     -47.136  35.252  26.073  1.00  0.00    -0.058 A 
ATOM     17  H   UNL     1     -47.722  37.240  25.518  1.00  0.00     0.063 H 
ATOM     18  H   UNL     1     -47.705  34.793  25.268  1.00  0.00     0.063 H 
BRANCH   5  19
ATOM     19  N   UNL     1     -44.230  38.832  30.400  1.00  0.00    -0.370 N 
ATOM     20  H   UNL     1     -44.357  38.111  31.112  1.00  0.00     0.162 HD
BRANCH  19  21
ATOM     21  C   UNL     1     -42.817  39.035  30.099  1.00  0.00     0.013 C 
ATOM     22  H   UNL     1     -42.200  38.833  30.983  1.00  0.00     0.049 H 
ATOM     23  H   UNL     1     -42.489  38.369  29.291  1.00  0.00     0.049 H 
BRANCH  21  24
ATOM     24  C   UNL     1     -42.600  40.474  29.658  1.00  0.00    -0.048 C 
ATOM     25  H   UNL     1     -43.225  41.152  30.247  1.00  0.00     0.025 H 
ATOM     26  H   UNL     1     -41.555  40.771  29.786  1.00  0.00     0.025 H 
ATOM     27  H   UNL     1     -42.858  40.604  28.601  1.00  0.00     0.025 H 
ENDBRANCH  21  24
ENDBRANCH  19  21
ENDBRANCH   5  19
ENDBRANCH   1   4
BRANCH   1  28
ATOM     28  C   UNL     1     -46.166  32.520  25.389  1.00  0.00    -0.020 C 
ATOM     29  H   UNL     1     -45.376  31.760  25.352  1.00  0.00     0.030 H 
ATOM     30  H   UNL     1     -45.812  33.383  24.809  1.00  0.00     0.030 H 
BRANCH  28  31
ATOM     31  C   UNL     1     -47.441  31.966  24.753  1.00  0.00     0.089 C 
ATOM     32  O   UNL     1     -47.117  30.918  23.823  1.00  0.00    -0.349 OA
ATOM     33  C   UNL     1     -48.384  31.343  25.777  1.00  0.00     0.111 C 
ATOM     34  H   UNL     1     -47.947  32.767  24.201  1.00  0.00     0.063 H 
ATOM     35  C   UNL     1     -48.167  29.922  23.890  1.00  0.00     0.164 C 
ATOM     36  C   UNL     1     -49.206  30.406  24.909  1.00  0.00     0.128 C 
ATOM     37  H   UNL     1     -47.825  30.770  26.527  1.00  0.00     0.066 H 
ATOM     38  H   UNL     1     -48.586  29.823  22.882  1.00  0.00     0.088 H 
ATOM     39  H   UNL     1     -49.692  29.620  25.495  1.00  0.00     0.068 H 
BRANCH  33  40
ATOM     40  O   UNL     1     -49.192  32.308  26.436  1.00  0.00    -0.388 OA
ATOM     41  H   UNL     1     -48.611  32.714  27.113  1.00  0.00     0.211 HD
ENDBRANCH  33  40
BRANCH  35  42
ATOM     42  N   UNL     1     -47.593  28.629  24.244  1.00  0.00    -0.303 N 
ATOM     43  C   UNL     1     -46.379  28.114  23.861  1.00  0.00     0.009 A 
ATOM     44  C   UNL     1     -48.239  27.724  25.054  1.00  0.00     0.147 A 
ATOM     45  C   UNL     1     -46.250  26.863  24.427  1.00  0.00    -0.031 A 
ATOM     46  H   UNL     1     -45.714  28.666  23.208  1.00  0.00     0.082 H 
ATOM     47  C   UNL     1     -47.424  26.609  25.188  1.00  0.00     0.061 A 
ATOM     48  N   UNL     1     -49.446  27.909  25.617  1.00  0.00    -0.218 NA
ATOM     49  H   UNL     1     -45.406  26.199  24.299  1.00  0.00     0.065 H 
ATOM     50  C   UNL     1     -47.914  25.565  25.985  1.00  0.00     0.136 A 
ATOM     51  C   UNL     1     -49.808  26.841  26.352  1.00  0.00     0.120 A 
ATOM     52  N   UNL     1     -49.121  25.704  26.570  1.00  0.00    -0.219 NA
ATOM     53  H   UNL     1     -50.779  26.903  26.836  1.00  0.00     0.106 H 
BRANCH  50  54
ATOM     54  N   UNL     1     -47.219  24.390  26.227  1.00  0.00    -0.383 N 
ATOM     55  H   UNL     1     -47.758  23.542  26.128  1.00  0.00     0.158 HD
ATOM     56  H   UNL     1     -46.311  24.406  25.776  1.00  0.00     0.158 HD
ENDBRANCH  50  54
ENDBRANCH  35  42
BRANCH  36  57
ATOM     57  O   UNL     1     -50.254  31.173  24.280  1.00  0.00    -0.386 OA
ATOM     58  H   UNL     1     -50.794  31.550  25.003  1.00  0.00     0.211 HD
ENDBRANCH  36  57
ENDBRANCH  28  31
ENDBRANCH   1  28
TORSDOF 10
ENDMDL
