MODEL 1
REMARK VINA RESULT:     -10.3      0.000      0.000
REMARK SMILES CNc1ccc2cc(CC[C@H]3C[C@@H](n4ccc5c(N)ncnc54)[C@H](O)[C@@H]3O)ccc2n1
REMARK SMILES IDX 9 1 8 4 3 5 4 6 31 7 5 8 30 10 6 11 29 13 7 14 28 15 2 19
REMARK SMILES IDX 1 21 10 25 11 28 12 29 26 30 13 32 24 35 27 39 14 41 15 42
REMARK SMILES IDX 23 43 16 44 17 46 22 47 18 49 21 50 20 51 19 53 25 56
REMARK H PARENT 9 2 9 3 4 9 5 12 29 16 7 17 28 18 2 20 1 22 1 23 1 24 10 26
REMARK H PARENT 10 27 11 31 12 33 12 34 26 36 13 37 24 38 27 40 15 45 16 48
REMARK H PARENT 21 52 19 54 19 55 25 57
REMARK Flexibility Score: inf
ROOT
ATOM      1  C   UNL     1     -46.770  35.175  26.144  1.00  0.00    -0.028 C 
ATOM      2  H   UNL     1     -45.747  35.323  25.773  1.00  0.00     0.032 H 
ATOM      3  H   UNL     1     -47.373  35.930  25.629  1.00  0.00     0.032 H 
ENDROOT
BRANCH   1   4
ATOM      4  C   UNL     1     -47.185  33.789  25.722  1.00  0.00    -0.047 A 
ATOM      5  C   UNL     1     -47.710  29.255  23.689  1.00  0.00     0.126 A 
ATOM      6  C   UNL     1     -46.548  29.749  23.114  1.00  0.00    -0.019 A 
ATOM      7  N   UNL     1     -48.425  29.958  24.587  1.00  0.00    -0.231 NA
ATOM      8  C   UNL     1     -46.112  31.023  23.463  1.00  0.00    -0.049 A 
ATOM      9  H   UNL     1     -45.973  29.147  22.419  1.00  0.00     0.066 H 
ATOM     10  C   UNL     1     -48.006  31.190  24.927  1.00  0.00     0.073 A 
ATOM     11  C   UNL     1     -46.844  31.772  24.388  1.00  0.00     0.001 A 
ATOM     12  H   UNL     1     -45.201  31.415  23.019  1.00  0.00     0.063 H 
ATOM     13  C   UNL     1     -48.741  31.929  25.842  1.00  0.00    -0.035 A 
ATOM     14  C   UNL     1     -46.446  33.064  24.779  1.00  0.00    -0.050 A 
ATOM     15  C   UNL     1     -48.349  33.214  26.238  1.00  0.00    -0.057 A 
ATOM     16  H   UNL     1     -49.646  31.495  26.258  1.00  0.00     0.065 H 
ATOM     17  H   UNL     1     -45.555  33.506  24.337  1.00  0.00     0.063 H 
ATOM     18  H   UNL     1     -48.960  33.752  26.960  1.00  0.00     0.063 H 
BRANCH   5  19
ATOM     19  N   UNL     1     -48.198  27.979  23.400  1.00  0.00    -0.373 N 
ATOM     20  H   UNL     1     -47.376  27.478  23.062  1.00  0.00     0.161 HD
BRANCH  19  21
ATOM     21  C   UNL     1     -48.797  27.302  24.537  1.00  0.00     0.005 C 
ATOM     22  H   UNL     1     -48.012  26.779  25.095  1.00  0.00     0.045 H 
ATOM     23  H   UNL     1     -49.528  26.550  24.223  1.00  0.00     0.045 H 
ATOM     24  H   UNL     1     -49.276  28.012  25.221  1.00  0.00     0.045 H 
ENDBRANCH  19  21
ENDBRANCH   5  19
ENDBRANCH   1   4
BRANCH   1  25
ATOM     25  C   UNL     1     -46.772  35.438  27.656  1.00  0.00    -0.044 C 
ATOM     26  H   UNL     1     -47.644  34.961  28.121  1.00  0.00     0.027 H 
ATOM     27  H   UNL     1     -45.898  34.913  28.068  1.00  0.00     0.027 H 
BRANCH  25  28
ATOM     28  C   UNL     1     -46.687  36.888  28.150  1.00  0.00    -0.010 C 
ATOM     29  C   UNL     1     -45.315  37.555  28.031  1.00  0.00    -0.024 C 
ATOM     30  C   UNL     1     -47.597  37.921  27.486  1.00  0.00     0.085 C 
ATOM     31  H   UNL     1     -46.952  36.842  29.217  1.00  0.00     0.033 H 
ATOM     32  C   UNL     1     -45.594  39.047  28.318  1.00  0.00     0.064 C 
ATOM     33  H   UNL     1     -44.887  37.417  27.033  1.00  0.00     0.029 H 
ATOM     34  H   UNL     1     -44.602  37.140  28.752  1.00  0.00     0.029 H 
ATOM     35  C   UNL     1     -47.110  39.248  28.094  1.00  0.00     0.101 C 
ATOM     36  H   UNL     1     -47.475  37.953  26.401  1.00  0.00     0.063 H 
ATOM     37  H   UNL     1     -45.366  39.240  29.375  1.00  0.00     0.056 H 
ATOM     38  H   UNL     1     -47.375  40.108  27.472  1.00  0.00     0.065 H 
BRANCH  30  39
ATOM     39  O   UNL     1     -48.967  37.701  27.804  1.00  0.00    -0.390 OA
ATOM     40  H   UNL     1     -49.350  37.211  27.054  1.00  0.00     0.211 HD
ENDBRANCH  30  39
BRANCH  32  41
ATOM     41  N   UNL     1     -44.740  39.939  27.550  1.00  0.00    -0.327 N 
ATOM     42  C   UNL     1     -44.992  40.325  26.253  1.00  0.00     0.007 A 
ATOM     43  C   UNL     1     -43.583  40.536  27.986  1.00  0.00     0.145 A 
ATOM     44  C   UNL     1     -43.975  41.166  25.853  1.00  0.00    -0.031 A 
ATOM     45  H   UNL     1     -45.861  39.962  25.718  1.00  0.00     0.082 H 
ATOM     46  C   UNL     1     -43.076  41.306  26.945  1.00  0.00     0.061 A 
ATOM     47  N   UNL     1     -43.035  40.393  29.205  1.00  0.00    -0.218 NA
ATOM     48  H   UNL     1     -43.883  41.624  24.877  1.00  0.00     0.065 H 
ATOM     49  C   UNL     1     -41.879  41.992  27.192  1.00  0.00     0.136 A 
ATOM     50  C   UNL     1     -41.883  41.080  29.314  1.00  0.00     0.120 A 
ATOM     51  N   UNL     1     -41.293  41.869  28.397  1.00  0.00    -0.219 NA
ATOM     52  H   UNL     1     -41.364  40.992  30.264  1.00  0.00     0.106 H 
BRANCH  49  53
ATOM     53  N   UNL     1     -41.259  42.814  26.262  1.00  0.00    -0.383 N 
ATOM     54  H   UNL     1     -41.421  43.789  26.478  1.00  0.00     0.158 HD
ATOM     55  H   UNL     1     -41.378  42.535  25.298  1.00  0.00     0.158 HD
ENDBRANCH  49  53
ENDBRANCH  32  41
BRANCH  35  56
ATOM     56  O   UNL     1     -47.755  39.445  29.366  1.00  0.00    -0.388 OA
ATOM     57  H   UNL     1     -47.163  38.996  30.008  1.00  0.00     0.211 HD
ENDBRANCH  35  56
ENDBRANCH  25  28
ENDBRANCH   1  25
TORSDOF 9
ENDMDL
MODEL 2
REMARK VINA RESULT:     -10.1      2.122     10.395
REMARK SMILES CNc1ccc2cc(CC[C@H]3C[C@@H](n4ccc5c(N)ncnc54)[C@H](O)[C@@H]3O)ccc2n1
REMARK SMILES IDX 9 1 8 4 3 5 4 6 31 7 5 8 30 10 6 11 29 13 7 14 28 15 2 19
REMARK SMILES IDX 1 21 10 25 11 28 12 29 26 30 13 32 24 35 27 39 14 41 15 42
REMARK SMILES IDX 23 43 16 44 17 46 22 47 18 49 21 50 20 51 19 53 25 56
REMARK H PARENT 9 2 9 3 4 9 5 12 29 16 7 17 28 18 2 20 1 22 1 23 1 24 10 26
REMARK H PARENT 10 27 11 31 12 33 12 34 26 36 13 37 24 38 27 40 15 45 16 48
REMARK H PARENT 21 52 19 54 19 55 25 57
REMARK Flexibility Score: inf
ROOT
ATOM      1  C   UNL     1     -47.647  36.840  28.339  1.00  0.00    -0.028 C 
ATOM      2  H   UNL     1     -47.192  36.108  29.021  1.00  0.00     0.032 H 
ATOM      3  H   UNL     1     -48.496  37.255  28.893  1.00  0.00     0.032 H 
ENDROOT
BRANCH   1   4
ATOM      4  C   UNL     1     -46.606  37.903  28.092  1.00  0.00    -0.047 A 
ATOM      5  C   UNL     1     -42.805  41.142  28.233  1.00  0.00     0.126 A 
ATOM      6  C   UNL     1     -42.691  40.437  29.422  1.00  0.00    -0.019 A 
ATOM      7  N   UNL     1     -43.775  40.888  27.336  1.00  0.00    -0.231 NA
ATOM      8  C   UNL     1     -43.620  39.443  29.709  1.00  0.00    -0.049 A 
ATOM      9  H   UNL     1     -41.878  40.638  30.112  1.00  0.00     0.066 H 
ATOM     10  C   UNL     1     -44.676  39.928  27.609  1.00  0.00     0.073 A 
ATOM     11  C   UNL     1     -44.641  39.169  28.794  1.00  0.00     0.001 A 
ATOM     12  H   UNL     1     -43.536  38.885  30.638  1.00  0.00     0.063 H 
ATOM     13  C   UNL     1     -45.688  39.665  26.698  1.00  0.00    -0.035 A 
ATOM     14  C   UNL     1     -45.604  38.172  29.033  1.00  0.00    -0.050 A 
ATOM     15  C   UNL     1     -46.649  38.673  26.927  1.00  0.00    -0.057 A 
ATOM     16  H   UNL     1     -45.733  40.251  25.783  1.00  0.00     0.065 H 
ATOM     17  H   UNL     1     -45.573  37.609  29.964  1.00  0.00     0.063 H 
ATOM     18  H   UNL     1     -47.422  38.505  26.181  1.00  0.00     0.063 H 
BRANCH   5  19
ATOM     19  N   UNL     1     -41.898  42.140  27.871  1.00  0.00    -0.373 N 
ATOM     20  H   UNL     1     -40.990  41.735  28.101  1.00  0.00     0.161 HD
BRANCH  19  21
ATOM     21  C   UNL     1     -41.965  42.522  26.470  1.00  0.00     0.005 C 
ATOM     22  H   UNL     1     -42.188  43.592  26.404  1.00  0.00     0.045 H 
ATOM     23  H   UNL     1     -42.764  41.991  25.943  1.00  0.00     0.045 H 
ATOM     24  H   UNL     1     -41.012  42.347  25.959  1.00  0.00     0.045 H 
ENDBRANCH  19  21
ENDBRANCH   5  19
ENDBRANCH   1   4
BRANCH   1  25
ATOM     25  C   UNL     1     -48.142  36.092  27.095  1.00  0.00    -0.044 C 
ATOM     26  H   UNL     1     -49.223  36.235  26.973  1.00  0.00     0.027 H 
ATOM     27  H   UNL     1     -47.682  36.585  26.227  1.00  0.00     0.027 H 
BRANCH  25  28
ATOM     28  C   UNL     1     -47.830  34.594  26.966  1.00  0.00    -0.010 C 
ATOM     29  C   UNL     1     -48.883  33.754  26.241  1.00  0.00    -0.024 C 
ATOM     30  C   UNL     1     -46.550  34.193  26.236  1.00  0.00     0.085 C 
ATOM     31  H   UNL     1     -47.756  34.228  28.001  1.00  0.00     0.033 H 
ATOM     32  C   UNL     1     -48.188  32.393  26.012  1.00  0.00     0.064 C 
ATOM     33  H   UNL     1     -49.180  34.212  25.293  1.00  0.00     0.029 H 
ATOM     34  H   UNL     1     -49.790  33.638  26.845  1.00  0.00     0.029 H 
ATOM     35  C   UNL     1     -46.672  32.661  26.146  1.00  0.00     0.101 C 
ATOM     36  H   UNL     1     -46.493  34.611  25.228  1.00  0.00     0.063 H 
ATOM     37  H   UNL     1     -48.497  31.711  26.816  1.00  0.00     0.056 H 
ATOM     38  H   UNL     1     -46.057  32.246  25.343  1.00  0.00     0.065 H 
BRANCH  30  39
ATOM     39  O   UNL     1     -45.385  34.558  26.968  1.00  0.00    -0.390 OA
ATOM     40  H   UNL     1     -44.866  35.144  26.389  1.00  0.00     0.211 HD
ENDBRANCH  30  39
BRANCH  32  41
ATOM     41  N   UNL     1     -48.587  31.758  24.766  1.00  0.00    -0.327 N 
ATOM     42  C   UNL     1     -49.893  31.610  24.356  1.00  0.00     0.007 A 
ATOM     43  C   UNL     1     -47.749  31.228  23.816  1.00  0.00     0.145 A 
ATOM     44  C   UNL     1     -49.887  30.965  23.138  1.00  0.00    -0.031 A 
ATOM     45  H   UNL     1     -50.716  31.961  24.966  1.00  0.00     0.082 H 
ATOM     46  C   UNL     1     -48.531  30.719  22.787  1.00  0.00     0.061 A 
ATOM     47  N   UNL     1     -46.406  31.202  23.878  1.00  0.00    -0.218 NA
ATOM     48  H   UNL     1     -50.763  30.692  22.565  1.00  0.00     0.065 H 
ATOM     49  C   UNL     1     -47.855  30.118  21.716  1.00  0.00     0.136 A 
ATOM     50  C   UNL     1     -45.873  30.585  22.808  1.00  0.00     0.120 A 
ATOM     51  N   UNL     1     -46.510  30.064  21.743  1.00  0.00    -0.219 NA
ATOM     52  H   UNL     1     -44.790  30.499  22.798  1.00  0.00     0.106 H 
BRANCH  49  53
ATOM     53  N   UNL     1     -48.493  29.580  20.608  1.00  0.00    -0.383 N 
ATOM     54  H   UNL     1     -49.207  28.920  20.889  1.00  0.00     0.158 HD
ATOM     55  H   UNL     1     -47.879  29.295  19.857  1.00  0.00     0.158 HD
ENDBRANCH  49  53
ENDBRANCH  32  41
BRANCH  35  56
ATOM     56  O   UNL     1     -46.195  32.082  27.374  1.00  0.00    -0.388 OA
ATOM     57  H   UNL     1     -45.229  32.259  27.365  1.00  0.00     0.211 HD
ENDBRANCH  35  56
ENDBRANCH  25  28
ENDBRANCH   1  25
TORSDOF 9
ENDMDL
MODEL 3
REMARK VINA RESULT:      -9.6      2.073     10.483
REMARK SMILES CNc1ccc2cc(CC[C@H]3C[C@@H](n4ccc5c(N)ncnc54)[C@H](O)[C@@H]3O)ccc2n1
REMARK SMILES IDX 9 1 8 4 3 5 4 6 31 7 5 8 30 10 6 11 29 13 7 14 28 15 2 19
REMARK SMILES IDX 1 21 10 25 11 28 12 29 26 30 13 32 24 35 27 39 14 41 15 42
REMARK SMILES IDX 23 43 16 44 17 46 22 47 18 49 21 50 20 51 19 53 25 56
REMARK H PARENT 9 2 9 3 4 9 5 12 29 16 7 17 28 18 2 20 1 22 1 23 1 24 10 26
REMARK H PARENT 10 27 11 31 12 33 12 34 26 36 13 37 24 38 27 40 15 45 16 48
REMARK H PARENT 21 52 19 54 19 55 25 57
REMARK Flexibility Score: inf
ROOT
ATOM      1  C   UNL     1     -48.058  36.704  28.269  1.00  0.00    -0.028 C 
ATOM      2  H   UNL     1     -47.940  35.987  29.093  1.00  0.00     0.032 H 
ATOM      3  H   UNL     1     -48.987  37.241  28.489  1.00  0.00     0.032 H 
ENDROOT
BRANCH   1   4
ATOM      4  C   UNL     1     -46.877  37.638  28.339  1.00  0.00    -0.047 A 
ATOM      5  C   UNL     1     -43.290  41.039  27.608  1.00  0.00     0.126 A 
ATOM      6  C   UNL     1     -44.082  41.137  26.474  1.00  0.00    -0.019 A 
ATOM      7  N   UNL     1     -43.562  40.176  28.604  1.00  0.00    -0.231 NA
ATOM      8  C   UNL     1     -45.188  40.302  26.350  1.00  0.00    -0.049 A 
ATOM      9  H   UNL     1     -43.860  41.866  25.702  1.00  0.00     0.066 H 
ATOM     10  C   UNL     1     -44.630  39.367  28.489  1.00  0.00     0.073 A 
ATOM     11  C   UNL     1     -45.483  39.392  27.369  1.00  0.00     0.001 A 
ATOM     12  H   UNL     1     -45.814  40.374  25.464  1.00  0.00     0.063 H 
ATOM     13  C   UNL     1     -44.913  38.464  29.502  1.00  0.00    -0.035 A 
ATOM     14  C   UNL     1     -46.591  38.528  27.296  1.00  0.00    -0.050 A 
ATOM     15  C   UNL     1     -46.015  37.603  29.438  1.00  0.00    -0.057 A 
ATOM     16  H   UNL     1     -44.256  38.427  30.367  1.00  0.00     0.065 H 
ATOM     17  H   UNL     1     -47.227  38.548  26.414  1.00  0.00     0.063 H 
ATOM     18  H   UNL     1     -46.194  36.914  30.260  1.00  0.00     0.063 H 
BRANCH   5  19
ATOM     19  N   UNL     1     -42.176  41.857  27.809  1.00  0.00    -0.373 N 
ATOM     20  H   UNL     1     -42.410  42.711  27.303  1.00  0.00     0.161 HD
BRANCH  19  21
ATOM     21  C   UNL     1     -41.888  42.133  29.206  1.00  0.00     0.005 C 
ATOM     22  H   UNL     1     -40.826  41.945  29.395  1.00  0.00     0.045 H 
ATOM     23  H   UNL     1     -42.458  41.480  29.875  1.00  0.00     0.045 H 
ATOM     24  H   UNL     1     -42.091  43.180  29.460  1.00  0.00     0.045 H 
ENDBRANCH  19  21
ENDBRANCH   5  19
ENDBRANCH   1   4
BRANCH   1  25
ATOM     25  C   UNL     1     -48.201  35.912  26.963  1.00  0.00    -0.044 C 
ATOM     26  H   UNL     1     -49.235  35.968  26.599  1.00  0.00     0.027 H 
ATOM     27  H   UNL     1     -47.597  36.435  26.209  1.00  0.00     0.027 H 
BRANCH  25  28
ATOM     28  C   UNL     1     -47.757  34.443  26.943  1.00  0.00    -0.010 C 
ATOM     29  C   UNL     1     -48.461  33.547  25.922  1.00  0.00    -0.024 C 
ATOM     30  C   UNL     1     -46.285  34.149  26.657  1.00  0.00     0.085 C 
ATOM     31  H   UNL     1     -47.988  34.061  27.948  1.00  0.00     0.033 H 
ATOM     32  C   UNL     1     -47.631  32.243  25.928  1.00  0.00     0.064 C 
ATOM     33  H   UNL     1     -48.474  34.003  24.928  1.00  0.00     0.029 H 
ATOM     34  H   UNL     1     -49.501  33.354  26.206  1.00  0.00     0.029 H 
ATOM     35  C   UNL     1     -46.260  32.614  26.536  1.00  0.00     0.101 C 
ATOM     36  H   UNL     1     -45.942  34.591  25.719  1.00  0.00     0.063 H 
ATOM     37  H   UNL     1     -48.128  31.524  26.593  1.00  0.00     0.056 H 
ATOM     38  H   UNL     1     -45.393  32.260  25.971  1.00  0.00     0.065 H 
BRANCH  30  39
ATOM     39  O   UNL     1     -45.442  34.578  27.721  1.00  0.00    -0.390 OA
ATOM     40  H   UNL     1     -45.504  35.549  27.749  1.00  0.00     0.211 HD
ENDBRANCH  30  39
BRANCH  32  41
ATOM     41  N   UNL     1     -47.567  31.609  24.621  1.00  0.00    -0.327 N 
ATOM     42  C   UNL     1     -46.423  31.515  23.861  1.00  0.00     0.007 A 
ATOM     43  C   UNL     1     -48.607  31.005  23.956  1.00  0.00     0.145 A 
ATOM     44  C   UNL     1     -46.741  30.857  22.692  1.00  0.00    -0.031 A 
ATOM     45  H   UNL     1     -45.485  31.933  24.205  1.00  0.00     0.082 H 
ATOM     46  C   UNL     1     -48.123  30.529  22.743  1.00  0.00     0.061 A 
ATOM     47  N   UNL     1     -49.871  30.901  24.401  1.00  0.00    -0.218 NA
ATOM     48  H   UNL     1     -46.055  30.642  21.884  1.00  0.00     0.065 H 
ATOM     49  C   UNL     1     -49.044  29.885  21.905  1.00  0.00     0.136 A 
ATOM     50  C   UNL     1     -50.662  30.284  23.505  1.00  0.00     0.120 A 
ATOM     51  N   UNL     1     -50.322  29.767  22.310  1.00  0.00    -0.219 NA
ATOM     52  H   UNL     1     -51.708  30.186  23.781  1.00  0.00     0.106 H 
BRANCH  49  53
ATOM     53  N   UNL     1     -48.712  29.341  20.673  1.00  0.00    -0.383 N 
ATOM     54  H   UNL     1     -47.835  28.838  20.725  1.00  0.00     0.158 HD
ATOM     55  H   UNL     1     -48.835  29.961  19.884  1.00  0.00     0.158 HD
ENDBRANCH  49  53
ENDBRANCH  32  41
BRANCH  35  56
ATOM     56  O   UNL     1     -46.155  32.043  27.853  1.00  0.00    -0.388 OA
ATOM     57  H   UNL     1     -47.072  31.770  28.071  1.00  0.00     0.211 HD
ENDBRANCH  35  56
ENDBRANCH  25  28
ENDBRANCH   1  25
TORSDOF 9
ENDMDL
MODEL 4
REMARK VINA RESULT:      -9.4      2.034     10.553
REMARK SMILES CNc1ccc2cc(CC[C@H]3C[C@@H](n4ccc5c(N)ncnc54)[C@H](O)[C@@H]3O)ccc2n1
REMARK SMILES IDX 9 1 8 4 3 5 4 6 31 7 5 8 30 10 6 11 29 13 7 14 28 15 2 19
REMARK SMILES IDX 1 21 10 25 11 28 12 29 26 30 13 32 24 35 27 39 14 41 15 42
REMARK SMILES IDX 23 43 16 44 17 46 22 47 18 49 21 50 20 51 19 53 25 56
REMARK H PARENT 9 2 9 3 4 9 5 12 29 16 7 17 28 18 2 20 1 22 1 23 1 24 10 26
REMARK H PARENT 10 27 11 31 12 33 12 34 26 36 13 37 24 38 27 40 15 45 16 48
REMARK H PARENT 21 52 19 54 19 55 25 57
REMARK Flexibility Score: inf
ROOT
ATOM      1  C   UNL     1     -47.233  37.529  28.149  1.00  0.00    -0.028 C 
ATOM      2  H   UNL     1     -46.647  36.933  28.864  1.00  0.00     0.032 H 
ATOM      3  H   UNL     1     -48.081  37.913  28.726  1.00  0.00     0.032 H 
ENDROOT
BRANCH   1   4
ATOM      4  C   UNL     1     -46.342  38.659  27.700  1.00  0.00    -0.047 A 
ATOM      5  C   UNL     1     -42.833  42.161  27.081  1.00  0.00     0.126 A 
ATOM      6  C   UNL     1     -42.431  41.480  28.221  1.00  0.00    -0.019 A 
ATOM      7  N   UNL     1     -43.943  41.828  26.397  1.00  0.00    -0.231 NA
ATOM      8  C   UNL     1     -43.210  40.426  28.686  1.00  0.00    -0.049 A 
ATOM      9  H   UNL     1     -41.513  41.747  28.733  1.00  0.00     0.066 H 
ATOM     10  C   UNL     1     -44.699  40.810  26.843  1.00  0.00     0.073 A 
ATOM     11  C   UNL     1     -44.371  40.070  27.995  1.00  0.00     0.001 A 
ATOM     12  H   UNL     1     -42.901  39.887  29.577  1.00  0.00     0.063 H 
ATOM     13  C   UNL     1     -45.852  40.466  26.155  1.00  0.00    -0.035 A 
ATOM     14  C   UNL     1     -45.193  39.010  28.420  1.00  0.00    -0.050 A 
ATOM     15  C   UNL     1     -46.673  39.411  26.570  1.00  0.00    -0.057 A 
ATOM     16  H   UNL     1     -46.122  41.036  25.269  1.00  0.00     0.065 H 
ATOM     17  H   UNL     1     -44.935  38.462  29.324  1.00  0.00     0.063 H 
ATOM     18  H   UNL     1     -47.567  39.180  25.994  1.00  0.00     0.063 H 
BRANCH   5  19
ATOM     19  N   UNL     1     -42.091  43.217  26.546  1.00  0.00    -0.373 N 
ATOM     20  H   UNL     1     -41.378  42.750  25.985  1.00  0.00     0.161 HD
BRANCH  19  21
ATOM     21  C   UNL     1     -42.872  44.143  25.743  1.00  0.00     0.005 C 
ATOM     22  H   UNL     1     -43.081  43.683  24.772  1.00  0.00     0.045 H 
ATOM     23  H   UNL     1     -42.328  45.073  25.552  1.00  0.00     0.045 H 
ATOM     24  H   UNL     1     -43.833  44.374  26.217  1.00  0.00     0.045 H 
ENDBRANCH  19  21
ENDBRANCH   5  19
ENDBRANCH   1   4
BRANCH   1  25
ATOM     25  C   UNL     1     -47.728  36.592  27.040  1.00  0.00    -0.044 C 
ATOM     26  H   UNL     1     -48.810  36.708  26.903  1.00  0.00     0.027 H 
ATOM     27  H   UNL     1     -47.275  36.946  26.103  1.00  0.00     0.027 H 
BRANCH  25  28
ATOM     28  C   UNL     1     -47.408  35.094  27.146  1.00  0.00    -0.010 C 
ATOM     29  C   UNL     1     -48.109  34.189  26.132  1.00  0.00    -0.024 C 
ATOM     30  C   UNL     1     -45.949  34.666  26.994  1.00  0.00     0.085 C 
ATOM     31  H   UNL     1     -47.741  34.802  28.152  1.00  0.00     0.033 H 
ATOM     32  C   UNL     1     -47.395  32.828  26.283  1.00  0.00     0.064 C 
ATOM     33  H   UNL     1     -48.013  34.575  25.113  1.00  0.00     0.029 H 
ATOM     34  H   UNL     1     -49.180  34.099  26.347  1.00  0.00     0.029 H 
ATOM     35  C   UNL     1     -46.044  33.130  26.971  1.00  0.00     0.101 C 
ATOM     36  H   UNL     1     -45.504  35.015  26.059  1.00  0.00     0.063 H 
ATOM     37  H   UNL     1     -47.997  32.197  26.952  1.00  0.00     0.056 H 
ATOM     38  H   UNL     1     -45.172  32.670  26.498  1.00  0.00     0.065 H 
BRANCH  30  39
ATOM     39  O   UNL     1     -45.152  35.099  28.090  1.00  0.00    -0.390 OA
ATOM     40  H   UNL     1     -44.787  35.967  27.842  1.00  0.00     0.211 HD
ENDBRANCH  30  39
BRANCH  32  41
ATOM     41  N   UNL     1     -47.290  32.102  25.028  1.00  0.00    -0.327 N 
ATOM     42  C   UNL     1     -46.111  31.897  24.347  1.00  0.00     0.007 A 
ATOM     43  C   UNL     1     -48.321  31.507  24.341  1.00  0.00     0.145 A 
ATOM     44  C   UNL     1     -46.397  31.177  23.207  1.00  0.00    -0.031 A 
ATOM     45  H   UNL     1     -45.173  32.289  24.720  1.00  0.00     0.082 H 
ATOM     46  C   UNL     1     -47.796  30.925  23.194  1.00  0.00     0.061 A 
ATOM     47  N   UNL     1     -49.613  31.499  24.714  1.00  0.00    -0.218 NA
ATOM     48  H   UNL     1     -45.678  30.871  22.458  1.00  0.00     0.065 H 
ATOM     49  C   UNL     1     -48.701  30.271  22.346  1.00  0.00     0.136 A 
ATOM     50  C   UNL     1     -50.384  30.862  23.814  1.00  0.00     0.120 A 
ATOM     51  N   UNL     1     -50.005  30.247  22.679  1.00  0.00    -0.219 NA
ATOM     52  H   UNL     1     -51.448  30.838  24.031  1.00  0.00     0.106 H 
BRANCH  49  53
ATOM     53  N   UNL     1     -48.329  29.627  21.175  1.00  0.00    -0.383 N 
ATOM     54  H   UNL     1     -47.334  29.724  21.011  1.00  0.00     0.158 HD
ATOM     55  H   UNL     1     -48.939  29.789  20.385  1.00  0.00     0.158 HD
ENDBRANCH  49  53
ENDBRANCH  32  41
BRANCH  35  56
ATOM     56  O   UNL     1     -46.083  32.644  28.326  1.00  0.00    -0.388 OA
ATOM     57  H   UNL     1     -45.767  31.717  28.258  1.00  0.00     0.211 HD
ENDBRANCH  35  56
ENDBRANCH  25  28
ENDBRANCH   1  25
TORSDOF 9
ENDMDL
MODEL 5
REMARK VINA RESULT:      -9.3      1.618      2.594
REMARK SMILES CNc1ccc2cc(CC[C@H]3C[C@@H](n4ccc5c(N)ncnc54)[C@H](O)[C@@H]3O)ccc2n1
REMARK SMILES IDX 9 1 8 4 3 5 4 6 31 7 5 8 30 10 6 11 29 13 7 14 28 15 2 19
REMARK SMILES IDX 1 21 10 25 11 28 12 29 26 30 13 32 24 35 27 39 14 41 15 42
REMARK SMILES IDX 23 43 16 44 17 46 22 47 18 49 21 50 20 51 19 53 25 56
REMARK H PARENT 9 2 9 3 4 9 5 12 29 16 7 17 28 18 2 20 1 22 1 23 1 24 10 26
REMARK H PARENT 10 27 11 31 12 33 12 34 26 36 13 37 24 38 27 40 15 45 16 48
REMARK H PARENT 21 52 19 54 19 55 25 57
REMARK Flexibility Score: inf
ROOT
ATOM      1  C   UNL     1     -46.428  33.477  25.261  1.00  0.00    -0.028 C 
ATOM      2  H   UNL     1     -45.374  33.619  24.982  1.00  0.00     0.032 H 
ATOM      3  H   UNL     1     -46.948  34.358  24.871  1.00  0.00     0.032 H 
ENDROOT
BRANCH   1   4
ATOM      4  C   UNL     1     -46.895  32.231  24.552  1.00  0.00    -0.047 A 
ATOM      5  C   UNL     1     -49.325  28.239  22.783  1.00  0.00     0.126 A 
ATOM      6  C   UNL     1     -50.233  28.828  23.651  1.00  0.00    -0.019 A 
ATOM      7  N   UNL     1     -48.100  28.753  22.564  1.00  0.00    -0.231 NA
ATOM      8  C   UNL     1     -49.861  29.981  24.334  1.00  0.00    -0.049 A 
ATOM      9  H   UNL     1     -51.226  28.413  23.782  1.00  0.00     0.066 H 
ATOM     10  C   UNL     1     -47.737  29.868  23.222  1.00  0.00     0.073 A 
ATOM     11  C   UNL     1     -48.591  30.526  24.128  1.00  0.00     0.001 A 
ATOM     12  H   UNL     1     -50.568  30.449  25.014  1.00  0.00     0.063 H 
ATOM     13  C   UNL     1     -46.474  30.400  23.016  1.00  0.00    -0.035 A 
ATOM     14  C   UNL     1     -48.166  31.692  24.790  1.00  0.00    -0.050 A 
ATOM     15  C   UNL     1     -46.045  31.561  23.669  1.00  0.00    -0.057 A 
ATOM     16  H   UNL     1     -45.801  29.895  22.327  1.00  0.00     0.065 H 
ATOM     17  H   UNL     1     -48.832  32.177  25.502  1.00  0.00     0.063 H 
ATOM     18  H   UNL     1     -45.044  31.938  23.471  1.00  0.00     0.063 H 
BRANCH   5  19
ATOM     19  N   UNL     1     -49.635  27.092  22.049  1.00  0.00    -0.373 N 
ATOM     20  H   UNL     1     -49.647  26.353  22.752  1.00  0.00     0.161 HD
BRANCH  19  21
ATOM     21  C   UNL     1     -50.901  27.167  21.339  1.00  0.00     0.005 C 
ATOM     22  H   UNL     1     -50.702  27.332  20.275  1.00  0.00     0.045 H 
ATOM     23  H   UNL     1     -51.514  28.003  21.690  1.00  0.00     0.045 H 
ATOM     24  H   UNL     1     -51.469  26.235  21.431  1.00  0.00     0.045 H 
ENDBRANCH  19  21
ENDBRANCH   5  19
ENDBRANCH   1   4
BRANCH   1  25
ATOM     25  C   UNL     1     -46.516  33.443  26.792  1.00  0.00    -0.044 C 
ATOM     26  H   UNL     1     -47.179  32.629  27.113  1.00  0.00     0.027 H 
ATOM     27  H   UNL     1     -45.517  33.169  27.159  1.00  0.00     0.027 H 
BRANCH  25  28
ATOM     28  C   UNL     1     -46.922  34.724  27.533  1.00  0.00    -0.010 C 
ATOM     29  C   UNL     1     -45.807  35.747  27.756  1.00  0.00    -0.024 C 
ATOM     30  C   UNL     1     -48.021  35.586  26.915  1.00  0.00     0.085 C 
ATOM     31  H   UNL     1     -47.274  34.384  28.518  1.00  0.00     0.033 H 
ATOM     32  C   UNL     1     -46.547  37.012  28.244  1.00  0.00     0.064 C 
ATOM     33  H   UNL     1     -45.252  35.945  26.834  1.00  0.00     0.029 H 
ATOM     34  H   UNL     1     -45.085  35.399  28.503  1.00  0.00     0.029 H 
ATOM     35  C   UNL     1     -48.021  36.837  27.812  1.00  0.00     0.101 C 
ATOM     36  H   UNL     1     -47.798  35.878  25.886  1.00  0.00     0.063 H 
ATOM     37  H   UNL     1     -46.503  37.033  29.341  1.00  0.00     0.056 H 
ATOM     38  H   UNL     1     -48.461  37.703  27.310  1.00  0.00     0.065 H 
BRANCH  30  39
ATOM     39  O   UNL     1     -49.289  34.941  26.960  1.00  0.00    -0.390 OA
ATOM     40  H   UNL     1     -49.890  35.472  26.407  1.00  0.00     0.211 HD
ENDBRANCH  30  39
BRANCH  32  41
ATOM     41  N   UNL     1     -45.921  38.244  27.790  1.00  0.00    -0.327 N 
ATOM     42  C   UNL     1     -46.288  38.925  26.652  1.00  0.00     0.007 A 
ATOM     43  C   UNL     1     -44.899  38.916  28.414  1.00  0.00     0.145 A 
ATOM     44  C   UNL     1     -45.480  40.036  26.541  1.00  0.00    -0.031 A 
ATOM     45  H   UNL     1     -47.080  38.559  26.010  1.00  0.00     0.082 H 
ATOM     46  C   UNL     1     -44.595  40.039  27.654  1.00  0.00     0.061 A 
ATOM     47  N   UNL     1     -44.295  38.546  29.556  1.00  0.00    -0.218 NA
ATOM     48  H   UNL     1     -45.515  40.764  25.740  1.00  0.00     0.065 H 
ATOM     49  C   UNL     1     -43.558  40.859  28.122  1.00  0.00     0.136 A 
ATOM     50  C   UNL     1     -43.307  39.396  29.893  1.00  0.00     0.120 A 
ATOM     51  N   UNL     1     -42.922  40.519  29.259  1.00  0.00    -0.219 NA
ATOM     52  H   UNL     1     -42.752  39.148  30.792  1.00  0.00     0.106 H 
BRANCH  49  53
ATOM     53  N   UNL     1     -43.150  42.022  27.486  1.00  0.00    -0.383 N 
ATOM     54  H   UNL     1     -42.142  42.112  27.512  1.00  0.00     0.158 HD
ATOM     55  H   UNL     1     -43.687  42.847  27.717  1.00  0.00     0.158 HD
ENDBRANCH  49  53
ENDBRANCH  32  41
BRANCH  35  56
ATOM     56  O   UNL     1     -48.829  36.578  28.975  1.00  0.00    -0.388 OA
ATOM     57  H   UNL     1     -49.749  36.720  28.665  1.00  0.00     0.211 HD
ENDBRANCH  35  56
ENDBRANCH  25  28
ENDBRANCH   1  25
TORSDOF 9
ENDMDL
MODEL 6
REMARK VINA RESULT:      -9.2      1.420      2.018
REMARK SMILES CNc1ccc2cc(CC[C@H]3C[C@@H](n4ccc5c(N)ncnc54)[C@H](O)[C@@H]3O)ccc2n1
REMARK SMILES IDX 9 1 8 4 3 5 4 6 31 7 5 8 30 10 6 11 29 13 7 14 28 15 2 19
REMARK SMILES IDX 1 21 10 25 11 28 12 29 26 30 13 32 24 35 27 39 14 41 15 42
REMARK SMILES IDX 23 43 16 44 17 46 22 47 18 49 21 50 20 51 19 53 25 56
REMARK H PARENT 9 2 9 3 4 9 5 12 29 16 7 17 28 18 2 20 1 22 1 23 1 24 10 26
REMARK H PARENT 10 27 11 31 12 33 12 34 26 36 13 37 24 38 27 40 15 45 16 48
REMARK H PARENT 21 52 19 54 19 55 25 57
REMARK Flexibility Score: inf
ROOT
ATOM      1  C   UNL     1     -45.825  34.882  27.620  1.00  0.00    -0.028 C 
ATOM      2  H   UNL     1     -45.086  34.268  28.154  1.00  0.00     0.032 H 
ATOM      3  H   UNL     1     -45.241  35.666  27.127  1.00  0.00     0.032 H 
ENDROOT
BRANCH   1   4
ATOM      4  C   UNL     1     -46.473  33.983  26.598  1.00  0.00    -0.047 A 
ATOM      5  C   UNL     1     -49.524  31.307  23.683  1.00  0.00     0.126 A 
ATOM      6  C   UNL     1     -50.383  31.991  24.531  1.00  0.00    -0.019 A 
ATOM      7  N   UNL     1     -48.187  31.445  23.748  1.00  0.00    -0.231 NA
ATOM      8  C   UNL     1     -49.846  32.837  25.496  1.00  0.00    -0.049 A 
ATOM      9  H   UNL     1     -51.458  31.888  24.434  1.00  0.00     0.066 H 
ATOM     10  C   UNL     1     -47.664  32.262  24.679  1.00  0.00     0.073 A 
ATOM     11  C   UNL     1     -48.460  32.988  25.586  1.00  0.00     0.001 A 
ATOM     12  H   UNL     1     -50.513  33.377  26.162  1.00  0.00     0.063 H 
ATOM     13  C   UNL     1     -46.287  32.403  24.765  1.00  0.00    -0.035 A 
ATOM     14  C   UNL     1     -47.865  33.833  26.540  1.00  0.00    -0.050 A 
ATOM     15  C   UNL     1     -45.688  33.245  25.710  1.00  0.00    -0.057 A 
ATOM     16  H   UNL     1     -45.660  31.840  24.078  1.00  0.00     0.065 H 
ATOM     17  H   UNL     1     -48.495  34.371  27.246  1.00  0.00     0.063 H 
ATOM     18  H   UNL     1     -44.603  33.321  25.735  1.00  0.00     0.063 H 
BRANCH   5  19
ATOM     19  N   UNL     1     -49.992  30.456  22.680  1.00  0.00    -0.373 N 
ATOM     20  H   UNL     1     -50.735  29.928  23.139  1.00  0.00     0.161 HD
BRANCH  19  21
ATOM     21  C   UNL     1     -50.486  31.146  21.500  1.00  0.00     0.005 C 
ATOM     22  H   UNL     1     -50.760  30.404  20.743  1.00  0.00     0.045 H 
ATOM     23  H   UNL     1     -49.722  31.794  21.059  1.00  0.00     0.045 H 
ATOM     24  H   UNL     1     -51.380  31.739  21.725  1.00  0.00     0.045 H 
ENDBRANCH  19  21
ENDBRANCH   5  19
ENDBRANCH   1   4
BRANCH   1  25
ATOM     25  C   UNL     1     -46.772  35.500  28.657  1.00  0.00    -0.044 C 
ATOM     26  H   UNL     1     -47.805  35.187  28.458  1.00  0.00     0.027 H 
ATOM     27  H   UNL     1     -46.513  35.052  29.627  1.00  0.00     0.027 H 
BRANCH  25  28
ATOM     28  C   UNL     1     -46.753  37.022  28.855  1.00  0.00    -0.010 C 
ATOM     29  C   UNL     1     -45.378  37.688  28.772  1.00  0.00    -0.024 C 
ATOM     30  C   UNL     1     -47.575  37.876  27.891  1.00  0.00     0.085 C 
ATOM     31  H   UNL     1     -47.148  37.182  29.869  1.00  0.00     0.033 H 
ATOM     32  C   UNL     1     -45.693  39.199  28.717  1.00  0.00     0.064 C 
ATOM     33  H   UNL     1     -44.828  37.366  27.883  1.00  0.00     0.029 H 
ATOM     34  H   UNL     1     -44.760  37.445  29.643  1.00  0.00     0.029 H 
ATOM     35  C   UNL     1     -47.170  39.311  28.275  1.00  0.00     0.101 C 
ATOM     36  H   UNL     1     -47.318  37.694  26.845  1.00  0.00     0.063 H 
ATOM     37  H   UNL     1     -45.599  39.606  29.733  1.00  0.00     0.056 H 
ATOM     38  H   UNL     1     -47.357  40.021  27.464  1.00  0.00     0.065 H 
BRANCH  30  39
ATOM     39  O   UNL     1     -48.973  37.687  28.077  1.00  0.00    -0.390 OA
ATOM     40  H   UNL     1     -49.195  36.833  27.664  1.00  0.00     0.211 HD
ENDBRANCH  30  39
BRANCH  32  41
ATOM     41  N   UNL     1     -44.753  39.943  27.895  1.00  0.00    -0.327 N 
ATOM     42  C   UNL     1     -44.957  40.249  26.569  1.00  0.00     0.007 A 
ATOM     43  C   UNL     1     -43.545  40.459  28.301  1.00  0.00     0.145 A 
ATOM     44  C   UNL     1     -43.861  40.955  26.120  1.00  0.00    -0.031 A 
ATOM     45  H   UNL     1     -45.853  39.931  26.051  1.00  0.00     0.082 H 
ATOM     46  C   UNL     1     -42.960  41.093  27.211  1.00  0.00     0.061 A 
ATOM     47  N   UNL     1     -43.022  40.359  29.535  1.00  0.00    -0.218 NA
ATOM     48  H   UNL     1     -43.718  41.325  25.113  1.00  0.00     0.065 H 
ATOM     49  C   UNL     1     -41.704  41.679  27.421  1.00  0.00     0.136 A 
ATOM     50  C   UNL     1     -41.810  40.939  29.607  1.00  0.00     0.120 A 
ATOM     51  N   UNL     1     -41.141  41.594  28.641  1.00  0.00    -0.219 NA
ATOM     52  H   UNL     1     -41.309  40.876  30.568  1.00  0.00     0.106 H 
BRANCH  49  53
ATOM     53  N   UNL     1     -41.001  42.362  26.440  1.00  0.00    -0.383 N 
ATOM     54  H   UNL     1     -40.002  42.252  26.569  1.00  0.00     0.158 HD
ATOM     55  H   UNL     1     -41.335  43.296  26.246  1.00  0.00     0.158 HD
ENDBRANCH  49  53
ENDBRANCH  32  41
BRANCH  35  56
ATOM     56  O   UNL     1     -47.969  39.739  29.392  1.00  0.00    -0.388 OA
ATOM     57  H   UNL     1     -47.373  40.329  29.903  1.00  0.00     0.211 HD
ENDBRANCH  35  56
ENDBRANCH  25  28
ENDBRANCH   1  25
TORSDOF 9
ENDMDL
MODEL 7
REMARK VINA RESULT:      -9.2      2.025      9.815
REMARK SMILES CNc1ccc2cc(CC[C@H]3C[C@@H](n4ccc5c(N)ncnc54)[C@H](O)[C@@H]3O)ccc2n1
REMARK SMILES IDX 9 1 8 4 3 5 4 6 31 7 5 8 30 10 6 11 29 13 7 14 28 15 2 19
REMARK SMILES IDX 1 21 10 25 11 28 12 29 26 30 13 32 24 35 27 39 14 41 15 42
REMARK SMILES IDX 23 43 16 44 17 46 22 47 18 49 21 50 20 51 19 53 25 56
REMARK H PARENT 9 2 9 3 4 9 5 12 29 16 7 17 28 18 2 20 1 22 1 23 1 24 10 26
REMARK H PARENT 10 27 11 31 12 33 12 34 26 36 13 37 24 38 27 40 15 45 16 48
REMARK H PARENT 21 52 19 54 19 55 25 57
REMARK Flexibility Score: inf
ROOT
ATOM      1  C   UNL     1     -43.861  38.329  30.550  1.00  0.00    -0.028 C 
ATOM      2  H   UNL     1     -43.154  37.508  30.367  1.00  0.00     0.032 H 
ATOM      3  H   UNL     1     -43.728  38.590  31.605  1.00  0.00     0.032 H 
ENDROOT
BRANCH   1   4
ATOM      4  C   UNL     1     -43.435  39.471  29.663  1.00  0.00    -0.047 A 
ATOM      5  C   UNL     1     -42.813  42.918  26.100  1.00  0.00     0.126 A 
ATOM      6  C   UNL     1     -43.913  42.189  25.674  1.00  0.00    -0.019 A 
ATOM      7  N   UNL     1     -42.166  42.642  27.248  1.00  0.00    -0.231 NA
ATOM      8  C   UNL     1     -44.356  41.122  26.449  1.00  0.00    -0.049 A 
ATOM      9  H   UNL     1     -44.436  42.454  24.762  1.00  0.00     0.066 H 
ATOM     10  C   UNL     1     -42.592  41.612  28.001  1.00  0.00     0.073 A 
ATOM     11  C   UNL     1     -43.694  40.814  27.641  1.00  0.00     0.001 A 
ATOM     12  H   UNL     1     -45.219  40.547  26.122  1.00  0.00     0.063 H 
ATOM     13  C   UNL     1     -41.926  41.310  29.179  1.00  0.00    -0.035 A 
ATOM     14  C   UNL     1     -44.103  39.749  28.464  1.00  0.00    -0.050 A 
ATOM     15  C   UNL     1     -42.330  40.253  30.005  1.00  0.00    -0.057 A 
ATOM     16  H   UNL     1     -41.067  41.912  29.463  1.00  0.00     0.065 H 
ATOM     17  H   UNL     1     -44.945  39.130  28.160  1.00  0.00     0.063 H 
ATOM     18  H   UNL     1     -41.774  40.058  30.920  1.00  0.00     0.063 H 
BRANCH   5  19
ATOM     19  N   UNL     1     -42.324  44.012  25.383  1.00  0.00    -0.373 N 
ATOM     20  H   UNL     1     -41.557  44.357  25.962  1.00  0.00     0.161 HD
BRANCH  19  21
ATOM     21  C   UNL     1     -41.867  43.686  24.043  1.00  0.00     0.005 C 
ATOM     22  H   UNL     1     -42.729  43.390  23.436  1.00  0.00     0.045 H 
ATOM     23  H   UNL     1     -41.167  42.844  24.046  1.00  0.00     0.045 H 
ATOM     24  H   UNL     1     -41.397  44.548  23.557  1.00  0.00     0.045 H 
ENDBRANCH  19  21
ENDBRANCH   5  19
ENDBRANCH   1   4
BRANCH   1  25
ATOM     25  C   UNL     1     -45.281  37.797  30.312  1.00  0.00    -0.044 C 
ATOM     26  H   UNL     1     -45.401  36.816  30.788  1.00  0.00     0.027 H 
ATOM     27  H   UNL     1     -45.964  38.469  30.850  1.00  0.00     0.027 H 
BRANCH  25  28
ATOM     28  C   UNL     1     -45.799  37.706  28.870  1.00  0.00    -0.010 C 
ATOM     29  C   UNL     1     -45.930  36.294  28.296  1.00  0.00    -0.024 C 
ATOM     30  C   UNL     1     -47.175  38.297  28.569  1.00  0.00     0.085 C 
ATOM     31  H   UNL     1     -45.059  38.251  28.266  1.00  0.00     0.033 H 
ATOM     32  C   UNL     1     -46.724  36.490  26.986  1.00  0.00     0.064 C 
ATOM     33  H   UNL     1     -46.460  35.628  28.984  1.00  0.00     0.029 H 
ATOM     34  H   UNL     1     -44.949  35.846  28.101  1.00  0.00     0.029 H 
ATOM     35  C   UNL     1     -47.423  37.862  27.113  1.00  0.00     0.101 C 
ATOM     36  H   UNL     1     -47.958  37.884  29.209  1.00  0.00     0.063 H 
ATOM     37  H   UNL     1     -46.006  36.537  26.155  1.00  0.00     0.056 H 
ATOM     38  H   UNL     1     -48.487  37.863  26.859  1.00  0.00     0.065 H 
BRANCH  30  39
ATOM     39  O   UNL     1     -47.176  39.716  28.672  1.00  0.00    -0.390 OA
ATOM     40  H   UNL     1     -47.307  39.926  29.614  1.00  0.00     0.211 HD
ENDBRANCH  30  39
BRANCH  32  41
ATOM     41  N   UNL     1     -47.612  35.378  26.691  1.00  0.00    -0.327 N 
ATOM     42  C   UNL     1     -48.945  35.339  27.032  1.00  0.00     0.007 A 
ATOM     43  C   UNL     1     -47.278  34.220  26.030  1.00  0.00     0.145 A 
ATOM     44  C   UNL     1     -49.462  34.138  26.597  1.00  0.00    -0.031 A 
ATOM     45  H   UNL     1     -49.411  36.159  27.566  1.00  0.00     0.082 H 
ATOM     46  C   UNL     1     -48.413  33.421  25.960  1.00  0.00     0.061 A 
ATOM     47  N   UNL     1     -46.062  33.915  25.543  1.00  0.00    -0.218 NA
ATOM     48  H   UNL     1     -50.484  33.806  26.730  1.00  0.00     0.065 H 
ATOM     49  C   UNL     1     -48.273  32.179  25.326  1.00  0.00     0.136 A 
ATOM     50  C   UNL     1     -46.048  32.694  24.978  1.00  0.00     0.120 A 
ATOM     51  N   UNL     1     -47.070  31.831  24.832  1.00  0.00    -0.219 NA
ATOM     52  H   UNL     1     -45.091  32.363  24.585  1.00  0.00     0.106 H 
BRANCH  49  53
ATOM     53  N   UNL     1     -49.315  31.278  25.161  1.00  0.00    -0.383 N 
ATOM     54  H   UNL     1     -49.012  30.335  25.371  1.00  0.00     0.158 HD
ATOM     55  H   UNL     1     -49.861  31.405  24.320  1.00  0.00     0.158 HD
ENDBRANCH  49  53
ENDBRANCH  32  41
BRANCH  35  56
ATOM     56  O   UNL     1     -46.787  38.803  26.229  1.00  0.00    -0.388 OA
ATOM     57  H   UNL     1     -45.827  38.675  26.391  1.00  0.00     0.211 HD
ENDBRANCH  35  56
ENDBRANCH  25  28
ENDBRANCH   1  25
TORSDOF 9
ENDMDL
