MODEL 1
REMARK VINA RESULT:     -11.0      0.000      0.000
REMARK SMILES O=C(NCc1ccc2c(F)c(CNCC3CCC3)[nH]c2c1)c1cc(=O)n2ccccc2n1
REMARK SMILES IDX 5 1 6 2 7 3 8 4 9 5 10 6 11 7 19 8 20 9 21 10 4 15 3 18 1 19
REMARK SMILES IDX 2 20 22 22 23 23 32 24 24 25 31 27 25 28 26 29 30 30 27 31
REMARK SMILES IDX 29 32 28 34 12 38 13 41 14 43 15 46 16 47 18 48 17 50
REMARK H PARENT 6 11 7 12 19 13 21 14 4 16 4 17 3 21 23 26 30 33 27 35 29 36
REMARK H PARENT 28 37 12 39 12 40 13 42 14 44 14 45 15 49 16 51 16 52 18 53
REMARK H PARENT 18 54 17 55 17 56
REMARK Flexibility Score: inf
ROOT
ATOM      1  C   UNL     1     -48.088  34.591  26.554  1.00  0.00    -0.027 A 
ATOM      2  C   UNL     1     -46.779  34.741  26.073  1.00  0.00    -0.056 A 
ATOM      3  C   UNL     1     -46.196  33.775  25.244  1.00  0.00    -0.050 A 
ATOM      4  C   UNL     1     -46.942  32.638  24.885  1.00  0.00     0.036 A 
ATOM      5  C   UNL     1     -46.695  31.493  24.095  1.00  0.00     0.153 A 
ATOM      6  F   UNL     1     -45.554  31.231  23.447  1.00  0.00    -0.204 F 
ATOM      7  C   UNL     1     -47.803  30.684  24.090  1.00  0.00     0.066 A 
ATOM      8  N   UNL     1     -48.746  31.323  24.865  1.00  0.00    -0.355 N 
ATOM      9  C   UNL     1     -48.246  32.507  25.363  1.00  0.00     0.049 A 
ATOM     10  C   UNL     1     -48.846  33.463  26.193  1.00  0.00    -0.033 A 
ATOM     11  H   UNL     1     -46.200  35.624  26.342  1.00  0.00     0.063 H 
ATOM     12  H   UNL     1     -45.180  33.905  24.880  1.00  0.00     0.063 H 
ATOM     13  H   UNL     1     -49.663  30.941  25.057  1.00  0.00     0.166 HD
ATOM     14  H   UNL     1     -49.864  33.335  26.546  1.00  0.00     0.065 H 
ENDROOT
BRANCH   1  15
ATOM     15  C   UNL     1     -48.692  35.663  27.428  1.00  0.00     0.043 C 
ATOM     16  H   UNL     1     -48.930  35.254  28.417  1.00  0.00     0.054 H 
ATOM     17  H   UNL     1     -49.629  36.028  26.993  1.00  0.00     0.054 H 
BRANCH  15  18
ATOM     18  N   UNL     1     -47.804  36.792  27.541  1.00  0.00    -0.347 N 
ATOM     19  O   UNL     1     -46.957  36.275  29.616  1.00  0.00    -0.268 OA
ATOM     20  C   UNL     1     -46.954  36.965  28.604  1.00  0.00     0.270 C 
ATOM     21  H   UNL     1     -47.619  37.363  26.723  1.00  0.00     0.164 HD
BRANCH  20  22
ATOM     22  C   UNL     1     -45.989  38.107  28.386  1.00  0.00     0.136 A 
ATOM     23  C   UNL     1     -46.219  38.886  27.327  1.00  0.00     0.035 A 
ATOM     24  N   UNL     1     -44.953  38.278  29.278  1.00  0.00    -0.225 NA
ATOM     25  C   UNL     1     -45.310  40.011  27.081  1.00  0.00     0.258 A 
ATOM     26  H   UNL     1     -47.039  38.743  26.635  1.00  0.00     0.071 H 
ATOM     27  C   UNL     1     -44.155  39.277  29.059  1.00  0.00     0.140 A 
ATOM     28  O   UNL     1     -45.512  40.732  26.105  1.00  0.00    -0.269 OA
ATOM     29  N   UNL     1     -44.279  40.166  27.996  1.00  0.00    -0.268 N 
ATOM     30  C   UNL     1     -43.022  39.504  30.000  1.00  0.00    -0.019 A 
ATOM     31  C   UNL     1     -43.377  41.212  27.831  1.00  0.00     0.014 A 
ATOM     32  C   UNL     1     -42.181  40.526  29.800  1.00  0.00    -0.057 A 
ATOM     33  H   UNL     1     -42.918  38.819  30.832  1.00  0.00     0.066 H 
ATOM     34  C   UNL     1     -42.362  41.410  28.680  1.00  0.00    -0.045 A 
ATOM     35  H   UNL     1     -43.534  41.868  26.978  1.00  0.00     0.082 H 
ATOM     36  H   UNL     1     -41.351  40.708  30.474  1.00  0.00     0.062 H 
ATOM     37  H   UNL     1     -41.666  42.231  28.542  1.00  0.00     0.064 H 
ENDBRANCH  20  22
ENDBRANCH  15  18
ENDBRANCH   1  15
BRANCH   7  38
ATOM     38  C   UNL     1     -48.074  29.392  23.417  1.00  0.00     0.039 C 
ATOM     39  H   UNL     1     -47.573  29.367  22.441  1.00  0.00     0.050 H 
ATOM     40  H   UNL     1     -49.154  29.305  23.247  1.00  0.00     0.050 H 
BRANCH  38  41
ATOM     41  N   UNL     1     -47.599  28.294  24.262  1.00  0.00    -0.311 NA
ATOM     42  H   UNL     1     -46.953  27.733  23.705  1.00  0.00     0.123 HD
BRANCH  41  43
ATOM     43  C   UNL     1     -48.718  27.444  24.678  1.00  0.00    -0.002 C 
ATOM     44  H   UNL     1     -49.347  27.984  25.396  1.00  0.00     0.043 H 
ATOM     45  H   UNL     1     -49.342  27.187  23.813  1.00  0.00     0.043 H 
BRANCH  43  46
ATOM     46  C   UNL     1     -48.185  26.182  25.344  1.00  0.00    -0.029 C 
ATOM     47  C   UNL     1     -46.641  26.090  25.476  1.00  0.00    -0.049 C 
ATOM     48  C   UNL     1     -48.228  26.116  26.896  1.00  0.00    -0.049 C 
ATOM     49  H   UNL     1     -48.602  25.275  24.878  1.00  0.00     0.032 H 
ATOM     50  C   UNL     1     -46.871  25.386  26.829  1.00  0.00    -0.053 C 
ATOM     51  H   UNL     1     -46.132  27.057  25.567  1.00  0.00     0.027 H 
ATOM     52  H   UNL     1     -46.134  25.493  24.713  1.00  0.00     0.027 H 
ATOM     53  H   UNL     1     -48.178  27.090  27.394  1.00  0.00     0.027 H 
ATOM     54  H   UNL     1     -49.053  25.539  27.323  1.00  0.00     0.027 H 
ATOM     55  H   UNL     1     -46.158  25.633  27.621  1.00  0.00     0.027 H 
ATOM     56  H   UNL     1     -46.958  24.297  26.750  1.00  0.00     0.027 H 
ENDBRANCH  43  46
ENDBRANCH  41  43
ENDBRANCH  38  41
ENDBRANCH   7  38
TORSDOF 7
ENDMDL
MODEL 2
REMARK VINA RESULT:     -10.4      1.761      2.493
REMARK SMILES O=C(NCc1ccc2c(F)c(CNCC3CCC3)[nH]c2c1)c1cc(=O)n2ccccc2n1
REMARK SMILES IDX 5 1 6 2 7 3 8 4 9 5 10 6 11 7 19 8 20 9 21 10 4 15 3 18 1 19
REMARK SMILES IDX 2 20 22 22 23 23 32 24 24 25 31 27 25 28 26 29 30 30 27 31
REMARK SMILES IDX 29 32 28 34 12 38 13 41 14 43 15 46 16 47 18 48 17 50
REMARK H PARENT 6 11 7 12 19 13 21 14 4 16 4 17 3 21 23 26 30 33 27 35 29 36
REMARK H PARENT 28 37 12 39 12 40 13 42 14 44 14 45 15 49 16 51 16 52 18 53
REMARK H PARENT 18 54 17 55 17 56
REMARK Flexibility Score: inf
ROOT
ATOM      1  C   UNL     1     -47.805  35.589  26.778  1.00  0.00    -0.027 A 
ATOM      2  C   UNL     1     -46.569  35.434  26.134  1.00  0.00    -0.056 A 
ATOM      3  C   UNL     1     -46.228  34.236  25.494  1.00  0.00    -0.050 A 
ATOM      4  C   UNL     1     -47.149  33.173  25.495  1.00  0.00     0.036 A 
ATOM      5  C   UNL     1     -47.155  31.861  24.971  1.00  0.00     0.153 A 
ATOM      6  F   UNL     1     -46.157  31.298  24.281  1.00  0.00    -0.204 F 
ATOM      7  C   UNL     1     -48.342  31.245  25.276  1.00  0.00     0.066 A 
ATOM      8  N   UNL     1     -49.082  32.169  25.979  1.00  0.00    -0.355 N 
ATOM      9  C   UNL     1     -48.379  33.345  26.130  1.00  0.00     0.049 A 
ATOM     10  C   UNL     1     -48.737  34.535  26.775  1.00  0.00    -0.033 A 
ATOM     11  H   UNL     1     -45.856  36.259  26.125  1.00  0.00     0.063 H 
ATOM     12  H   UNL     1     -45.266  34.132  25.002  1.00  0.00     0.063 H 
ATOM     13  H   UNL     1     -50.003  31.979  26.354  1.00  0.00     0.166 HD
ATOM     14  H   UNL     1     -49.703  34.640  27.257  1.00  0.00     0.065 H 
ENDROOT
BRANCH   1  15
ATOM     15  C   UNL     1     -48.147  36.902  27.439  1.00  0.00     0.043 C 
ATOM     16  H   UNL     1     -48.305  36.754  28.514  1.00  0.00     0.054 H 
ATOM     17  H   UNL     1     -49.078  37.306  27.027  1.00  0.00     0.054 H 
BRANCH  15  18
ATOM     18  N   UNL     1     -47.114  37.878  27.203  1.00  0.00    -0.347 N 
ATOM     19  O   UNL     1     -48.354  39.736  27.753  1.00  0.00    -0.268 OA
ATOM     20  C   UNL     1     -47.286  39.216  27.449  1.00  0.00     0.270 C 
ATOM     21  H   UNL     1     -46.157  37.567  27.071  1.00  0.00     0.164 HD
BRANCH  20  22
ATOM     22  C   UNL     1     -45.998  39.994  27.317  1.00  0.00     0.136 A 
ATOM     23  C   UNL     1     -45.073  39.776  28.254  1.00  0.00     0.035 A 
ATOM     24  N   UNL     1     -45.853  40.861  26.256  1.00  0.00    -0.225 NA
ATOM     25  C   UNL     1     -43.803  40.505  28.162  1.00  0.00     0.258 A 
ATOM     26  H   UNL     1     -45.198  39.090  29.082  1.00  0.00     0.071 H 
ATOM     27  C   UNL     1     -44.726  41.500  26.176  1.00  0.00     0.140 A 
ATOM     28  O   UNL     1     -42.947  40.314  29.023  1.00  0.00    -0.269 OA
ATOM     29  N   UNL     1     -43.679  41.368  27.082  1.00  0.00    -0.268 N 
ATOM     30  C   UNL     1     -44.522  42.446  25.042  1.00  0.00    -0.019 A 
ATOM     31  C   UNL     1     -42.503  42.093  26.925  1.00  0.00     0.014 A 
ATOM     32  C   UNL     1     -43.372  43.120  24.933  1.00  0.00    -0.057 A 
ATOM     33  H   UNL     1     -45.331  42.554  24.331  1.00  0.00     0.066 H 
ATOM     34  C   UNL     1     -42.327  42.940  25.904  1.00  0.00    -0.045 A 
ATOM     35  H   UNL     1     -41.726  41.940  27.671  1.00  0.00     0.082 H 
ATOM     36  H   UNL     1     -43.204  43.813  24.115  1.00  0.00     0.062 H 
ATOM     37  H   UNL     1     -41.404  43.500  25.792  1.00  0.00     0.064 H 
ENDBRANCH  20  22
ENDBRANCH  15  18
ENDBRANCH   1  15
BRANCH   7  38
ATOM     38  C   UNL     1     -48.858  29.893  24.957  1.00  0.00     0.039 C 
ATOM     39  H   UNL     1     -48.372  29.512  24.050  1.00  0.00     0.050 H 
ATOM     40  H   UNL     1     -49.935  29.966  24.760  1.00  0.00     0.050 H 
BRANCH  38  41
ATOM     41  N   UNL     1     -48.604  28.995  26.085  1.00  0.00    -0.311 NA
ATOM     42  H   UNL     1     -47.606  29.040  26.297  1.00  0.00     0.123 HD
BRANCH  41  43
ATOM     43  C   UNL     1     -48.947  27.614  25.733  1.00  0.00    -0.002 C 
ATOM     44  H   UNL     1     -50.021  27.450  25.881  1.00  0.00     0.043 H 
ATOM     45  H   UNL     1     -48.722  27.425  24.676  1.00  0.00     0.043 H 
BRANCH  43  46
ATOM     46  C   UNL     1     -48.174  26.650  26.622  1.00  0.00    -0.029 C 
ATOM     47  C   UNL     1     -48.673  25.179  26.616  1.00  0.00    -0.049 C 
ATOM     48  C   UNL     1     -46.826  26.097  26.081  1.00  0.00    -0.049 C 
ATOM     49  H   UNL     1     -48.081  27.036  27.649  1.00  0.00     0.032 H 
ATOM     50  C   UNL     1     -47.195  24.754  26.743  1.00  0.00    -0.053 C 
ATOM     51  H   UNL     1     -49.140  24.860  25.677  1.00  0.00     0.027 H 
ATOM     52  H   UNL     1     -49.320  24.894  27.450  1.00  0.00     0.027 H 
ATOM     53  H   UNL     1     -46.763  26.043  24.988  1.00  0.00     0.027 H 
ATOM     54  H   UNL     1     -45.926  26.582  26.467  1.00  0.00     0.027 H 
ATOM     55  H   UNL     1     -46.909  23.855  26.190  1.00  0.00     0.027 H 
ATOM     56  H   UNL     1     -46.851  24.663  27.779  1.00  0.00     0.027 H 
ENDBRANCH  43  46
ENDBRANCH  41  43
ENDBRANCH  38  41
ENDBRANCH   7  38
TORSDOF 7
ENDMDL
MODEL 3
REMARK VINA RESULT:     -10.1      1.693      2.250
REMARK SMILES O=C(NCc1ccc2c(F)c(CNCC3CCC3)[nH]c2c1)c1cc(=O)n2ccccc2n1
REMARK SMILES IDX 5 1 6 2 7 3 8 4 9 5 10 6 11 7 19 8 20 9 21 10 4 15 3 18 1 19
REMARK SMILES IDX 2 20 22 22 23 23 32 24 24 25 31 27 25 28 26 29 30 30 27 31
REMARK SMILES IDX 29 32 28 34 12 38 13 41 14 43 15 46 16 47 18 48 17 50
REMARK H PARENT 6 11 7 12 19 13 21 14 4 16 4 17 3 21 23 26 30 33 27 35 29 36
REMARK H PARENT 28 37 12 39 12 40 13 42 14 44 14 45 15 49 16 51 16 52 18 53
REMARK H PARENT 18 54 17 55 17 56
REMARK Flexibility Score: inf
ROOT
ATOM      1  C   UNL     1     -46.498  34.428  27.103  1.00  0.00    -0.027 A 
ATOM      2  C   UNL     1     -47.893  34.454  26.967  1.00  0.00    -0.056 A 
ATOM      3  C   UNL     1     -48.552  33.603  26.071  1.00  0.00    -0.050 A 
ATOM      4  C   UNL     1     -47.795  32.701  25.300  1.00  0.00     0.036 A 
ATOM      5  C   UNL     1     -48.099  31.725  24.327  1.00  0.00     0.153 A 
ATOM      6  F   UNL     1     -49.328  31.424  23.889  1.00  0.00    -0.204 F 
ATOM      7  C   UNL     1     -46.944  31.125  23.892  1.00  0.00     0.066 A 
ATOM      8  N   UNL     1     -45.920  31.716  24.598  1.00  0.00    -0.355 N 
ATOM      9  C   UNL     1     -46.409  32.679  25.454  1.00  0.00     0.049 A 
ATOM     10  C   UNL     1     -45.733  33.523  26.345  1.00  0.00    -0.033 A 
ATOM     11  H   UNL     1     -48.484  35.146  27.568  1.00  0.00     0.063 H 
ATOM     12  H   UNL     1     -49.633  33.636  25.976  1.00  0.00     0.063 H 
ATOM     13  H   UNL     1     -44.943  31.483  24.466  1.00  0.00     0.166 HD
ATOM     14  H   UNL     1     -44.654  33.479  26.445  1.00  0.00     0.065 H 
ENDROOT
BRANCH   1  15
ATOM     15  C   UNL     1     -45.824  35.345  28.095  1.00  0.00     0.043 C 
ATOM     16  H   UNL     1     -44.826  34.965  28.343  1.00  0.00     0.054 H 
ATOM     17  H   UNL     1     -46.397  35.387  29.028  1.00  0.00     0.054 H 
BRANCH  15  18
ATOM     18  N   UNL     1     -45.747  36.687  27.579  1.00  0.00    -0.347 N 
ATOM     19  O   UNL     1     -47.637  37.495  28.613  1.00  0.00    -0.268 OA
ATOM     20  C   UNL     1     -46.628  37.675  27.941  1.00  0.00     0.270 C 
ATOM     21  H   UNL     1     -44.897  36.994  27.116  1.00  0.00     0.164 HD
BRANCH  20  22
ATOM     22  C   UNL     1     -46.211  39.032  27.426  1.00  0.00     0.136 A 
ATOM     23  C   UNL     1     -47.189  39.827  26.986  1.00  0.00     0.035 A 
ATOM     24  N   UNL     1     -44.875  39.367  27.445  1.00  0.00    -0.225 NA
ATOM     25  C   UNL     1     -46.831  41.158  26.482  1.00  0.00     0.258 A 
ATOM     26  H   UNL     1     -48.236  39.553  26.978  1.00  0.00     0.071 H 
ATOM     27  C   UNL     1     -44.564  40.547  27.003  1.00  0.00     0.140 A 
ATOM     28  O   UNL     1     -47.725  41.896  26.071  1.00  0.00    -0.269 OA
ATOM     29  N   UNL     1     -45.480  41.474  26.518  1.00  0.00    -0.268 N 
ATOM     30  C   UNL     1     -43.130  40.955  27.009  1.00  0.00    -0.019 A 
ATOM     31  C   UNL     1     -45.063  42.719  26.060  1.00  0.00     0.014 A 
ATOM     32  C   UNL     1     -42.778  42.165  26.559  1.00  0.00    -0.057 A 
ATOM     33  H   UNL     1     -42.409  40.242  27.388  1.00  0.00     0.066 H 
ATOM     34  C   UNL     1     -43.774  43.078  26.068  1.00  0.00    -0.045 A 
ATOM     35  H   UNL     1     -45.834  43.393  25.693  1.00  0.00     0.082 H 
ATOM     36  H   UNL     1     -41.739  42.481  26.556  1.00  0.00     0.062 H 
ATOM     37  H   UNL     1     -43.460  44.053  25.709  1.00  0.00     0.064 H 
ENDBRANCH  20  22
ENDBRANCH  15  18
ENDBRANCH   1  15
BRANCH   7  38
ATOM     38  C   UNL     1     -46.708  30.046  22.905  1.00  0.00     0.039 C 
ATOM     39  H   UNL     1     -45.925  30.349  22.200  1.00  0.00     0.050 H 
ATOM     40  H   UNL     1     -47.632  29.882  22.337  1.00  0.00     0.050 H 
BRANCH  38  41
ATOM     41  N   UNL     1     -46.316  28.822  23.607  1.00  0.00    -0.311 NA
ATOM     42  H   UNL     1     -45.609  28.353  23.038  1.00  0.00     0.123 HD
BRANCH  41  43
ATOM     43  C   UNL     1     -47.465  27.925  23.759  1.00  0.00    -0.002 C 
ATOM     44  H   UNL     1     -48.396  28.498  23.679  1.00  0.00     0.043 H 
ATOM     45  H   UNL     1     -47.466  27.170  22.963  1.00  0.00     0.043 H 
BRANCH  43  46
ATOM     46  C   UNL     1     -47.416  27.254  25.126  1.00  0.00    -0.029 C 
ATOM     47  C   UNL     1     -48.537  26.219  25.410  1.00  0.00    -0.049 C 
ATOM     48  C   UNL     1     -46.414  26.082  25.315  1.00  0.00    -0.049 C 
ATOM     49  H   UNL     1     -47.343  27.997  25.936  1.00  0.00     0.032 H 
ATOM     50  C   UNL     1     -47.486  25.403  26.191  1.00  0.00    -0.053 C 
ATOM     51  H   UNL     1     -48.918  25.703  24.521  1.00  0.00     0.027 H 
ATOM     52  H   UNL     1     -49.383  26.585  25.998  1.00  0.00     0.027 H 
ATOM     53  H   UNL     1     -46.183  25.528  24.398  1.00  0.00     0.027 H 
ATOM     54  H   UNL     1     -45.479  26.334  25.824  1.00  0.00     0.027 H 
ATOM     55  H   UNL     1     -47.561  24.317  26.097  1.00  0.00     0.027 H 
ATOM     56  H   UNL     1     -47.423  25.668  27.253  1.00  0.00     0.027 H 
ENDBRANCH  43  46
ENDBRANCH  41  43
ENDBRANCH  38  41
ENDBRANCH   7  38
TORSDOF 7
ENDMDL
MODEL 4
REMARK VINA RESULT:     -10.1      1.800      2.601
REMARK SMILES O=C(NCc1ccc2c(F)c(CNCC3CCC3)[nH]c2c1)c1cc(=O)n2ccccc2n1
REMARK SMILES IDX 5 1 6 2 7 3 8 4 9 5 10 6 11 7 19 8 20 9 21 10 4 15 3 18 1 19
REMARK SMILES IDX 2 20 22 22 23 23 32 24 24 25 31 27 25 28 26 29 30 30 27 31
REMARK SMILES IDX 29 32 28 34 12 38 13 41 14 43 15 46 16 47 18 48 17 50
REMARK H PARENT 6 11 7 12 19 13 21 14 4 16 4 17 3 21 23 26 30 33 27 35 29 36
REMARK H PARENT 28 37 12 39 12 40 13 42 14 44 14 45 15 49 16 51 16 52 18 53
REMARK H PARENT 18 54 17 55 17 56
REMARK Flexibility Score: inf
ROOT
ATOM      1  C   UNL     1     -48.070  35.502  26.879  1.00  0.00    -0.027 A 
ATOM      2  C   UNL     1     -46.782  35.459  26.328  1.00  0.00    -0.056 A 
ATOM      3  C   UNL     1     -46.322  34.328  25.643  1.00  0.00    -0.050 A 
ATOM      4  C   UNL     1     -47.175  33.218  25.503  1.00  0.00     0.036 A 
ATOM      5  C   UNL     1     -47.063  31.947  24.899  1.00  0.00     0.153 A 
ATOM      6  F   UNL     1     -45.983  31.486  24.256  1.00  0.00    -0.204 F 
ATOM      7  C   UNL     1     -48.231  31.247  25.068  1.00  0.00     0.066 A 
ATOM      8  N   UNL     1     -49.077  32.079  25.767  1.00  0.00    -0.355 N 
ATOM      9  C   UNL     1     -48.458  33.279  26.048  1.00  0.00     0.049 A 
ATOM     10  C   UNL     1     -48.934  34.402  26.736  1.00  0.00    -0.033 A 
ATOM     11  H   UNL     1     -46.120  36.320  26.428  1.00  0.00     0.063 H 
ATOM     12  H   UNL     1     -45.320  34.310  25.223  1.00  0.00     0.063 H 
ATOM     13  H   UNL     1     -50.010  31.815  26.054  1.00  0.00     0.166 HD
ATOM     14  H   UNL     1     -49.939  34.421  27.145  1.00  0.00     0.065 H 
ENDROOT
BRANCH   1  15
ATOM     15  C   UNL     1     -48.540  36.747  27.592  1.00  0.00     0.043 C 
ATOM     16  H   UNL     1     -48.843  36.504  28.618  1.00  0.00     0.054 H 
ATOM     17  H   UNL     1     -49.414  37.171  27.087  1.00  0.00     0.054 H 
BRANCH  15  18
ATOM     18  N   UNL     1     -47.512  37.757  27.588  1.00  0.00    -0.347 N 
ATOM     19  O   UNL     1     -46.631  37.267  29.656  1.00  0.00    -0.268 OA
ATOM     20  C   UNL     1     -46.593  37.886  28.599  1.00  0.00     0.270 C 
ATOM     21  H   UNL     1     -47.299  38.246  26.726  1.00  0.00     0.164 HD
BRANCH  20  22
ATOM     22  C   UNL     1     -45.505  38.878  28.262  1.00  0.00     0.136 A 
ATOM     23  C   UNL     1     -45.590  39.471  27.069  1.00  0.00     0.035 A 
ATOM     24  N   UNL     1     -44.512  39.112  29.188  1.00  0.00    -0.225 NA
ATOM     25  C   UNL     1     -44.557  40.446  26.703  1.00  0.00     0.258 A 
ATOM     26  H   UNL     1     -46.377  39.280  26.352  1.00  0.00     0.071 H 
ATOM     27  C   UNL     1     -43.604  39.979  28.860  1.00  0.00     0.140 A 
ATOM     28  O   UNL     1     -44.625  40.995  25.604  1.00  0.00    -0.269 OA
ATOM     29  N   UNL     1     -43.572  40.669  27.653  1.00  0.00    -0.268 N 
ATOM     30  C   UNL     1     -42.511  40.268  29.832  1.00  0.00    -0.019 A 
ATOM     31  C   UNL     1     -42.559  41.583  27.379  1.00  0.00     0.014 A 
ATOM     32  C   UNL     1     -41.560  41.157  29.524  1.00  0.00    -0.057 A 
ATOM     33  H   UNL     1     -42.529  39.738  30.776  1.00  0.00     0.066 H 
ATOM     34  C   UNL     1     -41.582  41.837  28.257  1.00  0.00    -0.045 A 
ATOM     35  H   UNL     1     -42.596  42.085  26.415  1.00  0.00     0.082 H 
ATOM     36  H   UNL     1     -40.756  41.381  30.218  1.00  0.00     0.062 H 
ATOM     37  H   UNL     1     -40.797  42.553  28.032  1.00  0.00     0.064 H 
ENDBRANCH  20  22
ENDBRANCH  15  18
ENDBRANCH   1  15
BRANCH   7  38
ATOM     38  C   UNL     1     -48.639  29.893  24.624  1.00  0.00     0.039 C 
ATOM     39  H   UNL     1     -49.278  29.969  23.735  1.00  0.00     0.050 H 
ATOM     40  H   UNL     1     -49.225  29.424  25.424  1.00  0.00     0.050 H 
BRANCH  38  41
ATOM     41  N   UNL     1     -47.447  29.097  24.329  1.00  0.00    -0.311 NA
ATOM     42  H   UNL     1     -46.632  29.651  24.599  1.00  0.00     0.123 HD
BRANCH  41  43
ATOM     43  C   UNL     1     -47.362  28.809  22.894  1.00  0.00    -0.002 C 
ATOM     44  H   UNL     1     -46.346  29.012  22.535  1.00  0.00     0.043 H 
ATOM     45  H   UNL     1     -47.578  27.749  22.706  1.00  0.00     0.043 H 
BRANCH  43  46
ATOM     46  C   UNL     1     -48.340  29.694  22.133  1.00  0.00    -0.029 C 
ATOM     47  C   UNL     1     -47.704  30.695  21.131  1.00  0.00    -0.049 C 
ATOM     48  C   UNL     1     -49.066  29.073  20.908  1.00  0.00    -0.049 C 
ATOM     49  H   UNL     1     -49.038  30.202  22.817  1.00  0.00     0.032 H 
ATOM     50  C   UNL     1     -48.924  30.446  20.220  1.00  0.00    -0.053 C 
ATOM     51  H   UNL     1     -46.756  30.362  20.692  1.00  0.00     0.027 H 
ATOM     52  H   UNL     1     -47.586  31.720  21.493  1.00  0.00     0.027 H 
ATOM     53  H   UNL     1     -48.511  28.272  20.407  1.00  0.00     0.027 H 
ATOM     54  H   UNL     1     -50.092  28.738  21.085  1.00  0.00     0.027 H 
ATOM     55  H   UNL     1     -48.719  30.422  19.146  1.00  0.00     0.027 H 
ATOM     56  H   UNL     1     -49.762  31.125  20.411  1.00  0.00     0.027 H 
ENDBRANCH  43  46
ENDBRANCH  41  43
ENDBRANCH  38  41
ENDBRANCH   7  38
TORSDOF 7
ENDMDL
MODEL 5
REMARK VINA RESULT:     -10.0      2.151      3.422
REMARK SMILES O=C(NCc1ccc2c(F)c(CNCC3CCC3)[nH]c2c1)c1cc(=O)n2ccccc2n1
REMARK SMILES IDX 5 1 6 2 7 3 8 4 9 5 10 6 11 7 19 8 20 9 21 10 4 15 3 18 1 19
REMARK SMILES IDX 2 20 22 22 23 23 32 24 24 25 31 27 25 28 26 29 30 30 27 31
REMARK SMILES IDX 29 32 28 34 12 38 13 41 14 43 15 46 16 47 18 48 17 50
REMARK H PARENT 6 11 7 12 19 13 21 14 4 16 4 17 3 21 23 26 30 33 27 35 29 36
REMARK H PARENT 28 37 12 39 12 40 13 42 14 44 14 45 15 49 16 51 16 52 18 53
REMARK H PARENT 18 54 17 55 17 56
REMARK Flexibility Score: inf
ROOT
ATOM      1  C   UNL     1     -46.443  35.820  28.000  1.00  0.00    -0.027 A 
ATOM      2  C   UNL     1     -47.832  35.777  27.814  1.00  0.00    -0.056 A 
ATOM      3  C   UNL     1     -48.416  34.883  26.908  1.00  0.00    -0.050 A 
ATOM      4  C   UNL     1     -47.589  34.009  26.179  1.00  0.00     0.036 A 
ATOM      5  C   UNL     1     -47.811  33.005  25.210  1.00  0.00     0.153 A 
ATOM      6  F   UNL     1     -49.007  32.640  24.733  1.00  0.00    -0.204 F 
ATOM      7  C   UNL     1     -46.613  32.457  24.826  1.00  0.00     0.066 A 
ATOM      8  N   UNL     1     -45.644  33.106  25.558  1.00  0.00    -0.355 N 
ATOM      9  C   UNL     1     -46.210  34.056  26.382  1.00  0.00     0.049 A 
ATOM     10  C   UNL     1     -45.609  34.943  27.284  1.00  0.00    -0.033 A 
ATOM     11  H   UNL     1     -48.476  36.447  28.383  1.00  0.00     0.063 H 
ATOM     12  H   UNL     1     -49.493  34.863  26.774  1.00  0.00     0.063 H 
ATOM     13  H   UNL     1     -44.654  32.919  25.465  1.00  0.00     0.166 HD
ATOM     14  H   UNL     1     -44.533  34.953  27.423  1.00  0.00     0.065 H 
ENDROOT
BRANCH   1  15
ATOM     15  C   UNL     1     -45.850  36.782  29.001  1.00  0.00     0.043 C 
ATOM     16  H   UNL     1     -45.162  36.253  29.671  1.00  0.00     0.054 H 
ATOM     17  H   UNL     1     -46.638  37.219  29.624  1.00  0.00     0.054 H 
BRANCH  15  18
ATOM     18  N   UNL     1     -45.180  37.867  28.332  1.00  0.00    -0.347 N 
ATOM     19  O   UNL     1     -46.926  39.364  28.410  1.00  0.00    -0.268 OA
ATOM     20  C   UNL     1     -45.757  39.099  28.155  1.00  0.00     0.270 C 
ATOM     21  H   UNL     1     -44.178  37.818  28.185  1.00  0.00     0.164 HD
BRANCH  20  22
ATOM     22  C   UNL     1     -44.780  40.117  27.614  1.00  0.00     0.136 A 
ATOM     23  C   UNL     1     -43.691  40.346  28.351  1.00  0.00     0.035 A 
ATOM     24  N   UNL     1     -45.061  40.733  26.414  1.00  0.00    -0.225 NA
ATOM     25  C   UNL     1     -42.712  41.323  27.861  1.00  0.00     0.258 A 
ATOM     26  H   UNL     1     -43.481  39.854  29.292  1.00  0.00     0.071 H 
ATOM     27  C   UNL     1     -44.190  41.592  25.983  1.00  0.00     0.140 A 
ATOM     28  O   UNL     1     -41.707  41.544  28.536  1.00  0.00    -0.269 OA
ATOM     29  N   UNL     1     -43.014  41.925  26.649  1.00  0.00    -0.268 N 
ATOM     30  C   UNL     1     -44.449  42.281  24.686  1.00  0.00    -0.019 A 
ATOM     31  C   UNL     1     -42.133  42.860  26.117  1.00  0.00     0.014 A 
ATOM     32  C   UNL     1     -43.569  43.173  24.216  1.00  0.00    -0.057 A 
ATOM     33  H   UNL     1     -45.360  42.027  24.159  1.00  0.00     0.066 H 
ATOM     34  C   UNL     1     -42.372  43.474  24.953  1.00  0.00    -0.045 A 
ATOM     35  H   UNL     1     -41.234  43.072  26.692  1.00  0.00     0.082 H 
ATOM     36  H   UNL     1     -43.740  43.684  23.274  1.00  0.00     0.062 H 
ATOM     37  H   UNL     1     -41.676  44.202  24.548  1.00  0.00     0.064 H 
ENDBRANCH  20  22
ENDBRANCH  15  18
ENDBRANCH   1  15
BRANCH   7  38
ATOM     38  C   UNL     1     -46.290  31.377  23.864  1.00  0.00     0.039 C 
ATOM     39  H   UNL     1     -45.202  31.271  23.774  1.00  0.00     0.050 H 
ATOM     40  H   UNL     1     -46.688  31.654  22.880  1.00  0.00     0.050 H 
BRANCH  38  41
ATOM     41  N   UNL     1     -46.888  30.121  24.323  1.00  0.00    -0.311 NA
ATOM     42  H   UNL     1     -46.128  29.458  24.483  1.00  0.00     0.123 HD
BRANCH  41  43
ATOM     43  C   UNL     1     -47.781  29.572  23.299  1.00  0.00    -0.002 C 
ATOM     44  H   UNL     1     -48.693  30.179  23.237  1.00  0.00     0.043 H 
ATOM     45  H   UNL     1     -47.294  29.598  22.316  1.00  0.00     0.043 H 
BRANCH  43  46
ATOM     46  C   UNL     1     -48.166  28.144  23.664  1.00  0.00    -0.029 C 
ATOM     47  C   UNL     1     -48.809  27.956  25.065  1.00  0.00    -0.049 C 
ATOM     48  C   UNL     1     -49.494  27.587  23.082  1.00  0.00    -0.049 C 
ATOM     49  H   UNL     1     -47.323  27.450  23.514  1.00  0.00     0.032 H 
ATOM     50  C   UNL     1     -49.697  26.866  24.430  1.00  0.00    -0.053 C 
ATOM     51  H   UNL     1     -49.374  28.823  25.427  1.00  0.00     0.027 H 
ATOM     52  H   UNL     1     -48.135  27.615  25.855  1.00  0.00     0.027 H 
ATOM     53  H   UNL     1     -50.254  28.348  22.873  1.00  0.00     0.027 H 
ATOM     54  H   UNL     1     -49.393  26.935  22.209  1.00  0.00     0.027 H 
ATOM     55  H   UNL     1     -50.727  26.819  24.794  1.00  0.00     0.027 H 
ATOM     56  H   UNL     1     -49.257  25.863  24.466  1.00  0.00     0.027 H 
ENDBRANCH  43  46
ENDBRANCH  41  43
ENDBRANCH  38  41
ENDBRANCH   7  38
TORSDOF 7
ENDMDL
MODEL 6
REMARK VINA RESULT:      -9.8      1.929      3.450
REMARK SMILES O=C(NCc1ccc2c(F)c(CNCC3CCC3)[nH]c2c1)c1cc(=O)n2ccccc2n1
REMARK SMILES IDX 5 1 6 2 7 3 8 4 9 5 10 6 11 7 19 8 20 9 21 10 4 15 3 18 1 19
REMARK SMILES IDX 2 20 22 22 23 23 32 24 24 25 31 27 25 28 26 29 30 30 27 31
REMARK SMILES IDX 29 32 28 34 12 38 13 41 14 43 15 46 16 47 18 48 17 50
REMARK H PARENT 6 11 7 12 19 13 21 14 4 16 4 17 3 21 23 26 30 33 27 35 29 36
REMARK H PARENT 28 37 12 39 12 40 13 42 14 44 14 45 15 49 16 51 16 52 18 53
REMARK H PARENT 18 54 17 55 17 56
REMARK Flexibility Score: inf
ROOT
ATOM      1  C   UNL     1     -48.208  34.601  26.518  1.00  0.00    -0.027 A 
ATOM      2  C   UNL     1     -46.956  34.794  25.915  1.00  0.00    -0.056 A 
ATOM      3  C   UNL     1     -46.368  33.797  25.128  1.00  0.00    -0.050 A 
ATOM      4  C   UNL     1     -47.052  32.583  24.936  1.00  0.00     0.036 A 
ATOM      5  C   UNL     1     -46.782  31.389  24.232  1.00  0.00     0.153 A 
ATOM      6  F   UNL     1     -45.678  31.145  23.514  1.00  0.00    -0.204 F 
ATOM      7  C   UNL     1     -47.822  30.509  24.392  1.00  0.00     0.066 A 
ATOM      8  N   UNL     1     -48.747  31.152  25.185  1.00  0.00    -0.355 N 
ATOM      9  C   UNL     1     -48.301  32.409  25.533  1.00  0.00     0.049 A 
ATOM     10  C   UNL     1     -48.904  33.395  26.323  1.00  0.00    -0.033 A 
ATOM     11  H   UNL     1     -46.426  35.736  26.056  1.00  0.00     0.063 H 
ATOM     12  H   UNL     1     -45.397  33.961  24.670  1.00  0.00     0.063 H 
ATOM     13  H   UNL     1     -49.615  30.728  25.486  1.00  0.00     0.166 HD
ATOM     14  H   UNL     1     -49.879  33.232  26.771  1.00  0.00     0.065 H 
ENDROOT
BRANCH   1  15
ATOM     15  C   UNL     1     -48.821  35.707  27.342  1.00  0.00     0.043 C 
ATOM     16  H   UNL     1     -49.202  35.306  28.289  1.00  0.00     0.054 H 
ATOM     17  H   UNL     1     -49.671  36.152  26.813  1.00  0.00     0.054 H 
BRANCH  15  18
ATOM     18  N   UNL     1     -47.866  36.758  27.579  1.00  0.00    -0.347 N 
ATOM     19  O   UNL     1     -47.079  35.971  29.593  1.00  0.00    -0.268 OA
ATOM     20  C   UNL     1     -47.020  36.763  28.659  1.00  0.00     0.270 C 
ATOM     21  H   UNL     1     -47.635  37.400  26.828  1.00  0.00     0.164 HD
BRANCH  20  22
ATOM     22  C   UNL     1     -45.983  37.858  28.570  1.00  0.00     0.136 A 
ATOM     23  C   UNL     1     -45.125  37.949  29.590  1.00  0.00     0.035 A 
ATOM     24  N   UNL     1     -45.977  38.678  27.463  1.00  0.00    -0.225 NA
ATOM     25  C   UNL     1     -44.097  38.994  29.542  1.00  0.00     0.258 A 
ATOM     26  H   UNL     1     -45.138  37.297  30.453  1.00  0.00     0.071 H 
ATOM     27  C   UNL     1     -45.063  39.597  27.424  1.00  0.00     0.140 A 
ATOM     28  O   UNL     1     -43.305  39.089  30.479  1.00  0.00    -0.269 OA
ATOM     29  N   UNL     1     -44.109  39.803  28.415  1.00  0.00    -0.268 N 
ATOM     30  C   UNL     1     -45.015  40.506  26.243  1.00  0.00    -0.019 A 
ATOM     31  C   UNL     1     -43.162  40.815  28.296  1.00  0.00     0.014 A 
ATOM     32  C   UNL     1     -44.084  41.464  26.174  1.00  0.00    -0.057 A 
ATOM     33  H   UNL     1     -45.752  40.352  25.465  1.00  0.00     0.066 H 
ATOM     34  C   UNL     1     -43.125  41.626  27.233  1.00  0.00    -0.045 A 
ATOM     35  H   UNL     1     -42.447  40.919  29.109  1.00  0.00     0.082 H 
ATOM     36  H   UNL     1     -44.033  42.135  25.322  1.00  0.00     0.062 H 
ATOM     37  H   UNL     1     -42.381  42.412  27.151  1.00  0.00     0.064 H 
ENDBRANCH  20  22
ENDBRANCH  15  18
ENDBRANCH   1  15
BRANCH   7  38
ATOM     38  C   UNL     1     -48.046  29.144  23.861  1.00  0.00     0.039 C 
ATOM     39  H   UNL     1     -47.863  28.402  24.648  1.00  0.00     0.050 H 
ATOM     40  H   UNL     1     -47.329  28.962  23.050  1.00  0.00     0.050 H 
BRANCH  38  41
ATOM     41  N   UNL     1     -49.419  29.033  23.364  1.00  0.00    -0.311 NA
ATOM     42  H   UNL     1     -49.595  28.047  23.163  1.00  0.00     0.123 HD
BRANCH  41  43
ATOM     43  C   UNL     1     -49.583  29.800  22.126  1.00  0.00    -0.002 C 
ATOM     44  H   UNL     1     -48.823  30.590  22.076  1.00  0.00     0.043 H 
ATOM     45  H   UNL     1     -49.446  29.149  21.254  1.00  0.00     0.043 H 
BRANCH  43  46
ATOM     46  C   UNL     1     -50.963  30.443  22.098  1.00  0.00    -0.029 C 
ATOM     47  C   UNL     1     -51.030  31.918  22.577  1.00  0.00    -0.049 C 
ATOM     48  C   UNL     1     -51.486  30.961  20.730  1.00  0.00    -0.049 C 
ATOM     49  H   UNL     1     -51.707  29.819  22.618  1.00  0.00     0.032 H 
ATOM     50  C   UNL     1     -52.110  32.143  21.499  1.00  0.00    -0.053 C 
ATOM     51  H   UNL     1     -50.114  32.496  22.405  1.00  0.00     0.027 H 
ATOM     52  H   UNL     1     -51.355  32.068  23.611  1.00  0.00     0.027 H 
ATOM     53  H   UNL     1     -50.702  31.261  20.027  1.00  0.00     0.027 H 
ATOM     54  H   UNL     1     -52.195  30.307  20.215  1.00  0.00     0.027 H 
ATOM     55  H   UNL     1     -52.081  33.111  20.991  1.00  0.00     0.027 H 
ATOM     56  H   UNL     1     -53.130  31.953  21.851  1.00  0.00     0.027 H 
ENDBRANCH  43  46
ENDBRANCH  41  43
ENDBRANCH  38  41
ENDBRANCH   7  38
TORSDOF 7
ENDMDL
MODEL 7
REMARK VINA RESULT:      -9.7      2.927      5.166
REMARK SMILES O=C(NCc1ccc2c(F)c(CNCC3CCC3)[nH]c2c1)c1cc(=O)n2ccccc2n1
REMARK SMILES IDX 5 1 6 2 7 3 8 4 9 5 10 6 11 7 19 8 20 9 21 10 4 15 3 18 1 19
REMARK SMILES IDX 2 20 22 22 23 23 32 24 24 25 31 27 25 28 26 29 30 30 27 31
REMARK SMILES IDX 29 32 28 34 12 38 13 41 14 43 15 46 16 47 18 48 17 50
REMARK H PARENT 6 11 7 12 19 13 21 14 4 16 4 17 3 21 23 26 30 33 27 35 29 36
REMARK H PARENT 28 37 12 39 12 40 13 42 14 44 14 45 15 49 16 51 16 52 18 53
REMARK H PARENT 18 54 17 55 17 56
REMARK Flexibility Score: inf
ROOT
ATOM      1  C   UNL     1     -45.558  37.763  28.558  1.00  0.00    -0.027 A 
ATOM      2  C   UNL     1     -46.891  38.074  28.254  1.00  0.00    -0.056 A 
ATOM      3  C   UNL     1     -47.741  37.129  27.667  1.00  0.00    -0.050 A 
ATOM      4  C   UNL     1     -47.246  35.844  27.384  1.00  0.00     0.036 A 
ATOM      5  C   UNL     1     -47.788  34.671  26.814  1.00  0.00     0.153 A 
ATOM      6  F   UNL     1     -49.045  34.533  26.374  1.00  0.00    -0.204 F 
ATOM      7  C   UNL     1     -46.833  33.687  26.776  1.00  0.00     0.066 A 
ATOM      8  N   UNL     1     -45.698  34.236  27.330  1.00  0.00    -0.355 N 
ATOM      9  C   UNL     1     -45.920  35.545  27.701  1.00  0.00     0.049 A 
ATOM     10  C   UNL     1     -45.056  36.477  28.289  1.00  0.00    -0.033 A 
ATOM     11  H   UNL     1     -47.281  39.067  28.479  1.00  0.00     0.063 H 
ATOM     12  H   UNL     1     -48.771  37.386  27.436  1.00  0.00     0.063 H 
ATOM     13  H   UNL     1     -44.820  33.740  27.413  1.00  0.00     0.166 HD
ATOM     14  H   UNL     1     -44.031  36.214  28.528  1.00  0.00     0.065 H 
ENDROOT
BRANCH   1  15
ATOM     15  C   UNL     1     -44.677  38.800  29.212  1.00  0.00     0.043 C 
ATOM     16  H   UNL     1     -43.698  38.367  29.452  1.00  0.00     0.054 H 
ATOM     17  H   UNL     1     -45.121  39.141  30.153  1.00  0.00     0.054 H 
BRANCH  15  18
ATOM     18  N   UNL     1     -44.530  39.955  28.363  1.00  0.00    -0.347 N 
ATOM     19  O   UNL     1     -42.546  40.706  29.253  1.00  0.00    -0.268 OA
ATOM     20  C   UNL     1     -43.433  40.777  28.410  1.00  0.00     0.270 C 
ATOM     21  H   UNL     1     -45.127  40.052  27.549  1.00  0.00     0.164 HD
BRANCH  20  22
ATOM     22  C   UNL     1     -43.425  41.787  27.287  1.00  0.00     0.136 A 
ATOM     23  C   UNL     1     -42.232  42.096  26.774  1.00  0.00     0.035 A 
ATOM     24  N   UNL     1     -44.624  42.316  26.863  1.00  0.00    -0.225 NA
ATOM     25  C   UNL     1     -42.177  43.069  25.677  1.00  0.00     0.258 A 
ATOM     26  H   UNL     1     -41.297  41.671  27.114  1.00  0.00     0.071 H 
ATOM     27  C   UNL     1     -44.571  43.173  25.890  1.00  0.00     0.140 A 
ATOM     28  O   UNL     1     -41.082  43.363  25.200  1.00  0.00    -0.269 OA
ATOM     29  N   UNL     1     -43.398  43.583  25.264  1.00  0.00    -0.268 N 
ATOM     30  C   UNL     1     -45.844  43.768  25.394  1.00  0.00    -0.019 A 
ATOM     31  C   UNL     1     -43.428  44.509  24.227  1.00  0.00     0.014 A 
ATOM     32  C   UNL     1     -45.822  44.655  24.392  1.00  0.00    -0.057 A 
ATOM     33  H   UNL     1     -46.763  43.454  25.873  1.00  0.00     0.066 H 
ATOM     34  C   UNL     1     -44.575  45.039  23.787  1.00  0.00    -0.045 A 
ATOM     35  H   UNL     1     -42.473  44.784  23.784  1.00  0.00     0.082 H 
ATOM     36  H   UNL     1     -46.738  45.099  24.017  1.00  0.00     0.062 H 
ATOM     37  H   UNL     1     -44.586  45.761  22.976  1.00  0.00     0.064 H 
ENDBRANCH  20  22
ENDBRANCH  15  18
ENDBRANCH   1  15
BRANCH   7  38
ATOM     38  C   UNL     1     -46.883  32.286  26.298  1.00  0.00     0.039 C 
ATOM     39  H   UNL     1     -47.875  32.069  25.881  1.00  0.00     0.050 H 
ATOM     40  H   UNL     1     -46.721  31.618  27.152  1.00  0.00     0.050 H 
BRANCH  38  41
ATOM     41  N   UNL     1     -45.848  32.080  25.283  1.00  0.00    -0.311 NA
ATOM     42  H   UNL     1     -45.184  32.852  25.359  1.00  0.00     0.123 HD
BRANCH  41  43
ATOM     43  C   UNL     1     -46.433  32.096  23.939  1.00  0.00    -0.002 C 
ATOM     44  H   UNL     1     -47.448  32.509  23.982  1.00  0.00     0.043 H 
ATOM     45  H   UNL     1     -45.839  32.736  23.274  1.00  0.00     0.043 H 
BRANCH  43  46
ATOM     46  C   UNL     1     -46.501  30.677  23.391  1.00  0.00    -0.029 C 
ATOM     47  C   UNL     1     -47.733  29.842  23.833  1.00  0.00    -0.049 C 
ATOM     48  C   UNL     1     -47.016  30.494  21.936  1.00  0.00    -0.049 C 
ATOM     49  H   UNL     1     -45.562  30.131  23.570  1.00  0.00     0.032 H 
ATOM     50  C   UNL     1     -47.720  29.212  22.425  1.00  0.00    -0.053 C 
ATOM     51  H   UNL     1     -48.634  30.431  24.040  1.00  0.00     0.027 H 
ATOM     52  H   UNL     1     -47.564  29.149  24.662  1.00  0.00     0.027 H 
ATOM     53  H   UNL     1     -47.710  31.272  21.597  1.00  0.00     0.027 H 
ATOM     54  H   UNL     1     -46.245  30.348  21.175  1.00  0.00     0.027 H 
ATOM     55  H   UNL     1     -48.700  29.009  21.985  1.00  0.00     0.027 H 
ATOM     56  H   UNL     1     -47.100  28.311  22.351  1.00  0.00     0.027 H 
ENDBRANCH  43  46
ENDBRANCH  41  43
ENDBRANCH  38  41
ENDBRANCH   7  38
TORSDOF 7
ENDMDL
