MODEL 1
REMARK VINA RESULT:     -10.1      0.000      0.000
REMARK SMILES CNc1ccc2ccc(OCc3cc(CO)cc(-n4cc(Cl)c5c(N)ncnc54)c3)cc2n1
REMARK SMILES IDX 11 1 10 4 9 5 3 6 4 7 33 8 5 9 32 11 6 12 31 14 7 15 8 17
REMARK SMILES IDX 2 20 1 22 12 26 13 27 30 28 14 29 18 31 17 33 15 35 16 38
REMARK SMILES IDX 19 40 20 41 29 42 21 43 23 45 28 46 22 47 24 48 27 49 26 50
REMARK SMILES IDX 25 52
REMARK H PARENT 11 2 11 3 4 10 5 13 31 16 7 18 8 19 2 21 1 23 1 24 1 25 13 30
REMARK H PARENT 30 32 17 34 15 36 15 37 16 39 20 44 27 51 25 53 25 54
REMARK Flexibility Score: inf
ROOT
ATOM      1  C   UNL     1     -46.158  34.433  26.691  1.00  0.00     0.113 C 
ATOM      2  H   UNL     1     -46.173  34.454  25.594  1.00  0.00     0.076 H 
ATOM      3  H   UNL     1     -45.127  34.191  26.977  1.00  0.00     0.076 H 
ENDROOT
BRANCH   1   4
ATOM      4  O   UNL     1     -47.044  33.377  27.075  1.00  0.00    -0.489 OA
BRANCH   4   5
ATOM      5  C   UNL     1     -47.441  32.476  26.126  1.00  0.00     0.122 A 
ATOM      6  C   UNL     1     -46.482  30.967  21.711  1.00  0.00     0.126 A 
ATOM      7  C   UNL     1     -47.566  30.098  21.725  1.00  0.00    -0.019 A 
ATOM      8  N   UNL     1     -46.188  31.746  22.771  1.00  0.00    -0.231 NA
ATOM      9  C   UNL     1     -48.362  30.015  22.864  1.00  0.00    -0.049 A 
ATOM     10  H   UNL     1     -47.804  29.501  20.851  1.00  0.00     0.066 H 
ATOM     11  C   UNL     1     -46.952  31.670  23.877  1.00  0.00     0.076 A 
ATOM     12  C   UNL     1     -48.064  30.814  23.970  1.00  0.00     0.001 A 
ATOM     13  H   UNL     1     -49.213  29.341  22.873  1.00  0.00     0.063 H 
ATOM     14  C   UNL     1     -46.655  32.473  24.968  1.00  0.00     0.007 A 
ATOM     15  C   UNL     1     -48.842  30.785  25.139  1.00  0.00    -0.049 A 
ATOM     16  H   UNL     1     -45.805  33.148  24.901  1.00  0.00     0.069 H 
ATOM     17  C   UNL     1     -48.532  31.619  26.215  1.00  0.00    -0.019 A 
ATOM     18  H   UNL     1     -49.705  30.127  25.213  1.00  0.00     0.063 H 
ATOM     19  H   UNL     1     -49.167  31.582  27.093  1.00  0.00     0.066 H 
BRANCH   6  20
ATOM     20  N   UNL     1     -45.723  31.054  20.529  1.00  0.00    -0.373 N 
ATOM     21  H   UNL     1     -44.766  31.291  20.771  1.00  0.00     0.161 HD
BRANCH  20  22
ATOM     22  C   UNL     1     -46.271  31.961  19.534  1.00  0.00     0.005 C 
ATOM     23  H   UNL     1     -45.973  32.998  19.724  1.00  0.00     0.045 H 
ATOM     24  H   UNL     1     -47.364  31.894  19.486  1.00  0.00     0.045 H 
ATOM     25  H   UNL     1     -45.884  31.681  18.548  1.00  0.00     0.045 H 
ENDBRANCH  20  22
ENDBRANCH   6  20
ENDBRANCH   4   5
ENDBRANCH   1   4
BRANCH   1  26
ATOM     26  C   UNL     1     -46.554  35.821  27.165  1.00  0.00    -0.008 A 
ATOM     27  C   UNL     1     -47.907  36.105  27.393  1.00  0.00    -0.050 A 
ATOM     28  C   UNL     1     -45.601  36.819  27.425  1.00  0.00    -0.031 A 
ATOM     29  C   UNL     1     -48.316  37.369  27.843  1.00  0.00    -0.020 A 
ATOM     30  H   UNL     1     -48.654  35.331  27.218  1.00  0.00     0.063 H 
ATOM     31  C   UNL     1     -45.980  38.096  27.856  1.00  0.00     0.048 A 
ATOM     32  H   UNL     1     -44.552  36.567  27.304  1.00  0.00     0.065 H 
ATOM     33  C   UNL     1     -47.341  38.354  28.081  1.00  0.00    -0.032 A 
ATOM     34  H   UNL     1     -47.687  39.332  28.404  1.00  0.00     0.065 H 
BRANCH  29  35
ATOM     35  C   UNL     1     -49.775  37.631  28.117  1.00  0.00     0.068 C 
ATOM     36  H   UNL     1     -49.903  38.600  28.613  1.00  0.00     0.062 H 
ATOM     37  H   UNL     1     -50.330  37.634  27.174  1.00  0.00     0.062 H 
BRANCH  35  38
ATOM     38  O   UNL     1     -50.320  36.633  28.969  1.00  0.00    -0.392 OA
ATOM     39  H   UNL     1     -49.577  36.261  29.474  1.00  0.00     0.211 HD
ENDBRANCH  35  38
ENDBRANCH  29  35
BRANCH  31  40
ATOM     40  N   UNL     1     -45.002  39.126  28.063  1.00  0.00    -0.300 N 
ATOM     41  C   UNL     1     -44.091  39.155  29.106  1.00  0.00     0.030 A 
ATOM     42  C   UNL     1     -44.787  40.272  27.292  1.00  0.00     0.151 A 
ATOM     43  C   UNL     1     -43.298  40.269  28.981  1.00  0.00     0.072 A 
ATOM     44  H   UNL     1     -44.046  38.366  29.842  1.00  0.00     0.084 H 
ATOM     45  C   UNL     1     -43.727  40.990  27.843  1.00  0.00     0.080 A 
ATOM     46  N   UNL     1     -45.501  40.665  26.218  1.00  0.00    -0.218 NA
ATOM     47  Cl  UNL     1     -42.032  40.707  30.030  1.00  0.00    -0.082 Cl
ATOM     48  C   UNL     1     -43.361  42.181  27.199  1.00  0.00     0.137 A 
ATOM     49  C   UNL     1     -45.079  41.824  25.700  1.00  0.00     0.120 A 
ATOM     50  N   UNL     1     -44.058  42.588  26.124  1.00  0.00    -0.219 NA
ATOM     51  H   UNL     1     -45.624  42.193  24.835  1.00  0.00     0.106 H 
BRANCH  48  52
ATOM     52  N   UNL     1     -42.322  43.000  27.613  1.00  0.00    -0.383 N 
ATOM     53  H   UNL     1     -42.533  43.617  28.386  1.00  0.00     0.158 HD
ATOM     54  H   UNL     1     -41.835  43.401  26.820  1.00  0.00     0.158 HD
ENDBRANCH  48  52
ENDBRANCH  31  40
ENDBRANCH   1  26
TORSDOF 9
ENDMDL
MODEL 2
REMARK VINA RESULT:      -9.7      2.393      3.580
REMARK SMILES CNc1ccc2ccc(OCc3cc(CO)cc(-n4cc(Cl)c5c(N)ncnc54)c3)cc2n1
REMARK SMILES IDX 11 1 10 4 9 5 3 6 4 7 33 8 5 9 32 11 6 12 31 14 7 15 8 17
REMARK SMILES IDX 2 20 1 22 12 26 13 27 30 28 14 29 18 31 17 33 15 35 16 38
REMARK SMILES IDX 19 40 20 41 29 42 21 43 23 45 28 46 22 47 24 48 27 49 26 50
REMARK SMILES IDX 25 52
REMARK H PARENT 11 2 11 3 4 10 5 13 31 16 7 18 8 19 2 21 1 23 1 24 1 25 13 30
REMARK H PARENT 30 32 17 34 15 36 15 37 16 39 20 44 27 51 25 53 25 54
REMARK Flexibility Score: inf
ROOT
ATOM      1  C   UNL     1     -47.191  33.696  26.411  1.00  0.00     0.113 C 
ATOM      2  H   UNL     1     -46.148  33.538  26.711  1.00  0.00     0.076 H 
ATOM      3  H   UNL     1     -47.781  32.943  26.949  1.00  0.00     0.076 H 
ENDROOT
BRANCH   1   4
ATOM      4  O   UNL     1     -47.236  33.451  25.002  1.00  0.00    -0.489 OA
BRANCH   4   5
ATOM      5  C   UNL     1     -47.247  32.157  24.562  1.00  0.00     0.122 A 
ATOM      6  C   UNL     1     -48.905  27.818  25.619  1.00  0.00     0.126 A 
ATOM      7  C   UNL     1     -48.221  27.248  24.552  1.00  0.00    -0.019 A 
ATOM      8  N   UNL     1     -48.838  29.140  25.875  1.00  0.00    -0.231 NA
ATOM      9  C   UNL     1     -47.459  28.059  23.715  1.00  0.00    -0.049 A 
ATOM     10  H   UNL     1     -48.263  26.178  24.380  1.00  0.00     0.066 H 
ATOM     11  C   UNL     1     -48.105  29.931  25.069  1.00  0.00     0.076 A 
ATOM     12  C   UNL     1     -47.387  29.431  23.968  1.00  0.00     0.001 A 
ATOM     13  H   UNL     1     -46.919  27.614  22.886  1.00  0.00     0.063 H 
ATOM     14  C   UNL     1     -48.031  31.291  25.332  1.00  0.00     0.007 A 
ATOM     15  C   UNL     1     -46.621  30.295  23.169  1.00  0.00    -0.049 A 
ATOM     16  H   UNL     1     -48.573  31.685  26.189  1.00  0.00     0.069 H 
ATOM     17  C   UNL     1     -46.549  31.656  23.468  1.00  0.00    -0.019 A 
ATOM     18  H   UNL     1     -46.061  29.911  22.319  1.00  0.00     0.063 H 
ATOM     19  H   UNL     1     -45.932  32.289  22.839  1.00  0.00     0.066 H 
BRANCH   6  20
ATOM     20  N   UNL     1     -49.632  26.962  26.467  1.00  0.00    -0.373 N 
ATOM     21  H   UNL     1     -49.035  26.189  26.742  1.00  0.00     0.161 HD
BRANCH  20  22
ATOM     22  C   UNL     1     -50.894  26.502  25.913  1.00  0.00     0.005 C 
ATOM     23  H   UNL     1     -50.745  25.913  25.001  1.00  0.00     0.045 H 
ATOM     24  H   UNL     1     -51.571  27.338  25.705  1.00  0.00     0.045 H 
ATOM     25  H   UNL     1     -51.389  25.857  26.646  1.00  0.00     0.045 H 
ENDBRANCH  20  22
ENDBRANCH   6  20
ENDBRANCH   4   5
ENDBRANCH   1   4
BRANCH   1  26
ATOM     26  C   UNL     1     -47.566  35.104  26.840  1.00  0.00    -0.008 A 
ATOM     27  C   UNL     1     -48.896  35.383  27.185  1.00  0.00    -0.050 A 
ATOM     28  C   UNL     1     -46.612  36.130  26.943  1.00  0.00    -0.031 A 
ATOM     29  C   UNL     1     -49.283  36.666  27.598  1.00  0.00    -0.020 A 
ATOM     30  H   UNL     1     -49.640  34.589  27.132  1.00  0.00     0.063 H 
ATOM     31  C   UNL     1     -46.973  37.426  27.333  1.00  0.00     0.048 A 
ATOM     32  H   UNL     1     -45.575  35.885  26.732  1.00  0.00     0.065 H 
ATOM     33  C   UNL     1     -48.309  37.677  27.678  1.00  0.00    -0.032 A 
ATOM     34  H   UNL     1     -48.641  38.668  27.975  1.00  0.00     0.065 H 
BRANCH  29  35
ATOM     35  C   UNL     1     -50.712  36.924  28.001  1.00  0.00     0.068 C 
ATOM     36  H   UNL     1     -50.968  37.979  27.850  1.00  0.00     0.062 H 
ATOM     37  H   UNL     1     -51.381  36.302  27.398  1.00  0.00     0.062 H 
BRANCH  35  38
ATOM     38  O   UNL     1     -50.917  36.620  29.374  1.00  0.00    -0.392 OA
ATOM     39  H   UNL     1     -51.783  36.183  29.437  1.00  0.00     0.211 HD
ENDBRANCH  35  38
ENDBRANCH  29  35
BRANCH  31  40
ATOM     40  N   UNL     1     -45.999  38.479  27.380  1.00  0.00    -0.300 N 
ATOM     41  C   UNL     1     -45.794  39.414  26.378  1.00  0.00     0.030 A 
ATOM     42  C   UNL     1     -45.084  38.756  28.400  1.00  0.00     0.151 A 
ATOM     43  C   UNL     1     -44.801  40.280  26.767  1.00  0.00     0.072 A 
ATOM     44  H   UNL     1     -46.389  39.419  25.478  1.00  0.00     0.084 H 
ATOM     45  C   UNL     1     -44.338  39.877  28.040  1.00  0.00     0.080 A 
ATOM     46  N   UNL     1     -44.902  38.047  29.532  1.00  0.00    -0.218 NA
ATOM     47  Cl  UNL     1     -44.225  41.597  25.858  1.00  0.00    -0.082 Cl
ATOM     48  C   UNL     1     -43.361  40.311  28.949  1.00  0.00     0.137 A 
ATOM     49  C   UNL     1     -43.931  38.538  30.312  1.00  0.00     0.120 A 
ATOM     50  N   UNL     1     -43.168  39.620  30.085  1.00  0.00    -0.219 NA
ATOM     51  H   UNL     1     -43.736  38.000  31.236  1.00  0.00     0.106 H 
BRANCH  48  52
ATOM     52  N   UNL     1     -42.547  41.415  28.745  1.00  0.00    -0.383 N 
ATOM     53  H   UNL     1     -41.581  41.211  28.526  1.00  0.00     0.158 HD
ATOM     54  H   UNL     1     -42.723  42.131  29.440  1.00  0.00     0.158 HD
ENDBRANCH  48  52
ENDBRANCH  31  40
ENDBRANCH   1  26
TORSDOF 9
ENDMDL
MODEL 3
REMARK VINA RESULT:      -9.6      2.365      3.254
REMARK SMILES CNc1ccc2ccc(OCc3cc(CO)cc(-n4cc(Cl)c5c(N)ncnc54)c3)cc2n1
REMARK SMILES IDX 11 1 10 4 9 5 3 6 4 7 33 8 5 9 32 11 6 12 31 14 7 15 8 17
REMARK SMILES IDX 2 20 1 22 12 26 13 27 30 28 14 29 18 31 17 33 15 35 16 38
REMARK SMILES IDX 19 40 20 41 29 42 21 43 23 45 28 46 22 47 24 48 27 49 26 50
REMARK SMILES IDX 25 52
REMARK H PARENT 11 2 11 3 4 10 5 13 31 16 7 18 8 19 2 21 1 23 1 24 1 25 13 30
REMARK H PARENT 30 32 17 34 15 36 15 37 16 39 20 44 27 51 25 53 25 54
REMARK Flexibility Score: inf
ROOT
ATOM      1  C   UNL     1     -47.373  36.119  26.917  1.00  0.00     0.113 C 
ATOM      2  H   UNL     1     -47.564  35.454  27.768  1.00  0.00     0.076 H 
ATOM      3  H   UNL     1     -48.357  36.447  26.558  1.00  0.00     0.076 H 
ENDROOT
BRANCH   1   4
ATOM      4  O   UNL     1     -46.725  35.314  25.927  1.00  0.00    -0.489 OA
BRANCH   4   5
ATOM      5  C   UNL     1     -47.183  34.043  25.713  1.00  0.00     0.122 A 
ATOM      6  C   UNL     1     -46.439  30.152  23.068  1.00  0.00     0.126 A 
ATOM      7  C   UNL     1     -47.545  29.513  23.617  1.00  0.00    -0.019 A 
ATOM      8  N   UNL     1     -46.083  31.397  23.446  1.00  0.00    -0.231 NA
ATOM      9  C   UNL     1     -48.297  30.164  24.591  1.00  0.00    -0.049 A 
ATOM     10  H   UNL     1     -47.832  28.524  23.279  1.00  0.00     0.066 H 
ATOM     11  C   UNL     1     -46.805  32.031  24.388  1.00  0.00     0.076 A 
ATOM     12  C   UNL     1     -47.935  31.451  24.993  1.00  0.00     0.001 A 
ATOM     13  H   UNL     1     -49.165  29.669  25.015  1.00  0.00     0.063 H 
ATOM     14  C   UNL     1     -46.444  33.313  24.775  1.00  0.00     0.007 A 
ATOM     15  C   UNL     1     -48.666  32.163  25.958  1.00  0.00    -0.049 A 
ATOM     16  H   UNL     1     -45.579  33.774  24.304  1.00  0.00     0.069 H 
ATOM     17  C   UNL     1     -48.292  33.459  26.315  1.00  0.00    -0.019 A 
ATOM     18  H   UNL     1     -49.543  31.719  26.424  1.00  0.00     0.063 H 
ATOM     19  H   UNL     1     -48.893  33.983  27.050  1.00  0.00     0.066 H 
BRANCH   6  20
ATOM     20  N   UNL     1     -45.725  29.481  22.058  1.00  0.00    -0.373 N 
ATOM     21  H   UNL     1     -46.382  28.965  21.480  1.00  0.00     0.161 HD
BRANCH  20  22
ATOM     22  C   UNL     1     -44.652  28.632  22.547  1.00  0.00     0.005 C 
ATOM     23  H   UNL     1     -44.903  28.178  23.512  1.00  0.00     0.045 H 
ATOM     24  H   UNL     1     -43.710  29.185  22.634  1.00  0.00     0.045 H 
ATOM     25  H   UNL     1     -44.488  27.819  21.832  1.00  0.00     0.045 H 
ENDBRANCH  20  22
ENDBRANCH   6  20
ENDBRANCH   4   5
ENDBRANCH   1   4
BRANCH   1  26
ATOM     26  C   UNL     1     -46.557  37.287  27.443  1.00  0.00    -0.008 A 
ATOM     27  C   UNL     1     -45.934  37.178  28.694  1.00  0.00    -0.050 A 
ATOM     28  C   UNL     1     -46.369  38.461  26.695  1.00  0.00    -0.031 A 
ATOM     29  C   UNL     1     -45.162  38.227  29.212  1.00  0.00    -0.020 A 
ATOM     30  H   UNL     1     -46.054  36.262  29.272  1.00  0.00     0.063 H 
ATOM     31  C   UNL     1     -45.619  39.533  27.195  1.00  0.00     0.048 A 
ATOM     32  H   UNL     1     -46.805  38.508  25.701  1.00  0.00     0.065 H 
ATOM     33  C   UNL     1     -45.003  39.396  28.448  1.00  0.00    -0.032 A 
ATOM     34  H   UNL     1     -44.421  40.203  28.884  1.00  0.00     0.065 H 
BRANCH  29  35
ATOM     35  C   UNL     1     -44.472  38.063  30.542  1.00  0.00     0.068 C 
ATOM     36  H   UNL     1     -44.179  37.019  30.695  1.00  0.00     0.062 H 
ATOM     37  H   UNL     1     -43.580  38.696  30.573  1.00  0.00     0.062 H 
BRANCH  35  38
ATOM     38  O   UNL     1     -45.334  38.431  31.611  1.00  0.00    -0.392 OA
ATOM     39  H   UNL     1     -44.795  38.420  32.421  1.00  0.00     0.211 HD
ENDBRANCH  35  38
ENDBRANCH  29  35
BRANCH  31  40
ATOM     40  N   UNL     1     -45.482  40.749  26.446  1.00  0.00    -0.300 N 
ATOM     41  C   UNL     1     -44.375  41.091  25.685  1.00  0.00     0.030 A 
ATOM     42  C   UNL     1     -46.395  41.803  26.348  1.00  0.00     0.151 A 
ATOM     43  C   UNL     1     -44.595  42.311  25.093  1.00  0.00     0.072 A 
ATOM     44  H   UNL     1     -43.528  40.430  25.589  1.00  0.00     0.084 H 
ATOM     45  C   UNL     1     -45.864  42.778  25.505  1.00  0.00     0.080 A 
ATOM     46  N   UNL     1     -47.577  41.906  26.988  1.00  0.00    -0.218 NA
ATOM     47  Cl  UNL     1     -43.514  43.119  24.059  1.00  0.00    -0.082 Cl
ATOM     48  C   UNL     1     -46.646  43.922  25.282  1.00  0.00     0.137 A 
ATOM     49  C   UNL     1     -48.225  43.046  26.719  1.00  0.00     0.120 A 
ATOM     50  N   UNL     1     -47.830  44.041  25.908  1.00  0.00    -0.219 NA
ATOM     51  H   UNL     1     -49.183  43.185  27.214  1.00  0.00     0.106 H 
BRANCH  48  52
ATOM     52  N   UNL     1     -46.267  44.973  24.461  1.00  0.00    -0.383 N 
ATOM     53  H   UNL     1     -45.604  44.743  23.733  1.00  0.00     0.158 HD
ATOM     54  H   UNL     1     -46.089  45.812  25.001  1.00  0.00     0.158 HD
ENDBRANCH  48  52
ENDBRANCH  31  40
ENDBRANCH   1  26
TORSDOF 9
ENDMDL
MODEL 4
REMARK VINA RESULT:      -9.6      3.189     10.148
REMARK SMILES CNc1ccc2ccc(OCc3cc(CO)cc(-n4cc(Cl)c5c(N)ncnc54)c3)cc2n1
REMARK SMILES IDX 11 1 10 4 9 5 3 6 4 7 33 8 5 9 32 11 6 12 31 14 7 15 8 17
REMARK SMILES IDX 2 20 1 22 12 26 13 27 30 28 14 29 18 31 17 33 15 35 16 38
REMARK SMILES IDX 19 40 20 41 29 42 21 43 23 45 28 46 22 47 24 48 27 49 26 50
REMARK SMILES IDX 25 52
REMARK H PARENT 11 2 11 3 4 10 5 13 31 16 7 18 8 19 2 21 1 23 1 24 1 25 13 30
REMARK H PARENT 30 32 17 34 15 36 15 37 16 39 20 44 27 51 25 53 25 54
REMARK Flexibility Score: inf
ROOT
ATOM      1  C   UNL     1     -46.505  36.621  26.857  1.00  0.00     0.113 C 
ATOM      2  H   UNL     1     -45.484  36.887  26.557  1.00  0.00     0.076 H 
ATOM      3  H   UNL     1     -47.166  37.020  26.079  1.00  0.00     0.076 H 
ENDROOT
BRANCH   1   4
ATOM      4  O   UNL     1     -46.735  37.293  28.100  1.00  0.00    -0.489 OA
BRANCH   4   5
ATOM      5  C   UNL     1     -45.698  37.967  28.682  1.00  0.00     0.122 A 
ATOM      6  C   UNL     1     -42.602  41.511  27.942  1.00  0.00     0.126 A 
ATOM      7  C   UNL     1     -41.951  41.252  29.143  1.00  0.00    -0.019 A 
ATOM      8  N   UNL     1     -43.665  40.783  27.545  1.00  0.00    -0.231 NA
ATOM      9  C   UNL     1     -42.413  40.229  29.965  1.00  0.00    -0.049 A 
ATOM     10  H   UNL     1     -41.079  41.829  29.431  1.00  0.00     0.066 H 
ATOM     11  C   UNL     1     -44.119  39.793  28.336  1.00  0.00     0.076 A 
ATOM     12  C   UNL     1     -43.518  39.472  29.566  1.00  0.00     0.001 A 
ATOM     13  H   UNL     1     -41.902  40.022  30.900  1.00  0.00     0.063 H 
ATOM     14  C   UNL     1     -45.210  39.041  27.928  1.00  0.00     0.007 A 
ATOM     15  C   UNL     1     -44.017  38.417  30.347  1.00  0.00    -0.049 A 
ATOM     16  H   UNL     1     -45.674  39.273  26.972  1.00  0.00     0.069 H 
ATOM     17  C   UNL     1     -45.105  37.664  29.903  1.00  0.00    -0.019 A 
ATOM     18  H   UNL     1     -43.552  38.164  31.296  1.00  0.00     0.063 H 
ATOM     19  H   UNL     1     -45.450  36.845  30.524  1.00  0.00     0.066 H 
BRANCH   6  20
ATOM     20  N   UNL     1     -42.082  42.525  27.117  1.00  0.00    -0.373 N 
ATOM     21  H   UNL     1     -41.663  43.242  27.702  1.00  0.00     0.161 HD
BRANCH  20  22
ATOM     22  C   UNL     1     -43.043  43.085  26.181  1.00  0.00     0.005 C 
ATOM     23  H   UNL     1     -42.684  43.023  25.148  1.00  0.00     0.045 H 
ATOM     24  H   UNL     1     -43.285  44.125  26.426  1.00  0.00     0.045 H 
ATOM     25  H   UNL     1     -43.974  42.511  26.243  1.00  0.00     0.045 H 
ENDBRANCH  20  22
ENDBRANCH   6  20
ENDBRANCH   4   5
ENDBRANCH   1   4
BRANCH   1  26
ATOM     26  C   UNL     1     -46.568  35.104  26.916  1.00  0.00    -0.008 A 
ATOM     27  C   UNL     1     -45.951  34.435  27.982  1.00  0.00    -0.050 A 
ATOM     28  C   UNL     1     -47.264  34.351  25.957  1.00  0.00    -0.031 A 
ATOM     29  C   UNL     1     -45.994  33.037  28.081  1.00  0.00    -0.020 A 
ATOM     30  H   UNL     1     -45.428  35.011  28.745  1.00  0.00     0.063 H 
ATOM     31  C   UNL     1     -47.308  32.952  26.019  1.00  0.00     0.048 A 
ATOM     32  H   UNL     1     -47.789  34.885  25.171  1.00  0.00     0.065 H 
ATOM     33  C   UNL     1     -46.686  32.307  27.099  1.00  0.00    -0.032 A 
ATOM     34  H   UNL     1     -46.682  31.224  27.186  1.00  0.00     0.065 H 
BRANCH  29  35
ATOM     35  C   UNL     1     -45.355  32.350  29.260  1.00  0.00     0.068 C 
ATOM     36  H   UNL     1     -45.471  31.263  29.179  1.00  0.00     0.062 H 
ATOM     37  H   UNL     1     -44.289  32.596  29.295  1.00  0.00     0.062 H 
BRANCH  35  38
ATOM     38  O   UNL     1     -45.961  32.760  30.479  1.00  0.00    -0.392 OA
ATOM     39  H   UNL     1     -45.564  32.219  31.183  1.00  0.00     0.211 HD
ENDBRANCH  35  38
ENDBRANCH  29  35
BRANCH  31  40
ATOM     40  N   UNL     1     -47.974  32.190  25.002  1.00  0.00    -0.300 N 
ATOM     41  C   UNL     1     -49.344  32.005  24.919  1.00  0.00     0.030 A 
ATOM     42  C   UNL     1     -47.396  31.492  23.937  1.00  0.00     0.151 A 
ATOM     43  C   UNL     1     -49.630  31.241  23.813  1.00  0.00     0.072 A 
ATOM     44  H   UNL     1     -50.021  32.458  25.627  1.00  0.00     0.084 H 
ATOM     45  C   UNL     1     -48.410  30.904  23.184  1.00  0.00     0.080 A 
ATOM     46  N   UNL     1     -46.078  31.355  23.686  1.00  0.00    -0.218 NA
ATOM     47  Cl  UNL     1     -51.185  30.774  23.308  1.00  0.00    -0.082 Cl
ATOM     48  C   UNL     1     -48.019  30.156  22.063  1.00  0.00     0.137 A 
ATOM     49  C   UNL     1     -45.822  30.604  22.608  1.00  0.00     0.120 A 
ATOM     50  N   UNL     1     -46.711  30.012  21.793  1.00  0.00    -0.219 NA
ATOM     51  H   UNL     1     -44.774  30.455  22.362  1.00  0.00     0.106 H 
BRANCH  48  52
ATOM     52  N   UNL     1     -48.905  29.522  21.206  1.00  0.00    -0.383 N 
ATOM     53  H   UNL     1     -48.946  29.892  20.266  1.00  0.00     0.158 HD
ATOM     54  H   UNL     1     -49.788  29.333  21.667  1.00  0.00     0.158 HD
ENDBRANCH  48  52
ENDBRANCH  31  40
ENDBRANCH   1  26
TORSDOF 9
ENDMDL
MODEL 5
REMARK VINA RESULT:      -9.5      3.430      5.766
REMARK SMILES CNc1ccc2ccc(OCc3cc(CO)cc(-n4cc(Cl)c5c(N)ncnc54)c3)cc2n1
REMARK SMILES IDX 11 1 10 4 9 5 3 6 4 7 33 8 5 9 32 11 6 12 31 14 7 15 8 17
REMARK SMILES IDX 2 20 1 22 12 26 13 27 30 28 14 29 18 31 17 33 15 35 16 38
REMARK SMILES IDX 19 40 20 41 29 42 21 43 23 45 28 46 22 47 24 48 27 49 26 50
REMARK SMILES IDX 25 52
REMARK H PARENT 11 2 11 3 4 10 5 13 31 16 7 18 8 19 2 21 1 23 1 24 1 25 13 30
REMARK H PARENT 30 32 17 34 15 36 15 37 16 39 20 44 27 51 25 53 25 54
REMARK Flexibility Score: inf
ROOT
ATOM      1  C   UNL     1     -45.056  38.622  27.638  1.00  0.00     0.113 C 
ATOM      2  H   UNL     1     -44.882  38.096  26.691  1.00  0.00     0.076 H 
ATOM      3  H   UNL     1     -44.530  38.045  28.409  1.00  0.00     0.076 H 
ENDROOT
BRANCH   1   4
ATOM      4  O   UNL     1     -46.470  38.575  27.858  1.00  0.00    -0.489 OA
BRANCH   4   5
ATOM      5  C   UNL     1     -47.140  37.419  27.568  1.00  0.00     0.122 A 
ATOM      6  C   UNL     1     -46.571  33.100  25.639  1.00  0.00     0.126 A 
ATOM      7  C   UNL     1     -47.925  32.813  25.773  1.00  0.00    -0.019 A 
ATOM      8  N   UNL     1     -46.056  34.278  26.044  1.00  0.00    -0.231 NA
ATOM      9  C   UNL     1     -48.770  33.755  26.353  1.00  0.00    -0.049 A 
ATOM     10  H   UNL     1     -48.326  31.872  25.414  1.00  0.00     0.066 H 
ATOM     11  C   UNL     1     -46.867  35.194  26.607  1.00  0.00     0.076 A 
ATOM     12  C   UNL     1     -48.246  34.977  26.781  1.00  0.00     0.001 A 
ATOM     13  H   UNL     1     -49.828  33.535  26.452  1.00  0.00     0.063 H 
ATOM     14  C   UNL     1     -46.341  36.408  27.021  1.00  0.00     0.007 A 
ATOM     15  C   UNL     1     -49.053  35.972  27.357  1.00  0.00    -0.049 A 
ATOM     16  H   UNL     1     -45.278  36.589  26.880  1.00  0.00     0.069 H 
ATOM     17  C   UNL     1     -48.501  37.193  27.746  1.00  0.00    -0.019 A 
ATOM     18  H   UNL     1     -50.121  35.809  27.488  1.00  0.00     0.063 H 
ATOM     19  H   UNL     1     -49.159  37.943  28.169  1.00  0.00     0.066 H 
BRANCH   6  20
ATOM     20  N   UNL     1     -45.754  32.141  25.012  1.00  0.00    -0.373 N 
ATOM     21  H   UNL     1     -44.884  32.584  24.733  1.00  0.00     0.161 HD
BRANCH  20  22
ATOM     22  C   UNL     1     -46.389  31.448  23.904  1.00  0.00     0.005 C 
ATOM     23  H   UNL     1     -47.266  31.991  23.536  1.00  0.00     0.045 H 
ATOM     24  H   UNL     1     -46.677  30.427  24.180  1.00  0.00     0.045 H 
ATOM     25  H   UNL     1     -45.676  31.372  23.077  1.00  0.00     0.045 H 
ENDBRANCH  20  22
ENDBRANCH   6  20
ENDBRANCH   4   5
ENDBRANCH   1   4
BRANCH   1  26
ATOM     26  C   UNL     1     -44.467  40.013  27.486  1.00  0.00    -0.008 A 
ATOM     27  C   UNL     1     -43.500  40.450  28.402  1.00  0.00    -0.050 A 
ATOM     28  C   UNL     1     -44.828  40.863  26.428  1.00  0.00    -0.031 A 
ATOM     29  C   UNL     1     -42.921  41.723  28.291  1.00  0.00    -0.020 A 
ATOM     30  H   UNL     1     -43.194  39.790  29.213  1.00  0.00     0.063 H 
ATOM     31  C   UNL     1     -44.282  42.146  26.303  1.00  0.00     0.048 A 
ATOM     32  H   UNL     1     -45.532  40.489  25.690  1.00  0.00     0.065 H 
ATOM     33  C   UNL     1     -43.313  42.558  27.230  1.00  0.00    -0.032 A 
ATOM     34  H   UNL     1     -42.868  43.548  27.184  1.00  0.00     0.065 H 
BRANCH  29  35
ATOM     35  C   UNL     1     -41.855  42.148  29.269  1.00  0.00     0.068 C 
ATOM     36  H   UNL     1     -40.878  42.185  28.776  1.00  0.00     0.062 H 
ATOM     37  H   UNL     1     -42.096  43.139  29.665  1.00  0.00     0.062 H 
BRANCH  35  38
ATOM     38  O   UNL     1     -41.761  41.231  30.350  1.00  0.00    -0.392 OA
ATOM     39  H   UNL     1     -40.955  40.707  30.203  1.00  0.00     0.211 HD
ENDBRANCH  35  38
ENDBRANCH  29  35
BRANCH  31  40
ATOM     40  N   UNL     1     -44.702  43.027  25.250  1.00  0.00    -0.300 N 
ATOM     41  C   UNL     1     -43.996  43.256  24.080  1.00  0.00     0.030 A 
ATOM     42  C   UNL     1     -45.856  43.815  25.201  1.00  0.00     0.151 A 
ATOM     43  C   UNL     1     -44.700  44.137  23.295  1.00  0.00     0.072 A 
ATOM     44  H   UNL     1     -43.066  42.752  23.871  1.00  0.00     0.084 H 
ATOM     45  C   UNL     1     -45.875  44.504  23.990  1.00  0.00     0.080 A 
ATOM     46  N   UNL     1     -46.786  43.941  26.169  1.00  0.00    -0.218 NA
ATOM     47  Cl  UNL     1     -44.223  44.696  21.761  1.00  0.00    -0.082 Cl
ATOM     48  C   UNL     1     -46.968  45.353  23.757  1.00  0.00     0.137 A 
ATOM     49  C   UNL     1     -47.769  44.791  25.848  1.00  0.00     0.120 A 
ATOM     50  N   UNL     1     -47.909  45.488  24.708  1.00  0.00    -0.219 NA
ATOM     51  H   UNL     1     -48.544  44.936  26.596  1.00  0.00     0.106 H 
BRANCH  48  52
ATOM     52  N   UNL     1     -47.142  46.095  22.600  1.00  0.00    -0.383 N 
ATOM     53  H   UNL     1     -48.096  46.356  22.386  1.00  0.00     0.158 HD
ATOM     54  H   UNL     1     -46.582  45.724  21.841  1.00  0.00     0.158 HD
ENDBRANCH  48  52
ENDBRANCH  31  40
ENDBRANCH   1  26
TORSDOF 9
ENDMDL
MODEL 6
REMARK VINA RESULT:      -9.4      2.007      2.620
REMARK SMILES CNc1ccc2ccc(OCc3cc(CO)cc(-n4cc(Cl)c5c(N)ncnc54)c3)cc2n1
REMARK SMILES IDX 11 1 10 4 9 5 3 6 4 7 33 8 5 9 32 11 6 12 31 14 7 15 8 17
REMARK SMILES IDX 2 20 1 22 12 26 13 27 30 28 14 29 18 31 17 33 15 35 16 38
REMARK SMILES IDX 19 40 20 41 29 42 21 43 23 45 28 46 22 47 24 48 27 49 26 50
REMARK SMILES IDX 25 52
REMARK H PARENT 11 2 11 3 4 10 5 13 31 16 7 18 8 19 2 21 1 23 1 24 1 25 13 30
REMARK H PARENT 30 32 17 34 15 36 15 37 16 39 20 44 27 51 25 53 25 54
REMARK Flexibility Score: inf
ROOT
ATOM      1  C   UNL     1     -47.551  35.613  26.564  1.00  0.00     0.113 C 
ATOM      2  H   UNL     1     -48.623  35.788  26.718  1.00  0.00     0.076 H 
ATOM      3  H   UNL     1     -47.361  35.795  25.499  1.00  0.00     0.076 H 
ENDROOT
BRANCH   1   4
ATOM      4  O   UNL     1     -47.330  34.235  26.882  1.00  0.00    -0.489 OA
BRANCH   4   5
ATOM      5  C   UNL     1     -47.801  33.280  26.023  1.00  0.00     0.122 A 
ATOM      6  C   UNL     1     -46.436  30.296  22.570  1.00  0.00     0.126 A 
ATOM      7  C   UNL     1     -47.746  29.888  22.345  1.00  0.00    -0.019 A 
ATOM      8  N   UNL     1     -46.134  31.209  23.515  1.00  0.00    -0.231 NA
ATOM      9  C   UNL     1     -48.772  30.420  23.120  1.00  0.00    -0.049 A 
ATOM     10  H   UNL     1     -47.972  29.175  21.560  1.00  0.00     0.066 H 
ATOM     11  C   UNL     1     -47.121  31.727  24.271  1.00  0.00     0.076 A 
ATOM     12  C   UNL     1     -48.470  31.363  24.106  1.00  0.00     0.001 A 
ATOM     13  H   UNL     1     -49.795  30.107  22.940  1.00  0.00     0.063 H 
ATOM     14  C   UNL     1     -46.814  32.669  25.240  1.00  0.00     0.007 A 
ATOM     15  C   UNL     1     -49.465  31.946  24.907  1.00  0.00    -0.049 A 
ATOM     16  H   UNL     1     -45.776  32.967  25.366  1.00  0.00     0.069 H 
ATOM     17  C   UNL     1     -49.130  32.907  25.862  1.00  0.00    -0.019 A 
ATOM     18  H   UNL     1     -50.509  31.670  24.779  1.00  0.00     0.063 H 
ATOM     19  H   UNL     1     -49.929  33.349  26.448  1.00  0.00     0.066 H 
BRANCH   6  20
ATOM     20  N   UNL     1     -45.430  29.768  21.741  1.00  0.00    -0.373 N 
ATOM     21  H   UNL     1     -45.856  29.428  20.884  1.00  0.00     0.161 HD
BRANCH  20  22
ATOM     22  C   UNL     1     -44.604  28.754  22.374  1.00  0.00     0.005 C 
ATOM     23  H   UNL     1     -43.622  29.150  22.656  1.00  0.00     0.045 H 
ATOM     24  H   UNL     1     -44.477  27.877  21.729  1.00  0.00     0.045 H 
ATOM     25  H   UNL     1     -45.099  28.415  23.290  1.00  0.00     0.045 H 
ENDBRANCH  20  22
ENDBRANCH   6  20
ENDBRANCH   4   5
ENDBRANCH   1   4
BRANCH   1  26
ATOM     26  C   UNL     1     -46.810  36.610  27.439  1.00  0.00    -0.008 A 
ATOM     27  C   UNL     1     -46.737  36.385  28.820  1.00  0.00    -0.050 A 
ATOM     28  C   UNL     1     -46.156  37.730  26.901  1.00  0.00    -0.031 A 
ATOM     29  C   UNL     1     -46.053  37.273  29.663  1.00  0.00    -0.020 A 
ATOM     30  H   UNL     1     -47.220  35.506  29.246  1.00  0.00     0.063 H 
ATOM     31  C   UNL     1     -45.482  38.645  27.719  1.00  0.00     0.048 A 
ATOM     32  H   UNL     1     -46.168  37.859  25.822  1.00  0.00     0.065 H 
ATOM     33  C   UNL     1     -45.420  38.394  29.098  1.00  0.00    -0.032 A 
ATOM     34  H   UNL     1     -44.920  39.080  29.777  1.00  0.00     0.065 H 
BRANCH  29  35
ATOM     35  C   UNL     1     -45.959  36.983  31.139  1.00  0.00     0.068 C 
ATOM     36  H   UNL     1     -46.821  36.394  31.469  1.00  0.00     0.062 H 
ATOM     37  H   UNL     1     -45.040  36.424  31.344  1.00  0.00     0.062 H 
BRANCH  35  38
ATOM     38  O   UNL     1     -45.942  38.187  31.894  1.00  0.00    -0.392 OA
ATOM     39  H   UNL     1     -46.767  38.658  31.687  1.00  0.00     0.211 HD
ENDBRANCH  35  38
ENDBRANCH  29  35
BRANCH  31  40
ATOM     40  N   UNL     1     -44.867  39.817  27.164  1.00  0.00    -0.300 N 
ATOM     41  C   UNL     1     -45.169  40.359  25.926  1.00  0.00     0.030 A 
ATOM     42  C   UNL     1     -43.866  40.610  27.733  1.00  0.00     0.151 A 
ATOM     43  C   UNL     1     -44.405  41.484  25.729  1.00  0.00     0.072 A 
ATOM     44  H   UNL     1     -45.927  39.931  25.289  1.00  0.00     0.084 H 
ATOM     45  C   UNL     1     -43.573  41.655  26.858  1.00  0.00     0.080 A 
ATOM     46  N   UNL     1     -43.238  40.395  28.907  1.00  0.00    -0.218 NA
ATOM     47  Cl  UNL     1     -44.450  42.483  24.353  1.00  0.00    -0.082 Cl
ATOM     48  C   UNL     1     -42.583  42.565  27.262  1.00  0.00     0.137 A 
ATOM     49  C   UNL     1     -42.300  41.310  29.178  1.00  0.00     0.120 A 
ATOM     50  N   UNL     1     -41.950  42.370  28.431  1.00  0.00    -0.219 NA
ATOM     51  H   UNL     1     -41.757  41.182  30.111  1.00  0.00     0.106 H 
BRANCH  48  52
ATOM     52  N   UNL     1     -42.187  43.663  26.514  1.00  0.00    -0.383 N 
ATOM     53  H   UNL     1     -42.769  43.881  25.716  1.00  0.00     0.158 HD
ATOM     54  H   UNL     1     -41.184  43.664  26.370  1.00  0.00     0.158 HD
ENDBRANCH  48  52
ENDBRANCH  31  40
ENDBRANCH   1  26
TORSDOF 9
ENDMDL
MODEL 7
REMARK VINA RESULT:      -9.3      1.901      2.512
REMARK SMILES CNc1ccc2ccc(OCc3cc(CO)cc(-n4cc(Cl)c5c(N)ncnc54)c3)cc2n1
REMARK SMILES IDX 11 1 10 4 9 5 3 6 4 7 33 8 5 9 32 11 6 12 31 14 7 15 8 17
REMARK SMILES IDX 2 20 1 22 12 26 13 27 30 28 14 29 18 31 17 33 15 35 16 38
REMARK SMILES IDX 19 40 20 41 29 42 21 43 23 45 28 46 22 47 24 48 27 49 26 50
REMARK SMILES IDX 25 52
REMARK H PARENT 11 2 11 3 4 10 5 13 31 16 7 18 8 19 2 21 1 23 1 24 1 25 13 30
REMARK H PARENT 30 32 17 34 15 36 15 37 16 39 20 44 27 51 25 53 25 54
REMARK Flexibility Score: inf
ROOT
ATOM      1  C   UNL     1     -46.751  35.365  27.991  1.00  0.00     0.113 C 
ATOM      2  H   UNL     1     -45.860  35.134  27.394  1.00  0.00     0.076 H 
ATOM      3  H   UNL     1     -46.546  34.996  29.003  1.00  0.00     0.076 H 
ENDROOT
BRANCH   1   4
ATOM      4  O   UNL     1     -47.823  34.626  27.398  1.00  0.00    -0.489 OA
BRANCH   4   5
ATOM      5  C   UNL     1     -47.535  33.746  26.391  1.00  0.00     0.122 A 
ATOM      6  C   UNL     1     -48.886  29.586  24.503  1.00  0.00     0.126 A 
ATOM      7  C   UNL     1     -47.837  29.609  23.592  1.00  0.00    -0.019 A 
ATOM      8  N   UNL     1     -49.068  30.582  25.395  1.00  0.00    -0.231 NA
ATOM      9  C   UNL     1     -46.959  30.689  23.585  1.00  0.00    -0.049 A 
ATOM     10  H   UNL     1     -47.689  28.785  22.903  1.00  0.00     0.066 H 
ATOM     11  C   UNL     1     -48.224  31.631  25.393  1.00  0.00     0.076 A 
ATOM     12  C   UNL     1     -47.141  31.728  24.500  1.00  0.00     0.001 A 
ATOM     13  H   UNL     1     -46.135  30.704  22.878  1.00  0.00     0.063 H 
ATOM     14  C   UNL     1     -48.406  32.654  26.311  1.00  0.00     0.007 A 
ATOM     15  C   UNL     1     -46.278  32.835  24.551  1.00  0.00    -0.049 A 
ATOM     16  H   UNL     1     -49.233  32.581  27.013  1.00  0.00     0.069 H 
ATOM     17  C   UNL     1     -46.473  33.841  25.498  1.00  0.00    -0.019 A 
ATOM     18  H   UNL     1     -45.437  32.911  23.865  1.00  0.00     0.063 H 
ATOM     19  H   UNL     1     -45.774  34.670  25.519  1.00  0.00     0.066 H 
BRANCH   6  20
ATOM     20  N   UNL     1     -49.729  28.460  24.509  1.00  0.00    -0.373 N 
ATOM     21  H   UNL     1     -50.257  28.450  25.377  1.00  0.00     0.161 HD
BRANCH  20  22
ATOM     22  C   UNL     1     -49.044  27.200  24.276  1.00  0.00     0.005 C 
ATOM     23  H   UNL     1     -49.562  26.363  24.758  1.00  0.00     0.045 H 
ATOM     24  H   UNL     1     -48.004  27.237  24.620  1.00  0.00     0.045 H 
ATOM     25  H   UNL     1     -49.024  27.000  23.200  1.00  0.00     0.045 H 
ENDBRANCH  20  22
ENDBRANCH   6  20
ENDBRANCH   4   5
ENDBRANCH   1   4
BRANCH   1  26
ATOM     26  C   UNL     1     -46.914  36.876  27.973  1.00  0.00    -0.008 A 
ATOM     27  C   UNL     1     -48.201  37.425  28.046  1.00  0.00    -0.050 A 
ATOM     28  C   UNL     1     -45.810  37.743  27.931  1.00  0.00    -0.031 A 
ATOM     29  C   UNL     1     -48.397  38.814  28.045  1.00  0.00    -0.020 A 
ATOM     30  H   UNL     1     -49.064  36.762  28.104  1.00  0.00     0.063 H 
ATOM     31  C   UNL     1     -45.975  39.133  27.909  1.00  0.00     0.048 A 
ATOM     32  H   UNL     1     -44.817  37.305  27.938  1.00  0.00     0.065 H 
ATOM     33  C   UNL     1     -47.274  39.658  27.987  1.00  0.00    -0.032 A 
ATOM     34  H   UNL     1     -47.455  40.729  27.962  1.00  0.00     0.065 H 
BRANCH  29  35
ATOM     35  C   UNL     1     -49.791  39.374  28.164  1.00  0.00     0.068 C 
ATOM     36  H   UNL     1     -50.087  39.864  27.230  1.00  0.00     0.062 H 
ATOM     37  H   UNL     1     -50.493  38.565  28.386  1.00  0.00     0.062 H 
BRANCH  35  38
ATOM     38  O   UNL     1     -49.863  40.343  29.202  1.00  0.00    -0.392 OA
ATOM     39  H   UNL     1     -48.950  40.503  29.498  1.00  0.00     0.211 HD
ENDBRANCH  35  38
ENDBRANCH  29  35
BRANCH  31  40
ATOM     40  N   UNL     1     -44.842  40.009  27.808  1.00  0.00    -0.300 N 
ATOM     41  C   UNL     1     -43.779  40.036  28.696  1.00  0.00     0.030 A 
ATOM     42  C   UNL     1     -44.597  40.985  26.837  1.00  0.00     0.151 A 
ATOM     43  C   UNL     1     -42.870  40.978  28.281  1.00  0.00     0.072 A 
ATOM     44  H   UNL     1     -43.727  39.362  29.537  1.00  0.00     0.084 H 
ATOM     45  C   UNL     1     -43.372  41.591  27.111  1.00  0.00     0.080 A 
ATOM     46  N   UNL     1     -45.414  41.334  25.823  1.00  0.00    -0.218 NA
ATOM     47  Cl  UNL     1     -41.403  41.347  29.059  1.00  0.00    -0.082 Cl
ATOM     48  C   UNL     1     -42.953  42.604  26.236  1.00  0.00     0.137 A 
ATOM     49  C   UNL     1     -44.923  42.324  25.068  1.00  0.00     0.120 A 
ATOM     50  N   UNL     1     -43.751  42.963  25.216  1.00  0.00    -0.219 NA
ATOM     51  H   UNL     1     -45.545  42.651  24.238  1.00  0.00     0.106 H 
BRANCH  48  52
ATOM     52  N   UNL     1     -41.757  43.294  26.363  1.00  0.00    -0.383 N 
ATOM     53  H   UNL     1     -41.831  44.236  26.724  1.00  0.00     0.158 HD
ATOM     54  H   UNL     1     -41.167  43.154  25.550  1.00  0.00     0.158 HD
ENDBRANCH  48  52
ENDBRANCH  31  40
ENDBRANCH   1  26
TORSDOF 9
ENDMDL
