MODEL 1
REMARK VINA RESULT:     -10.3      0.000      0.000
REMARK SMILES O=C(NCc1ccc2cc(CNCC(F)(F)F)[nH]c2c1)c1cc(=O)n2ccccc2n1
REMARK SMILES IDX 5 1 6 2 7 3 8 4 9 5 10 6 18 7 19 8 20 9 4 15 3 18 1 19 2 20
REMARK SMILES IDX 21 22 22 23 31 24 23 25 30 27 24 28 25 29 29 30 26 31 28 32
REMARK SMILES IDX 27 34 11 38 12 41 13 43 14 46 15 47 16 48 17 49
REMARK H PARENT 6 10 7 11 9 12 18 13 20 14 4 16 4 17 3 21 22 26 29 33 26 35
REMARK H PARENT 28 36 27 37 11 39 11 40 12 42 13 44 13 45
REMARK Flexibility Score: inf
ROOT
ATOM      1  C   UNL     1     -48.025  34.038  26.211  1.00  0.00    -0.027 A 
ATOM      2  C   UNL     1     -46.784  34.126  25.568  1.00  0.00    -0.057 A 
ATOM      3  C   UNL     1     -46.295  33.068  24.789  1.00  0.00    -0.052 A 
ATOM      4  C   UNL     1     -47.063  31.896  24.658  1.00  0.00    -0.000 A 
ATOM      5  C   UNL     1     -46.881  30.666  23.972  1.00  0.00    -0.032 A 
ATOM      6  C   UNL     1     -47.981  29.866  24.219  1.00  0.00     0.030 A 
ATOM      7  N   UNL     1     -48.828  30.588  25.026  1.00  0.00    -0.357 N 
ATOM      8  C   UNL     1     -48.291  31.821  25.312  1.00  0.00     0.046 A 
ATOM      9  C   UNL     1     -48.796  32.867  26.095  1.00  0.00    -0.033 A 
ATOM     10  H   UNL     1     -46.178  35.024  25.668  1.00  0.00     0.063 H 
ATOM     11  H   UNL     1     -45.333  33.152  24.293  1.00  0.00     0.063 H 
ATOM     12  H   UNL     1     -46.029  30.384  23.366  1.00  0.00     0.065 H 
ATOM     13  H   UNL     1     -49.723  30.267  25.369  1.00  0.00     0.166 HD
ATOM     14  H   UNL     1     -49.753  32.779  26.602  1.00  0.00     0.065 H 
ENDROOT
BRANCH   1  15
ATOM     15  C   UNL     1     -48.516  35.172  27.071  1.00  0.00     0.043 C 
ATOM     16  H   UNL     1     -49.382  35.665  26.612  1.00  0.00     0.054 H 
ATOM     17  H   UNL     1     -48.845  34.805  28.050  1.00  0.00     0.054 H 
BRANCH  15  18
ATOM     18  N   UNL     1     -47.482  36.157  27.255  1.00  0.00    -0.347 N 
ATOM     19  O   UNL     1     -46.889  35.488  29.370  1.00  0.00    -0.268 OA
ATOM     20  C   UNL     1     -46.781  36.265  28.428  1.00  0.00     0.270 C 
ATOM     21  H   UNL     1     -47.376  36.913  26.584  1.00  0.00     0.164 HD
BRANCH  20  22
ATOM     22  C   UNL     1     -45.860  37.461  28.441  1.00  0.00     0.136 A 
ATOM     23  C   UNL     1     -45.093  37.610  29.523  1.00  0.00     0.035 A 
ATOM     24  N   UNL     1     -45.866  38.313  27.359  1.00  0.00    -0.225 NA
ATOM     25  C   UNL     1     -44.182  38.760  29.576  1.00  0.00     0.258 A 
ATOM     26  H   UNL     1     -45.097  36.934  30.367  1.00  0.00     0.071 H 
ATOM     27  C   UNL     1     -45.062  39.329  27.411  1.00  0.00     0.140 A 
ATOM     28  O   UNL     1     -43.470  38.905  30.568  1.00  0.00    -0.269 OA
ATOM     29  N   UNL     1     -44.209  39.604  28.474  1.00  0.00    -0.268 N 
ATOM     30  C   UNL     1     -45.035  40.278  26.261  1.00  0.00    -0.019 A 
ATOM     31  C   UNL     1     -43.374  40.717  28.452  1.00  0.00     0.014 A 
ATOM     32  C   UNL     1     -44.214  41.335  26.287  1.00  0.00    -0.057 A 
ATOM     33  H   UNL     1     -45.696  40.072  25.429  1.00  0.00     0.066 H 
ATOM     34  C   UNL     1     -43.355  41.564  27.417  1.00  0.00    -0.045 A 
ATOM     35  H   UNL     1     -42.733  40.869  29.317  1.00  0.00     0.082 H 
ATOM     36  H   UNL     1     -44.182  42.037  25.459  1.00  0.00     0.062 H 
ATOM     37  H   UNL     1     -42.700  42.429  27.411  1.00  0.00     0.064 H 
ENDBRANCH  20  22
ENDBRANCH  15  18
ENDBRANCH   1  15
BRANCH   6  38
ATOM     38  C   UNL     1     -48.309  28.491  23.754  1.00  0.00     0.036 C 
ATOM     39  H   UNL     1     -48.995  28.508  22.900  1.00  0.00     0.049 H 
ATOM     40  H   UNL     1     -47.384  28.023  23.398  1.00  0.00     0.049 H 
BRANCH  38  41
ATOM     41  N   UNL     1     -48.852  27.670  24.832  1.00  0.00    -0.303 NA
ATOM     42  H   UNL     1     -49.688  28.120  25.207  1.00  0.00     0.123 HD
BRANCH  41  43
ATOM     43  C   UNL     1     -47.883  27.461  25.936  1.00  0.00     0.093 C 
ATOM     44  H   UNL     1     -47.213  28.325  26.009  1.00  0.00     0.052 H 
ATOM     45  H   UNL     1     -48.430  27.385  26.883  1.00  0.00     0.052 H 
BRANCH  43  46
ATOM     46  C   UNL     1     -47.004  26.203  25.815  1.00  0.00     0.401 C 
ATOM     47  F   UNL     1     -46.189  26.087  26.890  1.00  0.00    -0.170 F 
ATOM     48  F   UNL     1     -47.770  25.087  25.767  1.00  0.00    -0.170 F 
ATOM     49  F   UNL     1     -46.227  26.223  24.712  1.00  0.00    -0.170 F 
ENDBRANCH  43  46
ENDBRANCH  41  43
ENDBRANCH  38  41
ENDBRANCH   6  38
TORSDOF 7
ENDMDL
MODEL 2
REMARK VINA RESULT:      -9.7      2.997      3.977
REMARK SMILES O=C(NCc1ccc2cc(CNCC(F)(F)F)[nH]c2c1)c1cc(=O)n2ccccc2n1
REMARK SMILES IDX 5 1 6 2 7 3 8 4 9 5 10 6 18 7 19 8 20 9 4 15 3 18 1 19 2 20
REMARK SMILES IDX 21 22 22 23 31 24 23 25 30 27 24 28 25 29 29 30 26 31 28 32
REMARK SMILES IDX 27 34 11 38 12 41 13 43 14 46 15 47 16 48 17 49
REMARK H PARENT 6 10 7 11 9 12 18 13 20 14 4 16 4 17 3 21 22 26 29 33 26 35
REMARK H PARENT 28 36 27 37 11 39 11 40 12 42 13 44 13 45
REMARK Flexibility Score: inf
ROOT
ATOM      1  C   UNL     1     -46.555  35.469  28.499  1.00  0.00    -0.027 A 
ATOM      2  C   UNL     1     -47.808  35.862  28.012  1.00  0.00    -0.057 A 
ATOM      3  C   UNL     1     -48.425  35.173  26.960  1.00  0.00    -0.052 A 
ATOM      4  C   UNL     1     -47.771  34.071  26.380  1.00  0.00    -0.000 A 
ATOM      5  C   UNL     1     -48.091  33.171  25.328  1.00  0.00    -0.032 A 
ATOM      6  C   UNL     1     -47.044  32.280  25.187  1.00  0.00     0.030 A 
ATOM      7  N   UNL     1     -46.106  32.610  26.136  1.00  0.00    -0.357 N 
ATOM      8  C   UNL     1     -46.521  33.698  26.869  1.00  0.00     0.046 A 
ATOM      9  C   UNL     1     -45.887  34.375  27.919  1.00  0.00    -0.033 A 
ATOM     10  H   UNL     1     -48.320  36.717  28.448  1.00  0.00     0.063 H 
ATOM     11  H   UNL     1     -49.399  35.487  26.596  1.00  0.00     0.063 H 
ATOM     12  H   UNL     1     -48.990  33.177  24.724  1.00  0.00     0.065 H 
ATOM     13  H   UNL     1     -45.230  32.130  26.284  1.00  0.00     0.166 HD
ATOM     14  H   UNL     1     -44.908  34.069  28.275  1.00  0.00     0.065 H 
ENDROOT
BRANCH   1  15
ATOM     15  C   UNL     1     -45.893  36.245  29.607  1.00  0.00     0.043 C 
ATOM     16  H   UNL     1     -46.639  36.642  30.307  1.00  0.00     0.054 H 
ATOM     17  H   UNL     1     -45.226  35.600  30.190  1.00  0.00     0.054 H 
BRANCH  15  18
ATOM     18  N   UNL     1     -45.141  37.351  29.076  1.00  0.00    -0.347 N 
ATOM     19  O   UNL     1     -44.615  38.280  31.108  1.00  0.00    -0.268 OA
ATOM     20  C   UNL     1     -44.601  38.318  29.884  1.00  0.00     0.270 C 
ATOM     21  H   UNL     1     -45.150  37.539  28.077  1.00  0.00     0.164 HD
BRANCH  20  22
ATOM     22  C   UNL     1     -43.990  39.452  29.096  1.00  0.00     0.136 A 
ATOM     23  C   UNL     1     -42.913  40.033  29.627  1.00  0.00     0.035 A 
ATOM     24  N   UNL     1     -44.571  39.816  27.902  1.00  0.00    -0.225 NA
ATOM     25  C   UNL     1     -42.288  41.141  28.894  1.00  0.00     0.258 A 
ATOM     26  H   UNL     1     -42.466  39.739  30.568  1.00  0.00     0.071 H 
ATOM     27  C   UNL     1     -44.017  40.796  27.257  1.00  0.00     0.140 A 
ATOM     28  O   UNL     1     -41.293  41.681  29.374  1.00  0.00    -0.269 OA
ATOM     29  N   UNL     1     -42.892  41.488  27.694  1.00  0.00    -0.268 N 
ATOM     30  C   UNL     1     -44.611  41.223  25.959  1.00  0.00    -0.019 A 
ATOM     31  C   UNL     1     -42.357  42.530  26.942  1.00  0.00     0.014 A 
ATOM     32  C   UNL     1     -44.060  42.231  25.272  1.00  0.00    -0.057 A 
ATOM     33  H   UNL     1     -45.487  40.690  25.611  1.00  0.00     0.066 H 
ATOM     34  C   UNL     1     -42.896  42.908  25.777  1.00  0.00    -0.045 A 
ATOM     35  H   UNL     1     -41.477  43.026  27.344  1.00  0.00     0.082 H 
ATOM     36  H   UNL     1     -44.479  42.557  24.325  1.00  0.00     0.062 H 
ATOM     37  H   UNL     1     -42.470  43.722  25.199  1.00  0.00     0.064 H 
ENDBRANCH  20  22
ENDBRANCH  15  18
ENDBRANCH   1  15
BRANCH   6  38
ATOM     38  C   UNL     1     -46.855  31.140  24.250  1.00  0.00     0.036 C 
ATOM     39  H   UNL     1     -45.931  30.591  24.464  1.00  0.00     0.049 H 
ATOM     40  H   UNL     1     -47.679  30.433  24.405  1.00  0.00     0.049 H 
BRANCH  38  41
ATOM     41  N   UNL     1     -46.882  31.575  22.856  1.00  0.00    -0.303 NA
ATOM     42  H   UNL     1     -47.630  32.259  22.733  1.00  0.00     0.123 HD
BRANCH  41  43
ATOM     43  C   UNL     1     -47.098  30.452  21.911  1.00  0.00     0.093 C 
ATOM     44  H   UNL     1     -46.206  30.314  21.288  1.00  0.00     0.052 H 
ATOM     45  H   UNL     1     -47.249  29.528  22.482  1.00  0.00     0.052 H 
BRANCH  43  46
ATOM     46  C   UNL     1     -48.303  30.606  20.965  1.00  0.00     0.401 C 
ATOM     47  F   UNL     1     -47.957  31.315  19.865  1.00  0.00    -0.170 F 
ATOM     48  F   UNL     1     -48.737  29.394  20.543  1.00  0.00    -0.170 F 
ATOM     49  F   UNL     1     -49.339  31.239  21.552  1.00  0.00    -0.170 F 
ENDBRANCH  43  46
ENDBRANCH  41  43
ENDBRANCH  38  41
ENDBRANCH   6  38
TORSDOF 7
ENDMDL
MODEL 3
REMARK VINA RESULT:      -9.6      5.076     11.002
REMARK SMILES O=C(NCc1ccc2cc(CNCC(F)(F)F)[nH]c2c1)c1cc(=O)n2ccccc2n1
REMARK SMILES IDX 5 1 6 2 7 3 8 4 9 5 10 6 18 7 19 8 20 9 4 15 3 18 1 19 2 20
REMARK SMILES IDX 21 22 22 23 31 24 23 25 30 27 24 28 25 29 29 30 26 31 28 32
REMARK SMILES IDX 27 34 11 38 12 41 13 43 14 46 15 47 16 48 17 49
REMARK H PARENT 6 10 7 11 9 12 18 13 20 14 4 16 4 17 3 21 22 26 29 33 26 35
REMARK H PARENT 28 36 27 37 11 39 11 40 12 42 13 44 13 45
REMARK Flexibility Score: inf
ROOT
ATOM      1  C   UNL     1     -46.799  33.428  25.420  1.00  0.00    -0.027 A 
ATOM      2  C   UNL     1     -48.149  33.643  25.721  1.00  0.00    -0.057 A 
ATOM      3  C   UNL     1     -48.533  34.490  26.769  1.00  0.00    -0.052 A 
ATOM      4  C   UNL     1     -47.541  35.130  27.535  1.00  0.00    -0.000 A 
ATOM      5  C   UNL     1     -47.568  36.025  28.638  1.00  0.00    -0.032 A 
ATOM      6  C   UNL     1     -46.264  36.317  28.990  1.00  0.00     0.030 A 
ATOM      7  N   UNL     1     -45.451  35.632  28.118  1.00  0.00    -0.357 N 
ATOM      8  C   UNL     1     -46.203  34.900  27.229  1.00  0.00     0.046 A 
ATOM      9  C   UNL     1     -45.800  34.056  26.186  1.00  0.00    -0.033 A 
ATOM     10  H   UNL     1     -48.924  33.147  25.140  1.00  0.00     0.063 H 
ATOM     11  H   UNL     1     -49.584  34.650  26.988  1.00  0.00     0.063 H 
ATOM     12  H   UNL     1     -48.449  36.411  29.136  1.00  0.00     0.065 H 
ATOM     13  H   UNL     1     -44.440  35.655  28.121  1.00  0.00     0.166 HD
ATOM     14  H   UNL     1     -44.748  33.886  25.975  1.00  0.00     0.065 H 
ENDROOT
BRANCH   1  15
ATOM     15  C   UNL     1     -46.408  32.487  24.312  1.00  0.00     0.043 C 
ATOM     16  H   UNL     1     -46.765  32.854  23.342  1.00  0.00     0.054 H 
ATOM     17  H   UNL     1     -45.317  32.405  24.236  1.00  0.00     0.054 H 
BRANCH  15  18
ATOM     18  N   UNL     1     -46.968  31.179  24.533  1.00  0.00    -0.347 N 
ATOM     19  O   UNL     1     -48.508  31.290  22.834  1.00  0.00    -0.268 OA
ATOM     20  C   UNL     1     -48.022  30.706  23.795  1.00  0.00     0.270 C 
ATOM     21  H   UNL     1     -46.713  30.651  25.362  1.00  0.00     0.164 HD
BRANCH  20  22
ATOM     22  C   UNL     1     -48.534  29.380  24.306  1.00  0.00     0.136 A 
ATOM     23  C   UNL     1     -49.851  29.182  24.232  1.00  0.00     0.035 A 
ATOM     24  N   UNL     1     -47.630  28.472  24.810  1.00  0.00    -0.225 NA
ATOM     25  C   UNL     1     -50.391  27.906  24.717  1.00  0.00     0.258 A 
ATOM     26  H   UNL     1     -50.552  29.904  23.834  1.00  0.00     0.071 H 
ATOM     27  C   UNL     1     -48.110  27.347  25.240  1.00  0.00     0.140 A 
ATOM     28  O   UNL     1     -51.603  27.713  24.651  1.00  0.00    -0.269 OA
ATOM     29  N   UNL     1     -49.459  27.009  25.221  1.00  0.00    -0.268 N 
ATOM     30  C   UNL     1     -47.168  26.333  25.795  1.00  0.00    -0.019 A 
ATOM     31  C   UNL     1     -49.895  25.778  25.701  1.00  0.00     0.014 A 
ATOM     32  C   UNL     1     -47.636  25.163  26.244  1.00  0.00    -0.057 A 
ATOM     33  H   UNL     1     -46.116  26.587  25.814  1.00  0.00     0.066 H 
ATOM     34  C   UNL     1     -49.044  24.873  26.197  1.00  0.00    -0.045 A 
ATOM     35  H   UNL     1     -50.963  25.581  25.655  1.00  0.00     0.082 H 
ATOM     36  H   UNL     1     -46.965  24.413  26.653  1.00  0.00     0.062 H 
ATOM     37  H   UNL     1     -49.395  23.916  26.570  1.00  0.00     0.064 H 
ENDBRANCH  20  22
ENDBRANCH  15  18
ENDBRANCH   1  15
BRANCH   6  38
ATOM     38  C   UNL     1     -45.717  37.191  30.063  1.00  0.00     0.036 C 
ATOM     39  H   UNL     1     -45.831  36.735  31.052  1.00  0.00     0.049 H 
ATOM     40  H   UNL     1     -44.638  37.299  29.895  1.00  0.00     0.049 H 
BRANCH  38  41
ATOM     41  N   UNL     1     -46.319  38.521  30.038  1.00  0.00    -0.303 NA
ATOM     42  H   UNL     1     -47.291  38.454  30.341  1.00  0.00     0.123 HD
BRANCH  41  43
ATOM     43  C   UNL     1     -46.277  39.143  28.691  1.00  0.00     0.093 C 
ATOM     44  H   UNL     1     -46.701  38.455  27.951  1.00  0.00     0.052 H 
ATOM     45  H   UNL     1     -46.897  40.048  28.696  1.00  0.00     0.052 H 
BRANCH  43  46
ATOM     46  C   UNL     1     -44.878  39.551  28.195  1.00  0.00     0.401 C 
ATOM     47  F   UNL     1     -44.019  39.668  29.235  1.00  0.00    -0.170 F 
ATOM     48  F   UNL     1     -44.374  38.610  27.360  1.00  0.00    -0.170 F 
ATOM     49  F   UNL     1     -44.889  40.729  27.537  1.00  0.00    -0.170 F 
ENDBRANCH  43  46
ENDBRANCH  41  43
ENDBRANCH  38  41
ENDBRANCH   6  38
TORSDOF 7
ENDMDL
MODEL 4
REMARK VINA RESULT:      -9.6      3.227      4.439
REMARK SMILES O=C(NCc1ccc2cc(CNCC(F)(F)F)[nH]c2c1)c1cc(=O)n2ccccc2n1
REMARK SMILES IDX 5 1 6 2 7 3 8 4 9 5 10 6 18 7 19 8 20 9 4 15 3 18 1 19 2 20
REMARK SMILES IDX 21 22 22 23 31 24 23 25 30 27 24 28 25 29 29 30 26 31 28 32
REMARK SMILES IDX 27 34 11 38 12 41 13 43 14 46 15 47 16 48 17 49
REMARK H PARENT 6 10 7 11 9 12 18 13 20 14 4 16 4 17 3 21 22 26 29 33 26 35
REMARK H PARENT 28 36 27 37 11 39 11 40 12 42 13 44 13 45
REMARK Flexibility Score: inf
ROOT
ATOM      1  C   UNL     1     -46.655  35.570  27.753  1.00  0.00    -0.027 A 
ATOM      2  C   UNL     1     -48.037  35.472  27.552  1.00  0.00    -0.057 A 
ATOM      3  C   UNL     1     -48.574  34.539  26.655  1.00  0.00    -0.052 A 
ATOM      4  C   UNL     1     -47.708  33.692  25.940  1.00  0.00    -0.000 A 
ATOM      5  C   UNL     1     -47.900  32.665  24.978  1.00  0.00    -0.032 A 
ATOM      6  C   UNL     1     -46.659  32.181  24.609  1.00  0.00     0.030 A 
ATOM      7  N   UNL     1     -45.724  32.881  25.333  1.00  0.00    -0.357 N 
ATOM      8  C   UNL     1     -46.335  33.808  26.145  1.00  0.00     0.046 A 
ATOM      9  C   UNL     1     -45.779  34.735  27.036  1.00  0.00    -0.033 A 
ATOM     10  H   UNL     1     -48.716  36.127  28.094  1.00  0.00     0.063 H 
ATOM     11  H   UNL     1     -49.648  34.473  26.512  1.00  0.00     0.063 H 
ATOM     12  H   UNL     1     -48.847  32.318  24.584  1.00  0.00     0.065 H 
ATOM     13  H   UNL     1     -44.724  32.743  25.285  1.00  0.00     0.166 HD
ATOM     14  H   UNL     1     -44.704  34.811  27.170  1.00  0.00     0.065 H 
ENDROOT
BRANCH   1  15
ATOM     15  C   UNL     1     -46.096  36.603  28.696  1.00  0.00     0.043 C 
ATOM     16  H   UNL     1     -46.837  36.883  29.455  1.00  0.00     0.054 H 
ATOM     17  H   UNL     1     -45.226  36.209  29.235  1.00  0.00     0.054 H 
BRANCH  15  18
ATOM     18  N   UNL     1     -45.713  37.792  27.980  1.00  0.00    -0.347 N 
ATOM     19  O   UNL     1     -44.365  38.642  29.633  1.00  0.00    -0.268 OA
ATOM     20  C   UNL     1     -44.908  38.750  28.540  1.00  0.00     0.270 C 
ATOM     21  H   UNL     1     -46.180  38.035  27.112  1.00  0.00     0.164 HD
BRANCH  20  22
ATOM     22  C   UNL     1     -44.769  39.971  27.663  1.00  0.00     0.136 A 
ATOM     23  C   UNL     1     -45.889  40.434  27.106  1.00  0.00     0.035 A 
ATOM     24  N   UNL     1     -43.519  40.522  27.489  1.00  0.00    -0.225 NA
ATOM     25  C   UNL     1     -45.799  41.620  26.245  1.00  0.00     0.258 A 
ATOM     26  H   UNL     1     -46.866  39.992  27.249  1.00  0.00     0.071 H 
ATOM     27  C   UNL     1     -43.443  41.568  26.727  1.00  0.00     0.140 A 
ATOM     28  O   UNL     1     -46.826  42.056  25.730  1.00  0.00    -0.269 OA
ATOM     29  N   UNL     1     -44.528  42.156  26.086  1.00  0.00    -0.268 N 
ATOM     30  C   UNL     1     -42.109  42.199  26.510  1.00  0.00    -0.019 A 
ATOM     31  C   UNL     1     -44.362  43.280  25.283  1.00  0.00     0.014 A 
ATOM     32  C   UNL     1     -42.001  43.280  25.729  1.00  0.00    -0.057 A 
ATOM     33  H   UNL     1     -41.258  41.748  27.005  1.00  0.00     0.066 H 
ATOM     34  C   UNL     1     -43.162  43.841  25.094  1.00  0.00    -0.045 A 
ATOM     35  H   UNL     1     -45.255  43.687  24.814  1.00  0.00     0.082 H 
ATOM     36  H   UNL     1     -41.038  43.752  25.559  1.00  0.00     0.062 H 
ATOM     37  H   UNL     1     -43.045  44.718  24.465  1.00  0.00     0.064 H 
ENDBRANCH  20  22
ENDBRANCH  15  18
ENDBRANCH   1  15
BRANCH   6  38
ATOM     38  C   UNL     1     -46.277  31.113  23.646  1.00  0.00     0.036 C 
ATOM     39  H   UNL     1     -45.200  30.914  23.670  1.00  0.00     0.049 H 
ATOM     40  H   UNL     1     -46.770  30.184  23.957  1.00  0.00     0.049 H 
BRANCH  38  41
ATOM     41  N   UNL     1     -46.711  31.427  22.287  1.00  0.00    -0.303 NA
ATOM     42  H   UNL     1     -47.134  32.357  22.278  1.00  0.00     0.123 HD
BRANCH  41  43
ATOM     43  C   UNL     1     -47.692  30.448  21.758  1.00  0.00     0.093 C 
ATOM     44  H   UNL     1     -47.188  29.498  21.544  1.00  0.00     0.052 H 
ATOM     45  H   UNL     1     -48.452  30.254  22.524  1.00  0.00     0.052 H 
BRANCH  43  46
ATOM     46  C   UNL     1     -48.432  30.878  20.479  1.00  0.00     0.401 C 
ATOM     47  F   UNL     1     -49.480  31.679  20.782  1.00  0.00    -0.170 F 
ATOM     48  F   UNL     1     -47.608  31.582  19.665  1.00  0.00    -0.170 F 
ATOM     49  F   UNL     1     -48.907  29.826  19.781  1.00  0.00    -0.170 F 
ENDBRANCH  43  46
ENDBRANCH  41  43
ENDBRANCH  38  41
ENDBRANCH   6  38
TORSDOF 7
ENDMDL
MODEL 5
REMARK VINA RESULT:      -9.5      3.326      3.958
REMARK SMILES O=C(NCc1ccc2cc(CNCC(F)(F)F)[nH]c2c1)c1cc(=O)n2ccccc2n1
REMARK SMILES IDX 5 1 6 2 7 3 8 4 9 5 10 6 18 7 19 8 20 9 4 15 3 18 1 19 2 20
REMARK SMILES IDX 21 22 22 23 31 24 23 25 30 27 24 28 25 29 29 30 26 31 28 32
REMARK SMILES IDX 27 34 11 38 12 41 13 43 14 46 15 47 16 48 17 49
REMARK H PARENT 6 10 7 11 9 12 18 13 20 14 4 16 4 17 3 21 22 26 29 33 26 35
REMARK H PARENT 28 36 27 37 11 39 11 40 12 42 13 44 13 45
REMARK Flexibility Score: inf
ROOT
ATOM      1  C   UNL     1     -47.682  35.039  26.913  1.00  0.00    -0.027 A 
ATOM      2  C   UNL     1     -46.380  34.875  26.427  1.00  0.00    -0.057 A 
ATOM      3  C   UNL     1     -46.056  33.818  25.566  1.00  0.00    -0.052 A 
ATOM      4  C   UNL     1     -47.057  32.903  25.191  1.00  0.00    -0.000 A 
ATOM      5  C   UNL     1     -47.082  31.748  24.364  1.00  0.00    -0.032 A 
ATOM      6  C   UNL     1     -48.364  31.235  24.377  1.00  0.00     0.030 A 
ATOM      7  N   UNL     1     -49.118  32.058  25.179  1.00  0.00    -0.357 N 
ATOM      8  C   UNL     1     -48.345  33.075  25.691  1.00  0.00     0.046 A 
ATOM      9  C   UNL     1     -48.688  34.124  26.552  1.00  0.00    -0.033 A 
ATOM     10  H   UNL     1     -45.596  35.573  26.716  1.00  0.00     0.063 H 
ATOM     11  H   UNL     1     -45.042  33.706  25.194  1.00  0.00     0.063 H 
ATOM     12  H   UNL     1     -46.246  31.325  23.821  1.00  0.00     0.065 H 
ATOM     13  H   UNL     1     -50.102  31.942  25.376  1.00  0.00     0.166 HD
ATOM     14  H   UNL     1     -49.699  34.229  26.935  1.00  0.00     0.065 H 
ENDROOT
BRANCH   1  15
ATOM     15  C   UNL     1     -48.002  36.162  27.864  1.00  0.00     0.043 C 
ATOM     16  H   UNL     1     -48.928  36.672  27.571  1.00  0.00     0.054 H 
ATOM     17  H   UNL     1     -48.161  35.780  28.879  1.00  0.00     0.054 H 
BRANCH  15  18
ATOM     18  N   UNL     1     -46.939  37.133  27.882  1.00  0.00    -0.347 N 
ATOM     19  O   UNL     1     -48.302  38.976  28.012  1.00  0.00    -0.268 OA
ATOM     20  C   UNL     1     -47.187  38.481  27.903  1.00  0.00     0.270 C 
ATOM     21  H   UNL     1     -45.984  36.844  27.694  1.00  0.00     0.164 HD
BRANCH  20  22
ATOM     22  C   UNL     1     -45.926  39.301  27.764  1.00  0.00     0.136 A 
ATOM     23  C   UNL     1     -45.789  39.994  26.633  1.00  0.00     0.035 A 
ATOM     24  N   UNL     1     -45.009  39.282  28.791  1.00  0.00    -0.225 NA
ATOM     25  C   UNL     1     -44.578  40.805  26.457  1.00  0.00     0.258 A 
ATOM     26  H   UNL     1     -46.517  40.000  25.832  1.00  0.00     0.071 H 
ATOM     27  C   UNL     1     -43.939  39.998  28.631  1.00  0.00     0.140 A 
ATOM     28  O   UNL     1     -44.444  41.450  25.419  1.00  0.00    -0.269 OA
ATOM     29  N   UNL     1     -43.669  40.769  27.505  1.00  0.00    -0.268 N 
ATOM     30  C   UNL     1     -42.918  40.009  29.717  1.00  0.00    -0.019 A 
ATOM     31  C   UNL     1     -42.496  41.511  27.411  1.00  0.00     0.014 A 
ATOM     32  C   UNL     1     -41.805  40.739  29.580  1.00  0.00    -0.057 A 
ATOM     33  H   UNL     1     -43.119  39.412  30.598  1.00  0.00     0.066 H 
ATOM     34  C   UNL     1     -41.584  41.516  28.390  1.00  0.00    -0.045 A 
ATOM     35  H   UNL     1     -42.351  42.091  26.503  1.00  0.00     0.082 H 
ATOM     36  H   UNL     1     -41.050  40.759  30.360  1.00  0.00     0.062 H 
ATOM     37  H   UNL     1     -40.672  42.099  28.306  1.00  0.00     0.064 H 
ENDBRANCH  20  22
ENDBRANCH  15  18
ENDBRANCH   1  15
BRANCH   6  38
ATOM     38  C   UNL     1     -48.945  30.048  23.692  1.00  0.00     0.036 C 
ATOM     39  H   UNL     1     -48.799  29.133  24.277  1.00  0.00     0.049 H 
ATOM     40  H   UNL     1     -50.030  30.197  23.617  1.00  0.00     0.049 H 
BRANCH  38  41
ATOM     41  N   UNL     1     -48.411  29.885  22.342  1.00  0.00    -0.303 NA
ATOM     42  H   UNL     1     -47.786  30.665  22.134  1.00  0.00     0.123 HD
BRANCH  41  43
ATOM     43  C   UNL     1     -49.475  29.832  21.309  1.00  0.00     0.093 C 
ATOM     44  H   UNL     1     -49.234  29.060  20.569  1.00  0.00     0.052 H 
ATOM     45  H   UNL     1     -50.422  29.551  21.785  1.00  0.00     0.052 H 
BRANCH  43  46
ATOM     46  C   UNL     1     -49.720  31.146  20.544  1.00  0.00     0.401 C 
ATOM     47  F   UNL     1     -48.574  31.582  19.970  1.00  0.00    -0.170 F 
ATOM     48  F   UNL     1     -50.622  30.959  19.551  1.00  0.00    -0.170 F 
ATOM     49  F   UNL     1     -50.178  32.129  21.345  1.00  0.00    -0.170 F 
ENDBRANCH  43  46
ENDBRANCH  41  43
ENDBRANCH  38  41
ENDBRANCH   6  38
TORSDOF 7
ENDMDL
MODEL 6
REMARK VINA RESULT:      -9.5      1.566      2.196
REMARK SMILES O=C(NCc1ccc2cc(CNCC(F)(F)F)[nH]c2c1)c1cc(=O)n2ccccc2n1
REMARK SMILES IDX 5 1 6 2 7 3 8 4 9 5 10 6 18 7 19 8 20 9 4 15 3 18 1 19 2 20
REMARK SMILES IDX 21 22 22 23 31 24 23 25 30 27 24 28 25 29 29 30 26 31 28 32
REMARK SMILES IDX 27 34 11 38 12 41 13 43 14 46 15 47 16 48 17 49
REMARK H PARENT 6 10 7 11 9 12 18 13 20 14 4 16 4 17 3 21 22 26 29 33 26 35
REMARK H PARENT 28 36 27 37 11 39 11 40 12 42 13 44 13 45
REMARK Flexibility Score: inf
ROOT
ATOM      1  C   UNL     1     -46.425  33.787  27.377  1.00  0.00    -0.027 A 
ATOM      2  C   UNL     1     -46.110  34.435  26.177  1.00  0.00    -0.057 A 
ATOM      3  C   UNL     1     -46.381  33.838  24.938  1.00  0.00    -0.052 A 
ATOM      4  C   UNL     1     -46.974  32.562  24.903  1.00  0.00    -0.000 A 
ATOM      5  C   UNL     1     -47.373  31.685  23.859  1.00  0.00    -0.032 A 
ATOM      6  C   UNL     1     -47.894  30.541  24.431  1.00  0.00     0.030 A 
ATOM      7  N   UNL     1     -47.833  30.710  25.794  1.00  0.00    -0.357 N 
ATOM      8  C   UNL     1     -47.273  31.927  26.106  1.00  0.00     0.046 A 
ATOM      9  C   UNL     1     -47.009  32.507  27.353  1.00  0.00    -0.033 A 
ATOM     10  H   UNL     1     -45.645  35.419  26.192  1.00  0.00     0.063 H 
ATOM     11  H   UNL     1     -46.135  34.354  24.016  1.00  0.00     0.063 H 
ATOM     12  H   UNL     1     -47.279  31.864  22.795  1.00  0.00     0.065 H 
ATOM     13  H   UNL     1     -48.151  30.041  26.481  1.00  0.00     0.166 HD
ATOM     14  H   UNL     1     -47.244  31.985  28.276  1.00  0.00     0.065 H 
ENDROOT
BRANCH   1  15
ATOM     15  C   UNL     1     -46.095  34.431  28.698  1.00  0.00     0.043 C 
ATOM     16  H   UNL     1     -46.999  34.569  29.303  1.00  0.00     0.054 H 
ATOM     17  H   UNL     1     -45.418  33.797  29.282  1.00  0.00     0.054 H 
BRANCH  15  18
ATOM     18  N   UNL     1     -45.486  35.719  28.497  1.00  0.00    -0.347 N 
ATOM     19  O   UNL     1     -46.153  36.613  30.504  1.00  0.00    -0.268 OA
ATOM     20  C   UNL     1     -45.613  36.734  29.411  1.00  0.00     0.270 C 
ATOM     21  H   UNL     1     -45.101  35.964  27.589  1.00  0.00     0.164 HD
BRANCH  20  22
ATOM     22  C   UNL     1     -45.021  38.032  28.917  1.00  0.00     0.136 A 
ATOM     23  C   UNL     1     -45.543  38.536  27.798  1.00  0.00     0.035 A 
ATOM     24  N   UNL     1     -43.996  38.607  29.635  1.00  0.00    -0.225 NA
ATOM     25  C   UNL     1     -44.996  39.798  27.283  1.00  0.00     0.258 A 
ATOM     26  H   UNL     1     -46.348  38.075  27.242  1.00  0.00     0.071 H 
ATOM     27  C   UNL     1     -43.514  39.720  29.176  1.00  0.00     0.140 A 
ATOM     28  O   UNL     1     -45.472  40.272  26.253  1.00  0.00    -0.269 OA
ATOM     29  N   UNL     1     -43.963  40.356  28.024  1.00  0.00    -0.268 N 
ATOM     30  C   UNL     1     -42.403  40.379  29.921  1.00  0.00    -0.019 A 
ATOM     31  C   UNL     1     -43.393  41.552  27.598  1.00  0.00     0.014 A 
ATOM     32  C   UNL     1     -41.887  41.529  29.471  1.00  0.00    -0.057 A 
ATOM     33  H   UNL     1     -42.046  39.891  30.819  1.00  0.00     0.066 H 
ATOM     34  C   UNL     1     -42.397  42.137  28.272  1.00  0.00    -0.045 A 
ATOM     35  H   UNL     1     -43.795  41.993  26.689  1.00  0.00     0.082 H 
ATOM     36  H   UNL     1     -41.077  42.022  29.999  1.00  0.00     0.062 H 
ATOM     37  H   UNL     1     -41.959  43.070  27.930  1.00  0.00     0.064 H 
ENDBRANCH  20  22
ENDBRANCH  15  18
ENDBRANCH   1  15
BRANCH   6  38
ATOM     38  C   UNL     1     -48.456  29.310  23.810  1.00  0.00     0.036 C 
ATOM     39  H   UNL     1     -49.390  29.519  23.277  1.00  0.00     0.049 H 
ATOM     40  H   UNL     1     -47.742  28.955  23.057  1.00  0.00     0.049 H 
BRANCH  38  41
ATOM     41  N   UNL     1     -48.651  28.248  24.793  1.00  0.00    -0.303 NA
ATOM     42  H   UNL     1     -48.785  28.666  25.715  1.00  0.00     0.123 HD
BRANCH  41  43
ATOM     43  C   UNL     1     -47.504  27.308  24.854  1.00  0.00     0.093 C 
ATOM     44  H   UNL     1     -47.495  26.676  23.959  1.00  0.00     0.052 H 
ATOM     45  H   UNL     1     -46.571  27.883  24.864  1.00  0.00     0.052 H 
BRANCH  43  46
ATOM     46  C   UNL     1     -47.479  26.376  26.079  1.00  0.00     0.401 C 
ATOM     47  F   UNL     1     -48.289  25.309  25.882  1.00  0.00    -0.170 F 
ATOM     48  F   UNL     1     -46.229  25.899  26.291  1.00  0.00    -0.170 F 
ATOM     49  F   UNL     1     -47.885  26.996  27.206  1.00  0.00    -0.170 F 
ENDBRANCH  43  46
ENDBRANCH  41  43
ENDBRANCH  38  41
ENDBRANCH   6  38
TORSDOF 7
ENDMDL
MODEL 7
REMARK VINA RESULT:      -9.3      3.034      5.202
REMARK SMILES O=C(NCc1ccc2cc(CNCC(F)(F)F)[nH]c2c1)c1cc(=O)n2ccccc2n1
REMARK SMILES IDX 5 1 6 2 7 3 8 4 9 5 10 6 18 7 19 8 20 9 4 15 3 18 1 19 2 20
REMARK SMILES IDX 21 22 22 23 31 24 23 25 30 27 24 28 25 29 29 30 26 31 28 32
REMARK SMILES IDX 27 34 11 38 12 41 13 43 14 46 15 47 16 48 17 49
REMARK H PARENT 6 10 7 11 9 12 18 13 20 14 4 16 4 17 3 21 22 26 29 33 26 35
REMARK H PARENT 28 36 27 37 11 39 11 40 12 42 13 44 13 45
REMARK Flexibility Score: inf
ROOT
ATOM      1  C   UNL     1     -45.765  37.567  28.297  1.00  0.00    -0.027 A 
ATOM      2  C   UNL     1     -47.085  37.916  27.984  1.00  0.00    -0.057 A 
ATOM      3  C   UNL     1     -47.946  37.003  27.359  1.00  0.00    -0.052 A 
ATOM      4  C   UNL     1     -47.473  35.718  27.036  1.00  0.00    -0.000 A 
ATOM      5  C   UNL     1     -48.051  34.578  26.417  1.00  0.00    -0.032 A 
ATOM      6  C   UNL     1     -47.089  33.588  26.351  1.00  0.00     0.030 A 
ATOM      7  N   UNL     1     -45.950  34.097  26.927  1.00  0.00    -0.357 N 
ATOM      8  C   UNL     1     -46.155  35.391  27.346  1.00  0.00     0.046 A 
ATOM      9  C   UNL     1     -45.279  36.289  27.969  1.00  0.00    -0.033 A 
ATOM     10  H   UNL     1     -47.460  38.909  28.223  1.00  0.00     0.063 H 
ATOM     11  H   UNL     1     -48.968  37.286  27.127  1.00  0.00     0.063 H 
ATOM     12  H   UNL     1     -49.064  34.489  26.045  1.00  0.00     0.065 H 
ATOM     13  H   UNL     1     -45.076  33.600  27.033  1.00  0.00     0.166 HD
ATOM     14  H   UNL     1     -44.253  36.010  28.190  1.00  0.00     0.065 H 
ENDROOT
BRANCH   1  15
ATOM     15  C   UNL     1     -44.846  38.574  28.936  1.00  0.00     0.043 C 
ATOM     16  H   UNL     1     -45.301  39.004  29.837  1.00  0.00     0.054 H 
ATOM     17  H   UNL     1     -43.909  38.100  29.253  1.00  0.00     0.054 H 
BRANCH  15  18
ATOM     18  N   UNL     1     -44.552  39.647  28.024  1.00  0.00    -0.347 N 
ATOM     19  O   UNL     1     -42.829  40.539  29.251  1.00  0.00    -0.268 OA
ATOM     20  C   UNL     1     -43.586  40.583  28.289  1.00  0.00     0.270 C 
ATOM     21  H   UNL     1     -45.178  39.841  27.248  1.00  0.00     0.164 HD
BRANCH  20  22
ATOM     22  C   UNL     1     -43.562  41.693  27.266  1.00  0.00     0.136 A 
ATOM     23  C   UNL     1     -42.365  42.031  26.783  1.00  0.00     0.035 A 
ATOM     24  N   UNL     1     -44.752  42.282  26.900  1.00  0.00    -0.225 NA
ATOM     25  C   UNL     1     -42.296  43.106  25.785  1.00  0.00     0.258 A 
ATOM     26  H   UNL     1     -41.436  41.562  27.078  1.00  0.00     0.071 H 
ATOM     27  C   UNL     1     -44.687  43.232  26.020  1.00  0.00     0.140 A 
ATOM     28  O   UNL     1     -41.198  43.423  25.332  1.00  0.00    -0.269 OA
ATOM     29  N   UNL     1     -43.509  43.683  25.434  1.00  0.00    -0.268 N 
ATOM     30  C   UNL     1     -45.951  43.898  25.594  1.00  0.00    -0.019 A 
ATOM     31  C   UNL     1     -43.525  44.710  24.495  1.00  0.00     0.014 A 
ATOM     32  C   UNL     1     -45.915  44.881  24.686  1.00  0.00    -0.057 A 
ATOM     33  H   UNL     1     -46.873  43.554  26.044  1.00  0.00     0.066 H 
ATOM     34  C   UNL     1     -44.663  45.302  24.117  1.00  0.00    -0.045 A 
ATOM     35  H   UNL     1     -42.567  45.011  24.078  1.00  0.00     0.082 H 
ATOM     36  H   UNL     1     -46.825  45.378  24.364  1.00  0.00     0.062 H 
ATOM     37  H   UNL     1     -44.663  46.102  23.383  1.00  0.00     0.064 H 
ENDBRANCH  20  22
ENDBRANCH  15  18
ENDBRANCH   1  15
BRANCH   6  38
ATOM     38  C   UNL     1     -47.152  32.204  25.807  1.00  0.00     0.036 C 
ATOM     39  H   UNL     1     -46.278  31.614  26.105  1.00  0.00     0.049 H 
ATOM     40  H   UNL     1     -48.025  31.706  26.245  1.00  0.00     0.049 H 
BRANCH  38  41
ATOM     41  N   UNL     1     -47.304  32.199  24.355  1.00  0.00    -0.303 NA
ATOM     42  H   UNL     1     -48.222  31.823  24.115  1.00  0.00     0.123 HD
BRANCH  41  43
ATOM     43  C   UNL     1     -46.262  31.392  23.673  1.00  0.00     0.093 C 
ATOM     44  H   UNL     1     -45.381  32.015  23.476  1.00  0.00     0.052 H 
ATOM     45  H   UNL     1     -45.950  30.577  24.337  1.00  0.00     0.052 H 
BRANCH  43  46
ATOM     46  C   UNL     1     -46.687  30.756  22.337  1.00  0.00     0.401 C 
ATOM     47  F   UNL     1     -46.464  29.420  22.355  1.00  0.00    -0.170 F 
ATOM     48  F   UNL     1     -48.011  30.941  22.120  1.00  0.00    -0.170 F 
ATOM     49  F   UNL     1     -46.016  31.270  21.286  1.00  0.00    -0.170 F 
ENDBRANCH  43  46
ENDBRANCH  41  43
ENDBRANCH  38  41
ENDBRANCH   6  38
TORSDOF 7
ENDMDL
