MODEL 1
REMARK VINA RESULT:      -9.5      0.000      0.000
REMARK SMILES CCc1nc(N)c2ccn(-c3cncc(COc4ccc5ccc(NC)nc5c4)c3)c2n1
REMARK SMILES IDX 16 1 15 4 11 5 12 6 30 7 13 8 14 11 10 13 3 14 4 15 32 16
REMARK SMILES IDX 5 17 31 18 7 19 8 20 9 21 2 24 1 27 6 31 17 34 18 35 19 36
REMARK SMILES IDX 29 37 20 38 28 40 21 42 27 44 22 45 24 46 23 47 25 50 26 52
REMARK H PARENT 16 2 16 3 12 9 30 10 14 12 8 22 9 23 2 25 2 26 1 28 1 29 1 30
REMARK H PARENT 6 32 6 33 19 39 29 41 20 43 22 48 23 49 25 51 26 53 26 54
REMARK H PARENT 26 55
REMARK Flexibility Score: inf
ROOT
ATOM      1  C   UNL     1     -48.502  34.953  26.913  1.00  0.00     0.115 C 
ATOM      2  H   UNL     1     -48.248  35.893  26.407  1.00  0.00     0.076 H 
ATOM      3  H   UNL     1     -49.598  34.917  26.962  1.00  0.00     0.076 H 
ENDROOT
BRANCH   1   4
ATOM      4  C   UNL     1     -47.950  33.831  26.068  1.00  0.00     0.010 A 
ATOM      5  C   UNL     1     -48.166  31.814  24.725  1.00  0.00     0.066 A 
ATOM      6  C   UNL     1     -46.782  31.840  24.586  1.00  0.00     0.051 A 
ATOM      7  C   UNL     1     -48.745  32.829  25.494  1.00  0.00    -0.028 A 
ATOM      8  N   UNL     1     -45.977  32.782  25.136  1.00  0.00    -0.262 NA
ATOM      9  H   UNL     1     -46.234  31.112  23.996  1.00  0.00     0.086 H 
ATOM     10  H   UNL     1     -49.815  32.849  25.681  1.00  0.00     0.065 H 
ATOM     11  C   UNL     1     -46.579  33.749  25.859  1.00  0.00     0.034 A 
ATOM     12  H   UNL     1     -45.897  34.483  26.284  1.00  0.00     0.084 H 
BRANCH   5  13
ATOM     13  N   UNL     1     -48.945  30.790  24.105  1.00  0.00    -0.300 N 
ATOM     14  C   UNL     1     -48.779  27.564  25.684  1.00  0.00     0.132 A 
ATOM     15  N   UNL     1     -49.558  26.835  24.858  1.00  0.00    -0.216 NA
ATOM     16  N   UNL     1     -48.479  28.867  25.553  1.00  0.00    -0.214 NA
ATOM     17  C   UNL     1     -50.138  27.442  23.808  1.00  0.00     0.136 A 
ATOM     18  C   UNL     1     -49.055  29.450  24.485  1.00  0.00     0.150 A 
ATOM     19  C   UNL     1     -49.902  28.805  23.592  1.00  0.00     0.062 A 
ATOM     20  C   UNL     1     -50.337  29.768  22.652  1.00  0.00    -0.031 A 
ATOM     21  C   UNL     1     -49.755  30.968  22.990  1.00  0.00     0.012 A 
ATOM     22  H   UNL     1     -51.013  29.605  21.822  1.00  0.00     0.065 H 
ATOM     23  H   UNL     1     -49.836  31.924  22.493  1.00  0.00     0.082 H 
BRANCH  14  24
ATOM     24  C   UNL     1     -48.162  26.838  26.850  1.00  0.00     0.005 C 
ATOM     25  H   UNL     1     -47.866  27.567  27.611  1.00  0.00     0.035 H 
ATOM     26  H   UNL     1     -48.910  26.181  27.310  1.00  0.00     0.035 H 
BRANCH  24  27
ATOM     27  C   UNL     1     -46.959  26.019  26.415  1.00  0.00    -0.058 C 
ATOM     28  H   UNL     1     -46.238  25.938  27.235  1.00  0.00     0.023 H 
ATOM     29  H   UNL     1     -47.255  25.006  26.123  1.00  0.00     0.023 H 
ATOM     30  H   UNL     1     -46.453  26.479  25.560  1.00  0.00     0.023 H 
ENDBRANCH  24  27
ENDBRANCH  14  24
BRANCH  17  31
ATOM     31  N   UNL     1     -50.938  26.660  22.986  1.00  0.00    -0.383 N 
ATOM     32  H   UNL     1     -50.616  26.721  22.027  1.00  0.00     0.158 HD
ATOM     33  H   UNL     1     -51.932  26.773  23.130  1.00  0.00     0.158 HD
ENDBRANCH  17  31
ENDBRANCH   5  13
ENDBRANCH   1   4
BRANCH   1  34
ATOM     34  O   UNL     1     -47.934  35.053  28.220  1.00  0.00    -0.489 OA
BRANCH  34  35
ATOM     35  C   UNL     1     -47.051  36.064  28.484  1.00  0.00     0.122 A 
ATOM     36  C   UNL     1     -46.218  36.159  29.593  1.00  0.00    -0.019 A 
ATOM     37  C   UNL     1     -46.992  37.053  27.496  1.00  0.00     0.007 A 
ATOM     38  C   UNL     1     -45.337  37.236  29.706  1.00  0.00    -0.049 A 
ATOM     39  H   UNL     1     -46.206  35.408  30.376  1.00  0.00     0.066 H 
ATOM     40  C   UNL     1     -46.122  38.131  27.579  1.00  0.00     0.076 A 
ATOM     41  H   UNL     1     -47.635  36.972  26.623  1.00  0.00     0.069 H 
ATOM     42  C   UNL     1     -45.283  38.219  28.704  1.00  0.00     0.001 A 
ATOM     43  H   UNL     1     -44.681  37.295  30.573  1.00  0.00     0.063 H 
ATOM     44  N   UNL     1     -46.098  39.041  26.588  1.00  0.00    -0.231 NA
ATOM     45  C   UNL     1     -44.398  39.298  28.776  1.00  0.00    -0.049 A 
ATOM     46  C   UNL     1     -45.244  40.078  26.678  1.00  0.00     0.126 A 
ATOM     47  C   UNL     1     -44.376  40.235  27.748  1.00  0.00    -0.019 A 
ATOM     48  H   UNL     1     -43.717  39.409  29.614  1.00  0.00     0.063 H 
ATOM     49  H   UNL     1     -43.673  41.059  27.776  1.00  0.00     0.066 H 
BRANCH  46  50
ATOM     50  N   UNL     1     -45.265  40.965  25.600  1.00  0.00    -0.373 N 
ATOM     51  H   UNL     1     -46.224  41.312  25.591  1.00  0.00     0.161 HD
BRANCH  50  52
ATOM     52  C   UNL     1     -44.311  42.056  25.712  1.00  0.00     0.005 C 
ATOM     53  H   UNL     1     -44.637  42.881  25.071  1.00  0.00     0.045 H 
ATOM     54  H   UNL     1     -43.313  41.758  25.377  1.00  0.00     0.045 H 
ATOM     55  H   UNL     1     -44.251  42.435  26.739  1.00  0.00     0.045 H 
ENDBRANCH  50  52
ENDBRANCH  46  50
ENDBRANCH  34  35
ENDBRANCH   1  34
TORSDOF 9
ENDMDL
MODEL 2
REMARK VINA RESULT:      -9.5      2.695     11.018
REMARK SMILES CCc1nc(N)c2ccn(-c3cncc(COc4ccc5ccc(NC)nc5c4)c3)c2n1
REMARK SMILES IDX 16 1 15 4 11 5 12 6 30 7 13 8 14 11 10 13 3 14 4 15 32 16
REMARK SMILES IDX 5 17 31 18 7 19 8 20 9 21 2 24 1 27 6 31 17 34 18 35 19 36
REMARK SMILES IDX 29 37 20 38 28 40 21 42 27 44 22 45 24 46 23 47 25 50 26 52
REMARK H PARENT 16 2 16 3 12 9 30 10 14 12 8 22 9 23 2 25 2 26 1 28 1 29 1 30
REMARK H PARENT 6 32 6 33 19 39 29 41 20 43 22 48 23 49 25 51 26 53 26 54
REMARK H PARENT 26 55
REMARK Flexibility Score: inf
ROOT
ATOM      1  C   UNL     1     -46.252  34.337  26.571  1.00  0.00     0.115 C 
ATOM      2  H   UNL     1     -46.370  34.445  25.485  1.00  0.00     0.076 H 
ATOM      3  H   UNL     1     -45.215  34.017  26.736  1.00  0.00     0.076 H 
ENDROOT
BRANCH   1   4
ATOM      4  C   UNL     1     -46.516  35.691  27.184  1.00  0.00     0.010 A 
ATOM      5  C   UNL     1     -45.821  37.788  28.203  1.00  0.00     0.066 A 
ATOM      6  C   UNL     1     -47.171  38.106  28.306  1.00  0.00     0.051 A 
ATOM      7  C   UNL     1     -45.504  36.547  27.639  1.00  0.00    -0.028 A 
ATOM      8  N   UNL     1     -48.179  37.302  27.890  1.00  0.00    -0.262 NA
ATOM      9  H   UNL     1     -47.526  39.049  28.709  1.00  0.00     0.086 H 
ATOM     10  H   UNL     1     -44.473  36.212  27.566  1.00  0.00     0.065 H 
ATOM     11  C   UNL     1     -47.828  36.120  27.341  1.00  0.00     0.034 A 
ATOM     12  H   UNL     1     -48.667  35.504  27.024  1.00  0.00     0.084 H 
BRANCH   5  13
ATOM     13  N   UNL     1     -44.817  38.696  28.656  1.00  0.00    -0.300 N 
ATOM     14  C   UNL     1     -44.158  41.474  26.468  1.00  0.00     0.132 A 
ATOM     15  N   UNL     1     -43.163  42.093  27.135  1.00  0.00    -0.216 NA
ATOM     16  N   UNL     1     -44.785  40.345  26.840  1.00  0.00    -0.214 NA
ATOM     17  C   UNL     1     -42.751  41.583  28.309  1.00  0.00     0.136 A 
ATOM     18  C   UNL     1     -44.344  39.841  28.009  1.00  0.00     0.150 A 
ATOM     19  C   UNL     1     -43.353  40.416  28.795  1.00  0.00     0.062 A 
ATOM     20  C   UNL     1     -43.222  39.621  29.957  1.00  0.00    -0.031 A 
ATOM     21  C   UNL     1     -44.128  38.591  29.858  1.00  0.00     0.012 A 
ATOM     22  H   UNL     1     -42.544  39.789  30.785  1.00  0.00     0.065 H 
ATOM     23  H   UNL     1     -44.304  37.775  30.544  1.00  0.00     0.082 H 
BRANCH  14  24
ATOM     24  C   UNL     1     -44.588  42.092  25.164  1.00  0.00     0.005 C 
ATOM     25  H   UNL     1     -43.802  41.939  24.418  1.00  0.00     0.035 H 
ATOM     26  H   UNL     1     -45.484  41.580  24.794  1.00  0.00     0.035 H 
BRANCH  24  27
ATOM     27  C   UNL     1     -44.875  43.575  25.326  1.00  0.00    -0.058 C 
ATOM     28  H   UNL     1     -45.373  43.764  26.282  1.00  0.00     0.023 H 
ATOM     29  H   UNL     1     -43.950  44.161  25.304  1.00  0.00     0.023 H 
ATOM     30  H   UNL     1     -45.524  43.944  24.525  1.00  0.00     0.023 H 
ENDBRANCH  24  27
ENDBRANCH  14  24
BRANCH  17  31
ATOM     31  N   UNL     1     -41.730  42.254  28.968  1.00  0.00    -0.383 N 
ATOM     32  H   UNL     1     -42.018  43.202  29.183  1.00  0.00     0.158 HD
ATOM     33  H   UNL     1     -40.816  42.150  28.550  1.00  0.00     0.158 HD
ENDBRANCH  17  31
ENDBRANCH   5  13
ENDBRANCH   1   4
BRANCH   1  34
ATOM     34  O   UNL     1     -47.171  33.315  26.958  1.00  0.00    -0.489 OA
BRANCH  34  35
ATOM     35  C   UNL     1     -47.511  32.349  26.051  1.00  0.00     0.122 A 
ATOM     36  C   UNL     1     -48.503  31.387  26.208  1.00  0.00    -0.019 A 
ATOM     37  C   UNL     1     -46.790  32.401  24.854  1.00  0.00     0.007 A 
ATOM     38  C   UNL     1     -48.764  30.488  25.172  1.00  0.00    -0.049 A 
ATOM     39  H   UNL     1     -49.108  31.318  27.106  1.00  0.00     0.066 H 
ATOM     40  C   UNL     1     -47.031  31.524  23.806  1.00  0.00     0.076 A 
ATOM     41  H   UNL     1     -46.023  33.162  24.728  1.00  0.00     0.069 H 
ATOM     42  C   UNL     1     -48.035  30.554  23.973  1.00  0.00     0.001 A 
ATOM     43  H   UNL     1     -49.549  29.745  25.300  1.00  0.00     0.063 H 
ATOM     44  N   UNL     1     -46.316  31.635  22.671  1.00  0.00    -0.231 NA
ATOM     45  C   UNL     1     -48.285  29.683  22.909  1.00  0.00    -0.049 A 
ATOM     46  C   UNL     1     -46.565  30.782  21.660  1.00  0.00     0.126 A 
ATOM     47  C   UNL     1     -47.544  29.803  21.737  1.00  0.00    -0.019 A 
ATOM     48  H   UNL     1     -49.058  28.924  22.976  1.00  0.00     0.063 H 
ATOM     49  H   UNL     1     -47.748  29.154  20.894  1.00  0.00     0.066 H 
BRANCH  46  50
ATOM     50  N   UNL     1     -45.797  30.977  20.510  1.00  0.00    -0.373 N 
ATOM     51  H   UNL     1     -45.801  30.062  20.060  1.00  0.00     0.161 HD
BRANCH  50  52
ATOM     52  C   UNL     1     -46.312  32.004  19.620  1.00  0.00     0.005 C 
ATOM     53  H   UNL     1     -47.083  31.564  18.979  1.00  0.00     0.045 H 
ATOM     54  H   UNL     1     -45.531  32.401  18.964  1.00  0.00     0.045 H 
ATOM     55  H   UNL     1     -46.771  32.827  20.178  1.00  0.00     0.045 H 
ENDBRANCH  50  52
ENDBRANCH  46  50
ENDBRANCH  34  35
ENDBRANCH   1  34
TORSDOF 9
ENDMDL
MODEL 3
REMARK VINA RESULT:      -9.4      3.416     11.787
REMARK SMILES CCc1nc(N)c2ccn(-c3cncc(COc4ccc5ccc(NC)nc5c4)c3)c2n1
REMARK SMILES IDX 16 1 15 4 11 5 12 6 30 7 13 8 14 11 10 13 3 14 4 15 32 16
REMARK SMILES IDX 5 17 31 18 7 19 8 20 9 21 2 24 1 27 6 31 17 34 18 35 19 36
REMARK SMILES IDX 29 37 20 38 28 40 21 42 27 44 22 45 24 46 23 47 25 50 26 52
REMARK H PARENT 16 2 16 3 12 9 30 10 14 12 8 22 9 23 2 25 2 26 1 28 1 29 1 30
REMARK H PARENT 6 32 6 33 19 39 29 41 20 43 22 48 23 49 25 51 26 53 26 54
REMARK H PARENT 26 55
REMARK Flexibility Score: inf
ROOT
ATOM      1  C   UNL     1     -45.078  38.186  28.780  1.00  0.00     0.115 C 
ATOM      2  H   UNL     1     -44.521  37.349  28.340  1.00  0.00     0.076 H 
ATOM      3  H   UNL     1     -45.350  37.872  29.795  1.00  0.00     0.076 H 
ENDROOT
BRANCH   1   4
ATOM      4  C   UNL     1     -44.150  39.375  28.799  1.00  0.00     0.010 A 
ATOM      5  C   UNL     1     -43.191  41.400  27.850  1.00  0.00     0.066 A 
ATOM      6  C   UNL     1     -42.379  41.463  28.977  1.00  0.00     0.051 A 
ATOM      7  C   UNL     1     -44.080  40.323  27.768  1.00  0.00    -0.028 A 
ATOM      8  N   UNL     1     -42.406  40.562  29.989  1.00  0.00    -0.262 NA
ATOM      9  H   UNL     1     -41.670  42.266  29.149  1.00  0.00     0.086 H 
ATOM     10  H   UNL     1     -44.715  40.184  26.897  1.00  0.00     0.065 H 
ATOM     11  C   UNL     1     -43.287  39.546  29.875  1.00  0.00     0.034 A 
ATOM     12  H   UNL     1     -43.274  38.844  30.707  1.00  0.00     0.084 H 
BRANCH   5  13
ATOM     13  N   UNL     1     -43.109  42.397  26.830  1.00  0.00    -0.300 N 
ATOM     14  C   UNL     1     -46.118  44.290  26.288  1.00  0.00     0.132 A 
ATOM     15  N   UNL     1     -45.739  45.084  25.266  1.00  0.00    -0.216 NA
ATOM     16  N   UNL     1     -45.367  43.353  26.891  1.00  0.00    -0.214 NA
ATOM     17  C   UNL     1     -44.483  44.986  24.798  1.00  0.00     0.136 A 
ATOM     18  C   UNL     1     -44.118  43.259  26.394  1.00  0.00     0.150 A 
ATOM     19  C   UNL     1     -43.612  44.051  25.371  1.00  0.00     0.062 A 
ATOM     20  C   UNL     1     -42.260  43.683  25.182  1.00  0.00    -0.031 A 
ATOM     21  C   UNL     1     -41.972  42.687  26.086  1.00  0.00     0.012 A 
ATOM     22  H   UNL     1     -41.565  44.107  24.467  1.00  0.00     0.065 H 
ATOM     23  H   UNL     1     -41.048  42.145  26.226  1.00  0.00     0.082 H 
BRANCH  14  24
ATOM     24  C   UNL     1     -47.532  44.448  26.781  1.00  0.00     0.005 C 
ATOM     25  H   UNL     1     -47.579  44.158  27.835  1.00  0.00     0.035 H 
ATOM     26  H   UNL     1     -47.824  45.502  26.726  1.00  0.00     0.035 H 
BRANCH  24  27
ATOM     27  C   UNL     1     -48.498  43.605  25.964  1.00  0.00    -0.058 C 
ATOM     28  H   UNL     1     -49.509  44.019  26.025  1.00  0.00     0.023 H 
ATOM     29  H   UNL     1     -48.205  43.580  24.909  1.00  0.00     0.023 H 
ATOM     30  H   UNL     1     -48.530  42.572  26.327  1.00  0.00     0.023 H 
ENDBRANCH  24  27
ENDBRANCH  14  24
BRANCH  17  31
ATOM     31  N   UNL     1     -44.128  45.827  23.751  1.00  0.00    -0.383 N 
ATOM     32  H   UNL     1     -44.613  45.551  22.904  1.00  0.00     0.158 HD
ATOM     33  H   UNL     1     -43.136  45.996  23.662  1.00  0.00     0.158 HD
ENDBRANCH  17  31
ENDBRANCH   5  13
ENDBRANCH   1   4
BRANCH   1  34
ATOM     34  O   UNL     1     -46.240  38.346  27.964  1.00  0.00    -0.489 OA
BRANCH  34  35
ATOM     35  C   UNL     1     -46.970  37.241  27.624  1.00  0.00     0.122 A 
ATOM     36  C   UNL     1     -48.340  37.076  27.794  1.00  0.00    -0.019 A 
ATOM     37  C   UNL     1     -46.227  36.222  27.016  1.00  0.00     0.007 A 
ATOM     38  C   UNL     1     -48.954  35.900  27.358  1.00  0.00    -0.049 A 
ATOM     39  H   UNL     1     -48.966  37.843  28.237  1.00  0.00     0.066 H 
ATOM     40  C   UNL     1     -46.812  35.046  26.568  1.00  0.00     0.076 A 
ATOM     41  H   UNL     1     -45.158  36.357  26.873  1.00  0.00     0.069 H 
ATOM     42  C   UNL     1     -48.198  34.888  26.744  1.00  0.00     0.001 A 
ATOM     43  H   UNL     1     -50.029  35.786  27.486  1.00  0.00     0.063 H 
ATOM     44  N   UNL     1     -46.048  34.110  25.975  1.00  0.00    -0.231 NA
ATOM     45  C   UNL     1     -48.785  33.708  26.278  1.00  0.00    -0.049 A 
ATOM     46  C   UNL     1     -46.629  32.977  25.539  1.00  0.00     0.126 A 
ATOM     47  C   UNL     1     -47.991  32.745  25.664  1.00  0.00    -0.019 A 
ATOM     48  H   UNL     1     -49.853  33.538  26.374  1.00  0.00     0.063 H 
ATOM     49  H   UNL     1     -48.438  31.840  25.271  1.00  0.00     0.066 H 
BRANCH  46  50
ATOM     50  N   UNL     1     -45.773  32.067  24.916  1.00  0.00    -0.373 N 
ATOM     51  H   UNL     1     -45.475  31.457  25.677  1.00  0.00     0.161 HD
BRANCH  50  52
ATOM     52  C   UNL     1     -46.396  31.306  23.845  1.00  0.00     0.005 C 
ATOM     53  H   UNL     1     -45.799  31.420  22.935  1.00  0.00     0.045 H 
ATOM     54  H   UNL     1     -47.403  31.672  23.621  1.00  0.00     0.045 H 
ATOM     55  H   UNL     1     -46.441  30.238  24.084  1.00  0.00     0.045 H 
ENDBRANCH  50  52
ENDBRANCH  46  50
ENDBRANCH  34  35
ENDBRANCH   1  34
TORSDOF 9
ENDMDL
MODEL 4
REMARK VINA RESULT:      -9.2      1.408      2.782
REMARK SMILES CCc1nc(N)c2ccn(-c3cncc(COc4ccc5ccc(NC)nc5c4)c3)c2n1
REMARK SMILES IDX 16 1 15 4 11 5 12 6 30 7 13 8 14 11 10 13 3 14 4 15 32 16
REMARK SMILES IDX 5 17 31 18 7 19 8 20 9 21 2 24 1 27 6 31 17 34 18 35 19 36
REMARK SMILES IDX 29 37 20 38 28 40 21 42 27 44 22 45 24 46 23 47 25 50 26 52
REMARK H PARENT 16 2 16 3 12 9 30 10 14 12 8 22 9 23 2 25 2 26 1 28 1 29 1 30
REMARK H PARENT 6 32 6 33 19 39 29 41 20 43 22 48 23 49 25 51 26 53 26 54
REMARK H PARENT 26 55
REMARK Flexibility Score: inf
ROOT
ATOM      1  C   UNL     1     -48.731  35.244  26.975  1.00  0.00     0.115 C 
ATOM      2  H   UNL     1     -48.562  36.190  26.445  1.00  0.00     0.076 H 
ATOM      3  H   UNL     1     -49.813  35.066  26.947  1.00  0.00     0.076 H 
ENDROOT
BRANCH   1   4
ATOM      4  C   UNL     1     -47.976  34.174  26.225  1.00  0.00     0.010 A 
ATOM      5  C   UNL     1     -47.792  32.019  25.112  1.00  0.00     0.066 A 
ATOM      6  C   UNL     1     -46.450  32.318  24.902  1.00  0.00     0.051 A 
ATOM      7  C   UNL     1     -48.554  32.970  25.799  1.00  0.00    -0.028 A 
ATOM      8  N   UNL     1     -45.851  33.463  25.310  1.00  0.00    -0.262 NA
ATOM      9  H   UNL     1     -45.777  31.659  24.365  1.00  0.00     0.086 H 
ATOM     10  H   UNL     1     -49.598  32.787  26.037  1.00  0.00     0.065 H 
ATOM     11  C   UNL     1     -46.625  34.359  25.957  1.00  0.00     0.034 A 
ATOM     12  H   UNL     1     -46.104  35.262  26.269  1.00  0.00     0.084 H 
BRANCH   5  13
ATOM     13  N   UNL     1     -48.353  30.792  24.642  1.00  0.00    -0.300 N 
ATOM     14  C   UNL     1     -48.853  30.596  21.086  1.00  0.00     0.132 A 
ATOM     15  N   UNL     1     -49.420  29.377  20.975  1.00  0.00    -0.216 NA
ATOM     16  N   UNL     1     -48.465  31.195  22.225  1.00  0.00    -0.214 NA
ATOM     17  C   UNL     1     -49.600  28.641  22.084  1.00  0.00     0.136 A 
ATOM     18  C   UNL     1     -48.672  30.447  23.326  1.00  0.00     0.150 A 
ATOM     19  C   UNL     1     -49.213  29.167  23.323  1.00  0.00     0.062 A 
ATOM     20  C   UNL     1     -49.213  28.706  24.660  1.00  0.00    -0.031 A 
ATOM     21  C   UNL     1     -48.675  29.703  25.441  1.00  0.00     0.012 A 
ATOM     22  H   UNL     1     -49.560  27.743  25.015  1.00  0.00     0.065 H 
ATOM     23  H   UNL     1     -48.532  29.721  26.512  1.00  0.00     0.082 H 
BRANCH  14  24
ATOM     24  C   UNL     1     -48.664  31.375  19.811  1.00  0.00     0.005 C 
ATOM     25  H   UNL     1     -49.060  30.793  18.973  1.00  0.00     0.035 H 
ATOM     26  H   UNL     1     -49.244  32.303  19.859  1.00  0.00     0.035 H 
BRANCH  24  27
ATOM     27  C   UNL     1     -47.198  31.699  19.575  1.00  0.00    -0.058 C 
ATOM     28  H   UNL     1     -46.785  32.237  20.434  1.00  0.00     0.023 H 
ATOM     29  H   UNL     1     -46.610  30.786  19.432  1.00  0.00     0.023 H 
ATOM     30  H   UNL     1     -47.067  32.324  18.686  1.00  0.00     0.023 H 
ENDBRANCH  24  27
ENDBRANCH  14  24
BRANCH  17  31
ATOM     31  N   UNL     1     -50.180  27.389  21.928  1.00  0.00    -0.383 N 
ATOM     32  H   UNL     1     -49.940  26.795  22.714  1.00  0.00     0.158 HD
ATOM     33  H   UNL     1     -50.066  26.982  21.010  1.00  0.00     0.158 HD
ENDBRANCH  17  31
ENDBRANCH   5  13
ENDBRANCH   1   4
BRANCH   1  34
ATOM     34  O   UNL     1     -48.283  35.466  28.313  1.00  0.00    -0.489 OA
BRANCH  34  35
ATOM     35  C   UNL     1     -47.289  36.379  28.538  1.00  0.00     0.122 A 
ATOM     36  C   UNL     1     -46.401  36.381  29.608  1.00  0.00    -0.019 A 
ATOM     37  C   UNL     1     -47.173  37.362  27.549  1.00  0.00     0.007 A 
ATOM     38  C   UNL     1     -45.409  37.360  29.681  1.00  0.00    -0.049 A 
ATOM     39  H   UNL     1     -46.432  35.629  30.389  1.00  0.00     0.066 H 
ATOM     40  C   UNL     1     -46.193  38.344  27.593  1.00  0.00     0.076 A 
ATOM     41  H   UNL     1     -47.860  37.352  26.706  1.00  0.00     0.069 H 
ATOM     42  C   UNL     1     -45.299  38.338  28.678  1.00  0.00     0.001 A 
ATOM     43  H   UNL     1     -44.712  37.347  30.517  1.00  0.00     0.063 H 
ATOM     44  N   UNL     1     -46.120  39.252  26.602  1.00  0.00    -0.231 NA
ATOM     45  C   UNL     1     -44.305  39.319  28.710  1.00  0.00    -0.049 A 
ATOM     46  C   UNL     1     -45.160  40.194  26.653  1.00  0.00     0.126 A 
ATOM     47  C   UNL     1     -44.232  40.255  27.683  1.00  0.00    -0.019 A 
ATOM     48  H   UNL     1     -43.578  39.355  29.517  1.00  0.00     0.063 H 
ATOM     49  H   UNL     1     -43.447  41.002  27.679  1.00  0.00     0.066 H 
BRANCH  46  50
ATOM     50  N   UNL     1     -45.137  41.084  25.578  1.00  0.00    -0.373 N 
ATOM     51  H   UNL     1     -46.008  40.889  25.085  1.00  0.00     0.161 HD
BRANCH  50  52
ATOM     52  C   UNL     1     -45.056  42.482  25.968  1.00  0.00     0.005 C 
ATOM     53  H   UNL     1     -46.023  42.960  25.783  1.00  0.00     0.045 H 
ATOM     54  H   UNL     1     -44.308  43.024  25.379  1.00  0.00     0.045 H 
ATOM     55  H   UNL     1     -44.827  42.591  27.034  1.00  0.00     0.045 H 
ENDBRANCH  50  52
ENDBRANCH  46  50
ENDBRANCH  34  35
ENDBRANCH   1  34
TORSDOF 9
ENDMDL
MODEL 5
REMARK VINA RESULT:      -9.2      2.696     10.983
REMARK SMILES CCc1nc(N)c2ccn(-c3cncc(COc4ccc5ccc(NC)nc5c4)c3)c2n1
REMARK SMILES IDX 16 1 15 4 11 5 12 6 30 7 13 8 14 11 10 13 3 14 4 15 32 16
REMARK SMILES IDX 5 17 31 18 7 19 8 20 9 21 2 24 1 27 6 31 17 34 18 35 19 36
REMARK SMILES IDX 29 37 20 38 28 40 21 42 27 44 22 45 24 46 23 47 25 50 26 52
REMARK H PARENT 16 2 16 3 12 9 30 10 14 12 8 22 9 23 2 25 2 26 1 28 1 29 1 30
REMARK H PARENT 6 32 6 33 19 39 29 41 20 43 22 48 23 49 25 51 26 53 26 54
REMARK H PARENT 26 55
REMARK Flexibility Score: inf
ROOT
ATOM      1  C   UNL     1     -46.077  34.736  26.908  1.00  0.00     0.115 C 
ATOM      2  H   UNL     1     -46.236  34.989  25.852  1.00  0.00     0.076 H 
ATOM      3  H   UNL     1     -45.094  34.251  26.962  1.00  0.00     0.076 H 
ENDROOT
BRANCH   1   4
ATOM      4  C   UNL     1     -46.097  36.031  27.682  1.00  0.00     0.010 A 
ATOM      5  C   UNL     1     -45.998  38.454  27.867  1.00  0.00     0.066 A 
ATOM      6  C   UNL     1     -46.119  38.287  29.243  1.00  0.00     0.051 A 
ATOM      7  C   UNL     1     -45.976  37.294  27.086  1.00  0.00    -0.028 A 
ATOM      8  N   UNL     1     -46.225  37.085  29.858  1.00  0.00    -0.262 NA
ATOM      9  H   UNL     1     -46.165  39.120  29.936  1.00  0.00     0.086 H 
ATOM     10  H   UNL     1     -45.841  37.345  26.009  1.00  0.00     0.065 H 
ATOM     11  C   UNL     1     -46.212  35.992  29.067  1.00  0.00     0.034 A 
ATOM     12  H   UNL     1     -46.296  35.048  29.601  1.00  0.00     0.084 H 
BRANCH   5  13
ATOM     13  N   UNL     1     -45.902  39.759  27.293  1.00  0.00    -0.300 N 
ATOM     14  C   UNL     1     -42.819  41.495  27.937  1.00  0.00     0.132 A 
ATOM     15  N   UNL     1     -43.057  42.673  27.323  1.00  0.00    -0.216 NA
ATOM     16  N   UNL     1     -43.665  40.455  28.020  1.00  0.00    -0.214 NA
ATOM     17  C   UNL     1     -44.228  42.850  26.689  1.00  0.00     0.136 A 
ATOM     18  C   UNL     1     -44.840  40.661  27.395  1.00  0.00     0.150 A 
ATOM     19  C   UNL     1     -45.174  41.818  26.701  1.00  0.00     0.062 A 
ATOM     20  C   UNL     1     -46.460  41.621  26.147  1.00  0.00    -0.031 A 
ATOM     21  C   UNL     1     -46.877  40.360  26.508  1.00  0.00     0.012 A 
ATOM     22  H   UNL     1     -47.020  42.321  25.540  1.00  0.00     0.065 H 
ATOM     23  H   UNL     1     -47.813  39.867  26.286  1.00  0.00     0.082 H 
BRANCH  14  24
ATOM     24  C   UNL     1     -41.487  41.344  28.622  1.00  0.00     0.005 C 
ATOM     25  H   UNL     1     -40.847  40.687  28.023  1.00  0.00     0.035 H 
ATOM     26  H   UNL     1     -40.987  42.319  28.671  1.00  0.00     0.035 H 
BRANCH  24  27
ATOM     27  C   UNL     1     -41.649  40.780  30.024  1.00  0.00    -0.058 C 
ATOM     28  H   UNL     1     -41.994  39.743  29.978  1.00  0.00     0.023 H 
ATOM     29  H   UNL     1     -40.699  40.799  30.569  1.00  0.00     0.023 H 
ATOM     30  H   UNL     1     -42.378  41.357  30.602  1.00  0.00     0.023 H 
ENDBRANCH  24  27
ENDBRANCH  14  24
BRANCH  17  31
ATOM     31  N   UNL     1     -44.432  44.072  26.062  1.00  0.00    -0.383 N 
ATOM     32  H   UNL     1     -43.791  44.175  25.283  1.00  0.00     0.158 HD
ATOM     33  H   UNL     1     -44.502  44.863  26.688  1.00  0.00     0.158 HD
ENDBRANCH  17  31
ENDBRANCH   5  13
ENDBRANCH   1   4
BRANCH   1  34
ATOM     34  O   UNL     1     -47.119  33.820  27.246  1.00  0.00    -0.489 OA
BRANCH  34  35
ATOM     35  C   UNL     1     -47.660  33.037  26.263  1.00  0.00     0.122 A 
ATOM     36  C   UNL     1     -49.016  32.827  26.033  1.00  0.00    -0.019 A 
ATOM     37  C   UNL     1     -46.721  32.446  25.412  1.00  0.00     0.007 A 
ATOM     38  C   UNL     1     -49.419  32.030  24.960  1.00  0.00    -0.049 A 
ATOM     39  H   UNL     1     -49.786  33.281  26.648  1.00  0.00     0.066 H 
ATOM     40  C   UNL     1     -47.093  31.654  24.334  1.00  0.00     0.076 A 
ATOM     41  H   UNL     1     -45.661  32.621  25.585  1.00  0.00     0.069 H 
ATOM     42  C   UNL     1     -48.466  31.446  24.109  1.00  0.00     0.001 A 
ATOM     43  H   UNL     1     -50.482  31.880  24.782  1.00  0.00     0.063 H 
ATOM     44  N   UNL     1     -46.143  31.127  23.540  1.00  0.00    -0.231 NA
ATOM     45  C   UNL     1     -48.836  30.661  23.014  1.00  0.00    -0.049 A 
ATOM     46  C   UNL     1     -46.518  30.367  22.494  1.00  0.00     0.126 A 
ATOM     47  C   UNL     1     -47.850  30.120  22.195  1.00  0.00    -0.019 A 
ATOM     48  H   UNL     1     -49.881  30.479  22.784  1.00  0.00     0.063 H 
ATOM     49  H   UNL     1     -48.124  29.535  21.325  1.00  0.00     0.066 H 
BRANCH  46  50
ATOM     50  N   UNL     1     -45.475  29.876  21.706  1.00  0.00    -0.373 N 
ATOM     51  H   UNL     1     -44.899  30.699  21.529  1.00  0.00     0.161 HD
BRANCH  50  52
ATOM     52  C   UNL     1     -44.703  28.819  22.338  1.00  0.00     0.005 C 
ATOM     53  H   UNL     1     -45.237  27.871  22.223  1.00  0.00     0.045 H 
ATOM     54  H   UNL     1     -44.579  28.994  23.412  1.00  0.00     0.045 H 
ATOM     55  H   UNL     1     -43.718  28.706  21.873  1.00  0.00     0.045 H 
ENDBRANCH  50  52
ENDBRANCH  46  50
ENDBRANCH  34  35
ENDBRANCH   1  34
TORSDOF 9
ENDMDL
MODEL 6
REMARK VINA RESULT:      -9.0      1.862     11.269
REMARK SMILES CCc1nc(N)c2ccn(-c3cncc(COc4ccc5ccc(NC)nc5c4)c3)c2n1
REMARK SMILES IDX 16 1 15 4 11 5 12 6 30 7 13 8 14 11 10 13 3 14 4 15 32 16
REMARK SMILES IDX 5 17 31 18 7 19 8 20 9 21 2 24 1 27 6 31 17 34 18 35 19 36
REMARK SMILES IDX 29 37 20 38 28 40 21 42 27 44 22 45 24 46 23 47 25 50 26 52
REMARK H PARENT 16 2 16 3 12 9 30 10 14 12 8 22 9 23 2 25 2 26 1 28 1 29 1 30
REMARK H PARENT 6 32 6 33 19 39 29 41 20 43 22 48 23 49 25 51 26 53 26 54
REMARK H PARENT 26 55
REMARK Flexibility Score: inf
ROOT
ATOM      1  C   UNL     1     -46.801  34.107  25.580  1.00  0.00     0.115 C 
ATOM      2  H   UNL     1     -47.491  34.267  24.742  1.00  0.00     0.076 H 
ATOM      3  H   UNL     1     -45.790  34.211  25.168  1.00  0.00     0.076 H 
ENDROOT
BRANCH   1   4
ATOM      4  C   UNL     1     -47.092  35.176  26.604  1.00  0.00     0.010 A 
ATOM      5  C   UNL     1     -46.441  36.918  28.172  1.00  0.00     0.066 A 
ATOM      6  C   UNL     1     -47.791  37.058  28.474  1.00  0.00     0.051 A 
ATOM      7  C   UNL     1     -46.099  35.946  27.226  1.00  0.00    -0.028 A 
ATOM      8  N   UNL     1     -48.780  36.326  27.906  1.00  0.00    -0.262 NA
ATOM      9  H   UNL     1     -48.165  37.794  29.178  1.00  0.00     0.086 H 
ATOM     10  H   UNL     1     -45.061  35.751  26.972  1.00  0.00     0.065 H 
ATOM     11  C   UNL     1     -48.407  35.408  26.989  1.00  0.00     0.034 A 
ATOM     12  H   UNL     1     -49.231  34.840  26.560  1.00  0.00     0.084 H 
BRANCH   5  13
ATOM     13  N   UNL     1     -45.459  37.738  28.809  1.00  0.00    -0.300 N 
ATOM     14  C   UNL     1     -44.354  40.576  26.897  1.00  0.00     0.132 A 
ATOM     15  N   UNL     1     -43.426  41.096  27.727  1.00  0.00    -0.216 NA
ATOM     16  N   UNL     1     -45.087  39.471  27.114  1.00  0.00    -0.214 NA
ATOM     17  C   UNL     1     -43.208  40.503  28.912  1.00  0.00     0.136 A 
ATOM     18  C   UNL     1     -44.839  38.882  28.300  1.00  0.00     0.150 A 
ATOM     19  C   UNL     1     -43.935  39.353  29.244  1.00  0.00     0.062 A 
ATOM     20  C   UNL     1     -44.008  38.493  30.364  1.00  0.00    -0.031 A 
ATOM     21  C   UNL     1     -44.948  37.528  30.084  1.00  0.00     0.012 A 
ATOM     22  H   UNL     1     -43.442  38.575  31.283  1.00  0.00     0.065 H 
ATOM     23  H   UNL     1     -45.261  36.691  30.691  1.00  0.00     0.082 H 
BRANCH  14  24
ATOM     24  C   UNL     1     -44.566  41.286  25.586  1.00  0.00     0.005 C 
ATOM     25  H   UNL     1     -43.944  40.816  24.818  1.00  0.00     0.035 H 
ATOM     26  H   UNL     1     -45.609  41.167  25.270  1.00  0.00     0.035 H 
BRANCH  24  27
ATOM     27  C   UNL     1     -44.230  42.764  25.699  1.00  0.00    -0.058 C 
ATOM     28  H   UNL     1     -43.489  43.043  24.944  1.00  0.00     0.023 H 
ATOM     29  H   UNL     1     -45.120  43.384  25.546  1.00  0.00     0.023 H 
ATOM     30  H   UNL     1     -43.820  43.004  26.686  1.00  0.00     0.023 H 
ENDBRANCH  24  27
ENDBRANCH  14  24
BRANCH  17  31
ATOM     31  N   UNL     1     -42.251  41.073  29.741  1.00  0.00    -0.383 N 
ATOM     32  H   UNL     1     -41.511  40.406  29.928  1.00  0.00     0.158 HD
ATOM     33  H   UNL     1     -42.624  41.563  30.543  1.00  0.00     0.158 HD
ENDBRANCH  17  31
ENDBRANCH   5  13
ENDBRANCH   1   4
BRANCH   1  34
ATOM     34  O   UNL     1     -47.039  32.771  26.026  1.00  0.00    -0.489 OA
BRANCH  34  35
ATOM     35  C   UNL     1     -47.267  31.792  25.098  1.00  0.00     0.122 A 
ATOM     36  C   UNL     1     -46.566  31.604  23.911  1.00  0.00    -0.019 A 
ATOM     37  C   UNL     1     -48.288  30.899  25.439  1.00  0.00     0.007 A 
ATOM     38  C   UNL     1     -46.890  30.531  23.080  1.00  0.00    -0.049 A 
ATOM     39  H   UNL     1     -45.750  32.253  23.611  1.00  0.00     0.066 H 
ATOM     40  C   UNL     1     -48.627  29.820  24.635  1.00  0.00     0.076 A 
ATOM     41  H   UNL     1     -48.827  31.039  26.373  1.00  0.00     0.069 H 
ATOM     42  C   UNL     1     -47.913  29.638  23.437  1.00  0.00     0.001 A 
ATOM     43  H   UNL     1     -46.328  30.386  22.159  1.00  0.00     0.063 H 
ATOM     44  N   UNL     1     -49.607  28.984  25.026  1.00  0.00    -0.231 NA
ATOM     45  C   UNL     1     -48.248  28.541  22.638  1.00  0.00    -0.049 A 
ATOM     46  C   UNL     1     -49.921  27.937  24.240  1.00  0.00     0.126 A 
ATOM     47  C   UNL     1     -49.261  27.679  23.047  1.00  0.00    -0.019 A 
ATOM     48  H   UNL     1     -47.721  28.343  21.710  1.00  0.00     0.063 H 
ATOM     49  H   UNL     1     -49.509  26.808  22.453  1.00  0.00     0.066 H 
BRANCH  46  50
ATOM     50  N   UNL     1     -50.932  27.106  24.726  1.00  0.00    -0.373 N 
ATOM     51  H   UNL     1     -50.998  26.371  24.022  1.00  0.00     0.161 HD
BRANCH  50  52
ATOM     52  C   UNL     1     -50.661  26.552  26.042  1.00  0.00     0.005 C 
ATOM     53  H   UNL     1     -50.229  27.333  26.675  1.00  0.00     0.045 H 
ATOM     54  H   UNL     1     -49.935  25.733  25.995  1.00  0.00     0.045 H 
ATOM     55  H   UNL     1     -51.577  26.198  26.527  1.00  0.00     0.045 H 
ENDBRANCH  50  52
ENDBRANCH  46  50
ENDBRANCH  34  35
ENDBRANCH   1  34
TORSDOF 9
ENDMDL
MODEL 7
REMARK VINA RESULT:      -8.7      2.365      3.918
REMARK SMILES CCc1nc(N)c2ccn(-c3cncc(COc4ccc5ccc(NC)nc5c4)c3)c2n1
REMARK SMILES IDX 16 1 15 4 11 5 12 6 30 7 13 8 14 11 10 13 3 14 4 15 32 16
REMARK SMILES IDX 5 17 31 18 7 19 8 20 9 21 2 24 1 27 6 31 17 34 18 35 19 36
REMARK SMILES IDX 29 37 20 38 28 40 21 42 27 44 22 45 24 46 23 47 25 50 26 52
REMARK H PARENT 16 2 16 3 12 9 30 10 14 12 8 22 9 23 2 25 2 26 1 28 1 29 1 30
REMARK H PARENT 6 32 6 33 19 39 29 41 20 43 22 48 23 49 25 51 26 53 26 54
REMARK H PARENT 26 55
REMARK Flexibility Score: inf
ROOT
ATOM      1  C   UNL     1     -46.995  36.413  26.310  1.00  0.00     0.115 C 
ATOM      2  H   UNL     1     -46.301  36.661  25.496  1.00  0.00     0.076 H 
ATOM      3  H   UNL     1     -48.001  36.635  25.932  1.00  0.00     0.076 H 
ENDROOT
BRANCH   1   4
ATOM      4  C   UNL     1     -46.827  34.943  26.605  1.00  0.00     0.010 A 
ATOM      5  C   UNL     1     -47.226  32.582  26.177  1.00  0.00     0.066 A 
ATOM      6  C   UNL     1     -46.449  32.317  27.300  1.00  0.00     0.051 A 
ATOM      7  C   UNL     1     -47.420  33.926  25.843  1.00  0.00    -0.028 A 
ATOM      8  N   UNL     1     -45.870  33.270  28.070  1.00  0.00    -0.262 NA
ATOM      9  H   UNL     1     -46.221  31.310  27.635  1.00  0.00     0.086 H 
ATOM     10  H   UNL     1     -48.051  34.211  25.005  1.00  0.00     0.065 H 
ATOM     11  C   UNL     1     -46.072  34.553  27.704  1.00  0.00     0.034 A 
ATOM     12  H   UNL     1     -45.592  35.286  28.350  1.00  0.00     0.084 H 
BRANCH   5  13
ATOM     13  N   UNL     1     -47.795  31.518  25.411  1.00  0.00    -0.300 N 
ATOM     14  C   UNL     1     -46.542  31.204  22.055  1.00  0.00     0.132 A 
ATOM     15  N   UNL     1     -47.288  30.177  21.600  1.00  0.00    -0.216 NA
ATOM     16  N   UNL     1     -46.610  31.758  23.277  1.00  0.00    -0.214 NA
ATOM     17  C   UNL     1     -48.173  29.599  22.429  1.00  0.00     0.136 A 
ATOM     18  C   UNL     1     -47.516  31.176  24.086  1.00  0.00     0.150 A 
ATOM     19  C   UNL     1     -48.309  30.091  23.733  1.00  0.00     0.062 A 
ATOM     20  C   UNL     1     -49.081  29.746  24.867  1.00  0.00    -0.031 A 
ATOM     21  C   UNL     1     -48.743  30.617  25.878  1.00  0.00     0.012 A 
ATOM     22  H   UNL     1     -49.800  28.939  24.942  1.00  0.00     0.065 H 
ATOM     23  H   UNL     1     -49.137  30.674  26.882  1.00  0.00     0.082 H 
BRANCH  14  24
ATOM     24  C   UNL     1     -45.558  31.808  21.089  1.00  0.00     0.005 C 
ATOM     25  H   UNL     1     -45.239  32.786  21.465  1.00  0.00     0.035 H 
ATOM     26  H   UNL     1     -44.663  31.178  21.035  1.00  0.00     0.035 H 
BRANCH  24  27
ATOM     27  C   UNL     1     -46.165  31.955  19.703  1.00  0.00    -0.058 C 
ATOM     28  H   UNL     1     -45.377  32.006  18.947  1.00  0.00     0.023 H 
ATOM     29  H   UNL     1     -46.812  31.104  19.464  1.00  0.00     0.023 H 
ATOM     30  H   UNL     1     -46.770  32.865  19.629  1.00  0.00     0.023 H 
ENDBRANCH  24  27
ENDBRANCH  14  24
BRANCH  17  31
ATOM     31  N   UNL     1     -48.916  28.539  21.926  1.00  0.00    -0.383 N 
ATOM     32  H   UNL     1     -48.876  27.752  22.564  1.00  0.00     0.158 HD
ATOM     33  H   UNL     1     -48.751  28.331  20.951  1.00  0.00     0.158 HD
ENDBRANCH  17  31
ENDBRANCH   5  13
ENDBRANCH   1   4
BRANCH   1  34
ATOM     34  O   UNL     1     -46.649  37.284  27.389  1.00  0.00    -0.489 OA
BRANCH  34  35
ATOM     35  C   UNL     1     -46.232  38.556  27.108  1.00  0.00     0.122 A 
ATOM     36  C   UNL     1     -46.896  39.482  26.311  1.00  0.00    -0.019 A 
ATOM     37  C   UNL     1     -45.038  38.924  27.737  1.00  0.00     0.007 A 
ATOM     38  C   UNL     1     -46.363  40.762  26.149  1.00  0.00    -0.049 A 
ATOM     39  H   UNL     1     -47.836  39.256  25.819  1.00  0.00     0.066 H 
ATOM     40  C   UNL     1     -44.488  40.191  27.599  1.00  0.00     0.076 A 
ATOM     41  H   UNL     1     -44.526  38.204  28.371  1.00  0.00     0.069 H 
ATOM     42  C   UNL     1     -45.166  41.121  26.791  1.00  0.00     0.001 A 
ATOM     43  H   UNL     1     -46.896  41.483  25.532  1.00  0.00     0.063 H 
ATOM     44  N   UNL     1     -43.347  40.493  28.244  1.00  0.00    -0.231 NA
ATOM     45  C   UNL     1     -44.618  42.400  26.667  1.00  0.00    -0.049 A 
ATOM     46  C   UNL     1     -42.829  41.728  28.107  1.00  0.00     0.126 A 
ATOM     47  C   UNL     1     -43.438  42.708  27.337  1.00  0.00    -0.019 A 
ATOM     48  H   UNL     1     -45.105  43.164  26.068  1.00  0.00     0.063 H 
ATOM     49  H   UNL     1     -43.018  43.704  27.274  1.00  0.00     0.066 H 
BRANCH  46  50
ATOM     50  N   UNL     1     -41.656  41.968  28.825  1.00  0.00    -0.373 N 
ATOM     51  H   UNL     1     -41.747  42.941  29.117  1.00  0.00     0.161 HD
BRANCH  50  52
ATOM     52  C   UNL     1     -41.472  41.090  29.969  1.00  0.00     0.005 C 
ATOM     53  H   UNL     1     -40.403  41.017  30.193  1.00  0.00     0.045 H 
ATOM     54  H   UNL     1     -41.832  40.077  29.765  1.00  0.00     0.045 H 
ATOM     55  H   UNL     1     -41.973  41.481  30.861  1.00  0.00     0.045 H 
ENDBRANCH  50  52
ENDBRANCH  46  50
ENDBRANCH  34  35
ENDBRANCH   1  34
TORSDOF 9
ENDMDL
