MODEL 1
REMARK VINA RESULT:     -10.3      0.000      0.000
REMARK SMILES CNc1ccc2ccc(OCc3cccc(-n4ccc5c(N)ncnc54)c3)cc2n1
REMARK SMILES IDX 11 1 10 4 9 5 3 6 4 7 30 8 5 9 29 11 6 12 28 14 7 15 8 17
REMARK SMILES IDX 2 20 1 22 12 26 13 27 27 28 14 29 16 31 15 33 17 36 18 37
REMARK SMILES IDX 26 38 19 39 20 41 25 42 21 44 24 45 23 46 22 48
REMARK H PARENT 11 2 11 3 4 10 5 13 28 16 7 18 8 19 2 21 1 23 1 24 1 25 13 30
REMARK H PARENT 27 32 14 34 15 35 18 40 19 43 24 47 22 49 22 50
REMARK Flexibility Score: inf
ROOT
ATOM      1  C   UNL     1     -46.092  34.595  27.690  1.00  0.00     0.113 C 
ATOM      2  H   UNL     1     -45.095  34.217  27.434  1.00  0.00     0.076 H 
ATOM      3  H   UNL     1     -46.567  33.816  28.298  1.00  0.00     0.076 H 
ENDROOT
BRANCH   1   4
ATOM      4  O   UNL     1     -46.786  34.747  26.447  1.00  0.00    -0.489 OA
BRANCH   4   5
ATOM      5  C   UNL     1     -47.335  33.638  25.865  1.00  0.00     0.122 A 
ATOM      6  C   UNL     1     -46.475  30.234  22.657  1.00  0.00     0.126 A 
ATOM      7  C   UNL     1     -47.754  29.713  22.784  1.00  0.00    -0.019 A 
ATOM      8  N   UNL     1     -46.044  31.280  23.388  1.00  0.00    -0.231 NA
ATOM      9  C   UNL     1     -48.636  30.305  23.684  1.00  0.00    -0.049 A 
ATOM     10  H   UNL     1     -48.061  28.850  22.206  1.00  0.00     0.066 H 
ATOM     11  C   UNL     1     -46.896  31.858  24.256  1.00  0.00     0.076 A 
ATOM     12  C   UNL     1     -48.217  31.406  24.436  1.00  0.00     0.001 A 
ATOM     13  H   UNL     1     -49.640  29.906  23.787  1.00  0.00     0.063 H 
ATOM     14  C   UNL     1     -46.478  32.957  24.992  1.00  0.00     0.007 A 
ATOM     15  C   UNL     1     -49.073  32.058  25.338  1.00  0.00    -0.049 A 
ATOM     16  H   UNL     1     -45.464  33.322  24.852  1.00  0.00     0.069 H 
ATOM     17  C   UNL     1     -48.632  33.175  26.049  1.00  0.00    -0.019 A 
ATOM     18  H   UNL     1     -50.093  31.708  25.480  1.00  0.00     0.063 H 
ATOM     19  H   UNL     1     -49.327  33.663  26.724  1.00  0.00     0.066 H 
BRANCH   6  20
ATOM     20  N   UNL     1     -45.540  29.695  21.769  1.00  0.00    -0.373 N 
ATOM     21  H   UNL     1     -46.117  29.251  21.055  1.00  0.00     0.161 HD
BRANCH  20  22
ATOM     22  C   UNL     1     -44.647  28.729  22.387  1.00  0.00     0.005 C 
ATOM     23  H   UNL     1     -44.836  28.709  23.466  1.00  0.00     0.045 H 
ATOM     24  H   UNL     1     -44.817  27.717  22.007  1.00  0.00     0.045 H 
ATOM     25  H   UNL     1     -43.595  29.001  22.239  1.00  0.00     0.045 H 
ENDBRANCH  20  22
ENDBRANCH   6  20
ENDBRANCH   4   5
ENDBRANCH   1   4
BRANCH   1  26
ATOM     26  C   UNL     1     -45.889  35.873  28.485  1.00  0.00    -0.009 A 
ATOM     27  C   UNL     1     -46.195  35.884  29.852  1.00  0.00    -0.055 A 
ATOM     28  C   UNL     1     -45.365  37.040  27.902  1.00  0.00    -0.031 A 
ATOM     29  C   UNL     1     -46.003  37.040  30.608  1.00  0.00    -0.060 A 
ATOM     30  H   UNL     1     -46.584  34.992  30.337  1.00  0.00     0.063 H 
ATOM     31  C   UNL     1     -45.201  38.220  28.642  1.00  0.00     0.047 A 
ATOM     32  H   UNL     1     -45.075  36.999  26.856  1.00  0.00     0.065 H 
ATOM     33  C   UNL     1     -45.512  38.203  30.008  1.00  0.00    -0.038 A 
ATOM     34  H   UNL     1     -46.249  37.040  31.667  1.00  0.00     0.062 H 
ATOM     35  H   UNL     1     -45.421  39.086  30.633  1.00  0.00     0.064 H 
BRANCH  31  36
ATOM     36  N   UNL     1     -44.736  39.425  28.015  1.00  0.00    -0.301 N 
ATOM     37  C   UNL     1     -45.211  39.932  26.813  1.00  0.00     0.012 A 
ATOM     38  C   UNL     1     -43.729  40.289  28.458  1.00  0.00     0.150 A 
ATOM     39  C   UNL     1     -44.540  41.093  26.507  1.00  0.00    -0.031 A 
ATOM     40  H   UNL     1     -46.014  39.448  26.276  1.00  0.00     0.082 H 
ATOM     41  C   UNL     1     -43.598  41.325  27.537  1.00  0.00     0.061 A 
ATOM     42  N   UNL     1     -42.968  40.147  29.561  1.00  0.00    -0.218 NA
ATOM     43  H   UNL     1     -44.704  41.705  25.629  1.00  0.00     0.065 H 
ATOM     44  C   UNL     1     -42.621  42.297  27.800  1.00  0.00     0.136 A 
ATOM     45  C   UNL     1     -42.063  41.124  29.704  1.00  0.00     0.120 A 
ATOM     46  N   UNL     1     -41.858  42.182  28.900  1.00  0.00    -0.219 NA
ATOM     47  H   UNL     1     -41.420  41.055  30.575  1.00  0.00     0.106 H 
BRANCH  44  48
ATOM     48  N   UNL     1     -42.396  43.397  26.984  1.00  0.00    -0.383 N 
ATOM     49  H   UNL     1     -41.705  44.047  27.334  1.00  0.00     0.158 HD
ATOM     50  H   UNL     1     -42.282  43.100  26.021  1.00  0.00     0.158 HD
ENDBRANCH  44  48
ENDBRANCH  31  36
ENDBRANCH   1  26
TORSDOF 7
ENDMDL
MODEL 2
REMARK VINA RESULT:     -10.1      1.460      2.187
REMARK SMILES CNc1ccc2ccc(OCc3cccc(-n4ccc5c(N)ncnc54)c3)cc2n1
REMARK SMILES IDX 11 1 10 4 9 5 3 6 4 7 30 8 5 9 29 11 6 12 28 14 7 15 8 17
REMARK SMILES IDX 2 20 1 22 12 26 13 27 27 28 14 29 16 31 15 33 17 36 18 37
REMARK SMILES IDX 26 38 19 39 20 41 25 42 21 44 24 45 23 46 22 48
REMARK H PARENT 11 2 11 3 4 10 5 13 28 16 7 18 8 19 2 21 1 23 1 24 1 25 13 30
REMARK H PARENT 27 32 14 34 15 35 18 40 19 43 24 47 22 49 22 50
REMARK Flexibility Score: inf
ROOT
ATOM      1  C   UNL     1     -45.993  34.224  26.715  1.00  0.00     0.113 C 
ATOM      2  H   UNL     1     -45.977  34.237  25.619  1.00  0.00     0.076 H 
ATOM      3  H   UNL     1     -44.970  33.989  27.033  1.00  0.00     0.076 H 
ENDROOT
BRANCH   1   4
ATOM      4  O   UNL     1     -46.883  33.165  27.083  1.00  0.00    -0.489 OA
BRANCH   4   5
ATOM      5  C   UNL     1     -47.404  32.376  26.094  1.00  0.00     0.122 A 
ATOM      6  C   UNL     1     -46.668  30.942  21.620  1.00  0.00     0.126 A 
ATOM      7  C   UNL     1     -47.871  30.252  21.584  1.00  0.00    -0.019 A 
ATOM      8  N   UNL     1     -46.240  31.591  22.719  1.00  0.00    -0.231 NA
ATOM      9  C   UNL     1     -48.679  30.248  22.717  1.00  0.00    -0.049 A 
ATOM     10  H   UNL     1     -48.173  29.711  20.696  1.00  0.00     0.066 H 
ATOM     11  C   UNL     1     -47.021  31.593  23.816  1.00  0.00     0.076 A 
ATOM     12  C   UNL     1     -48.265  30.935  23.861  1.00  0.00     0.001 A 
ATOM     13  H   UNL     1     -49.624  29.714  22.697  1.00  0.00     0.063 H 
ATOM     14  C   UNL     1     -46.609  32.286  24.945  1.00  0.00     0.007 A 
ATOM     15  C   UNL     1     -49.052  30.986  25.023  1.00  0.00    -0.049 A 
ATOM     16  H   UNL     1     -45.657  32.809  24.917  1.00  0.00     0.069 H 
ATOM     17  C   UNL     1     -48.623  31.710  26.137  1.00  0.00    -0.019 A 
ATOM     18  H   UNL     1     -50.012  30.476  25.061  1.00  0.00     0.063 H 
ATOM     19  H   UNL     1     -49.265  31.741  27.009  1.00  0.00     0.066 H 
BRANCH   6  20
ATOM     20  N   UNL     1     -45.811  30.994  20.518  1.00  0.00    -0.373 N 
ATOM     21  H   UNL     1     -44.910  31.241  20.927  1.00  0.00     0.161 HD
BRANCH  20  22
ATOM     22  C   UNL     1     -46.213  31.973  19.520  1.00  0.00     0.005 C 
ATOM     23  H   UNL     1     -46.144  31.517  18.527  1.00  0.00     0.045 H 
ATOM     24  H   UNL     1     -47.249  32.294  19.661  1.00  0.00     0.045 H 
ATOM     25  H   UNL     1     -45.556  32.851  19.530  1.00  0.00     0.045 H 
ENDBRANCH  20  22
ENDBRANCH   6  20
ENDBRANCH   4   5
ENDBRANCH   1   4
BRANCH   1  26
ATOM     26  C   UNL     1     -46.409  35.613  27.167  1.00  0.00    -0.009 A 
ATOM     27  C   UNL     1     -47.771  35.926  27.253  1.00  0.00    -0.055 A 
ATOM     28  C   UNL     1     -45.468  36.589  27.543  1.00  0.00    -0.031 A 
ATOM     29  C   UNL     1     -48.179  37.189  27.680  1.00  0.00    -0.060 A 
ATOM     30  H   UNL     1     -48.524  35.187  26.987  1.00  0.00     0.063 H 
ATOM     31  C   UNL     1     -45.863  37.874  27.941  1.00  0.00     0.047 A 
ATOM     32  H   UNL     1     -44.417  36.313  27.531  1.00  0.00     0.065 H 
ATOM     33  C   UNL     1     -47.233  38.160  28.019  1.00  0.00    -0.038 A 
ATOM     34  H   UNL     1     -49.240  37.423  27.736  1.00  0.00     0.062 H 
ATOM     35  H   UNL     1     -47.604  39.139  28.306  1.00  0.00     0.064 H 
BRANCH  31  36
ATOM     36  N   UNL     1     -44.890  38.883  28.249  1.00  0.00    -0.301 N 
ATOM     37  C   UNL     1     -44.170  38.959  29.435  1.00  0.00     0.012 A 
ATOM     38  C   UNL     1     -44.499  39.969  27.460  1.00  0.00     0.150 A 
ATOM     39  C   UNL     1     -43.333  40.050  29.394  1.00  0.00    -0.031 A 
ATOM     40  H   UNL     1     -44.281  38.214  30.209  1.00  0.00     0.082 H 
ATOM     41  C   UNL     1     -43.538  40.698  28.154  1.00  0.00     0.061 A 
ATOM     42  N   UNL     1     -44.985  40.304  26.247  1.00  0.00    -0.218 NA
ATOM     43  H   UNL     1     -42.654  40.354  30.181  1.00  0.00     0.065 H 
ATOM     44  C   UNL     1     -43.026  41.844  27.526  1.00  0.00     0.136 A 
ATOM     45  C   UNL     1     -44.434  41.420  25.752  1.00  0.00     0.120 A 
ATOM     46  N   UNL     1     -43.487  42.192  26.313  1.00  0.00    -0.219 NA
ATOM     47  H   UNL     1     -44.793  41.738  24.778  1.00  0.00     0.106 H 
BRANCH  44  48
ATOM     48  N   UNL     1     -42.047  42.652  28.088  1.00  0.00    -0.383 N 
ATOM     49  H   UNL     1     -41.257  42.152  28.471  1.00  0.00     0.158 HD
ATOM     50  H   UNL     1     -41.828  43.420  27.463  1.00  0.00     0.158 HD
ENDBRANCH  44  48
ENDBRANCH  31  36
ENDBRANCH   1  26
TORSDOF 7
ENDMDL
MODEL 3
REMARK VINA RESULT:     -10.1      1.401     10.344
REMARK SMILES CNc1ccc2ccc(OCc3cccc(-n4ccc5c(N)ncnc54)c3)cc2n1
REMARK SMILES IDX 11 1 10 4 9 5 3 6 4 7 30 8 5 9 29 11 6 12 28 14 7 15 8 17
REMARK SMILES IDX 2 20 1 22 12 26 13 27 27 28 14 29 16 31 15 33 17 36 18 37
REMARK SMILES IDX 26 38 19 39 20 41 25 42 21 44 24 45 23 46 22 48
REMARK H PARENT 11 2 11 3 4 10 5 13 28 16 7 18 8 19 2 21 1 23 1 24 1 25 13 30
REMARK H PARENT 27 32 14 34 15 35 18 40 19 43 24 47 22 49 22 50
REMARK Flexibility Score: inf
ROOT
ATOM      1  C   UNL     1     -46.706  36.814  26.722  1.00  0.00     0.113 C 
ATOM      2  H   UNL     1     -45.720  37.141  26.372  1.00  0.00     0.076 H 
ATOM      3  H   UNL     1     -47.427  37.159  25.971  1.00  0.00     0.076 H 
ENDROOT
BRANCH   1   4
ATOM      4  O   UNL     1     -46.925  37.486  27.966  1.00  0.00    -0.489 OA
BRANCH   4   5
ATOM      5  C   UNL     1     -45.861  38.093  28.577  1.00  0.00     0.122 A 
ATOM      6  C   UNL     1     -42.712  41.618  28.063  1.00  0.00     0.126 A 
ATOM      7  C   UNL     1     -42.028  41.250  29.213  1.00  0.00    -0.019 A 
ATOM      8  N   UNL     1     -43.819  40.977  27.645  1.00  0.00    -0.231 NA
ATOM      9  C   UNL     1     -42.488  40.163  29.951  1.00  0.00    -0.049 A 
ATOM     10  H   UNL     1     -41.159  41.805  29.542  1.00  0.00     0.066 H 
ATOM     11  C   UNL     1     -44.265  39.923  28.354  1.00  0.00     0.076 A 
ATOM     12  C   UNL     1     -43.623  39.470  29.522  1.00  0.00     0.001 A 
ATOM     13  H   UNL     1     -41.957  39.866  30.850  1.00  0.00     0.063 H 
ATOM     14  C   UNL     1     -45.386  39.232  27.917  1.00  0.00     0.007 A 
ATOM     15  C   UNL     1     -44.115  38.352  30.214  1.00  0.00    -0.049 A 
ATOM     16  H   UNL     1     -45.882  39.565  27.010  1.00  0.00     0.069 H 
ATOM     17  C   UNL     1     -45.232  37.661  29.739  1.00  0.00    -0.019 A 
ATOM     18  H   UNL     1     -43.622  38.002  31.118  1.00  0.00     0.063 H 
ATOM     19  H   UNL     1     -45.572  36.792  30.290  1.00  0.00     0.066 H 
BRANCH   6  20
ATOM     20  N   UNL     1     -42.302  42.692  27.270  1.00  0.00    -0.373 N 
ATOM     21  H   UNL     1     -41.566  43.131  27.823  1.00  0.00     0.161 HD
BRANCH  20  22
ATOM     22  C   UNL     1     -43.368  43.638  26.983  1.00  0.00     0.005 C 
ATOM     23  H   UNL     1     -44.243  43.089  26.620  1.00  0.00     0.045 H 
ATOM     24  H   UNL     1     -43.676  44.187  27.879  1.00  0.00     0.045 H 
ATOM     25  H   UNL     1     -43.075  44.351  26.203  1.00  0.00     0.045 H 
ENDBRANCH  20  22
ENDBRANCH   6  20
ENDBRANCH   4   5
ENDBRANCH   1   4
BRANCH   1  26
ATOM     26  C   UNL     1     -46.668  35.297  26.797  1.00  0.00    -0.009 A 
ATOM     27  C   UNL     1     -45.989  34.682  27.857  1.00  0.00    -0.055 A 
ATOM     28  C   UNL     1     -47.327  34.486  25.857  1.00  0.00    -0.031 A 
ATOM     29  C   UNL     1     -45.952  33.292  27.957  1.00  0.00    -0.060 A 
ATOM     30  H   UNL     1     -45.485  35.282  28.610  1.00  0.00     0.063 H 
ATOM     31  C   UNL     1     -47.269  33.087  25.925  1.00  0.00     0.047 A 
ATOM     32  H   UNL     1     -47.901  34.977  25.075  1.00  0.00     0.065 H 
ATOM     33  C   UNL     1     -46.585  32.497  26.997  1.00  0.00    -0.038 A 
ATOM     34  H   UNL     1     -45.417  32.824  28.780  1.00  0.00     0.062 H 
ATOM     35  H   UNL     1     -46.490  31.421  27.100  1.00  0.00     0.064 H 
BRANCH  31  36
ATOM     36  N   UNL     1     -47.883  32.272  24.916  1.00  0.00    -0.301 N 
ATOM     37  C   UNL     1     -49.248  32.038  24.804  1.00  0.00     0.012 A 
ATOM     38  C   UNL     1     -47.256  31.554  23.893  1.00  0.00     0.150 A 
ATOM     39  C   UNL     1     -49.484  31.210  23.731  1.00  0.00    -0.031 A 
ATOM     40  H   UNL     1     -49.956  32.502  25.475  1.00  0.00     0.082 H 
ATOM     41  C   UNL     1     -48.233  30.893  23.153  1.00  0.00     0.061 A 
ATOM     42  N   UNL     1     -45.931  31.461  23.665  1.00  0.00    -0.218 NA
ATOM     43  H   UNL     1     -50.456  30.861  23.405  1.00  0.00     0.065 H 
ATOM     44  C   UNL     1     -47.797  30.102  22.079  1.00  0.00     0.136 A 
ATOM     45  C   UNL     1     -45.632  30.671  22.626  1.00  0.00     0.120 A 
ATOM     46  N   UNL     1     -46.482  30.004  21.825  1.00  0.00    -0.219 NA
ATOM     47  H   UNL     1     -44.576  30.558  22.400  1.00  0.00     0.106 H 
BRANCH  44  48
ATOM     48  N   UNL     1     -48.658  29.408  21.240  1.00  0.00    -0.383 N 
ATOM     49  H   UNL     1     -48.201  28.786  20.588  1.00  0.00     0.158 HD
ATOM     50  H   UNL     1     -49.422  29.009  21.776  1.00  0.00     0.158 HD
ENDBRANCH  44  48
ENDBRANCH  31  36
ENDBRANCH   1  26
TORSDOF 7
ENDMDL
MODEL 4
REMARK VINA RESULT:     -10.0      2.545      4.678
REMARK SMILES CNc1ccc2ccc(OCc3cccc(-n4ccc5c(N)ncnc54)c3)cc2n1
REMARK SMILES IDX 11 1 10 4 9 5 3 6 4 7 30 8 5 9 29 11 6 12 28 14 7 15 8 17
REMARK SMILES IDX 2 20 1 22 12 26 13 27 27 28 14 29 16 31 15 33 17 36 18 37
REMARK SMILES IDX 26 38 19 39 20 41 25 42 21 44 24 45 23 46 22 48
REMARK H PARENT 11 2 11 3 4 10 5 13 28 16 7 18 8 19 2 21 1 23 1 24 1 25 13 30
REMARK H PARENT 27 32 14 34 15 35 18 40 19 43 24 47 22 49 22 50
REMARK Flexibility Score: inf
ROOT
ATOM      1  C   UNL     1     -44.830  38.569  29.087  1.00  0.00     0.113 C 
ATOM      2  H   UNL     1     -44.408  37.680  28.603  1.00  0.00     0.076 H 
ATOM      3  H   UNL     1     -44.986  38.298  30.138  1.00  0.00     0.076 H 
ENDROOT
BRANCH   1   4
ATOM      4  O   UNL     1     -46.086  38.807  28.444  1.00  0.00    -0.489 OA
BRANCH   4   5
ATOM      5  C   UNL     1     -46.834  37.731  28.050  1.00  0.00     0.122 A 
ATOM      6  C   UNL     1     -46.553  33.557  25.791  1.00  0.00     0.126 A 
ATOM      7  C   UNL     1     -47.925  33.362  25.863  1.00  0.00    -0.019 A 
ATOM      8  N   UNL     1     -45.947  34.632  26.328  1.00  0.00    -0.231 NA
ATOM      9  C   UNL     1     -48.710  34.323  26.493  1.00  0.00    -0.049 A 
ATOM     10  H   UNL     1     -48.381  32.470  25.451  1.00  0.00     0.066 H 
ATOM     11  C   UNL     1     -46.703  35.566  26.934  1.00  0.00     0.076 A 
ATOM     12  C   UNL     1     -48.103  35.459  27.036  1.00  0.00     0.001 A 
ATOM     13  H   UNL     1     -49.784  34.181  26.551  1.00  0.00     0.063 H 
ATOM     14  C   UNL     1     -46.096  36.697  27.462  1.00  0.00     0.007 A 
ATOM     15  C   UNL     1     -48.849  36.472  27.660  1.00  0.00    -0.049 A 
ATOM     16  H   UNL     1     -45.018  36.797  27.378  1.00  0.00     0.069 H 
ATOM     17  C   UNL     1     -48.214  37.610  28.163  1.00  0.00    -0.019 A 
ATOM     18  H   UNL     1     -49.930  36.390  27.742  1.00  0.00     0.063 H 
ATOM     19  H   UNL     1     -48.824  38.379  28.621  1.00  0.00     0.066 H 
BRANCH   6  20
ATOM     20  N   UNL     1     -45.706  32.637  25.167  1.00  0.00    -0.373 N 
ATOM     21  H   UNL     1     -45.072  33.224  24.626  1.00  0.00     0.161 HD
BRANCH  20  22
ATOM     22  C   UNL     1     -46.407  31.699  24.305  1.00  0.00     0.005 C 
ATOM     23  H   UNL     1     -46.465  32.120  23.295  1.00  0.00     0.045 H 
ATOM     24  H   UNL     1     -45.879  30.743  24.230  1.00  0.00     0.045 H 
ATOM     25  H   UNL     1     -47.432  31.522  24.651  1.00  0.00     0.045 H 
ENDBRANCH  20  22
ENDBRANCH   6  20
ENDBRANCH   4   5
ENDBRANCH   1   4
BRANCH   1  26
ATOM     26  C   UNL     1     -43.804  39.679  28.947  1.00  0.00    -0.009 A 
ATOM     27  C   UNL     1     -42.788  39.796  29.904  1.00  0.00    -0.055 A 
ATOM     28  C   UNL     1     -43.815  40.574  27.862  1.00  0.00    -0.031 A 
ATOM     29  C   UNL     1     -41.824  40.797  29.790  1.00  0.00    -0.060 A 
ATOM     30  H   UNL     1     -42.740  39.108  30.745  1.00  0.00     0.063 H 
ATOM     31  C   UNL     1     -42.874  41.608  27.754  1.00  0.00     0.047 A 
ATOM     32  H   UNL     1     -44.572  40.433  27.096  1.00  0.00     0.065 H 
ATOM     33  C   UNL     1     -41.866  41.700  28.724  1.00  0.00    -0.038 A 
ATOM     34  H   UNL     1     -41.043  40.884  30.542  1.00  0.00     0.062 H 
ATOM     35  H   UNL     1     -41.117  42.485  28.706  1.00  0.00     0.064 H 
BRANCH  31  36
ATOM     36  N   UNL     1     -42.943  42.559  26.682  1.00  0.00    -0.301 N 
ATOM     37  C   UNL     1     -41.875  42.927  25.873  1.00  0.00     0.012 A 
ATOM     38  C   UNL     1     -44.052  43.301  26.263  1.00  0.00     0.150 A 
ATOM     39  C   UNL     1     -42.295  43.862  24.956  1.00  0.00    -0.031 A 
ATOM     40  H   UNL     1     -40.900  42.475  25.987  1.00  0.00     0.082 H 
ATOM     41  C   UNL     1     -43.667  44.110  25.197  1.00  0.00     0.061 A 
ATOM     42  N   UNL     1     -45.285  43.290  26.807  1.00  0.00    -0.218 NA
ATOM     43  H   UNL     1     -41.675  44.326  24.199  1.00  0.00     0.065 H 
ATOM     44  C   UNL     1     -44.646  44.947  24.641  1.00  0.00     0.136 A 
ATOM     45  C   UNL     1     -46.132  44.135  26.205  1.00  0.00     0.120 A 
ATOM     46  N   UNL     1     -45.885  44.944  25.159  1.00  0.00    -0.219 NA
ATOM     47  H   UNL     1     -47.139  44.169  26.607  1.00  0.00     0.106 H 
BRANCH  44  48
ATOM     48  N   UNL     1     -44.412  45.787  23.561  1.00  0.00    -0.383 N 
ATOM     49  H   UNL     1     -44.154  46.732  23.810  1.00  0.00     0.158 HD
ATOM     50  H   UNL     1     -43.815  45.325  22.883  1.00  0.00     0.158 HD
ENDBRANCH  44  48
ENDBRANCH  31  36
ENDBRANCH   1  26
TORSDOF 7
ENDMDL
MODEL 5
REMARK VINA RESULT:      -9.8      2.230     10.492
REMARK SMILES CNc1ccc2ccc(OCc3cccc(-n4ccc5c(N)ncnc54)c3)cc2n1
REMARK SMILES IDX 11 1 10 4 9 5 3 6 4 7 30 8 5 9 29 11 6 12 28 14 7 15 8 17
REMARK SMILES IDX 2 20 1 22 12 26 13 27 27 28 14 29 16 31 15 33 17 36 18 37
REMARK SMILES IDX 26 38 19 39 20 41 25 42 21 44 24 45 23 46 22 48
REMARK H PARENT 11 2 11 3 4 10 5 13 28 16 7 18 8 19 2 21 1 23 1 24 1 25 13 30
REMARK H PARENT 27 32 14 34 15 35 18 40 19 43 24 47 22 49 22 50
REMARK Flexibility Score: inf
ROOT
ATOM      1  C   UNL     1     -49.040  35.281  27.028  1.00  0.00     0.113 C 
ATOM      2  H   UNL     1     -49.002  36.214  26.452  1.00  0.00     0.076 H 
ATOM      3  H   UNL     1     -50.087  34.956  27.014  1.00  0.00     0.076 H 
ENDROOT
BRANCH   1   4
ATOM      4  O   UNL     1     -48.644  35.625  28.360  1.00  0.00    -0.489 OA
BRANCH   4   5
ATOM      5  C   UNL     1     -47.588  36.479  28.528  1.00  0.00     0.122 A 
ATOM      6  C   UNL     1     -45.578  40.402  26.746  1.00  0.00     0.126 A 
ATOM      7  C   UNL     1     -44.495  40.307  27.609  1.00  0.00    -0.019 A 
ATOM      8  N   UNL     1     -46.604  39.531  26.776  1.00  0.00    -0.231 NA
ATOM      9  C   UNL     1     -44.454  39.260  28.525  1.00  0.00    -0.049 A 
ATOM     10  H   UNL     1     -43.700  41.042  27.584  1.00  0.00     0.066 H 
ATOM     11  C   UNL     1     -46.566  38.515  27.658  1.00  0.00     0.076 A 
ATOM     12  C   UNL     1     -45.498  38.332  28.557  1.00  0.00     0.001 A 
ATOM     13  H   UNL     1     -43.610  39.176  29.202  1.00  0.00     0.063 H 
ATOM     14  C   UNL     1     -47.600  37.590  27.677  1.00  0.00     0.007 A 
ATOM     15  C   UNL     1     -45.496  37.242  29.442  1.00  0.00    -0.049 A 
ATOM     16  H   UNL     1     -48.423  37.715  26.979  1.00  0.00     0.069 H 
ATOM     17  C   UNL     1     -46.539  36.314  29.425  1.00  0.00    -0.019 A 
ATOM     18  H   UNL     1     -44.673  37.100  30.139  1.00  0.00     0.063 H 
ATOM     19  H   UNL     1     -46.494  35.476  30.111  1.00  0.00     0.066 H 
BRANCH   6  20
ATOM     20  N   UNL     1     -45.680  41.422  25.797  1.00  0.00    -0.373 N 
ATOM     21  H   UNL     1     -44.743  41.824  25.774  1.00  0.00     0.161 HD
BRANCH  20  22
ATOM     22  C   UNL     1     -46.668  42.433  26.140  1.00  0.00     0.005 C 
ATOM     23  H   UNL     1     -47.515  41.949  26.638  1.00  0.00     0.045 H 
ATOM     24  H   UNL     1     -46.263  43.177  26.835  1.00  0.00     0.045 H 
ATOM     25  H   UNL     1     -47.052  42.941  25.248  1.00  0.00     0.045 H 
ENDBRANCH  20  22
ENDBRANCH   6  20
ENDBRANCH   4   5
ENDBRANCH   1   4
BRANCH   1  26
ATOM     26  C   UNL     1     -48.140  34.286  26.316  1.00  0.00    -0.009 A 
ATOM     27  C   UNL     1     -46.802  34.622  26.076  1.00  0.00    -0.055 A 
ATOM     28  C   UNL     1     -48.598  33.015  25.923  1.00  0.00    -0.031 A 
ATOM     29  C   UNL     1     -45.952  33.720  25.438  1.00  0.00    -0.060 A 
ATOM     30  H   UNL     1     -46.414  35.590  26.385  1.00  0.00     0.063 H 
ATOM     31  C   UNL     1     -47.764  32.112  25.248  1.00  0.00     0.047 A 
ATOM     32  H   UNL     1     -49.620  32.744  26.170  1.00  0.00     0.065 H 
ATOM     33  C   UNL     1     -46.428  32.473  25.023  1.00  0.00    -0.038 A 
ATOM     34  H   UNL     1     -44.917  33.994  25.251  1.00  0.00     0.062 H 
ATOM     35  H   UNL     1     -45.735  31.826  24.495  1.00  0.00     0.064 H 
BRANCH  31  36
ATOM     36  N   UNL     1     -48.265  30.849  24.786  1.00  0.00    -0.301 N 
ATOM     37  C   UNL     1     -48.727  29.828  25.606  1.00  0.00     0.012 A 
ATOM     38  C   UNL     1     -48.363  30.395  23.467  1.00  0.00     0.150 A 
ATOM     39  C   UNL     1     -49.125  28.762  24.832  1.00  0.00    -0.031 A 
ATOM     40  H   UNL     1     -48.771  29.943  26.679  1.00  0.00     0.082 H 
ATOM     41  C   UNL     1     -48.893  29.108  23.480  1.00  0.00     0.061 A 
ATOM     42  N   UNL     1     -47.977  31.051  22.355  1.00  0.00    -0.218 NA
ATOM     43  H   UNL     1     -49.529  27.829  25.203  1.00  0.00     0.065 H 
ATOM     44  C   UNL     1     -49.058  28.470  22.241  1.00  0.00     0.136 A 
ATOM     45  C   UNL     1     -48.169  30.343  21.235  1.00  0.00     0.120 A 
ATOM     46  N   UNL     1     -48.691  29.110  21.118  1.00  0.00    -0.219 NA
ATOM     47  H   UNL     1     -47.870  30.824  20.308  1.00  0.00     0.106 H 
BRANCH  44  48
ATOM     48  N   UNL     1     -49.598  27.199  22.100  1.00  0.00    -0.383 N 
ATOM     49  H   UNL     1     -49.274  26.526  22.780  1.00  0.00     0.158 HD
ATOM     50  H   UNL     1     -50.602  27.258  21.974  1.00  0.00     0.158 HD
ENDBRANCH  44  48
ENDBRANCH  31  36
ENDBRANCH   1  26
TORSDOF 7
ENDMDL
MODEL 6
REMARK VINA RESULT:      -9.7      2.073      2.900
REMARK SMILES CNc1ccc2ccc(OCc3cccc(-n4ccc5c(N)ncnc54)c3)cc2n1
REMARK SMILES IDX 11 1 10 4 9 5 3 6 4 7 30 8 5 9 29 11 6 12 28 14 7 15 8 17
REMARK SMILES IDX 2 20 1 22 12 26 13 27 27 28 14 29 16 31 15 33 17 36 18 37
REMARK SMILES IDX 26 38 19 39 20 41 25 42 21 44 24 45 23 46 22 48
REMARK H PARENT 11 2 11 3 4 10 5 13 28 16 7 18 8 19 2 21 1 23 1 24 1 25 13 30
REMARK H PARENT 27 32 14 34 15 35 18 40 19 43 24 47 22 49 22 50
REMARK Flexibility Score: inf
ROOT
ATOM      1  C   UNL     1     -46.524  34.205  27.047  1.00  0.00     0.113 C 
ATOM      2  H   UNL     1     -45.818  34.211  26.207  1.00  0.00     0.076 H 
ATOM      3  H   UNL     1     -46.024  33.672  27.863  1.00  0.00     0.076 H 
ENDROOT
BRANCH   1   4
ATOM      4  O   UNL     1     -47.664  33.467  26.596  1.00  0.00    -0.489 OA
BRANCH   4   5
ATOM      5  C   UNL     1     -47.478  32.479  25.667  1.00  0.00     0.122 A 
ATOM      6  C   UNL     1     -48.858  28.082  24.496  1.00  0.00     0.126 A 
ATOM      7  C   UNL     1     -47.948  28.014  23.451  1.00  0.00    -0.019 A 
ATOM      8  N   UNL     1     -48.997  29.179  25.263  1.00  0.00    -0.231 NA
ATOM      9  C   UNL     1     -47.131  29.112  23.198  1.00  0.00    -0.049 A 
ATOM     10  H   UNL     1     -47.882  27.129  22.830  1.00  0.00     0.066 H 
ATOM     11  C   UNL     1     -48.205  30.242  25.024  1.00  0.00     0.076 A 
ATOM     12  C   UNL     1     -47.243  30.253  23.997  1.00  0.00     0.001 A 
ATOM     13  H   UNL     1     -46.413  29.067  22.384  1.00  0.00     0.063 H 
ATOM     14  C   UNL     1     -48.313  31.368  25.827  1.00  0.00     0.007 A 
ATOM     15  C   UNL     1     -46.426  31.379  23.802  1.00  0.00    -0.049 A 
ATOM     16  H   UNL     1     -49.044  31.365  26.632  1.00  0.00     0.069 H 
ATOM     17  C   UNL     1     -46.541  32.489  24.640  1.00  0.00    -0.019 A 
ATOM     18  H   UNL     1     -45.683  31.390  23.008  1.00  0.00     0.063 H 
ATOM     19  H   UNL     1     -45.882  33.332  24.471  1.00  0.00     0.066 H 
BRANCH   6  20
ATOM     20  N   UNL     1     -49.704  27.016  24.811  1.00  0.00    -0.373 N 
ATOM     21  H   UNL     1     -50.626  27.448  24.862  1.00  0.00     0.161 HD
BRANCH  20  22
ATOM     22  C   UNL     1     -49.368  26.363  26.067  1.00  0.00     0.005 C 
ATOM     23  H   UNL     1     -48.287  26.185  26.097  1.00  0.00     0.045 H 
ATOM     24  H   UNL     1     -49.619  26.989  26.929  1.00  0.00     0.045 H 
ATOM     25  H   UNL     1     -49.868  25.393  26.163  1.00  0.00     0.045 H 
ENDBRANCH  20  22
ENDBRANCH   6  20
ENDBRANCH   4   5
ENDBRANCH   1   4
BRANCH   1  26
ATOM     26  C   UNL     1     -46.789  35.656  27.411  1.00  0.00    -0.009 A 
ATOM     27  C   UNL     1     -48.102  36.141  27.380  1.00  0.00    -0.055 A 
ATOM     28  C   UNL     1     -45.759  36.522  27.820  1.00  0.00    -0.031 A 
ATOM     29  C   UNL     1     -48.374  37.464  27.726  1.00  0.00    -0.060 A 
ATOM     30  H   UNL     1     -48.923  35.490  27.087  1.00  0.00     0.063 H 
ATOM     31  C   UNL     1     -46.012  37.865  28.136  1.00  0.00     0.047 A 
ATOM     32  H   UNL     1     -44.755  36.116  27.899  1.00  0.00     0.065 H 
ATOM     33  C   UNL     1     -47.336  38.323  28.099  1.00  0.00    -0.038 A 
ATOM     34  H   UNL     1     -49.396  37.832  27.692  1.00  0.00     0.062 H 
ATOM     35  H   UNL     1     -47.598  39.354  28.318  1.00  0.00     0.064 H 
BRANCH  31  36
ATOM     36  N   UNL     1     -44.942  38.757  28.478  1.00  0.00    -0.301 N 
ATOM     37  C   UNL     1     -44.199  38.697  29.651  1.00  0.00     0.012 A 
ATOM     38  C   UNL     1     -44.460  39.844  27.741  1.00  0.00     0.150 A 
ATOM     39  C   UNL     1     -43.262  39.704  29.653  1.00  0.00    -0.031 A 
ATOM     40  H   UNL     1     -44.370  37.924  30.386  1.00  0.00     0.082 H 
ATOM     41  C   UNL     1     -43.422  40.437  28.454  1.00  0.00     0.061 A 
ATOM     42  N   UNL     1     -44.930  40.291  26.559  1.00  0.00    -0.218 NA
ATOM     43  H   UNL     1     -42.545  39.897  30.440  1.00  0.00     0.065 H 
ATOM     44  C   UNL     1     -42.812  41.563  27.879  1.00  0.00     0.136 A 
ATOM     45  C   UNL     1     -44.282  41.375  26.114  1.00  0.00     0.120 A 
ATOM     46  N   UNL     1     -43.256  42.020  26.697  1.00  0.00    -0.219 NA
ATOM     47  H   UNL     1     -44.624  41.780  25.166  1.00  0.00     0.106 H 
BRANCH  44  48
ATOM     48  N   UNL     1     -41.751  42.241  28.463  1.00  0.00    -0.383 N 
ATOM     49  H   UNL     1     -41.508  43.112  28.012  1.00  0.00     0.158 HD
ATOM     50  H   UNL     1     -41.872  42.278  29.470  1.00  0.00     0.158 HD
ENDBRANCH  44  48
ENDBRANCH  31  36
ENDBRANCH   1  26
TORSDOF 7
ENDMDL
MODEL 7
REMARK VINA RESULT:      -9.5      1.584      2.418
REMARK SMILES CNc1ccc2ccc(OCc3cccc(-n4ccc5c(N)ncnc54)c3)cc2n1
REMARK SMILES IDX 11 1 10 4 9 5 3 6 4 7 30 8 5 9 29 11 6 12 28 14 7 15 8 17
REMARK SMILES IDX 2 20 1 22 12 26 13 27 27 28 14 29 16 31 15 33 17 36 18 37
REMARK SMILES IDX 26 38 19 39 20 41 25 42 21 44 24 45 23 46 22 48
REMARK H PARENT 11 2 11 3 4 10 5 13 28 16 7 18 8 19 2 21 1 23 1 24 1 25 13 30
REMARK H PARENT 27 32 14 34 15 35 18 40 19 43 24 47 22 49 22 50
REMARK Flexibility Score: inf
ROOT
ATOM      1  C   UNL     1     -46.110  36.597  28.225  1.00  0.00     0.113 C 
ATOM      2  H   UNL     1     -45.639  35.784  28.791  1.00  0.00     0.076 H 
ATOM      3  H   UNL     1     -47.124  36.701  28.628  1.00  0.00     0.076 H 
ENDROOT
BRANCH   1   4
ATOM      4  O   UNL     1     -46.160  36.151  26.866  1.00  0.00    -0.489 OA
BRANCH   4   5
ATOM      5  C   UNL     1     -46.951  35.078  26.558  1.00  0.00     0.122 A 
ATOM      6  C   UNL     1     -46.974  30.952  24.196  1.00  0.00     0.126 A 
ATOM      7  C   UNL     1     -48.321  30.747  24.454  1.00  0.00    -0.019 A 
ATOM      8  N   UNL     1     -46.302  32.020  24.664  1.00  0.00    -0.231 NA
ATOM      9  C   UNL     1     -49.013  31.690  25.207  1.00  0.00    -0.049 A 
ATOM     10  H   UNL     1     -48.826  29.860  24.091  1.00  0.00     0.066 H 
ATOM     11  C   UNL     1     -46.969  32.937  25.390  1.00  0.00     0.076 A 
ATOM     12  C   UNL     1     -48.341  32.819  25.684  1.00  0.00     0.001 A 
ATOM     13  H   UNL     1     -50.069  31.540  25.412  1.00  0.00     0.063 H 
ATOM     14  C   UNL     1     -46.299  34.061  25.851  1.00  0.00     0.007 A 
ATOM     15  C   UNL     1     -48.996  33.815  26.426  1.00  0.00    -0.049 A 
ATOM     16  H   UNL     1     -45.243  34.170  25.619  1.00  0.00     0.069 H 
ATOM     17  C   UNL     1     -48.301  34.946  26.859  1.00  0.00    -0.019 A 
ATOM     18  H   UNL     1     -50.055  33.723  26.657  1.00  0.00     0.063 H 
ATOM     19  H   UNL     1     -48.845  35.702  27.414  1.00  0.00     0.066 H 
BRANCH   6  20
ATOM     20  N   UNL     1     -46.219  30.050  23.441  1.00  0.00    -0.373 N 
ATOM     21  H   UNL     1     -45.471  30.627  23.056  1.00  0.00     0.161 HD
BRANCH  20  22
ATOM     22  C   UNL     1     -46.977  29.409  22.379  1.00  0.00     0.005 C 
ATOM     23  H   UNL     1     -47.287  30.169  21.654  1.00  0.00     0.045 H 
ATOM     24  H   UNL     1     -46.376  28.670  21.840  1.00  0.00     0.045 H 
ATOM     25  H   UNL     1     -47.884  28.928  22.765  1.00  0.00     0.045 H 
ENDBRANCH  20  22
ENDBRANCH   6  20
ENDBRANCH   4   5
ENDBRANCH   1   4
BRANCH   1  26
ATOM     26  C   UNL     1     -45.283  37.846  28.473  1.00  0.00    -0.009 A 
ATOM     27  C   UNL     1     -44.535  37.948  29.653  1.00  0.00    -0.055 A 
ATOM     28  C   UNL     1     -45.210  38.892  27.536  1.00  0.00    -0.031 A 
ATOM     29  C   UNL     1     -43.756  39.078  29.898  1.00  0.00    -0.060 A 
ATOM     30  H   UNL     1     -44.556  37.148  30.389  1.00  0.00     0.063 H 
ATOM     31  C   UNL     1     -44.459  40.049  27.784  1.00  0.00     0.047 A 
ATOM     32  H   UNL     1     -45.746  38.772  26.598  1.00  0.00     0.065 H 
ATOM     33  C   UNL     1     -43.718  40.124  28.972  1.00  0.00    -0.038 A 
ATOM     34  H   UNL     1     -43.184  39.150  30.820  1.00  0.00     0.062 H 
ATOM     35  H   UNL     1     -43.128  40.998  29.231  1.00  0.00     0.064 H 
BRANCH  31  36
ATOM     36  N   UNL     1     -44.454  41.140  26.852  1.00  0.00    -0.301 N 
ATOM     37  C   UNL     1     -45.580  41.649  26.216  1.00  0.00     0.012 A 
ATOM     38  C   UNL     1     -43.355  41.871  26.391  1.00  0.00     0.150 A 
ATOM     39  C   UNL     1     -45.211  42.684  25.389  1.00  0.00    -0.031 A 
ATOM     40  H   UNL     1     -46.566  41.259  26.421  1.00  0.00     0.082 H 
ATOM     41  C   UNL     1     -43.807  42.829  25.488  1.00  0.00     0.061 A 
ATOM     42  N   UNL     1     -42.061  41.677  26.715  1.00  0.00    -0.218 NA
ATOM     43  H   UNL     1     -45.881  43.267  24.770  1.00  0.00     0.065 H 
ATOM     44  C   UNL     1     -42.843  43.661  24.900  1.00  0.00     0.136 A 
ATOM     45  C   UNL     1     -41.231  42.518  26.086  1.00  0.00     0.120 A 
ATOM     46  N   UNL     1     -41.548  43.494  25.216  1.00  0.00    -0.219 NA
ATOM     47  H   UNL     1     -40.174  42.402  26.308  1.00  0.00     0.106 H 
BRANCH  44  48
ATOM     48  N   UNL     1     -43.150  44.675  24.002  1.00  0.00    -0.383 N 
ATOM     49  H   UNL     1     -42.347  45.146  23.608  1.00  0.00     0.158 HD
ATOM     50  H   UNL     1     -43.849  44.355  23.341  1.00  0.00     0.158 HD
ENDBRANCH  44  48
ENDBRANCH  31  36
ENDBRANCH   1  26
TORSDOF 7
ENDMDL
