MODEL 1
REMARK VINA RESULT:     -11.5      0.000      0.000
REMARK SMILES c1ccc2c(-n3cc(Cc4ccc5cc(CNCC6CCC6)[nH]c5c4)nn3)cncc2c1
REMARK SMILES IDX 10 1 11 2 12 3 13 4 14 5 15 6 23 7 24 8 25 9 9 15 8 18 6 19
REMARK SMILES IDX 7 20 27 21 26 23 5 24 1 25 2 26 32 27 3 29 31 31 4 33 30 35
REMARK SMILES IDX 29 36 28 38 16 40 17 43 18 45 19 48 20 49 22 50 21 52
REMARK H PARENT 11 10 12 11 14 12 23 13 25 14 9 16 9 17 7 22 1 28 2 30 32 32
REMARK H PARENT 3 34 30 37 28 39 16 41 16 42 17 44 18 46 18 47 19 51 20 53
REMARK H PARENT 20 54 22 55 22 56 21 57 21 58
REMARK Flexibility Score: inf
ROOT
ATOM      1  C   UNL     1     -48.078  35.231  26.849  1.00  0.00    -0.040 A 
ATOM      2  C   UNL     1     -46.762  35.231  26.365  1.00  0.00    -0.058 A 
ATOM      3  C   UNL     1     -46.259  34.150  25.629  1.00  0.00    -0.053 A 
ATOM      4  C   UNL     1     -47.088  33.044  25.374  1.00  0.00    -0.000 A 
ATOM      5  C   UNL     1     -46.905  31.806  24.703  1.00  0.00    -0.032 A 
ATOM      6  C   UNL     1     -48.085  31.091  24.788  1.00  0.00     0.030 A 
ATOM      7  N   UNL     1     -48.982  31.875  25.472  1.00  0.00    -0.357 N 
ATOM      8  C   UNL     1     -48.396  33.062  25.853  1.00  0.00     0.046 A 
ATOM      9  C   UNL     1     -48.922  34.136  26.583  1.00  0.00    -0.034 A 
ATOM     10  H   UNL     1     -46.104  36.075  26.571  1.00  0.00     0.063 H 
ATOM     11  H   UNL     1     -45.233  34.163  25.271  1.00  0.00     0.063 H 
ATOM     12  H   UNL     1     -46.000  31.457  24.224  1.00  0.00     0.065 H 
ATOM     13  H   UNL     1     -49.934  31.616  25.689  1.00  0.00     0.166 HD
ATOM     14  H   UNL     1     -49.944  34.114  26.947  1.00  0.00     0.065 H 
ENDROOT
BRANCH   1  15
ATOM     15  C   UNL     1     -48.583  36.387  27.683  1.00  0.00     0.018 C 
ATOM     16  H   UNL     1     -49.406  36.892  27.168  1.00  0.00     0.038 H 
ATOM     17  H   UNL     1     -48.963  36.042  28.651  1.00  0.00     0.038 H 
BRANCH  15  18
ATOM     18  C   UNL     1     -47.421  37.296  27.874  1.00  0.00     0.088 A 
ATOM     19  N   UNL     1     -45.838  38.801  27.734  1.00  0.00    -0.218 N 
ATOM     20  C   UNL     1     -46.838  38.198  27.010  1.00  0.00     0.055 A 
ATOM     21  N   UNL     1     -45.718  38.162  28.925  1.00  0.00    -0.062 NA
ATOM     22  H   UNL     1     -47.050  38.435  25.980  1.00  0.00     0.086 H 
ATOM     23  N   UNL     1     -46.708  37.288  29.040  1.00  0.00    -0.135 NA
BRANCH  19  24
ATOM     24  C   UNL     1     -44.958  39.844  27.361  1.00  0.00     0.092 A 
ATOM     25  C   UNL     1     -41.664  41.381  29.615  1.00  0.00    -0.062 A 
ATOM     26  C   UNL     1     -42.269  40.210  30.045  1.00  0.00    -0.062 A 
ATOM     27  C   UNL     1     -42.110  41.993  28.449  1.00  0.00    -0.053 A 
ATOM     28  H   UNL     1     -40.829  41.801  30.171  1.00  0.00     0.062 H 
ATOM     29  C   UNL     1     -43.339  39.670  29.323  1.00  0.00    -0.052 A 
ATOM     30  H   UNL     1     -41.902  39.699  30.931  1.00  0.00     0.062 H 
ATOM     31  C   UNL     1     -43.180  41.454  27.713  1.00  0.00     0.002 A 
ATOM     32  H   UNL     1     -41.601  42.892  28.103  1.00  0.00     0.063 H 
ATOM     33  C   UNL     1     -43.864  40.296  28.158  1.00  0.00     0.011 A 
ATOM     34  H   UNL     1     -43.719  38.714  29.673  1.00  0.00     0.063 H 
ATOM     35  C   UNL     1     -43.573  42.039  26.508  1.00  0.00     0.035 A 
ATOM     36  N   UNL     1     -44.559  41.576  25.711  1.00  0.00    -0.262 NA
ATOM     37  H   UNL     1     -43.072  42.923  26.122  1.00  0.00     0.085 H 
ATOM     38  C   UNL     1     -45.223  40.487  26.151  1.00  0.00     0.053 A 
ATOM     39  H   UNL     1     -46.029  40.172  25.491  1.00  0.00     0.086 H 
ENDBRANCH  19  24
ENDBRANCH  15  18
ENDBRANCH   1  15
BRANCH   6  40
ATOM     40  C   UNL     1     -48.441  29.737  24.283  1.00  0.00     0.036 C 
ATOM     41  H   UNL     1     -49.504  29.514  24.439  1.00  0.00     0.049 H 
ATOM     42  H   UNL     1     -48.279  29.725  23.199  1.00  0.00     0.049 H 
BRANCH  40  43
ATOM     43  N   UNL     1     -47.605  28.700  24.883  1.00  0.00    -0.311 NA
ATOM     44  H   UNL     1     -46.725  28.659  24.372  1.00  0.00     0.123 HD
BRANCH  43  45
ATOM     45  C   UNL     1     -48.235  27.378  24.860  1.00  0.00    -0.002 C 
ATOM     46  H   UNL     1     -49.259  27.441  24.472  1.00  0.00     0.043 H 
ATOM     47  H   UNL     1     -47.672  26.709  24.199  1.00  0.00     0.043 H 
BRANCH  45  48
ATOM     48  C   UNL     1     -48.253  26.790  26.273  1.00  0.00    -0.029 C 
ATOM     49  C   UNL     1     -46.869  26.350  26.819  1.00  0.00    -0.049 C 
ATOM     50  C   UNL     1     -48.690  25.306  26.418  1.00  0.00    -0.049 C 
ATOM     51  H   UNL     1     -48.779  27.463  26.964  1.00  0.00     0.032 H 
ATOM     52  C   UNL     1     -47.201  24.917  26.361  1.00  0.00    -0.053 C 
ATOM     53  H   UNL     1     -45.991  26.803  26.351  1.00  0.00     0.027 H 
ATOM     54  H   UNL     1     -46.778  26.448  27.908  1.00  0.00     0.027 H 
ATOM     55  H   UNL     1     -49.162  25.084  27.381  1.00  0.00     0.027 H 
ATOM     56  H   UNL     1     -49.313  24.896  25.619  1.00  0.00     0.027 H 
ATOM     57  H   UNL     1     -46.847  24.680  25.351  1.00  0.00     0.027 H 
ATOM     58  H   UNL     1     -46.893  24.118  27.040  1.00  0.00     0.027 H 
ENDBRANCH  45  48
ENDBRANCH  43  45
ENDBRANCH  40  43
ENDBRANCH   6  40
TORSDOF 7
ENDMDL
MODEL 2
REMARK VINA RESULT:     -10.3      1.432     11.542
REMARK SMILES c1ccc2c(-n3cc(Cc4ccc5cc(CNCC6CCC6)[nH]c5c4)nn3)cncc2c1
REMARK SMILES IDX 10 1 11 2 12 3 13 4 14 5 15 6 23 7 24 8 25 9 9 15 8 18 6 19
REMARK SMILES IDX 7 20 27 21 26 23 5 24 1 25 2 26 32 27 3 29 31 31 4 33 30 35
REMARK SMILES IDX 29 36 28 38 16 40 17 43 18 45 19 48 20 49 22 50 21 52
REMARK H PARENT 11 10 12 11 14 12 23 13 25 14 9 16 9 17 7 22 1 28 2 30 32 32
REMARK H PARENT 3 34 30 37 28 39 16 41 16 42 17 44 18 46 18 47 19 51 20 53
REMARK H PARENT 20 54 22 55 22 56 21 57 21 58
REMARK Flexibility Score: inf
ROOT
ATOM      1  C   UNL     1     -48.652  33.846  26.146  1.00  0.00    -0.040 A 
ATOM      2  C   UNL     1     -47.318  33.591  25.796  1.00  0.00    -0.058 A 
ATOM      3  C   UNL     1     -46.286  34.453  26.188  1.00  0.00    -0.053 A 
ATOM      4  C   UNL     1     -46.595  35.598  26.944  1.00  0.00    -0.000 A 
ATOM      5  C   UNL     1     -45.826  36.668  27.475  1.00  0.00    -0.032 A 
ATOM      6  C   UNL     1     -46.685  37.534  28.125  1.00  0.00     0.030 A 
ATOM      7  N   UNL     1     -47.948  37.004  28.019  1.00  0.00    -0.357 N 
ATOM      8  C   UNL     1     -47.923  35.834  27.293  1.00  0.00     0.046 A 
ATOM      9  C   UNL     1     -48.968  34.980  26.919  1.00  0.00    -0.034 A 
ATOM     10  H   UNL     1     -47.069  32.716  25.196  1.00  0.00     0.063 H 
ATOM     11  H   UNL     1     -45.260  34.245  25.898  1.00  0.00     0.063 H 
ATOM     12  H   UNL     1     -44.758  36.808  27.377  1.00  0.00     0.065 H 
ATOM     13  H   UNL     1     -48.786  37.418  28.400  1.00  0.00     0.166 HD
ATOM     14  H   UNL     1     -49.993  35.197  27.203  1.00  0.00     0.065 H 
ENDROOT
BRANCH   1  15
ATOM     15  C   UNL     1     -49.754  32.926  25.670  1.00  0.00     0.018 C 
ATOM     16  H   UNL     1     -50.341  32.569  26.522  1.00  0.00     0.038 H 
ATOM     17  H   UNL     1     -50.439  33.447  24.993  1.00  0.00     0.038 H 
BRANCH  15  18
ATOM     18  C   UNL     1     -49.078  31.804  24.965  1.00  0.00     0.088 A 
ATOM     19  N   UNL     1     -48.026  29.981  24.364  1.00  0.00    -0.218 N 
ATOM     20  C   UNL     1     -48.380  30.725  25.464  1.00  0.00     0.055 A 
ATOM     21  N   UNL     1     -48.352  30.677  23.245  1.00  0.00    -0.062 NA
ATOM     22  H   UNL     1     -48.115  30.454  26.473  1.00  0.00     0.086 H 
ATOM     23  N   UNL     1     -49.039  31.755  23.600  1.00  0.00    -0.135 NA
BRANCH  19  24
ATOM     24  C   UNL     1     -47.348  28.742  24.294  1.00  0.00     0.092 A 
ATOM     25  C   UNL     1     -48.138  25.226  26.598  1.00  0.00    -0.062 A 
ATOM     26  C   UNL     1     -49.051  26.267  26.649  1.00  0.00    -0.062 A 
ATOM     27  C   UNL     1     -47.024  25.332  25.772  1.00  0.00    -0.053 A 
ATOM     28  H   UNL     1     -48.306  24.321  27.178  1.00  0.00     0.062 H 
ATOM     29  C   UNL     1     -48.833  27.426  25.896  1.00  0.00    -0.052 A 
ATOM     30  H   UNL     1     -49.947  26.179  27.258  1.00  0.00     0.062 H 
ATOM     31  C   UNL     1     -46.800  26.490  25.006  1.00  0.00     0.002 A 
ATOM     32  H   UNL     1     -46.335  24.491  25.714  1.00  0.00     0.063 H 
ATOM     33  C   UNL     1     -47.677  27.599  25.083  1.00  0.00     0.011 A 
ATOM     34  H   UNL     1     -49.623  28.172  25.925  1.00  0.00     0.063 H 
ATOM     35  C   UNL     1     -45.716  26.557  24.129  1.00  0.00     0.035 A 
ATOM     36  N   UNL     1     -45.439  27.604  23.324  1.00  0.00    -0.262 NA
ATOM     37  H   UNL     1     -45.022  25.727  24.029  1.00  0.00     0.085 H 
ATOM     38  C   UNL     1     -46.263  28.668  23.419  1.00  0.00     0.053 A 
ATOM     39  H   UNL     1     -45.979  29.499  22.775  1.00  0.00     0.086 H 
ENDBRANCH  19  24
ENDBRANCH  15  18
ENDBRANCH   1  15
BRANCH   6  40
ATOM     40  C   UNL     1     -46.422  38.817  28.834  1.00  0.00     0.036 C 
ATOM     41  H   UNL     1     -47.182  39.572  28.599  1.00  0.00     0.049 H 
ATOM     42  H   UNL     1     -46.495  38.629  29.911  1.00  0.00     0.049 H 
BRANCH  40  43
ATOM     43  N   UNL     1     -45.083  39.327  28.547  1.00  0.00    -0.311 NA
ATOM     44  H   UNL     1     -44.748  39.833  29.365  1.00  0.00     0.123 HD
BRANCH  43  45
ATOM     45  C   UNL     1     -45.053  40.220  27.386  1.00  0.00    -0.002 C 
ATOM     46  H   UNL     1     -45.509  39.739  26.512  1.00  0.00     0.043 H 
ATOM     47  H   UNL     1     -45.629  41.128  27.600  1.00  0.00     0.043 H 
BRANCH  45  48
ATOM     48  C   UNL     1     -43.606  40.605  27.069  1.00  0.00    -0.029 C 
ATOM     49  C   UNL     1     -42.785  41.128  28.277  1.00  0.00    -0.049 C 
ATOM     50  C   UNL     1     -43.370  41.995  26.415  1.00  0.00    -0.049 C 
ATOM     51  H   UNL     1     -43.097  39.789  26.541  1.00  0.00     0.032 H 
ATOM     52  C   UNL     1     -43.128  42.560  27.826  1.00  0.00    -0.053 C 
ATOM     53  H   UNL     1     -43.145  40.848  29.272  1.00  0.00     0.027 H 
ATOM     54  H   UNL     1     -41.716  40.895  28.212  1.00  0.00     0.027 H 
ATOM     55  H   UNL     1     -42.482  42.028  25.773  1.00  0.00     0.027 H 
ATOM     56  H   UNL     1     -44.212  42.433  25.872  1.00  0.00     0.027 H 
ATOM     57  H   UNL     1     -44.029  42.971  28.296  1.00  0.00     0.027 H 
ATOM     58  H   UNL     1     -42.319  43.291  27.912  1.00  0.00     0.027 H 
ENDBRANCH  45  48
ENDBRANCH  43  45
ENDBRANCH  40  43
ENDBRANCH   6  40
TORSDOF 7
ENDMDL
MODEL 3
REMARK VINA RESULT:     -10.3      2.099      3.262
REMARK SMILES c1ccc2c(-n3cc(Cc4ccc5cc(CNCC6CCC6)[nH]c5c4)nn3)cncc2c1
REMARK SMILES IDX 10 1 11 2 12 3 13 4 14 5 15 6 23 7 24 8 25 9 9 15 8 18 6 19
REMARK SMILES IDX 7 20 27 21 26 23 5 24 1 25 2 26 32 27 3 29 31 31 4 33 30 35
REMARK SMILES IDX 29 36 28 38 16 40 17 43 18 45 19 48 20 49 22 50 21 52
REMARK H PARENT 11 10 12 11 14 12 23 13 25 14 9 16 9 17 7 22 1 28 2 30 32 32
REMARK H PARENT 3 34 30 37 28 39 16 41 16 42 17 44 18 46 18 47 19 51 20 53
REMARK H PARENT 20 54 22 55 22 56 21 57 21 58
REMARK Flexibility Score: inf
ROOT
ATOM      1  C   UNL     1     -47.826  35.895  26.975  1.00  0.00    -0.040 A 
ATOM      2  C   UNL     1     -46.545  35.690  26.442  1.00  0.00    -0.058 A 
ATOM      3  C   UNL     1     -46.192  34.472  25.847  1.00  0.00    -0.053 A 
ATOM      4  C   UNL     1     -47.140  33.435  25.785  1.00  0.00    -0.000 A 
ATOM      5  C   UNL     1     -47.118  32.105  25.288  1.00  0.00    -0.032 A 
ATOM      6  C   UNL     1     -48.356  31.537  25.521  1.00  0.00     0.030 A 
ATOM      7  N   UNL     1     -49.132  32.497  26.124  1.00  0.00    -0.357 N 
ATOM      8  C   UNL     1     -48.411  33.656  26.309  1.00  0.00     0.046 A 
ATOM      9  C   UNL     1     -48.787  34.869  26.901  1.00  0.00    -0.034 A 
ATOM     10  H   UNL     1     -45.797  36.480  26.501  1.00  0.00     0.063 H 
ATOM     11  H   UNL     1     -45.192  34.328  25.449  1.00  0.00     0.063 H 
ATOM     12  H   UNL     1     -46.279  31.600  24.827  1.00  0.00     0.065 H 
ATOM     13  H   UNL     1     -50.091  32.372  26.413  1.00  0.00     0.166 HD
ATOM     14  H   UNL     1     -49.785  35.005  27.306  1.00  0.00     0.065 H 
ENDROOT
BRANCH   1  15
ATOM     15  C   UNL     1     -48.167  37.201  27.658  1.00  0.00     0.018 C 
ATOM     16  H   UNL     1     -48.624  37.892  26.942  1.00  0.00     0.038 H 
ATOM     17  H   UNL     1     -48.885  37.048  28.471  1.00  0.00     0.038 H 
BRANCH  15  18
ATOM     18  C   UNL     1     -46.885  37.736  28.188  1.00  0.00     0.088 A 
ATOM     19  N   UNL     1     -45.072  38.869  28.657  1.00  0.00    -0.218 N 
ATOM     20  C   UNL     1     -46.115  38.799  27.766  1.00  0.00     0.055 A 
ATOM     21  N   UNL     1     -45.125  37.787  29.475  1.00  0.00    -0.062 NA
ATOM     22  H   UNL     1     -46.227  39.471  26.931  1.00  0.00     0.086 H 
ATOM     23  N   UNL     1     -46.249  37.126  29.233  1.00  0.00    -0.135 NA
BRANCH  19  24
ATOM     24  C   UNL     1     -44.014  39.805  28.736  1.00  0.00     0.092 A 
ATOM     25  C   UNL     1     -42.921  42.725  25.807  1.00  0.00    -0.062 A 
ATOM     26  C   UNL     1     -44.121  42.050  25.650  1.00  0.00    -0.062 A 
ATOM     27  C   UNL     1     -42.135  42.471  26.926  1.00  0.00    -0.053 A 
ATOM     28  H   UNL     1     -42.611  43.468  25.076  1.00  0.00     0.062 H 
ATOM     29  C   UNL     1     -44.518  41.100  26.597  1.00  0.00    -0.052 A 
ATOM     30  H   UNL     1     -44.765  42.270  24.803  1.00  0.00     0.062 H 
ATOM     31  C   UNL     1     -42.529  41.522  27.887  1.00  0.00     0.002 A 
ATOM     32  H   UNL     1     -41.212  43.035  27.055  1.00  0.00     0.063 H 
ATOM     33  C   UNL     1     -43.716  40.767  27.725  1.00  0.00     0.011 A 
ATOM     34  H   UNL     1     -45.502  40.661  26.452  1.00  0.00     0.063 H 
ATOM     35  C   UNL     1     -41.765  41.326  29.039  1.00  0.00     0.035 A 
ATOM     36  N   UNL     1     -42.078  40.472  30.035  1.00  0.00    -0.262 NA
ATOM     37  H   UNL     1     -40.852  41.890  29.211  1.00  0.00     0.085 H 
ATOM     38  C   UNL     1     -43.197  39.737  29.865  1.00  0.00     0.053 A 
ATOM     39  H   UNL     1     -43.389  39.040  30.679  1.00  0.00     0.086 H 
ENDBRANCH  19  24
ENDBRANCH  15  18
ENDBRANCH   1  15
BRANCH   6  40
ATOM     40  C   UNL     1     -48.872  30.172  25.228  1.00  0.00     0.036 C 
ATOM     41  H   UNL     1     -48.081  29.415  25.307  1.00  0.00     0.049 H 
ATOM     42  H   UNL     1     -49.618  29.920  25.990  1.00  0.00     0.049 H 
BRANCH  40  43
ATOM     43  N   UNL     1     -49.516  30.108  23.918  1.00  0.00    -0.311 NA
ATOM     44  H   UNL     1     -49.449  29.153  23.571  1.00  0.00     0.123 HD
BRANCH  43  45
ATOM     45  C   UNL     1     -48.908  31.016  22.943  1.00  0.00    -0.002 C 
ATOM     46  H   UNL     1     -49.673  31.625  22.447  1.00  0.00     0.043 H 
ATOM     47  H   UNL     1     -48.218  31.701  23.451  1.00  0.00     0.043 H 
BRANCH  45  48
ATOM     48  C   UNL     1     -48.134  30.208  21.898  1.00  0.00    -0.029 C 
ATOM     49  C   UNL     1     -46.711  29.764  22.332  1.00  0.00    -0.049 C 
ATOM     50  C   UNL     1     -47.446  31.003  20.754  1.00  0.00    -0.049 C 
ATOM     51  H   UNL     1     -48.739  29.368  21.534  1.00  0.00     0.032 H 
ATOM     52  C   UNL     1     -46.157  30.999  21.596  1.00  0.00    -0.053 C 
ATOM     53  H   UNL     1     -46.516  29.729  23.408  1.00  0.00     0.027 H 
ATOM     54  H   UNL     1     -46.395  28.813  21.886  1.00  0.00     0.027 H 
ATOM     55  H   UNL     1     -47.359  30.435  19.821  1.00  0.00     0.027 H 
ATOM     56  H   UNL     1     -47.854  31.991  20.526  1.00  0.00     0.027 H 
ATOM     57  H   UNL     1     -46.046  31.884  22.233  1.00  0.00     0.027 H 
ATOM     58  H   UNL     1     -45.228  30.844  21.042  1.00  0.00     0.027 H 
ENDBRANCH  45  48
ENDBRANCH  43  45
ENDBRANCH  40  43
ENDBRANCH   6  40
TORSDOF 7
ENDMDL
MODEL 4
REMARK VINA RESULT:     -10.2      2.648      3.675
REMARK SMILES c1ccc2c(-n3cc(Cc4ccc5cc(CNCC6CCC6)[nH]c5c4)nn3)cncc2c1
REMARK SMILES IDX 10 1 11 2 12 3 13 4 14 5 15 6 23 7 24 8 25 9 9 15 8 18 6 19
REMARK SMILES IDX 7 20 27 21 26 23 5 24 1 25 2 26 32 27 3 29 31 31 4 33 30 35
REMARK SMILES IDX 29 36 28 38 16 40 17 43 18 45 19 48 20 49 22 50 21 52
REMARK H PARENT 11 10 12 11 14 12 23 13 25 14 9 16 9 17 7 22 1 28 2 30 32 32
REMARK H PARENT 3 34 30 37 28 39 16 41 16 42 17 44 18 46 18 47 19 51 20 53
REMARK H PARENT 20 54 22 55 22 56 21 57 21 58
REMARK Flexibility Score: inf
ROOT
ATOM      1  C   UNL     1     -46.921  35.777  28.734  1.00  0.00    -0.040 A 
ATOM      2  C   UNL     1     -48.166  36.033  28.139  1.00  0.00    -0.058 A 
ATOM      3  C   UNL     1     -48.591  35.322  27.010  1.00  0.00    -0.053 A 
ATOM      4  C   UNL     1     -47.753  34.334  26.461  1.00  0.00    -0.000 A 
ATOM      5  C   UNL     1     -47.853  33.465  25.343  1.00  0.00    -0.032 A 
ATOM      6  C   UNL     1     -46.695  32.712  25.278  1.00  0.00     0.030 A 
ATOM      7  N   UNL     1     -45.910  33.088  26.341  1.00  0.00    -0.357 N 
ATOM      8  C   UNL     1     -46.524  34.084  27.068  1.00  0.00     0.046 A 
ATOM      9  C   UNL     1     -46.084  34.778  28.202  1.00  0.00    -0.034 A 
ATOM     10  H   UNL     1     -48.815  36.807  28.545  1.00  0.00     0.063 H 
ATOM     11  H   UNL     1     -49.553  35.540  26.557  1.00  0.00     0.063 H 
ATOM     12  H   UNL     1     -48.673  33.405  24.640  1.00  0.00     0.065 H 
ATOM     13  H   UNL     1     -45.000  32.708  26.555  1.00  0.00     0.166 HD
ATOM     14  H   UNL     1     -45.117  34.561  28.646  1.00  0.00     0.065 H 
ENDROOT
BRANCH   1  15
ATOM     15  C   UNL     1     -46.463  36.592  29.923  1.00  0.00     0.018 C 
ATOM     16  H   UNL     1     -47.313  36.817  30.575  1.00  0.00     0.038 H 
ATOM     17  H   UNL     1     -45.727  36.043  30.520  1.00  0.00     0.038 H 
BRANCH  15  18
ATOM     18  C   UNL     1     -45.861  37.832  29.364  1.00  0.00     0.088 A 
ATOM     19  N   UNL     1     -44.583  39.502  28.756  1.00  0.00    -0.218 N 
ATOM     20  C   UNL     1     -44.618  38.393  29.567  1.00  0.00     0.055 A 
ATOM     21  N   UNL     1     -45.817  39.689  28.222  1.00  0.00    -0.062 NA
ATOM     22  H   UNL     1     -43.801  38.101  30.206  1.00  0.00     0.086 H 
ATOM     23  N   UNL     1     -46.580  38.652  28.541  1.00  0.00    -0.135 NA
BRANCH  19  24
ATOM     24  C   UNL     1     -43.530  40.417  28.523  1.00  0.00     0.092 A 
ATOM     25  C   UNL     1     -43.011  42.955  25.119  1.00  0.00    -0.062 A 
ATOM     26  C   UNL     1     -44.219  42.294  25.272  1.00  0.00    -0.062 A 
ATOM     27  C   UNL     1     -42.026  42.813  26.092  1.00  0.00    -0.053 A 
ATOM     28  H   UNL     1     -42.844  43.602  24.261  1.00  0.00     0.062 H 
ATOM     29  C   UNL     1     -44.430  41.468  26.381  1.00  0.00    -0.052 A 
ATOM     30  H   UNL     1     -45.012  42.430  24.540  1.00  0.00     0.062 H 
ATOM     31  C   UNL     1     -42.231  41.991  27.214  1.00  0.00     0.002 A 
ATOM     32  H   UNL     1     -41.096  43.367  25.978  1.00  0.00     0.063 H 
ATOM     33  C   UNL     1     -43.428  41.249  27.368  1.00  0.00     0.011 A 
ATOM     34  H   UNL     1     -45.424  41.038  26.477  1.00  0.00     0.063 H 
ATOM     35  C   UNL     1     -41.263  41.911  28.217  1.00  0.00     0.035 A 
ATOM     36  N   UNL     1     -41.382  41.184  29.347  1.00  0.00    -0.262 NA
ATOM     37  H   UNL     1     -40.334  42.469  28.146  1.00  0.00     0.085 H 
ATOM     38  C   UNL     1     -42.514  40.460  29.478  1.00  0.00     0.053 A 
ATOM     39  H   UNL     1     -42.548  39.866  30.390  1.00  0.00     0.086 H 
ENDBRANCH  19  24
ENDBRANCH  15  18
ENDBRANCH   1  15
BRANCH   6  40
ATOM     40  C   UNL     1     -46.263  31.672  24.304  1.00  0.00     0.036 C 
ATOM     41  H   UNL     1     -45.195  31.758  24.068  1.00  0.00     0.049 H 
ATOM     42  H   UNL     1     -46.398  30.691  24.774  1.00  0.00     0.049 H 
BRANCH  40  43
ATOM     43  N   UNL     1     -47.065  31.710  23.083  1.00  0.00    -0.311 NA
ATOM     44  H   UNL     1     -47.556  32.602  23.046  1.00  0.00     0.123 HD
BRANCH  43  45
ATOM     45  C   UNL     1     -48.043  30.622  23.013  1.00  0.00    -0.002 C 
ATOM     46  H   UNL     1     -47.824  29.954  22.172  1.00  0.00     0.043 H 
ATOM     47  H   UNL     1     -47.999  30.022  23.931  1.00  0.00     0.043 H 
BRANCH  45  48
ATOM     48  C   UNL     1     -49.451  31.203  22.860  1.00  0.00    -0.029 C 
ATOM     49  C   UNL     1     -50.435  30.850  24.007  1.00  0.00    -0.049 C 
ATOM     50  C   UNL     1     -50.426  30.457  21.907  1.00  0.00    -0.049 C 
ATOM     51  H   UNL     1     -49.404  32.283  22.669  1.00  0.00     0.032 H 
ATOM     52  C   UNL     1     -50.959  29.695  23.134  1.00  0.00    -0.053 C 
ATOM     53  H   UNL     1     -49.990  30.556  24.962  1.00  0.00     0.027 H 
ATOM     54  H   UNL     1     -51.185  31.629  24.194  1.00  0.00     0.027 H 
ATOM     55  H   UNL     1     -51.170  31.115  21.445  1.00  0.00     0.027 H 
ATOM     56  H   UNL     1     -49.974  29.836  21.129  1.00  0.00     0.027 H 
ATOM     57  H   UNL     1     -50.454  28.739  23.311  1.00  0.00     0.027 H 
ATOM     58  H   UNL     1     -52.040  29.533  23.159  1.00  0.00     0.027 H 
ENDBRANCH  45  48
ENDBRANCH  43  45
ENDBRANCH  40  43
ENDBRANCH   6  40
TORSDOF 7
ENDMDL
MODEL 5
REMARK VINA RESULT:     -10.1      1.901     11.383
REMARK SMILES c1ccc2c(-n3cc(Cc4ccc5cc(CNCC6CCC6)[nH]c5c4)nn3)cncc2c1
REMARK SMILES IDX 10 1 11 2 12 3 13 4 14 5 15 6 23 7 24 8 25 9 9 15 8 18 6 19
REMARK SMILES IDX 7 20 27 21 26 23 5 24 1 25 2 26 32 27 3 29 31 31 4 33 30 35
REMARK SMILES IDX 29 36 28 38 16 40 17 43 18 45 19 48 20 49 22 50 21 52
REMARK H PARENT 11 10 12 11 14 12 23 13 25 14 9 16 9 17 7 22 1 28 2 30 32 32
REMARK H PARENT 3 34 30 37 28 39 16 41 16 42 17 44 18 46 18 47 19 51 20 53
REMARK H PARENT 20 54 22 55 22 56 21 57 21 58
REMARK Flexibility Score: inf
ROOT
ATOM      1  C   UNL     1     -47.546  36.071  27.626  1.00  0.00    -0.040 A 
ATOM      2  C   UNL     1     -47.008  35.692  28.865  1.00  0.00    -0.058 A 
ATOM      3  C   UNL     1     -46.022  36.462  29.495  1.00  0.00    -0.053 A 
ATOM      4  C   UNL     1     -45.562  37.636  28.872  1.00  0.00    -0.000 A 
ATOM      5  C   UNL     1     -44.588  38.614  29.205  1.00  0.00    -0.032 A 
ATOM      6  C   UNL     1     -44.550  39.549  28.188  1.00  0.00     0.030 A 
ATOM      7  N   UNL     1     -45.492  39.173  27.262  1.00  0.00    -0.357 N 
ATOM      8  C   UNL     1     -46.112  38.005  27.647  1.00  0.00     0.046 A 
ATOM      9  C   UNL     1     -47.104  37.254  27.004  1.00  0.00    -0.034 A 
ATOM     10  H   UNL     1     -47.344  34.775  29.349  1.00  0.00     0.063 H 
ATOM     11  H   UNL     1     -45.610  36.148  30.449  1.00  0.00     0.063 H 
ATOM     12  H   UNL     1     -43.958  38.627  30.086  1.00  0.00     0.065 H 
ATOM     13  H   UNL     1     -45.695  39.668  26.405  1.00  0.00     0.166 HD
ATOM     14  H   UNL     1     -47.506  37.568  26.046  1.00  0.00     0.065 H 
ENDROOT
BRANCH   1  15
ATOM     15  C   UNL     1     -48.573  35.197  26.943  1.00  0.00     0.018 C 
ATOM     16  H   UNL     1     -49.200  34.698  27.689  1.00  0.00     0.038 H 
ATOM     17  H   UNL     1     -49.234  35.789  26.301  1.00  0.00     0.038 H 
BRANCH  15  18
ATOM     18  C   UNL     1     -47.804  34.214  26.133  1.00  0.00     0.088 A 
ATOM     19  N   UNL     1     -47.090  32.552  24.900  1.00  0.00    -0.218 N 
ATOM     20  C   UNL     1     -48.184  33.000  25.601  1.00  0.00     0.055 A 
ATOM     21  N   UNL     1     -46.046  33.383  25.147  1.00  0.00    -0.062 NA
ATOM     22  H   UNL     1     -49.107  32.448  25.677  1.00  0.00     0.086 H 
ATOM     23  N   UNL     1     -46.484  34.421  25.846  1.00  0.00    -0.135 NA
BRANCH  19  24
ATOM     24  C   UNL     1     -46.940  31.388  24.111  1.00  0.00     0.092 A 
ATOM     25  C   UNL     1     -48.718  27.556  24.787  1.00  0.00    -0.062 A 
ATOM     26  C   UNL     1     -49.161  28.632  25.541  1.00  0.00    -0.062 A 
ATOM     27  C   UNL     1     -47.751  27.759  23.808  1.00  0.00    -0.053 A 
ATOM     28  H   UNL     1     -49.145  26.568  24.940  1.00  0.00     0.062 H 
ATOM     29  C   UNL     1     -48.613  29.902  25.336  1.00  0.00    -0.052 A 
ATOM     30  H   UNL     1     -49.946  28.495  26.279  1.00  0.00     0.062 H 
ATOM     31  C   UNL     1     -47.199  29.034  23.590  1.00  0.00     0.002 A 
ATOM     32  H   UNL     1     -47.439  26.912  23.199  1.00  0.00     0.063 H 
ATOM     33  C   UNL     1     -47.580  30.142  24.386  1.00  0.00     0.011 A 
ATOM     34  H   UNL     1     -49.056  30.713  25.908  1.00  0.00     0.063 H 
ATOM     35  C   UNL     1     -46.279  29.238  22.560  1.00  0.00     0.035 A 
ATOM     36  N   UNL     1     -45.725  30.427  22.246  1.00  0.00    -0.262 NA
ATOM     37  H   UNL     1     -45.964  28.420  21.918  1.00  0.00     0.085 H 
ATOM     38  C   UNL     1     -46.072  31.475  23.022  1.00  0.00     0.053 A 
ATOM     39  H   UNL     1     -45.574  32.404  22.750  1.00  0.00     0.086 H 
ENDBRANCH  19  24
ENDBRANCH  15  18
ENDBRANCH   1  15
BRANCH   6  40
ATOM     40  C   UNL     1     -43.705  40.762  28.011  1.00  0.00     0.036 C 
ATOM     41  H   UNL     1     -44.171  41.648  28.458  1.00  0.00     0.049 H 
ATOM     42  H   UNL     1     -42.765  40.602  28.551  1.00  0.00     0.049 H 
BRANCH  40  43
ATOM     43  N   UNL     1     -43.391  41.000  26.605  1.00  0.00    -0.311 NA
ATOM     44  H   UNL     1     -42.380  41.084  26.509  1.00  0.00     0.123 HD
BRANCH  43  45
ATOM     45  C   UNL     1     -44.024  42.211  26.079  1.00  0.00    -0.002 C 
ATOM     46  H   UNL     1     -44.389  42.050  25.058  1.00  0.00     0.043 H 
ATOM     47  H   UNL     1     -44.888  42.479  26.700  1.00  0.00     0.043 H 
BRANCH  45  48
ATOM     48  C   UNL     1     -43.019  43.366  26.092  1.00  0.00    -0.029 C 
ATOM     49  C   UNL     1     -43.267  44.465  25.026  1.00  0.00    -0.049 C 
ATOM     50  C   UNL     1     -41.649  43.122  25.401  1.00  0.00    -0.049 C 
ATOM     51  H   UNL     1     -42.923  43.781  27.104  1.00  0.00     0.032 H 
ATOM     52  C   UNL     1     -42.238  43.754  24.127  1.00  0.00    -0.053 C 
ATOM     53  H   UNL     1     -44.280  44.535  24.620  1.00  0.00     0.027 H 
ATOM     54  H   UNL     1     -42.947  45.464  25.346  1.00  0.00     0.027 H 
ATOM     55  H   UNL     1     -40.831  43.704  25.840  1.00  0.00     0.027 H 
ATOM     56  H   UNL     1     -41.326  42.082  25.303  1.00  0.00     0.027 H 
ATOM     57  H   UNL     1     -42.679  43.024  23.438  1.00  0.00     0.027 H 
ATOM     58  H   UNL     1     -41.564  44.407  23.566  1.00  0.00     0.027 H 
ENDBRANCH  45  48
ENDBRANCH  43  45
ENDBRANCH  40  43
ENDBRANCH   6  40
TORSDOF 7
ENDMDL
MODEL 6
REMARK VINA RESULT:     -10.0      1.995      2.816
REMARK SMILES c1ccc2c(-n3cc(Cc4ccc5cc(CNCC6CCC6)[nH]c5c4)nn3)cncc2c1
REMARK SMILES IDX 10 1 11 2 12 3 13 4 14 5 15 6 23 7 24 8 25 9 9 15 8 18 6 19
REMARK SMILES IDX 7 20 27 21 26 23 5 24 1 25 2 26 32 27 3 29 31 31 4 33 30 35
REMARK SMILES IDX 29 36 28 38 16 40 17 43 18 45 19 48 20 49 22 50 21 52
REMARK H PARENT 11 10 12 11 14 12 23 13 25 14 9 16 9 17 7 22 1 28 2 30 32 32
REMARK H PARENT 3 34 30 37 28 39 16 41 16 42 17 44 18 46 18 47 19 51 20 53
REMARK H PARENT 20 54 22 55 22 56 21 57 21 58
REMARK Flexibility Score: inf
ROOT
ATOM      1  C   UNL     1     -46.359  35.766  28.113  1.00  0.00    -0.040 A 
ATOM      2  C   UNL     1     -47.744  35.795  27.895  1.00  0.00    -0.058 A 
ATOM      3  C   UNL     1     -48.350  34.949  26.958  1.00  0.00    -0.053 A 
ATOM      4  C   UNL     1     -47.553  34.056  26.219  1.00  0.00    -0.000 A 
ATOM      5  C   UNL     1     -47.823  33.102  25.203  1.00  0.00    -0.032 A 
ATOM      6  C   UNL     1     -46.625  32.522  24.828  1.00  0.00     0.030 A 
ATOM      7  N   UNL     1     -45.645  33.084  25.608  1.00  0.00    -0.357 N 
ATOM      8  C   UNL     1     -46.180  34.032  26.452  1.00  0.00     0.046 A 
ATOM      9  C   UNL     1     -45.556  34.863  27.391  1.00  0.00    -0.034 A 
ATOM     10  H   UNL     1     -48.369  36.495  28.450  1.00  0.00     0.063 H 
ATOM     11  H   UNL     1     -49.423  34.993  26.796  1.00  0.00     0.063 H 
ATOM     12  H   UNL     1     -48.787  32.874  24.768  1.00  0.00     0.065 H 
ATOM     13  H   UNL     1     -44.662  32.856  25.561  1.00  0.00     0.166 HD
ATOM     14  H   UNL     1     -44.482  34.821  27.543  1.00  0.00     0.065 H 
ENDROOT
BRANCH   1  15
ATOM     15  C   UNL     1     -45.721  36.723  29.095  1.00  0.00     0.018 C 
ATOM     16  H   UNL     1     -46.159  36.590  30.090  1.00  0.00     0.038 H 
ATOM     17  H   UNL     1     -44.644  36.543  29.183  1.00  0.00     0.038 H 
BRANCH  15  18
ATOM     18  C   UNL     1     -45.979  38.089  28.565  1.00  0.00     0.088 A 
ATOM     19  N   UNL     1     -45.960  40.025  27.543  1.00  0.00    -0.218 N 
ATOM     20  C   UNL     1     -45.202  38.901  27.767  1.00  0.00     0.055 A 
ATOM     21  N   UNL     1     -47.073  39.959  28.317  1.00  0.00    -0.062 NA
ATOM     22  H   UNL     1     -44.209  38.767  27.370  1.00  0.00     0.086 H 
ATOM     23  N   UNL     1     -47.119  38.766  28.896  1.00  0.00    -0.135 NA
BRANCH  19  24
ATOM     24  C   UNL     1     -45.679  41.158  26.745  1.00  0.00     0.092 A 
ATOM     25  C   UNL     1     -41.858  42.952  26.054  1.00  0.00    -0.062 A 
ATOM     26  C   UNL     1     -41.904  41.718  26.682  1.00  0.00    -0.062 A 
ATOM     27  C   UNL     1     -43.041  43.547  25.628  1.00  0.00    -0.053 A 
ATOM     28  H   UNL     1     -40.902  43.438  25.870  1.00  0.00     0.062 H 
ATOM     29  C   UNL     1     -43.135  41.094  26.910  1.00  0.00    -0.052 A 
ATOM     30  H   UNL     1     -40.983  41.223  26.981  1.00  0.00     0.062 H 
ATOM     31  C   UNL     1     -44.283  42.925  25.847  1.00  0.00     0.002 A 
ATOM     32  H   UNL     1     -42.987  44.500  25.103  1.00  0.00     0.063 H 
ATOM     33  C   UNL     1     -44.372  41.695  26.543  1.00  0.00     0.011 A 
ATOM     34  H   UNL     1     -43.094  40.097  27.340  1.00  0.00     0.063 H 
ATOM     35  C   UNL     1     -45.456  43.499  25.354  1.00  0.00     0.035 A 
ATOM     36  N   UNL     1     -46.688  42.962  25.476  1.00  0.00    -0.262 NA
ATOM     37  H   UNL     1     -45.436  44.437  24.806  1.00  0.00     0.085 H 
ATOM     38  C   UNL     1     -46.771  41.802  26.162  1.00  0.00     0.053 A 
ATOM     39  H   UNL     1     -47.788  41.426  26.262  1.00  0.00     0.086 H 
ENDBRANCH  19  24
ENDBRANCH  15  18
ENDBRANCH   1  15
BRANCH   6  40
ATOM     40  C   UNL     1     -46.324  31.487  23.801  1.00  0.00     0.036 C 
ATOM     41  H   UNL     1     -46.724  31.764  22.818  1.00  0.00     0.049 H 
ATOM     42  H   UNL     1     -45.235  31.430  23.686  1.00  0.00     0.049 H 
BRANCH  40  43
ATOM     43  N   UNL     1     -46.812  30.170  24.203  1.00  0.00    -0.311 NA
ATOM     44  H   UNL     1     -46.079  29.702  24.732  1.00  0.00     0.123 HD
BRANCH  43  45
ATOM     45  C   UNL     1     -47.188  29.332  23.061  1.00  0.00    -0.002 C 
ATOM     46  H   UNL     1     -46.829  29.768  22.122  1.00  0.00     0.043 H 
ATOM     47  H   UNL     1     -46.732  28.340  23.161  1.00  0.00     0.043 H 
BRANCH  45  48
ATOM     48  C   UNL     1     -48.711  29.182  23.012  1.00  0.00    -0.029 C 
ATOM     49  C   UNL     1     -49.416  29.177  24.395  1.00  0.00    -0.049 C 
ATOM     50  C   UNL     1     -49.275  27.747  22.813  1.00  0.00    -0.049 C 
ATOM     51  H   UNL     1     -49.149  29.916  22.324  1.00  0.00     0.032 H 
ATOM     52  C   UNL     1     -49.393  27.638  24.344  1.00  0.00    -0.053 C 
ATOM     53  H   UNL     1     -48.868  29.630  25.226  1.00  0.00     0.027 H 
ATOM     54  H   UNL     1     -50.428  29.598  24.370  1.00  0.00     0.027 H 
ATOM     55  H   UNL     1     -50.242  27.729  22.299  1.00  0.00     0.027 H 
ATOM     56  H   UNL     1     -48.611  27.019  22.340  1.00  0.00     0.027 H 
ATOM     57  H   UNL     1     -48.514  27.190  24.822  1.00  0.00     0.027 H 
ATOM     58  H   UNL     1     -50.291  27.137  24.717  1.00  0.00     0.027 H 
ENDBRANCH  45  48
ENDBRANCH  43  45
ENDBRANCH  40  43
ENDBRANCH   6  40
TORSDOF 7
ENDMDL
MODEL 7
REMARK VINA RESULT:      -9.9      1.360      2.434
REMARK SMILES c1ccc2c(-n3cc(Cc4ccc5cc(CNCC6CCC6)[nH]c5c4)nn3)cncc2c1
REMARK SMILES IDX 10 1 11 2 12 3 13 4 14 5 15 6 23 7 24 8 25 9 9 15 8 18 6 19
REMARK SMILES IDX 7 20 27 21 26 23 5 24 1 25 2 26 32 27 3 29 31 31 4 33 30 35
REMARK SMILES IDX 29 36 28 38 16 40 17 43 18 45 19 48 20 49 22 50 21 52
REMARK H PARENT 11 10 12 11 14 12 23 13 25 14 9 16 9 17 7 22 1 28 2 30 32 32
REMARK H PARENT 3 34 30 37 28 39 16 41 16 42 17 44 18 46 18 47 19 51 20 53
REMARK H PARENT 20 54 22 55 22 56 21 57 21 58
REMARK Flexibility Score: inf
ROOT
ATOM      1  C   UNL     1     -48.060  34.947  26.734  1.00  0.00    -0.040 A 
ATOM      2  C   UNL     1     -46.772  35.052  26.189  1.00  0.00    -0.058 A 
ATOM      3  C   UNL     1     -46.234  34.032  25.395  1.00  0.00    -0.053 A 
ATOM      4  C   UNL     1     -46.998  32.879  25.142  1.00  0.00    -0.000 A 
ATOM      5  C   UNL     1     -46.765  31.678  24.421  1.00  0.00    -0.032 A 
ATOM      6  C   UNL     1     -47.888  30.880  24.537  1.00  0.00     0.030 A 
ATOM      7  N   UNL     1     -48.801  31.579  25.289  1.00  0.00    -0.357 N 
ATOM      8  C   UNL     1     -48.279  32.792  25.682  1.00  0.00     0.046 A 
ATOM      9  C   UNL     1     -48.840  33.804  26.471  1.00  0.00    -0.034 A 
ATOM     10  H   UNL     1     -46.164  35.933  26.392  1.00  0.00     0.063 H 
ATOM     11  H   UNL     1     -45.231  34.127  24.989  1.00  0.00     0.063 H 
ATOM     12  H   UNL     1     -45.863  31.407  23.889  1.00  0.00     0.065 H 
ATOM     13  H   UNL     1     -49.722  31.249  25.541  1.00  0.00     0.166 HD
ATOM     14  H   UNL     1     -49.839  33.701  26.882  1.00  0.00     0.065 H 
ENDROOT
BRANCH   1  15
ATOM     15  C   UNL     1     -48.600  36.040  27.629  1.00  0.00     0.018 C 
ATOM     16  H   UNL     1     -49.527  36.446  27.211  1.00  0.00     0.038 H 
ATOM     17  H   UNL     1     -48.832  35.655  28.628  1.00  0.00     0.038 H 
BRANCH  15  18
ATOM     18  C   UNL     1     -47.535  37.075  27.704  1.00  0.00     0.088 A 
ATOM     19  N   UNL     1     -46.203  38.794  27.453  1.00  0.00    -0.218 N 
ATOM     20  C   UNL     1     -47.263  38.140  26.871  1.00  0.00     0.055 A 
ATOM     21  N   UNL     1     -45.753  38.051  28.496  1.00  0.00    -0.062 NA
ATOM     22  H   UNL     1     -47.720  38.457  25.948  1.00  0.00     0.086 H 
ATOM     23  N   UNL     1     -46.588  37.039  28.688  1.00  0.00    -0.135 NA
BRANCH  19  24
ATOM     24  C   UNL     1     -45.551  39.985  27.056  1.00  0.00     0.092 A 
ATOM     25  C   UNL     1     -47.381  43.640  25.795  1.00  0.00    -0.062 A 
ATOM     26  C   UNL     1     -48.183  42.659  26.358  1.00  0.00    -0.062 A 
ATOM     27  C   UNL     1     -46.010  43.429  25.699  1.00  0.00    -0.053 A 
ATOM     28  H   UNL     1     -47.817  44.577  25.458  1.00  0.00     0.062 H 
ATOM     29  C   UNL     1     -47.616  41.458  26.796  1.00  0.00    -0.052 A 
ATOM     30  H   UNL     1     -49.250  42.829  26.477  1.00  0.00     0.062 H 
ATOM     31  C   UNL     1     -45.430  42.227  26.144  1.00  0.00     0.002 A 
ATOM     32  H   UNL     1     -45.387  44.223  25.289  1.00  0.00     0.063 H 
ATOM     33  C   UNL     1     -46.227  41.179  26.663  1.00  0.00     0.011 A 
ATOM     34  H   UNL     1     -48.289  40.764  27.293  1.00  0.00     0.063 H 
ATOM     35  C   UNL     1     -44.045  42.056  26.105  1.00  0.00     0.035 A 
ATOM     36  N   UNL     1     -43.391  40.960  26.543  1.00  0.00    -0.262 NA
ATOM     37  H   UNL     1     -43.392  42.837  25.724  1.00  0.00     0.085 H 
ATOM     38  C   UNL     1     -44.157  39.953  27.014  1.00  0.00     0.053 A 
ATOM     39  H   UNL     1     -43.586  39.080  27.325  1.00  0.00     0.086 H 
ENDBRANCH  19  24
ENDBRANCH  15  18
ENDBRANCH   1  15
BRANCH   6  40
ATOM     40  C   UNL     1     -48.177  29.520  24.005  1.00  0.00     0.036 C 
ATOM     41  H   UNL     1     -48.647  29.565  23.015  1.00  0.00     0.049 H 
ATOM     42  H   UNL     1     -47.221  29.000  23.869  1.00  0.00     0.049 H 
BRANCH  40  43
ATOM     43  N   UNL     1     -48.996  28.741  24.930  1.00  0.00    -0.311 NA
ATOM     44  H   UNL     1     -48.752  29.009  25.882  1.00  0.00     0.123 HD
BRANCH  43  45
ATOM     45  C   UNL     1     -48.807  27.297  24.776  1.00  0.00    -0.002 C 
ATOM     46  H   UNL     1     -49.597  26.865  24.150  1.00  0.00     0.043 H 
ATOM     47  H   UNL     1     -47.849  27.097  24.282  1.00  0.00     0.043 H 
BRANCH  45  48
ATOM     48  C   UNL     1     -48.813  26.626  26.151  1.00  0.00    -0.029 C 
ATOM     49  C   UNL     1     -47.717  27.125  27.130  1.00  0.00    -0.049 C 
ATOM     50  C   UNL     1     -48.152  25.223  26.259  1.00  0.00    -0.049 C 
ATOM     51  H   UNL     1     -49.816  26.664  26.595  1.00  0.00     0.032 H 
ATOM     52  C   UNL     1     -46.853  25.926  26.695  1.00  0.00    -0.053 C 
ATOM     53  H   UNL     1     -47.291  28.112  26.927  1.00  0.00     0.027 H 
ATOM     54  H   UNL     1     -48.020  27.083  28.184  1.00  0.00     0.027 H 
ATOM     55  H   UNL     1     -48.592  24.595  27.041  1.00  0.00     0.027 H 
ATOM     56  H   UNL     1     -48.084  24.640  25.337  1.00  0.00     0.027 H 
ATOM     57  H   UNL     1     -46.173  26.147  25.864  1.00  0.00     0.027 H 
ATOM     58  H   UNL     1     -46.290  25.432  27.491  1.00  0.00     0.027 H 
ENDBRANCH  45  48
ENDBRANCH  43  45
ENDBRANCH  40  43
ENDBRANCH   6  40
TORSDOF 7
ENDMDL
