MODEL 1
REMARK VINA RESULT:     -10.9      0.000      0.000
REMARK SMILES Nc1cc2cc(CC[C@H]3C[C@@H](n4ccc5c(N)ncnc54)[C@H](O)[C@@H]3O)ccc2cn1
REMARK SMILES IDX 8 1 7 4 6 7 2 8 3 9 30 10 4 11 29 13 5 14 28 15 27 18 26 19
REMARK SMILES IDX 1 22 9 25 10 26 24 27 11 29 22 32 25 36 12 38 13 39 21 40
REMARK SMILES IDX 14 41 15 43 20 44 16 46 19 47 18 48 17 50 23 53
REMARK H PARENT 8 2 8 3 7 5 7 6 3 12 29 16 5 17 27 20 26 21 1 23 1 24 9 28
REMARK H PARENT 10 30 10 31 24 33 11 34 22 35 25 37 13 42 14 45 19 49 17 51
REMARK H PARENT 17 52 23 54
REMARK Flexibility Score: inf
ROOT
ATOM      1  C   UNL     1     -47.795  36.139  26.821  1.00  0.00    -0.044 C 
ATOM      2  H   UNL     1     -47.265  36.518  25.939  1.00  0.00     0.027 H 
ATOM      3  H   UNL     1     -48.862  36.318  26.624  1.00  0.00     0.027 H 
ENDROOT
BRANCH   1   4
ATOM      4  C   UNL     1     -47.441  36.987  28.054  1.00  0.00    -0.028 C 
ATOM      5  H   UNL     1     -47.119  36.335  28.873  1.00  0.00     0.032 H 
ATOM      6  H   UNL     1     -48.359  37.467  28.416  1.00  0.00     0.032 H 
BRANCH   4   7
ATOM      7  C   UNL     1     -46.431  38.082  27.821  1.00  0.00    -0.047 A 
ATOM      8  C   UNL     1     -42.615  40.733  29.258  1.00  0.00     0.123 A 
ATOM      9  C   UNL     1     -43.489  39.676  29.497  1.00  0.00    -0.012 A 
ATOM     10  N   UNL     1     -42.692  41.497  28.160  1.00  0.00    -0.239 NA
ATOM     11  C   UNL     1     -44.497  39.387  28.567  1.00  0.00    -0.013 A 
ATOM     12  H   UNL     1     -43.391  39.085  30.401  1.00  0.00     0.067 H 
ATOM     13  C   UNL     1     -43.665  41.208  27.265  1.00  0.00     0.037 A 
ATOM     14  C   UNL     1     -45.417  38.340  28.759  1.00  0.00    -0.051 A 
ATOM     15  C   UNL     1     -44.589  40.175  27.408  1.00  0.00     0.000 A 
ATOM     16  H   UNL     1     -43.679  41.858  26.394  1.00  0.00     0.085 H 
ATOM     17  H   UNL     1     -45.351  37.725  29.655  1.00  0.00     0.063 H 
ATOM     18  C   UNL     1     -45.584  39.903  26.456  1.00  0.00    -0.053 A 
ATOM     19  C   UNL     1     -46.491  38.861  26.661  1.00  0.00    -0.058 A 
ATOM     20  H   UNL     1     -45.666  40.507  25.554  1.00  0.00     0.063 H 
ATOM     21  H   UNL     1     -47.258  38.675  25.912  1.00  0.00     0.063 H 
BRANCH   8  22
ATOM     22  N   UNL     1     -41.606  41.029  30.182  1.00  0.00    -0.384 N 
ATOM     23  H   UNL     1     -40.833  41.483  29.707  1.00  0.00     0.158 HD
ATOM     24  H   UNL     1     -41.266  40.170  30.601  1.00  0.00     0.158 HD
ENDBRANCH   8  22
ENDBRANCH   4   7
ENDBRANCH   1   4
BRANCH   1  25
ATOM     25  C   UNL     1     -47.603  34.616  26.894  1.00  0.00    -0.010 C 
ATOM     26  C   UNL     1     -48.717  33.762  26.284  1.00  0.00    -0.024 C 
ATOM     27  C   UNL     1     -46.348  34.048  26.233  1.00  0.00     0.085 C 
ATOM     28  H   UNL     1     -47.564  34.383  27.970  1.00  0.00     0.033 H 
ATOM     29  C   UNL     1     -48.098  32.359  26.088  1.00  0.00     0.064 C 
ATOM     30  H   UNL     1     -49.586  33.718  26.949  1.00  0.00     0.029 H 
ATOM     31  H   UNL     1     -49.069  34.163  25.332  1.00  0.00     0.029 H 
ATOM     32  C   UNL     1     -46.581  32.530  26.312  1.00  0.00     0.101 C 
ATOM     33  H   UNL     1     -46.257  34.380  25.197  1.00  0.00     0.063 H 
ATOM     34  H   UNL     1     -48.493  31.691  26.866  1.00  0.00     0.056 H 
ATOM     35  H   UNL     1     -45.939  31.971  25.628  1.00  0.00     0.065 H 
BRANCH  27  36
ATOM     36  O   UNL     1     -45.176  34.420  26.948  1.00  0.00    -0.390 OA
ATOM     37  H   UNL     1     -44.775  33.597  27.281  1.00  0.00     0.211 HD
ENDBRANCH  27  36
BRANCH  29  38
ATOM     38  N   UNL     1     -48.502  31.771  24.819  1.00  0.00    -0.327 N 
ATOM     39  C   UNL     1     -49.813  31.716  24.398  1.00  0.00     0.007 A 
ATOM     40  C   UNL     1     -47.688  31.266  23.831  1.00  0.00     0.145 A 
ATOM     41  C   UNL     1     -49.835  31.185  23.127  1.00  0.00    -0.031 A 
ATOM     42  H   UNL     1     -50.620  32.066  25.031  1.00  0.00     0.082 H 
ATOM     43  C   UNL     1     -48.493  30.904  22.757  1.00  0.00     0.061 A 
ATOM     44  N   UNL     1     -46.349  31.147  23.889  1.00  0.00    -0.218 NA
ATOM     45  H   UNL     1     -50.720  31.017  22.529  1.00  0.00     0.065 H 
ATOM     46  C   UNL     1     -47.846  30.379  21.629  1.00  0.00     0.136 A 
ATOM     47  C   UNL     1     -45.849  30.613  22.761  1.00  0.00     0.120 A 
ATOM     48  N   UNL     1     -46.507  30.246  21.647  1.00  0.00    -0.219 NA
ATOM     49  H   UNL     1     -44.773  30.468  22.740  1.00  0.00     0.106 H 
BRANCH  46  50
ATOM     50  N   UNL     1     -48.510  29.997  20.472  1.00  0.00    -0.383 N 
ATOM     51  H   UNL     1     -49.435  29.618  20.616  1.00  0.00     0.158 HD
ATOM     52  H   UNL     1     -48.412  30.698  19.747  1.00  0.00     0.158 HD
ENDBRANCH  46  50
ENDBRANCH  29  38
BRANCH  32  53
ATOM     53  O   UNL     1     -46.246  32.071  27.637  1.00  0.00    -0.388 OA
ATOM     54  H   UNL     1     -46.504  31.126  27.665  1.00  0.00     0.211 HD
ENDBRANCH  32  53
ENDBRANCH   1  25
TORSDOF 8
ENDMDL
MODEL 2
REMARK VINA RESULT:     -10.8      2.167      9.964
REMARK SMILES Nc1cc2cc(CC[C@H]3C[C@@H](n4ccc5c(N)ncnc54)[C@H](O)[C@@H]3O)ccc2cn1
REMARK SMILES IDX 8 1 7 4 6 7 2 8 3 9 30 10 4 11 29 13 5 14 28 15 27 18 26 19
REMARK SMILES IDX 1 22 9 25 10 26 24 27 11 29 22 32 25 36 12 38 13 39 21 40
REMARK SMILES IDX 14 41 15 43 20 44 16 46 19 47 18 48 17 50 23 53
REMARK H PARENT 8 2 8 3 7 5 7 6 3 12 29 16 5 17 27 20 26 21 1 23 1 24 9 28
REMARK H PARENT 10 30 10 31 24 33 11 34 22 35 25 37 13 42 14 45 19 49 17 51
REMARK H PARENT 17 52 23 54
REMARK Flexibility Score: inf
ROOT
ATOM      1  C   UNL     1     -47.315  35.848  27.878  1.00  0.00    -0.044 C 
ATOM      2  H   UNL     1     -46.889  35.148  28.609  1.00  0.00     0.027 H 
ATOM      3  H   UNL     1     -48.396  35.650  27.876  1.00  0.00     0.027 H 
ENDROOT
BRANCH   1   4
ATOM      4  C   UNL     1     -46.814  35.504  26.466  1.00  0.00    -0.028 C 
ATOM      5  H   UNL     1     -45.723  35.595  26.426  1.00  0.00     0.032 H 
ATOM      6  H   UNL     1     -47.189  36.269  25.773  1.00  0.00     0.032 H 
BRANCH   4   7
ATOM      7  C   UNL     1     -47.253  34.166  25.927  1.00  0.00    -0.047 A 
ATOM      8  C   UNL     1     -46.571  30.294  23.064  1.00  0.00     0.123 A 
ATOM      9  C   UNL     1     -46.094  31.500  23.570  1.00  0.00    -0.012 A 
ATOM     10  N   UNL     1     -47.756  29.782  23.421  1.00  0.00    -0.239 NA
ATOM     11  C   UNL     1     -46.871  32.222  24.488  1.00  0.00    -0.013 A 
ATOM     12  H   UNL     1     -45.129  31.879  23.251  1.00  0.00     0.067 H 
ATOM     13  C   UNL     1     -48.498  30.483  24.310  1.00  0.00     0.037 A 
ATOM     14  C   UNL     1     -46.448  33.452  25.025  1.00  0.00    -0.051 A 
ATOM     15  C   UNL     1     -48.114  31.697  24.876  1.00  0.00     0.000 A 
ATOM     16  H   UNL     1     -49.447  30.019  24.564  1.00  0.00     0.085 H 
ATOM     17  H   UNL     1     -45.486  33.864  24.728  1.00  0.00     0.063 H 
ATOM     18  C   UNL     1     -48.909  32.394  25.799  1.00  0.00    -0.053 A 
ATOM     19  C   UNL     1     -48.476  33.614  26.323  1.00  0.00    -0.058 A 
ATOM     20  H   UNL     1     -49.875  31.997  26.107  1.00  0.00     0.063 H 
ATOM     21  H   UNL     1     -49.115  34.140  27.030  1.00  0.00     0.063 H 
BRANCH   8  22
ATOM     22  N   UNL     1     -45.802  29.568  22.147  1.00  0.00    -0.384 N 
ATOM     23  H   UNL     1     -44.822  29.629  22.402  1.00  0.00     0.158 HD
ATOM     24  H   UNL     1     -45.917  29.962  21.219  1.00  0.00     0.158 HD
ENDBRANCH   8  22
ENDBRANCH   4   7
ENDBRANCH   1   4
BRANCH   1  25
ATOM     25  C   UNL     1     -47.123  37.281  28.399  1.00  0.00    -0.010 C 
ATOM     26  C   UNL     1     -45.680  37.784  28.485  1.00  0.00    -0.024 C 
ATOM     27  C   UNL     1     -47.818  38.396  27.619  1.00  0.00     0.085 C 
ATOM     28  H   UNL     1     -47.528  37.271  29.424  1.00  0.00     0.033 H 
ATOM     29  C   UNL     1     -45.788  39.322  28.596  1.00  0.00     0.064 C 
ATOM     30  H   UNL     1     -45.170  37.362  29.358  1.00  0.00     0.029 H 
ATOM     31  H   UNL     1     -45.093  37.501  27.609  1.00  0.00     0.029 H 
ATOM     32  C   UNL     1     -47.257  39.668  28.273  1.00  0.00     0.101 C 
ATOM     33  H   UNL     1     -47.570  38.355  26.556  1.00  0.00     0.063 H 
ATOM     34  H   UNL     1     -45.580  39.613  29.634  1.00  0.00     0.056 H 
ATOM     35  H   UNL     1     -47.405  40.558  27.657  1.00  0.00     0.065 H 
BRANCH  27  36
ATOM     36  O   UNL     1     -49.232  38.327  27.771  1.00  0.00    -0.390 OA
ATOM     37  H   UNL     1     -49.585  37.935  26.952  1.00  0.00     0.211 HD
ENDBRANCH  27  36
BRANCH  29  38
ATOM     38  N   UNL     1     -44.775  39.986  27.788  1.00  0.00    -0.327 N 
ATOM     39  C   UNL     1     -44.948  40.277  26.452  1.00  0.00     0.007 A 
ATOM     40  C   UNL     1     -43.563  40.485  28.206  1.00  0.00     0.145 A 
ATOM     41  C   UNL     1     -43.846  40.980  26.018  1.00  0.00    -0.031 A 
ATOM     42  H   UNL     1     -45.843  39.969  25.923  1.00  0.00     0.082 H 
ATOM     43  C   UNL     1     -42.966  41.123  27.124  1.00  0.00     0.061 A 
ATOM     44  N   UNL     1     -43.046  40.382  29.443  1.00  0.00    -0.218 NA
ATOM     45  H   UNL     1     -43.689  41.351  25.014  1.00  0.00     0.065 H 
ATOM     46  C   UNL     1     -41.719  41.722  27.350  1.00  0.00     0.136 A 
ATOM     47  C   UNL     1     -41.841  40.974  29.530  1.00  0.00     0.120 A 
ATOM     48  N   UNL     1     -41.168  41.642  28.575  1.00  0.00    -0.219 NA
ATOM     49  H   UNL     1     -41.350  40.915  30.496  1.00  0.00     0.106 H 
BRANCH  46  50
ATOM     50  N   UNL     1     -41.013  42.415  26.377  1.00  0.00    -0.383 N 
ATOM     51  H   UNL     1     -41.558  43.081  25.847  1.00  0.00     0.158 HD
ATOM     52  H   UNL     1     -40.121  42.737  26.733  1.00  0.00     0.158 HD
ENDBRANCH  46  50
ENDBRANCH  29  38
BRANCH  32  53
ATOM     53  O   UNL     1     -47.963  39.915  29.505  1.00  0.00    -0.388 OA
ATOM     54  H   UNL     1     -48.617  39.190  29.588  1.00  0.00     0.211 HD
ENDBRANCH  32  53
ENDBRANCH   1  25
TORSDOF 8
ENDMDL
MODEL 3
REMARK VINA RESULT:     -10.0      1.809      2.446
REMARK SMILES Nc1cc2cc(CC[C@H]3C[C@@H](n4ccc5c(N)ncnc54)[C@H](O)[C@@H]3O)ccc2cn1
REMARK SMILES IDX 8 1 7 4 6 7 2 8 3 9 30 10 4 11 29 13 5 14 28 15 27 18 26 19
REMARK SMILES IDX 1 22 9 25 10 26 24 27 11 29 22 32 25 36 12 38 13 39 21 40
REMARK SMILES IDX 14 41 15 43 20 44 16 46 19 47 18 48 17 50 23 53
REMARK H PARENT 8 2 8 3 7 5 7 6 3 12 29 16 5 17 27 20 26 21 1 23 1 24 9 28
REMARK H PARENT 10 30 10 31 24 33 11 34 22 35 25 37 13 42 14 45 19 49 17 51
REMARK H PARENT 17 52 23 54
REMARK Flexibility Score: inf
ROOT
ATOM      1  C   UNL     1     -48.034  35.736  26.395  1.00  0.00    -0.044 C 
ATOM      2  H   UNL     1     -47.190  36.121  25.808  1.00  0.00     0.027 H 
ATOM      3  H   UNL     1     -48.902  35.767  25.722  1.00  0.00     0.027 H 
ENDROOT
BRANCH   1   4
ATOM      4  C   UNL     1     -48.353  36.697  27.551  1.00  0.00    -0.028 C 
ATOM      5  H   UNL     1     -49.058  36.225  28.244  1.00  0.00     0.032 H 
ATOM      6  H   UNL     1     -48.894  37.560  27.140  1.00  0.00     0.032 H 
BRANCH   4   7
ATOM      7  C   UNL     1     -47.160  37.238  28.297  1.00  0.00    -0.047 A 
ATOM      8  C   UNL     1     -43.463  40.369  28.722  1.00  0.00     0.123 A 
ATOM      9  C   UNL     1     -44.588  39.943  28.023  1.00  0.00    -0.012 A 
ATOM     10  N   UNL     1     -43.040  39.767  29.842  1.00  0.00    -0.239 NA
ATOM     11  C   UNL     1     -45.318  38.841  28.490  1.00  0.00    -0.013 A 
ATOM     12  H   UNL     1     -44.894  40.460  27.119  1.00  0.00     0.067 H 
ATOM     13  C   UNL     1     -43.752  38.707  30.288  1.00  0.00     0.037 A 
ATOM     14  C   UNL     1     -46.457  38.357  27.820  1.00  0.00    -0.051 A 
ATOM     15  C   UNL     1     -44.891  38.200  29.665  1.00  0.00     0.000 A 
ATOM     16  H   UNL     1     -43.365  38.260  31.200  1.00  0.00     0.085 H 
ATOM     17  H   UNL     1     -46.793  38.849  26.909  1.00  0.00     0.063 H 
ATOM     18  C   UNL     1     -45.607  37.099  30.160  1.00  0.00    -0.053 A 
ATOM     19  C   UNL     1     -46.735  36.630  29.483  1.00  0.00    -0.058 A 
ATOM     20  H   UNL     1     -45.286  36.594  31.069  1.00  0.00     0.063 H 
ATOM     21  H   UNL     1     -47.268  35.769  29.882  1.00  0.00     0.063 H 
BRANCH   8  22
ATOM     22  N   UNL     1     -42.728  41.468  28.262  1.00  0.00    -0.384 N 
ATOM     23  H   UNL     1     -41.735  41.263  28.322  1.00  0.00     0.158 HD
ATOM     24  H   UNL     1     -42.923  42.276  28.844  1.00  0.00     0.158 HD
ENDBRANCH   8  22
ENDBRANCH   4   7
ENDBRANCH   1   4
BRANCH   1  25
ATOM     25  C   UNL     1     -47.772  34.256  26.719  1.00  0.00    -0.010 C 
ATOM     26  C   UNL     1     -48.839  33.262  26.254  1.00  0.00    -0.024 C 
ATOM     27  C   UNL     1     -46.486  33.647  26.163  1.00  0.00     0.085 C 
ATOM     28  H   UNL     1     -47.733  34.205  27.819  1.00  0.00     0.033 H 
ATOM     29  C   UNL     1     -48.154  31.877  26.294  1.00  0.00     0.064 C 
ATOM     30  H   UNL     1     -49.712  33.287  26.916  1.00  0.00     0.029 H 
ATOM     31  H   UNL     1     -49.199  33.485  25.248  1.00  0.00     0.029 H 
ATOM     32  C   UNL     1     -46.649  32.154  26.490  1.00  0.00     0.101 C 
ATOM     33  H   UNL     1     -46.399  33.808  25.086  1.00  0.00     0.063 H 
ATOM     34  H   UNL     1     -48.527  31.328  27.170  1.00  0.00     0.056 H 
ATOM     35  H   UNL     1     -45.975  31.520  25.909  1.00  0.00     0.065 H 
BRANCH  27  36
ATOM     36  O   UNL     1     -45.339  34.186  26.810  1.00  0.00    -0.390 OA
ATOM     37  H   UNL     1     -44.786  33.431  27.079  1.00  0.00     0.211 HD
ENDBRANCH  27  36
BRANCH  29  38
ATOM     38  N   UNL     1     -48.518  31.070  25.137  1.00  0.00    -0.327 N 
ATOM     39  C   UNL     1     -48.710  31.600  23.879  1.00  0.00     0.007 A 
ATOM     40  C   UNL     1     -48.650  29.702  25.076  1.00  0.00     0.145 A 
ATOM     41  C   UNL     1     -48.952  30.562  23.007  1.00  0.00    -0.031 A 
ATOM     42  H   UNL     1     -48.650  32.668  23.707  1.00  0.00     0.082 H 
ATOM     43  C   UNL     1     -48.909  29.355  23.755  1.00  0.00     0.061 A 
ATOM     44  N   UNL     1     -48.543  28.847  26.110  1.00  0.00    -0.218 NA
ATOM     45  H   UNL     1     -49.140  30.660  21.947  1.00  0.00     0.065 H 
ATOM     46  C   UNL     1     -49.058  27.989  23.476  1.00  0.00     0.136 A 
ATOM     47  C   UNL     1     -48.727  27.573  25.721  1.00  0.00     0.120 A 
ATOM     48  N   UNL     1     -48.956  27.102  24.482  1.00  0.00    -0.219 NA
ATOM     49  H   UNL     1     -48.674  26.824  26.506  1.00  0.00     0.106 H 
BRANCH  46  50
ATOM     50  N   UNL     1     -49.293  27.487  22.204  1.00  0.00    -0.383 N 
ATOM     51  H   UNL     1     -48.473  27.151  21.719  1.00  0.00     0.158 HD
ATOM     52  H   UNL     1     -50.108  26.885  22.194  1.00  0.00     0.158 HD
ENDBRANCH  46  50
ENDBRANCH  29  38
BRANCH  32  53
ATOM     53  O   UNL     1     -46.307  31.935  27.874  1.00  0.00    -0.388 OA
ATOM     54  H   UNL     1     -46.093  30.981  27.948  1.00  0.00     0.211 HD
ENDBRANCH  32  53
ENDBRANCH   1  25
TORSDOF 8
ENDMDL
MODEL 4
REMARK VINA RESULT:     -10.0      3.538      4.953
REMARK SMILES Nc1cc2cc(CC[C@H]3C[C@@H](n4ccc5c(N)ncnc54)[C@H](O)[C@@H]3O)ccc2cn1
REMARK SMILES IDX 8 1 7 4 6 7 2 8 3 9 30 10 4 11 29 13 5 14 28 15 27 18 26 19
REMARK SMILES IDX 1 22 9 25 10 26 24 27 11 29 22 32 25 36 12 38 13 39 21 40
REMARK SMILES IDX 14 41 15 43 20 44 16 46 19 47 18 48 17 50 23 53
REMARK H PARENT 8 2 8 3 7 5 7 6 3 12 29 16 5 17 27 20 26 21 1 23 1 24 9 28
REMARK H PARENT 10 30 10 31 24 33 11 34 22 35 25 37 13 42 14 45 19 49 17 51
REMARK H PARENT 17 52 23 54
REMARK Flexibility Score: inf
ROOT
ATOM      1  C   UNL     1     -46.564  32.915  24.754  1.00  0.00    -0.044 C 
ATOM      2  H   UNL     1     -45.504  32.799  24.493  1.00  0.00     0.027 H 
ATOM      3  H   UNL     1     -46.877  33.866  24.299  1.00  0.00     0.027 H 
ENDROOT
BRANCH   1   4
ATOM      4  C   UNL     1     -46.715  33.097  26.273  1.00  0.00    -0.028 C 
ATOM      5  H   UNL     1     -45.833  32.698  26.785  1.00  0.00     0.032 H 
ATOM      6  H   UNL     1     -47.550  32.469  26.612  1.00  0.00     0.032 H 
BRANCH   4   7
ATOM      7  C   UNL     1     -47.004  34.503  26.735  1.00  0.00    -0.047 A 
ATOM      8  C   UNL     1     -45.529  38.823  28.412  1.00  0.00     0.123 A 
ATOM      9  C   UNL     1     -45.204  37.554  27.943  1.00  0.00    -0.012 A 
ATOM     10  N   UNL     1     -46.795  39.251  28.515  1.00  0.00    -0.239 NA
ATOM     11  C   UNL     1     -46.227  36.673  27.562  1.00  0.00    -0.013 A 
ATOM     12  H   UNL     1     -44.166  37.248  27.878  1.00  0.00     0.067 H 
ATOM     13  C   UNL     1     -47.776  38.396  28.141  1.00  0.00     0.037 A 
ATOM     14  C   UNL     1     -45.961  35.374  27.091  1.00  0.00    -0.051 A 
ATOM     15  C   UNL     1     -47.559  37.107  27.659  1.00  0.00     0.000 A 
ATOM     16  H   UNL     1     -48.780  38.797  28.243  1.00  0.00     0.085 H 
ATOM     17  H   UNL     1     -44.931  35.031  27.014  1.00  0.00     0.063 H 
ATOM     18  C   UNL     1     -48.602  36.249  27.277  1.00  0.00    -0.053 A 
ATOM     19  C   UNL     1     -48.323  34.962  26.813  1.00  0.00    -0.058 A 
ATOM     20  H   UNL     1     -49.639  36.574  27.348  1.00  0.00     0.063 H 
ATOM     21  H   UNL     1     -49.150  34.313  26.531  1.00  0.00     0.063 H 
BRANCH   8  22
ATOM     22  N   UNL     1     -44.515  39.708  28.795  1.00  0.00    -0.384 N 
ATOM     23  H   UNL     1     -44.639  40.595  28.318  1.00  0.00     0.158 HD
ATOM     24  H   UNL     1     -43.613  39.326  28.531  1.00  0.00     0.158 HD
ENDBRANCH   8  22
ENDBRANCH   4   7
ENDBRANCH   1   4
BRANCH   1  25
ATOM     25  C   UNL     1     -47.367  31.802  24.061  1.00  0.00    -0.010 C 
ATOM     26  C   UNL     1     -46.603  30.516  23.738  1.00  0.00    -0.024 C 
ATOM     27  C   UNL     1     -48.599  31.281  24.800  1.00  0.00     0.085 C 
ATOM     28  H   UNL     1     -47.695  32.238  23.104  1.00  0.00     0.033 H 
ATOM     29  C   UNL     1     -47.690  29.448  23.477  1.00  0.00     0.064 C 
ATOM     30  H   UNL     1     -45.965  30.650  22.858  1.00  0.00     0.029 H 
ATOM     31  H   UNL     1     -45.950  30.209  24.557  1.00  0.00     0.029 H 
ATOM     32  C   UNL     1     -49.020  30.074  23.946  1.00  0.00     0.101 C 
ATOM     33  H   UNL     1     -48.355  30.977  25.820  1.00  0.00     0.063 H 
ATOM     34  H   UNL     1     -47.750  29.268  22.395  1.00  0.00     0.056 H 
ATOM     35  H   UNL     1     -49.695  29.399  24.477  1.00  0.00     0.065 H 
BRANCH  27  36
ATOM     36  O   UNL     1     -49.630  32.261  24.838  1.00  0.00    -0.390 OA
ATOM     37  H   UNL     1     -49.393  32.944  24.185  1.00  0.00     0.211 HD
ENDBRANCH  27  36
BRANCH  29  38
ATOM     38  N   UNL     1     -47.332  28.168  24.073  1.00  0.00    -0.327 N 
ATOM     39  C   UNL     1     -46.116  27.554  23.864  1.00  0.00     0.007 A 
ATOM     40  C   UNL     1     -48.068  27.423  24.964  1.00  0.00     0.145 A 
ATOM     41  C   UNL     1     -46.070  26.415  24.638  1.00  0.00    -0.031 A 
ATOM     42  H   UNL     1     -45.382  27.980  23.190  1.00  0.00     0.082 H 
ATOM     43  C   UNL     1     -47.300  26.328  25.344  1.00  0.00     0.061 A 
ATOM     44  N   UNL     1     -49.310  27.702  25.398  1.00  0.00    -0.218 NA
ATOM     45  H   UNL     1     -45.243  25.721  24.690  1.00  0.00     0.065 H 
ATOM     46  C   UNL     1     -47.869  25.445  26.272  1.00  0.00     0.136 A 
ATOM     47  C   UNL     1     -49.755  26.775  26.265  1.00  0.00     0.120 A 
ATOM     48  N   UNL     1     -49.109  25.691  26.733  1.00  0.00    -0.219 NA
ATOM     49  H   UNL     1     -50.761  26.923  26.645  1.00  0.00     0.106 H 
BRANCH  46  50
ATOM     50  N   UNL     1     -47.216  24.325  26.766  1.00  0.00    -0.383 N 
ATOM     51  H   UNL     1     -46.610  23.858  26.106  1.00  0.00     0.158 HD
ATOM     52  H   UNL     1     -46.836  24.500  27.688  1.00  0.00     0.158 HD
ENDBRANCH  46  50
ENDBRANCH  29  38
BRANCH  32  53
ATOM     53  O   UNL     1     -49.750  30.543  22.795  1.00  0.00    -0.388 OA
ATOM     54  H   UNL     1     -49.229  31.291  22.435  1.00  0.00     0.211 HD
ENDBRANCH  32  53
ENDBRANCH   1  25
TORSDOF 8
ENDMDL
MODEL 5
REMARK VINA RESULT:      -9.9      2.162     10.022
REMARK SMILES Nc1cc2cc(CC[C@H]3C[C@@H](n4ccc5c(N)ncnc54)[C@H](O)[C@@H]3O)ccc2cn1
REMARK SMILES IDX 8 1 7 4 6 7 2 8 3 9 30 10 4 11 29 13 5 14 28 15 27 18 26 19
REMARK SMILES IDX 1 22 9 25 10 26 24 27 11 29 22 32 25 36 12 38 13 39 21 40
REMARK SMILES IDX 14 41 15 43 20 44 16 46 19 47 18 48 17 50 23 53
REMARK H PARENT 8 2 8 3 7 5 7 6 3 12 29 16 5 17 27 20 26 21 1 23 1 24 9 28
REMARK H PARENT 10 30 10 31 24 33 11 34 22 35 25 37 13 42 14 45 19 49 17 51
REMARK H PARENT 17 52 23 54
REMARK Flexibility Score: inf
ROOT
ATOM      1  C   UNL     1     -46.786  35.941  26.574  1.00  0.00    -0.044 C 
ATOM      2  H   UNL     1     -47.024  36.764  25.886  1.00  0.00     0.027 H 
ATOM      3  H   UNL     1     -45.909  35.440  26.142  1.00  0.00     0.027 H 
ENDROOT
BRANCH   1   4
ATOM      4  C   UNL     1     -47.920  34.904  26.564  1.00  0.00    -0.028 C 
ATOM      5  H   UNL     1     -48.855  35.376  26.241  1.00  0.00     0.032 H 
ATOM      6  H   UNL     1     -48.104  34.587  27.600  1.00  0.00     0.032 H 
BRANCH   4   7
ATOM      7  C   UNL     1     -47.654  33.655  25.761  1.00  0.00    -0.047 A 
ATOM      8  C   UNL     1     -48.991  29.273  24.129  1.00  0.00     0.123 A 
ATOM      9  C   UNL     1     -49.308  30.428  24.840  1.00  0.00    -0.012 A 
ATOM     10  N   UNL     1     -47.807  29.102  23.526  1.00  0.00    -0.239 NA
ATOM     11  C   UNL     1     -48.365  31.460  24.942  1.00  0.00    -0.013 A 
ATOM     12  H   UNL     1     -50.279  30.523  25.315  1.00  0.00     0.067 H 
ATOM     13  C   UNL     1     -46.904  30.105  23.626  1.00  0.00     0.037 A 
ATOM     14  C   UNL     1     -48.623  32.645  25.656  1.00  0.00    -0.051 A 
ATOM     15  C   UNL     1     -47.120  31.298  24.312  1.00  0.00     0.000 A 
ATOM     16  H   UNL     1     -45.964  29.912  23.116  1.00  0.00     0.085 H 
ATOM     17  H   UNL     1     -49.585  32.776  26.147  1.00  0.00     0.063 H 
ATOM     18  C   UNL     1     -46.159  32.319  24.391  1.00  0.00    -0.053 A 
ATOM     19  C   UNL     1     -46.430  33.488  25.105  1.00  0.00    -0.058 A 
ATOM     20  H   UNL     1     -45.191  32.205  23.907  1.00  0.00     0.063 H 
ATOM     21  H   UNL     1     -45.666  34.261  25.158  1.00  0.00     0.063 H 
BRANCH   8  22
ATOM     22  N   UNL     1     -49.926  28.238  24.023  1.00  0.00    -0.384 N 
ATOM     23  H   UNL     1     -50.666  28.377  24.705  1.00  0.00     0.158 HD
ATOM     24  H   UNL     1     -49.475  27.350  24.216  1.00  0.00     0.158 HD
ENDBRANCH   8  22
ENDBRANCH   4   7
ENDBRANCH   1   4
BRANCH   1  25
ATOM     25  C   UNL     1     -46.344  36.537  27.920  1.00  0.00    -0.010 C 
ATOM     26  C   UNL     1     -44.919  37.093  27.979  1.00  0.00    -0.024 C 
ATOM     27  C   UNL     1     -47.176  37.696  28.467  1.00  0.00     0.085 C 
ATOM     28  H   UNL     1     -46.400  35.702  28.636  1.00  0.00     0.033 H 
ATOM     29  C   UNL     1     -44.883  37.996  29.233  1.00  0.00     0.064 C 
ATOM     30  H   UNL     1     -44.186  36.283  28.058  1.00  0.00     0.029 H 
ATOM     31  H   UNL     1     -44.662  37.665  27.086  1.00  0.00     0.029 H 
ATOM     32  C   UNL     1     -46.352  38.163  29.677  1.00  0.00     0.101 C 
ATOM     33  H   UNL     1     -47.283  38.495  27.729  1.00  0.00     0.063 H 
ATOM     34  H   UNL     1     -44.335  37.471  30.027  1.00  0.00     0.056 H 
ATOM     35  H   UNL     1     -46.630  39.165  30.013  1.00  0.00     0.065 H 
BRANCH  27  36
ATOM     36  O   UNL     1     -48.468  37.257  28.871  1.00  0.00    -0.390 OA
ATOM     37  H   UNL     1     -48.881  36.842  28.092  1.00  0.00     0.211 HD
ENDBRANCH  27  36
BRANCH  29  38
ATOM     38  N   UNL     1     -44.139  39.223  28.984  1.00  0.00    -0.327 N 
ATOM     39  C   UNL     1     -43.118  39.663  29.799  1.00  0.00     0.007 A 
ATOM     40  C   UNL     1     -44.260  40.074  27.910  1.00  0.00     0.145 A 
ATOM     41  C   UNL     1     -42.574  40.795  29.232  1.00  0.00    -0.031 A 
ATOM     42  H   UNL     1     -42.858  39.132  30.706  1.00  0.00     0.082 H 
ATOM     43  C   UNL     1     -43.286  41.059  28.032  1.00  0.00     0.061 A 
ATOM     44  N   UNL     1     -45.157  39.972  26.913  1.00  0.00    -0.218 NA
ATOM     45  H   UNL     1     -41.753  41.371  29.638  1.00  0.00     0.065 H 
ATOM     46  C   UNL     1     -43.229  42.023  27.017  1.00  0.00     0.136 A 
ATOM     47  C   UNL     1     -45.017  40.963  26.014  1.00  0.00     0.120 A 
ATOM     48  N   UNL     1     -44.108  41.955  26.000  1.00  0.00    -0.219 NA
ATOM     49  H   UNL     1     -45.720  40.958  25.187  1.00  0.00     0.106 H 
BRANCH  46  50
ATOM     50  N   UNL     1     -42.297  43.051  26.986  1.00  0.00    -0.383 N 
ATOM     51  H   UNL     1     -41.540  42.961  27.649  1.00  0.00     0.158 HD
ATOM     52  H   UNL     1     -42.043  43.285  26.034  1.00  0.00     0.158 HD
ENDBRANCH  46  50
ENDBRANCH  29  38
BRANCH  32  53
ATOM     53  O   UNL     1     -46.610  37.284  30.790  1.00  0.00    -0.388 OA
ATOM     54  H   UNL     1     -47.009  37.846  31.487  1.00  0.00     0.211 HD
ENDBRANCH  32  53
ENDBRANCH   1  25
TORSDOF 8
ENDMDL
MODEL 6
REMARK VINA RESULT:      -9.8      2.210      9.718
REMARK SMILES Nc1cc2cc(CC[C@H]3C[C@@H](n4ccc5c(N)ncnc54)[C@H](O)[C@@H]3O)ccc2cn1
REMARK SMILES IDX 8 1 7 4 6 7 2 8 3 9 30 10 4 11 29 13 5 14 28 15 27 18 26 19
REMARK SMILES IDX 1 22 9 25 10 26 24 27 11 29 22 32 25 36 12 38 13 39 21 40
REMARK SMILES IDX 14 41 15 43 20 44 16 46 19 47 18 48 17 50 23 53
REMARK H PARENT 8 2 8 3 7 5 7 6 3 12 29 16 5 17 27 20 26 21 1 23 1 24 9 28
REMARK H PARENT 10 30 10 31 24 33 11 34 22 35 25 37 13 42 14 45 19 49 17 51
REMARK H PARENT 17 52 23 54
REMARK Flexibility Score: inf
ROOT
ATOM      1  C   UNL     1     -47.017  35.740  28.793  1.00  0.00    -0.044 C 
ATOM      2  H   UNL     1     -46.595  34.740  28.956  1.00  0.00     0.027 H 
ATOM      3  H   UNL     1     -47.710  35.908  29.630  1.00  0.00     0.027 H 
ENDROOT
BRANCH   1   4
ATOM      4  C   UNL     1     -47.876  35.748  27.519  1.00  0.00    -0.028 C 
ATOM      5  H   UNL     1     -47.762  36.706  26.999  1.00  0.00     0.032 H 
ATOM      6  H   UNL     1     -48.932  35.709  27.817  1.00  0.00     0.032 H 
BRANCH   4   7
ATOM      7  C   UNL     1     -47.643  34.600  26.569  1.00  0.00    -0.047 A 
ATOM      8  C   UNL     1     -49.142  30.550  24.332  1.00  0.00     0.123 A 
ATOM      9  C   UNL     1     -49.427  31.620  25.176  1.00  0.00    -0.012 A 
ATOM     10  N   UNL     1     -47.944  30.388  23.753  1.00  0.00    -0.239 NA
ATOM     11  C   UNL     1     -48.435  32.573  25.445  1.00  0.00    -0.013 A 
ATOM     12  H   UNL     1     -50.410  31.710  25.625  1.00  0.00     0.067 H 
ATOM     13  C   UNL     1     -46.993  31.316  24.015  1.00  0.00     0.037 A 
ATOM     14  C   UNL     1     -48.659  33.669  26.299  1.00  0.00    -0.051 A 
ATOM     15  C   UNL     1     -47.175  32.422  24.844  1.00  0.00     0.000 A 
ATOM     16  H   UNL     1     -46.044  31.135  23.518  1.00  0.00     0.085 H 
ATOM     17  H   UNL     1     -49.633  33.793  26.769  1.00  0.00     0.063 H 
ATOM     18  C   UNL     1     -46.165  33.366  25.089  1.00  0.00    -0.053 A 
ATOM     19  C   UNL     1     -46.403  34.447  25.940  1.00  0.00    -0.058 A 
ATOM     20  H   UNL     1     -45.185  33.258  24.629  1.00  0.00     0.063 H 
ATOM     21  H   UNL     1     -45.602  35.161  26.121  1.00  0.00     0.063 H 
BRANCH   8  22
ATOM     22  N   UNL     1     -50.126  29.593  24.059  1.00  0.00    -0.384 N 
ATOM     23  H   UNL     1     -50.757  29.948  23.348  1.00  0.00     0.158 HD
ATOM     24  H   UNL     1     -50.663  29.407  24.900  1.00  0.00     0.158 HD
ENDBRANCH   8  22
ENDBRANCH   4   7
ENDBRANCH   1   4
BRANCH   1  25
ATOM     25  C   UNL     1     -45.891  36.777  28.930  1.00  0.00    -0.010 C 
ATOM     26  C   UNL     1     -45.483  37.507  27.648  1.00  0.00    -0.024 C 
ATOM     27  C   UNL     1     -46.130  37.928  29.906  1.00  0.00     0.085 C 
ATOM     28  H   UNL     1     -45.014  36.206  29.275  1.00  0.00     0.033 H 
ATOM     29  C   UNL     1     -44.695  38.752  28.117  1.00  0.00     0.064 C 
ATOM     30  H   UNL     1     -44.861  36.865  27.013  1.00  0.00     0.029 H 
ATOM     31  H   UNL     1     -46.346  37.801  27.049  1.00  0.00     0.029 H 
ATOM     32  C   UNL     1     -44.931  38.853  29.638  1.00  0.00     0.101 C 
ATOM     33  H   UNL     1     -47.075  38.437  29.701  1.00  0.00     0.063 H 
ATOM     34  H   UNL     1     -43.626  38.576  27.939  1.00  0.00     0.056 H 
ATOM     35  H   UNL     1     -45.087  39.864  30.023  1.00  0.00     0.065 H 
BRANCH  27  36
ATOM     36  O   UNL     1     -46.128  37.470  31.253  1.00  0.00    -0.390 OA
ATOM     37  H   UNL     1     -46.265  36.506  31.223  1.00  0.00     0.211 HD
ENDBRANCH  27  36
BRANCH  29  38
ATOM     38  N   UNL     1     -45.039  39.927  27.329  1.00  0.00    -0.327 N 
ATOM     39  C   UNL     1     -46.304  40.157  26.832  1.00  0.00     0.007 A 
ATOM     40  C   UNL     1     -44.232  40.998  27.024  1.00  0.00     0.145 A 
ATOM     41  C   UNL     1     -46.307  41.390  26.218  1.00  0.00    -0.031 A 
ATOM     42  H   UNL     1     -47.098  39.431  26.964  1.00  0.00     0.082 H 
ATOM     43  C   UNL     1     -45.001  41.933  26.340  1.00  0.00     0.061 A 
ATOM     44  N   UNL     1     -42.929  41.124  27.334  1.00  0.00    -0.218 NA
ATOM     45  H   UNL     1     -47.157  41.850  25.732  1.00  0.00     0.065 H 
ATOM     46  C   UNL     1     -44.361  43.119  25.952  1.00  0.00     0.136 A 
ATOM     47  C   UNL     1     -42.423  42.289  26.892  1.00  0.00     0.120 A 
ATOM     48  N   UNL     1     -43.058  43.284  26.246  1.00  0.00    -0.219 NA
ATOM     49  H   UNL     1     -41.368  42.455  27.089  1.00  0.00     0.106 H 
BRANCH  46  50
ATOM     50  N   UNL     1     -45.001  44.154  25.288  1.00  0.00    -0.383 N 
ATOM     51  H   UNL     1     -45.481  44.813  25.885  1.00  0.00     0.158 HD
ATOM     52  H   UNL     1     -44.411  44.544  24.562  1.00  0.00     0.158 HD
ENDBRANCH  46  50
ENDBRANCH  29  38
BRANCH  32  53
ATOM     53  O   UNL     1     -43.775  38.338  30.329  1.00  0.00    -0.388 OA
ATOM     54  H   UNL     1     -43.967  37.392  30.501  1.00  0.00     0.211 HD
ENDBRANCH  32  53
ENDBRANCH   1  25
TORSDOF 8
ENDMDL
MODEL 7
REMARK VINA RESULT:      -9.8      2.269     10.063
REMARK SMILES Nc1cc2cc(CC[C@H]3C[C@@H](n4ccc5c(N)ncnc54)[C@H](O)[C@@H]3O)ccc2cn1
REMARK SMILES IDX 8 1 7 4 6 7 2 8 3 9 30 10 4 11 29 13 5 14 28 15 27 18 26 19
REMARK SMILES IDX 1 22 9 25 10 26 24 27 11 29 22 32 25 36 12 38 13 39 21 40
REMARK SMILES IDX 14 41 15 43 20 44 16 46 19 47 18 48 17 50 23 53
REMARK H PARENT 8 2 8 3 7 5 7 6 3 12 29 16 5 17 27 20 26 21 1 23 1 24 9 28
REMARK H PARENT 10 30 10 31 24 33 11 34 22 35 25 37 13 42 14 45 19 49 17 51
REMARK H PARENT 17 52 23 54
REMARK Flexibility Score: inf
ROOT
ATOM      1  C   UNL     1     -46.225  33.592  26.812  1.00  0.00    -0.044 C 
ATOM      2  H   UNL     1     -45.168  33.416  27.048  1.00  0.00     0.027 H 
ATOM      3  H   UNL     1     -46.763  32.714  27.196  1.00  0.00     0.027 H 
ENDROOT
BRANCH   1   4
ATOM      4  C   UNL     1     -46.431  33.588  25.288  1.00  0.00    -0.028 C 
ATOM      5  H   UNL     1     -45.548  34.006  24.792  1.00  0.00     0.032 H 
ATOM      6  H   UNL     1     -47.247  34.283  25.051  1.00  0.00     0.032 H 
BRANCH   4   7
ATOM      7  C   UNL     1     -46.796  32.255  24.684  1.00  0.00    -0.047 A 
ATOM      8  C   UNL     1     -49.436  28.171  24.655  1.00  0.00     0.123 A 
ATOM      9  C   UNL     1     -49.175  29.416  25.219  1.00  0.00    -0.012 A 
ATOM     10  N   UNL     1     -48.748  27.696  23.608  1.00  0.00    -0.239 NA
ATOM     11  C   UNL     1     -48.155  30.217  24.687  1.00  0.00    -0.013 A 
ATOM     12  H   UNL     1     -49.756  29.760  26.068  1.00  0.00     0.067 H 
ATOM     13  C   UNL     1     -47.768  28.477  23.099  1.00  0.00     0.037 A 
ATOM     14  C   UNL     1     -47.836  31.480  25.222  1.00  0.00    -0.051 A 
ATOM     15  C   UNL     1     -47.426  29.737  23.587  1.00  0.00     0.000 A 
ATOM     16  H   UNL     1     -47.245  28.042  22.251  1.00  0.00     0.085 H 
ATOM     17  H   UNL     1     -48.397  31.858  26.075  1.00  0.00     0.063 H 
ATOM     18  C   UNL     1     -46.404  30.521  23.030  1.00  0.00    -0.053 A 
ATOM     19  C   UNL     1     -46.099  31.771  23.572  1.00  0.00    -0.058 A 
ATOM     20  H   UNL     1     -45.832  30.159  22.177  1.00  0.00     0.063 H 
ATOM     21  H   UNL     1     -45.297  32.356  23.127  1.00  0.00     0.063 H 
BRANCH   8  22
ATOM     22  N   UNL     1     -50.452  27.364  25.181  1.00  0.00    -0.384 N 
ATOM     23  H   UNL     1     -50.760  27.742  26.071  1.00  0.00     0.158 HD
ATOM     24  H   UNL     1     -50.097  26.427  25.336  1.00  0.00     0.158 HD
ENDBRANCH   8  22
ENDBRANCH   4   7
ENDBRANCH   1   4
BRANCH   1  25
ATOM     25  C   UNL     1     -46.715  34.805  27.618  1.00  0.00    -0.010 C 
ATOM     26  C   UNL     1     -45.660  35.858  27.967  1.00  0.00    -0.024 C 
ATOM     27  C   UNL     1     -47.828  35.644  26.991  1.00  0.00     0.085 C 
ATOM     28  H   UNL     1     -47.088  34.388  28.567  1.00  0.00     0.033 H 
ATOM     29  C   UNL     1     -46.457  37.123  28.359  1.00  0.00     0.064 C 
ATOM     30  H   UNL     1     -45.028  35.519  28.796  1.00  0.00     0.029 H 
ATOM     31  H   UNL     1     -44.994  36.067  27.128  1.00  0.00     0.029 H 
ATOM     32  C   UNL     1     -47.917  36.850  27.940  1.00  0.00     0.101 C 
ATOM     33  H   UNL     1     -47.570  35.957  25.977  1.00  0.00     0.063 H 
ATOM     34  H   UNL     1     -46.421  37.234  29.451  1.00  0.00     0.056 H 
ATOM     35  H   UNL     1     -48.443  37.697  27.494  1.00  0.00     0.065 H 
BRANCH  27  36
ATOM     36  O   UNL     1     -49.058  34.929  26.962  1.00  0.00    -0.390 OA
ATOM     37  H   UNL     1     -49.288  34.727  27.886  1.00  0.00     0.211 HD
ENDBRANCH  27  36
BRANCH  29  38
ATOM     38  N   UNL     1     -45.843  38.327  27.818  1.00  0.00    -0.327 N 
ATOM     39  C   UNL     1     -46.292  38.954  26.675  1.00  0.00     0.007 A 
ATOM     40  C   UNL     1     -44.814  39.061  28.362  1.00  0.00     0.145 A 
ATOM     41  C   UNL     1     -45.554  40.103  26.497  1.00  0.00    -0.031 A 
ATOM     42  H   UNL     1     -47.102  38.537  26.090  1.00  0.00     0.082 H 
ATOM     43  C   UNL     1     -44.620  40.183  27.564  1.00  0.00     0.061 A 
ATOM     44  N   UNL     1     -44.120  38.754  29.472  1.00  0.00    -0.218 NA
ATOM     45  H   UNL     1     -45.672  40.809  25.686  1.00  0.00     0.065 H 
ATOM     46  C   UNL     1     -43.618  41.079  27.962  1.00  0.00     0.136 A 
ATOM     47  C   UNL     1     -43.176  39.674  29.739  1.00  0.00     0.120 A 
ATOM     48  N   UNL     1     -42.902  40.808  29.069  1.00  0.00    -0.219 NA
ATOM     49  H   UNL     1     -42.559  39.483  30.612  1.00  0.00     0.106 H 
BRANCH  46  50
ATOM     50  N   UNL     1     -43.325  42.253  27.285  1.00  0.00    -0.383 N 
ATOM     51  H   UNL     1     -43.873  43.055  27.562  1.00  0.00     0.158 HD
ATOM     52  H   UNL     1     -42.324  42.391  27.208  1.00  0.00     0.158 HD
ENDBRANCH  46  50
ENDBRANCH  29  38
BRANCH  32  53
ATOM     53  O   UNL     1     -48.679  36.478  29.106  1.00  0.00    -0.388 OA
ATOM     54  H   UNL     1     -49.018  35.576  28.926  1.00  0.00     0.211 HD
ENDBRANCH  32  53
ENDBRANCH   1  25
TORSDOF 8
ENDMDL
