MODEL 1
REMARK VINA RESULT:     -10.4      0.000      0.000
REMARK SMILES Nc1ccc2ccc(OC[C@H]3C[C@@H](n4ccc5c(N)ncnc54)[C@H](O)[C@@H]3O)cc2n1
REMARK SMILES IDX 10 1 9 4 8 5 2 6 3 7 30 8 4 9 29 11 5 12 28 14 6 15 7 17
REMARK SMILES IDX 1 20 11 23 12 24 26 25 13 27 24 30 27 34 14 36 15 37 23 38
REMARK SMILES IDX 16 39 17 41 22 42 18 44 21 45 20 46 19 48 25 51
REMARK H PARENT 10 2 10 3 3 10 4 13 28 16 6 18 7 19 1 21 1 22 11 26 12 28
REMARK H PARENT 12 29 26 31 13 32 24 33 27 35 15 40 16 43 21 47 19 49 19 50
REMARK H PARENT 25 52
REMARK Flexibility Score: inf
ROOT
ATOM      1  C   UNL     1     -46.298  35.423  28.085  1.00  0.00     0.094 C 
ATOM      2  H   UNL     1     -45.307  35.062  28.390  1.00  0.00     0.071 H 
ATOM      3  H   UNL     1     -47.072  34.773  28.511  1.00  0.00     0.071 H 
ENDROOT
BRANCH   1   4
ATOM      4  O   UNL     1     -46.392  35.428  26.659  1.00  0.00    -0.493 OA
BRANCH   4   5
ATOM      5  C   UNL     1     -46.953  34.331  26.067  1.00  0.00     0.121 A 
ATOM      6  C   UNL     1     -47.050  30.643  23.082  1.00  0.00     0.124 A 
ATOM      7  C   UNL     1     -48.325  30.273  23.473  1.00  0.00    -0.019 A 
ATOM      8  N   UNL     1     -46.404  31.704  23.593  1.00  0.00    -0.231 NA
ATOM      9  C   UNL     1     -48.965  31.023  24.453  1.00  0.00    -0.049 A 
ATOM     10  H   UNL     1     -48.819  29.423  23.018  1.00  0.00     0.066 H 
ATOM     11  C   UNL     1     -47.021  32.436  24.541  1.00  0.00     0.076 A 
ATOM     12  C   UNL     1     -48.314  32.129  25.009  1.00  0.00     0.001 A 
ATOM     13  H   UNL     1     -49.966  30.746  24.770  1.00  0.00     0.063 H 
ATOM     14  C   UNL     1     -46.364  33.535  25.082  1.00  0.00     0.007 A 
ATOM     15  C   UNL     1     -48.914  32.921  25.999  1.00  0.00    -0.049 A 
ATOM     16  H   UNL     1     -45.370  33.748  24.701  1.00  0.00     0.069 H 
ATOM     17  C   UNL     1     -48.231  34.016  26.524  1.00  0.00    -0.019 A 
ATOM     18  H   UNL     1     -49.912  32.691  26.366  1.00  0.00     0.063 H 
ATOM     19  H   UNL     1     -48.698  34.629  27.290  1.00  0.00     0.066 H 
BRANCH   6  20
ATOM     20  N   UNL     1     -46.381  29.930  22.090  1.00  0.00    -0.384 N 
ATOM     21  H   UNL     1     -47.093  29.485  21.515  1.00  0.00     0.158 HD
ATOM     22  H   UNL     1     -45.777  30.531  21.542  1.00  0.00     0.158 HD
ENDBRANCH   6  20
ENDBRANCH   4   5
ENDBRANCH   1   4
BRANCH   1  23
ATOM     23  C   UNL     1     -46.489  36.854  28.582  1.00  0.00     0.024 C 
ATOM     24  C   UNL     1     -45.180  37.651  28.624  1.00  0.00    -0.021 C 
ATOM     25  C   UNL     1     -47.374  37.693  27.667  1.00  0.00     0.088 C 
ATOM     26  H   UNL     1     -46.916  36.815  29.594  1.00  0.00     0.037 H 
ATOM     27  C   UNL     1     -45.613  39.129  28.574  1.00  0.00     0.064 C 
ATOM     28  H   UNL     1     -44.614  37.437  29.536  1.00  0.00     0.029 H 
ATOM     29  H   UNL     1     -44.535  37.384  27.778  1.00  0.00     0.029 H 
ATOM     30  C   UNL     1     -47.084  39.133  28.116  1.00  0.00     0.101 C 
ATOM     31  H   UNL     1     -47.113  37.552  26.612  1.00  0.00     0.063 H 
ATOM     32  H   UNL     1     -45.555  39.536  29.593  1.00  0.00     0.056 H 
ATOM     33  H   UNL     1     -47.317  39.860  27.331  1.00  0.00     0.065 H 
BRANCH  25  34
ATOM     34  O   UNL     1     -48.759  37.403  27.844  1.00  0.00    -0.390 OA
ATOM     35  H   UNL     1     -49.253  38.237  27.752  1.00  0.00     0.211 HD
ENDBRANCH  25  34
BRANCH  27  36
ATOM     36  N   UNL     1     -44.735  39.954  27.757  1.00  0.00    -0.327 N 
ATOM     37  C   UNL     1     -44.997  40.314  26.456  1.00  0.00     0.007 A 
ATOM     38  C   UNL     1     -43.535  40.499  28.149  1.00  0.00     0.145 A 
ATOM     39  C   UNL     1     -43.953  41.098  26.013  1.00  0.00    -0.031 A 
ATOM     40  H   UNL     1     -45.899  39.987  25.953  1.00  0.00     0.082 H 
ATOM     41  C   UNL     1     -43.020  41.218  27.078  1.00  0.00     0.061 A 
ATOM     42  N   UNL     1     -42.966  40.359  29.359  1.00  0.00    -0.218 NA
ATOM     43  H   UNL     1     -43.873  41.543  25.029  1.00  0.00     0.065 H 
ATOM     44  C   UNL     1     -41.789  41.857  27.280  1.00  0.00     0.136 A 
ATOM     45  C   UNL     1     -41.794  41.015  29.431  1.00  0.00     0.120 A 
ATOM     46  N   UNL     1     -41.181  41.738  28.476  1.00  0.00    -0.219 NA
ATOM     47  H   UNL     1     -41.272  40.955  30.382  1.00  0.00     0.106 H 
BRANCH  44  48
ATOM     48  N   UNL     1     -41.139  42.600  26.305  1.00  0.00    -0.383 N 
ATOM     49  H   UNL     1     -40.158  42.387  26.193  1.00  0.00     0.158 HD
ATOM     50  H   UNL     1     -41.382  43.581  26.381  1.00  0.00     0.158 HD
ENDBRANCH  44  48
ENDBRANCH  27  36
BRANCH  30  51
ATOM     51  O   UNL     1     -47.927  39.454  29.237  1.00  0.00    -0.388 OA
ATOM     52  H   UNL     1     -48.791  39.046  29.017  1.00  0.00     0.211 HD
ENDBRANCH  30  51
ENDBRANCH   1  23
TORSDOF 8
ENDMDL
MODEL 2
REMARK VINA RESULT:      -9.4      1.809      9.599
REMARK SMILES Nc1ccc2ccc(OC[C@H]3C[C@@H](n4ccc5c(N)ncnc54)[C@H](O)[C@@H]3O)cc2n1
REMARK SMILES IDX 10 1 9 4 8 5 2 6 3 7 30 8 4 9 29 11 5 12 28 14 6 15 7 17
REMARK SMILES IDX 1 20 11 23 12 24 26 25 13 27 24 30 27 34 14 36 15 37 23 38
REMARK SMILES IDX 16 39 17 41 22 42 18 44 21 45 20 46 19 48 25 51
REMARK H PARENT 10 2 10 3 3 10 4 13 28 16 6 18 7 19 1 21 1 22 11 26 12 28
REMARK H PARENT 12 29 26 31 13 32 24 33 27 35 15 40 16 43 21 47 19 49 19 50
REMARK H PARENT 25 52
REMARK Flexibility Score: inf
ROOT
ATOM      1  C   UNL     1     -48.120  36.073  26.912  1.00  0.00     0.094 C 
ATOM      2  H   UNL     1     -47.530  36.496  26.089  1.00  0.00     0.071 H 
ATOM      3  H   UNL     1     -49.187  36.237  26.721  1.00  0.00     0.071 H 
ENDROOT
BRANCH   1   4
ATOM      4  O   UNL     1     -47.741  36.690  28.144  1.00  0.00    -0.493 OA
BRANCH   4   5
ATOM      5  C   UNL     1     -46.766  37.646  28.088  1.00  0.00     0.121 A 
ATOM      6  C   UNL     1     -44.503  41.364  26.197  1.00  0.00     0.124 A 
ATOM      7  C   UNL     1     -43.552  41.383  27.202  1.00  0.00    -0.019 A 
ATOM      8  N   UNL     1     -45.503  40.468  26.149  1.00  0.00    -0.231 NA
ATOM      9  C   UNL     1     -43.641  40.441  28.221  1.00  0.00    -0.049 A 
ATOM     10  H   UNL     1     -42.748  42.109  27.190  1.00  0.00     0.066 H 
ATOM     11  C   UNL     1     -45.592  39.552  27.131  1.00  0.00     0.076 A 
ATOM     12  C   UNL     1     -44.675  39.500  28.201  1.00  0.00     0.001 A 
ATOM     13  H   UNL     1     -42.901  40.442  29.017  1.00  0.00     0.063 H 
ATOM     14  C   UNL     1     -46.623  38.620  27.097  1.00  0.00     0.007 A 
ATOM     15  C   UNL     1     -44.810  38.528  29.202  1.00  0.00    -0.049 A 
ATOM     16  H   UNL     1     -47.312  38.683  26.261  1.00  0.00     0.069 H 
ATOM     17  C   UNL     1     -45.855  37.607  29.142  1.00  0.00    -0.019 A 
ATOM     18  H   UNL     1     -44.108  38.481  30.031  1.00  0.00     0.063 H 
ATOM     19  H   UNL     1     -45.958  36.854  29.919  1.00  0.00     0.066 H 
BRANCH   6  20
ATOM     20  N   UNL     1     -44.439  42.278  25.148  1.00  0.00    -0.384 N 
ATOM     21  H   UNL     1     -43.872  43.059  25.470  1.00  0.00     0.158 HD
ATOM     22  H   UNL     1     -44.057  41.857  24.309  1.00  0.00     0.158 HD
ENDBRANCH   6  20
ENDBRANCH   4   5
ENDBRANCH   1   4
BRANCH   1  23
ATOM     23  C   UNL     1     -47.836  34.577  27.019  1.00  0.00     0.024 C 
ATOM     24  C   UNL     1     -48.908  33.715  26.344  1.00  0.00    -0.021 C 
ATOM     25  C   UNL     1     -46.556  34.157  26.303  1.00  0.00     0.088 C 
ATOM     26  H   UNL     1     -47.780  34.310  28.084  1.00  0.00     0.037 H 
ATOM     27  C   UNL     1     -48.212  32.373  26.045  1.00  0.00     0.064 C 
ATOM     28  H   UNL     1     -49.773  33.571  27.000  1.00  0.00     0.029 H 
ATOM     29  H   UNL     1     -49.278  34.197  25.432  1.00  0.00     0.029 H 
ATOM     30  C   UNL     1     -46.699  32.632  26.186  1.00  0.00     0.101 C 
ATOM     31  H   UNL     1     -46.478  34.619  25.313  1.00  0.00     0.063 H 
ATOM     32  H   UNL     1     -48.523  31.648  26.810  1.00  0.00     0.056 H 
ATOM     33  H   UNL     1     -46.088  32.226  25.374  1.00  0.00     0.065 H 
BRANCH  25  34
ATOM     34  O   UNL     1     -45.388  34.475  27.056  1.00  0.00    -0.390 OA
ATOM     35  H   UNL     1     -45.309  35.445  27.090  1.00  0.00     0.211 HD
ENDBRANCH  25  34
BRANCH  27  36
ATOM     36  N   UNL     1     -48.599  31.803  24.764  1.00  0.00    -0.327 N 
ATOM     37  C   UNL     1     -49.894  31.722  24.309  1.00  0.00     0.007 A 
ATOM     38  C   UNL     1     -47.750  31.273  23.821  1.00  0.00     0.145 A 
ATOM     39  C   UNL     1     -49.872  31.135  23.061  1.00  0.00    -0.031 A 
ATOM     40  H   UNL     1     -50.722  32.088  24.903  1.00  0.00     0.082 H 
ATOM     41  C   UNL     1     -48.517  30.844  22.745  1.00  0.00     0.061 A 
ATOM     42  N   UNL     1     -46.412  31.189  23.925  1.00  0.00    -0.218 NA
ATOM     43  H   UNL     1     -50.737  30.942  22.441  1.00  0.00     0.065 H 
ATOM     44  C   UNL     1     -47.829  30.268  21.668  1.00  0.00     0.136 A 
ATOM     45  C   UNL     1     -45.867  30.622  22.835  1.00  0.00     0.120 A 
ATOM     46  N   UNL     1     -46.488  30.159  21.734  1.00  0.00    -0.219 NA
ATOM     47  H   UNL     1     -44.785  30.521  22.840  1.00  0.00     0.106 H 
BRANCH  44  48
ATOM     48  N   UNL     1     -48.454  29.779  20.530  1.00  0.00    -0.383 N 
ATOM     49  H   UNL     1     -48.315  28.792  20.361  1.00  0.00     0.158 HD
ATOM     50  H   UNL     1     -48.298  30.398  19.743  1.00  0.00     0.158 HD
ENDBRANCH  44  48
ENDBRANCH  27  36
BRANCH  30  51
ATOM     51  O   UNL     1     -46.227  32.022  27.401  1.00  0.00    -0.388 OA
ATOM     52  H   UNL     1     -45.747  31.221  27.102  1.00  0.00     0.211 HD
ENDBRANCH  30  51
ENDBRANCH   1  23
TORSDOF 8
ENDMDL
MODEL 3
REMARK VINA RESULT:      -9.2      2.002      2.855
REMARK SMILES Nc1ccc2ccc(OC[C@H]3C[C@@H](n4ccc5c(N)ncnc54)[C@H](O)[C@@H]3O)cc2n1
REMARK SMILES IDX 10 1 9 4 8 5 2 6 3 7 30 8 4 9 29 11 5 12 28 14 6 15 7 17
REMARK SMILES IDX 1 20 11 23 12 24 26 25 13 27 24 30 27 34 14 36 15 37 23 38
REMARK SMILES IDX 16 39 17 41 22 42 18 44 21 45 20 46 19 48 25 51
REMARK H PARENT 10 2 10 3 3 10 4 13 28 16 6 18 7 19 1 21 1 22 11 26 12 28
REMARK H PARENT 12 29 26 31 13 32 24 33 27 35 15 40 16 43 21 47 19 49 19 50
REMARK H PARENT 25 52
REMARK Flexibility Score: inf
ROOT
ATOM      1  C   UNL     1     -46.456  33.580  26.847  1.00  0.00     0.094 C 
ATOM      2  H   UNL     1     -45.413  33.776  26.571  1.00  0.00     0.071 H 
ATOM      3  H   UNL     1     -46.516  32.643  27.414  1.00  0.00     0.071 H 
ENDROOT
BRANCH   1   4
ATOM      4  O   UNL     1     -47.259  33.492  25.668  1.00  0.00    -0.493 OA
BRANCH   4   5
ATOM      5  C   UNL     1     -47.428  32.251  25.119  1.00  0.00     0.121 A 
ATOM      6  C   UNL     1     -49.580  28.058  24.571  1.00  0.00     0.124 A 
ATOM      7  C   UNL     1     -48.676  27.644  23.607  1.00  0.00    -0.019 A 
ATOM      8  N   UNL     1     -49.508  29.253  25.179  1.00  0.00    -0.231 NA
ATOM      9  C   UNL     1     -47.654  28.509  23.237  1.00  0.00    -0.049 A 
ATOM     10  H   UNL     1     -48.757  26.661  23.158  1.00  0.00     0.066 H 
ATOM     11  C   UNL     1     -48.518  30.095  24.826  1.00  0.00     0.076 A 
ATOM     12  C   UNL     1     -47.558  29.763  23.848  1.00  0.00     0.001 A 
ATOM     13  H   UNL     1     -46.937  28.199  22.483  1.00  0.00     0.063 H 
ATOM     14  C   UNL     1     -48.432  31.337  25.444  1.00  0.00     0.007 A 
ATOM     15  C   UNL     1     -46.546  30.675  23.513  1.00  0.00    -0.049 A 
ATOM     16  H   UNL     1     -49.184  31.563  26.194  1.00  0.00     0.069 H 
ATOM     17  C   UNL     1     -46.486  31.914  24.149  1.00  0.00    -0.019 A 
ATOM     18  H   UNL     1     -45.803  30.428  22.760  1.00  0.00     0.063 H 
ATOM     19  H   UNL     1     -45.701  32.618  23.889  1.00  0.00     0.066 H 
BRANCH   6  20
ATOM     20  N   UNL     1     -50.607  27.213  24.984  1.00  0.00    -0.384 N 
ATOM     21  H   UNL     1     -51.483  27.688  24.776  1.00  0.00     0.158 HD
ATOM     22  H   UNL     1     -50.552  26.309  24.528  1.00  0.00     0.158 HD
ENDBRANCH   6  20
ENDBRANCH   4   5
ENDBRANCH   1   4
BRANCH   1  23
ATOM     23  C   UNL     1     -46.979  34.736  27.697  1.00  0.00     0.024 C 
ATOM     24  C   UNL     1     -45.894  35.762  28.041  1.00  0.00    -0.021 C 
ATOM     25  C   UNL     1     -48.033  35.575  26.982  1.00  0.00     0.088 C 
ATOM     26  H   UNL     1     -47.389  34.323  28.629  1.00  0.00     0.037 H 
ATOM     27  C   UNL     1     -46.661  37.060  28.361  1.00  0.00     0.064 C 
ATOM     28  H   UNL     1     -45.297  35.436  28.898  1.00  0.00     0.029 H 
ATOM     29  H   UNL     1     -45.201  35.892  27.201  1.00  0.00     0.029 H 
ATOM     30  C   UNL     1     -48.090  36.861  27.822  1.00  0.00     0.101 C 
ATOM     31  H   UNL     1     -47.742  35.795  25.950  1.00  0.00     0.063 H 
ATOM     32  H   UNL     1     -46.704  37.170  29.454  1.00  0.00     0.056 H 
ATOM     33  H   UNL     1     -48.484  37.706  27.247  1.00  0.00     0.065 H 
BRANCH  25  34
ATOM     34  O   UNL     1     -49.312  34.945  26.979  1.00  0.00    -0.390 OA
ATOM     35  H   UNL     1     -49.744  35.148  26.130  1.00  0.00     0.211 HD
ENDBRANCH  25  34
BRANCH  27  36
ATOM     36  N   UNL     1     -45.998  38.254  27.858  1.00  0.00    -0.327 N 
ATOM     37  C   UNL     1     -46.349  38.908  26.700  1.00  0.00     0.007 A 
ATOM     38  C   UNL     1     -44.944  38.908  28.451  1.00  0.00     0.145 A 
ATOM     39  C   UNL     1     -45.511  39.993  26.553  1.00  0.00    -0.031 A 
ATOM     40  H   UNL     1     -47.163  38.554  26.080  1.00  0.00     0.082 H 
ATOM     41  C   UNL     1     -44.615  39.999  27.656  1.00  0.00     0.061 A 
ATOM     42  N   UNL     1     -44.343  38.552  29.600  1.00  0.00    -0.218 NA
ATOM     43  H   UNL     1     -45.544  40.708  25.742  1.00  0.00     0.065 H 
ATOM     44  C   UNL     1     -43.553  40.803  28.095  1.00  0.00     0.136 A 
ATOM     45  C   UNL     1     -43.345  39.397  29.916  1.00  0.00     0.120 A 
ATOM     46  N   UNL     1     -42.920  40.478  29.238  1.00  0.00    -0.219 NA
ATOM     47  H   UNL     1     -42.810  39.179  30.836  1.00  0.00     0.106 H 
BRANCH  44  48
ATOM     48  N   UNL     1     -43.097  41.917  27.405  1.00  0.00    -0.383 N 
ATOM     49  H   UNL     1     -42.315  41.742  26.789  1.00  0.00     0.158 HD
ATOM     50  H   UNL     1     -43.013  42.712  28.027  1.00  0.00     0.158 HD
ENDBRANCH  44  48
ENDBRANCH  27  36
BRANCH  30  51
ATOM     51  O   UNL     1     -48.990  36.660  28.927  1.00  0.00    -0.388 OA
ATOM     52  H   UNL     1     -49.884  36.717  28.527  1.00  0.00     0.211 HD
ENDBRANCH  30  51
ENDBRANCH   1  23
TORSDOF 8
ENDMDL
MODEL 4
REMARK VINA RESULT:      -9.1      2.208      3.121
REMARK SMILES Nc1ccc2ccc(OC[C@H]3C[C@@H](n4ccc5c(N)ncnc54)[C@H](O)[C@@H]3O)cc2n1
REMARK SMILES IDX 10 1 9 4 8 5 2 6 3 7 30 8 4 9 29 11 5 12 28 14 6 15 7 17
REMARK SMILES IDX 1 20 11 23 12 24 26 25 13 27 24 30 27 34 14 36 15 37 23 38
REMARK SMILES IDX 16 39 17 41 22 42 18 44 21 45 20 46 19 48 25 51
REMARK H PARENT 10 2 10 3 3 10 4 13 28 16 6 18 7 19 1 21 1 22 11 26 12 28
REMARK H PARENT 12 29 26 31 13 32 24 33 27 35 15 40 16 43 21 47 19 49 19 50
REMARK H PARENT 25 52
REMARK Flexibility Score: inf
ROOT
ATOM      1  C   UNL     1     -45.566  34.969  27.698  1.00  0.00     0.094 C 
ATOM      2  H   UNL     1     -44.615  34.651  27.252  1.00  0.00     0.071 H 
ATOM      3  H   UNL     1     -45.942  34.182  28.362  1.00  0.00     0.071 H 
ENDROOT
BRANCH   1   4
ATOM      4  O   UNL     1     -46.517  35.236  26.665  1.00  0.00    -0.493 OA
BRANCH   4   5
ATOM      5  C   UNL     1     -47.046  34.159  26.010  1.00  0.00     0.121 A 
ATOM      6  C   UNL     1     -47.000  30.589  22.884  1.00  0.00     0.124 A 
ATOM      7  C   UNL     1     -48.285  30.194  23.213  1.00  0.00    -0.019 A 
ATOM      8  N   UNL     1     -46.383  31.634  23.460  1.00  0.00    -0.231 NA
ATOM      9  C   UNL     1     -48.968  30.902  24.196  1.00  0.00    -0.049 A 
ATOM     10  H   UNL     1     -48.755  29.359  22.707  1.00  0.00     0.066 H 
ATOM     11  C   UNL     1     -47.041  32.324  24.411  1.00  0.00     0.076 A 
ATOM     12  C   UNL     1     -48.348  31.989  24.818  1.00  0.00     0.001 A 
ATOM     13  H   UNL     1     -49.978  30.604  24.465  1.00  0.00     0.063 H 
ATOM     14  C   UNL     1     -46.414  33.406  25.018  1.00  0.00     0.007 A 
ATOM     15  C   UNL     1     -48.991  32.738  25.815  1.00  0.00    -0.049 A 
ATOM     16  H   UNL     1     -45.409  33.641  24.683  1.00  0.00     0.069 H 
ATOM     17  C   UNL     1     -48.338  33.817  26.407  1.00  0.00    -0.019 A 
ATOM     18  H   UNL     1     -49.999  32.486  26.135  1.00  0.00     0.063 H 
ATOM     19  H   UNL     1     -48.838  34.396  27.178  1.00  0.00     0.066 H 
BRANCH   6  20
ATOM     20  N   UNL     1     -46.289  29.920  21.891  1.00  0.00    -0.384 N 
ATOM     21  H   UNL     1     -46.464  30.413  21.018  1.00  0.00     0.158 HD
ATOM     22  H   UNL     1     -45.300  29.875  22.106  1.00  0.00     0.158 HD
ENDBRANCH   6  20
ENDBRANCH   4   5
ENDBRANCH   1   4
BRANCH   1  23
ATOM     23  C   UNL     1     -45.347  36.256  28.490  1.00  0.00     0.024 C 
ATOM     24  C   UNL     1     -45.492  37.518  27.632  1.00  0.00    -0.021 C 
ATOM     25  C   UNL     1     -46.382  36.467  29.589  1.00  0.00     0.088 C 
ATOM     26  H   UNL     1     -44.335  36.230  28.919  1.00  0.00     0.037 H 
ATOM     27  C   UNL     1     -45.811  38.646  28.632  1.00  0.00     0.064 C 
ATOM     28  H   UNL     1     -44.571  37.731  27.079  1.00  0.00     0.029 H 
ATOM     29  H   UNL     1     -46.287  37.393  26.887  1.00  0.00     0.029 H 
ATOM     30  C   UNL     1     -46.223  37.953  29.945  1.00  0.00     0.101 C 
ATOM     31  H   UNL     1     -47.397  36.256  29.234  1.00  0.00     0.063 H 
ATOM     32  H   UNL     1     -44.891  39.220  28.804  1.00  0.00     0.056 H 
ATOM     33  H   UNL     1     -47.127  38.359  30.412  1.00  0.00     0.065 H 
BRANCH  25  34
ATOM     34  O   UNL     1     -46.118  35.666  30.739  1.00  0.00    -0.390 OA
ATOM     35  H   UNL     1     -45.230  35.279  30.636  1.00  0.00     0.211 HD
ENDBRANCH  25  34
BRANCH  27  36
ATOM     36  N   UNL     1     -46.793  39.594  28.128  1.00  0.00    -0.327 N 
ATOM     37  C   UNL     1     -48.145  39.512  28.365  1.00  0.00     0.007 A 
ATOM     38  C   UNL     1     -46.531  40.703  27.358  1.00  0.00     0.145 A 
ATOM     39  C   UNL     1     -48.753  40.582  27.742  1.00  0.00    -0.031 A 
ATOM     40  H   UNL     1     -48.564  38.708  28.957  1.00  0.00     0.082 H 
ATOM     41  C   UNL     1     -47.737  41.340  27.098  1.00  0.00     0.061 A 
ATOM     42  N   UNL     1     -45.317  41.098  26.937  1.00  0.00    -0.218 NA
ATOM     43  H   UNL     1     -49.813  40.798  27.753  1.00  0.00     0.065 H 
ATOM     44  C   UNL     1     -47.682  42.505  26.320  1.00  0.00     0.136 A 
ATOM     45  C   UNL     1     -45.393  42.223  26.204  1.00  0.00     0.120 A 
ATOM     46  N   UNL     1     -46.487  42.933  25.872  1.00  0.00    -0.219 NA
ATOM     47  H   UNL     1     -44.450  42.611  25.828  1.00  0.00     0.106 H 
BRANCH  44  48
ATOM     48  N   UNL     1     -48.801  43.244  25.962  1.00  0.00    -0.383 N 
ATOM     49  H   UNL     1     -49.133  43.881  26.673  1.00  0.00     0.158 HD
ATOM     50  H   UNL     1     -49.497  42.650  25.527  1.00  0.00     0.158 HD
ENDBRANCH  44  48
ENDBRANCH  27  36
BRANCH  30  51
ATOM     51  O   UNL     1     -45.163  38.095  30.907  1.00  0.00    -0.388 OA
ATOM     52  H   UNL     1     -45.106  39.060  31.068  1.00  0.00     0.211 HD
ENDBRANCH  30  51
ENDBRANCH   1  23
TORSDOF 8
ENDMDL
MODEL 5
REMARK VINA RESULT:      -8.9      1.629      2.465
REMARK SMILES Nc1ccc2ccc(OC[C@H]3C[C@@H](n4ccc5c(N)ncnc54)[C@H](O)[C@@H]3O)cc2n1
REMARK SMILES IDX 10 1 9 4 8 5 2 6 3 7 30 8 4 9 29 11 5 12 28 14 6 15 7 17
REMARK SMILES IDX 1 20 11 23 12 24 26 25 13 27 24 30 27 34 14 36 15 37 23 38
REMARK SMILES IDX 16 39 17 41 22 42 18 44 21 45 20 46 19 48 25 51
REMARK H PARENT 10 2 10 3 3 10 4 13 28 16 6 18 7 19 1 21 1 22 11 26 12 28
REMARK H PARENT 12 29 26 31 13 32 24 33 27 35 15 40 16 43 21 47 19 49 19 50
REMARK H PARENT 25 52
REMARK Flexibility Score: inf
ROOT
ATOM      1  C   UNL     1     -46.735  35.933  26.490  1.00  0.00     0.094 C 
ATOM      2  H   UNL     1     -47.088  36.804  25.924  1.00  0.00     0.071 H 
ATOM      3  H   UNL     1     -45.881  35.480  25.972  1.00  0.00     0.071 H 
ENDROOT
BRANCH   1   4
ATOM      4  O   UNL     1     -47.793  34.981  26.617  1.00  0.00    -0.493 OA
BRANCH   4   5
ATOM      5  C   UNL     1     -47.668  33.812  25.920  1.00  0.00     0.121 A 
ATOM      6  C   UNL     1     -49.139  29.601  24.300  1.00  0.00     0.124 A 
ATOM      7  C   UNL     1     -47.951  29.367  23.631  1.00  0.00    -0.019 A 
ATOM      8  N   UNL     1     -49.371  30.712  25.019  1.00  0.00    -0.231 NA
ATOM      9  C   UNL     1     -46.951  30.331  23.690  1.00  0.00    -0.049 A 
ATOM     10  H   UNL     1     -47.796  28.445  23.082  1.00  0.00     0.066 H 
ATOM     11  C   UNL     1     -48.405  31.649  25.082  1.00  0.00     0.076 A 
ATOM     12  C   UNL     1     -47.167  31.502  24.424  1.00  0.00     0.001 A 
ATOM     13  H   UNL     1     -46.013  30.162  23.171  1.00  0.00     0.063 H 
ATOM     14  C   UNL     1     -48.631  32.805  25.819  1.00  0.00     0.007 A 
ATOM     15  C   UNL     1     -46.193  32.507  24.519  1.00  0.00    -0.049 A 
ATOM     16  H   UNL     1     -49.593  32.890  26.314  1.00  0.00     0.069 H 
ATOM     17  C   UNL     1     -46.448  33.656  25.264  1.00  0.00    -0.019 A 
ATOM     18  H   UNL     1     -45.235  32.401  24.015  1.00  0.00     0.063 H 
ATOM     19  H   UNL     1     -45.692  34.433  25.336  1.00  0.00     0.066 H 
BRANCH   6  20
ATOM     20  N   UNL     1     -50.158  28.651  24.282  1.00  0.00    -0.384 N 
ATOM     21  H   UNL     1     -50.022  28.055  25.095  1.00  0.00     0.158 HD
ATOM     22  H   UNL     1     -51.073  29.086  24.283  1.00  0.00     0.158 HD
ENDBRANCH   6  20
ENDBRANCH   4   5
ENDBRANCH   1   4
BRANCH   1  23
ATOM     23  C   UNL     1     -46.319  36.376  27.890  1.00  0.00     0.024 C 
ATOM     24  C   UNL     1     -44.899  36.950  27.937  1.00  0.00    -0.021 C 
ATOM     25  C   UNL     1     -47.170  37.518  28.435  1.00  0.00     0.088 C 
ATOM     26  H   UNL     1     -46.375  35.506  28.560  1.00  0.00     0.037 H 
ATOM     27  C   UNL     1     -44.867  37.831  29.201  1.00  0.00     0.064 C 
ATOM     28  H   UNL     1     -44.150  36.154  27.994  1.00  0.00     0.029 H 
ATOM     29  H   UNL     1     -44.681  37.526  27.030  1.00  0.00     0.029 H 
ATOM     30  C   UNL     1     -46.336  38.052  29.610  1.00  0.00     0.101 C 
ATOM     31  H   UNL     1     -47.329  38.297  27.683  1.00  0.00     0.063 H 
ATOM     32  H   UNL     1     -44.355  37.271  29.995  1.00  0.00     0.056 H 
ATOM     33  H   UNL     1     -46.592  39.088  29.854  1.00  0.00     0.065 H 
BRANCH  25  34
ATOM     34  O   UNL     1     -48.436  37.066  28.910  1.00  0.00    -0.390 OA
ATOM     35  H   UNL     1     -48.583  37.457  29.790  1.00  0.00     0.211 HD
ENDBRANCH  25  34
BRANCH  27  36
ATOM     36  N   UNL     1     -44.111  39.061  29.020  1.00  0.00    -0.327 N 
ATOM     37  C   UNL     1     -43.130  39.504  29.877  1.00  0.00     0.007 A 
ATOM     38  C   UNL     1     -44.247  39.954  27.983  1.00  0.00     0.145 A 
ATOM     39  C   UNL     1     -42.634  40.691  29.381  1.00  0.00    -0.031 A 
ATOM     40  H   UNL     1     -42.864  38.942  30.764  1.00  0.00     0.082 H 
ATOM     41  C   UNL     1     -43.339  40.985  28.182  1.00  0.00     0.061 A 
ATOM     42  N   UNL     1     -45.108  39.841  26.956  1.00  0.00    -0.218 NA
ATOM     43  H   UNL     1     -41.845  41.280  29.830  1.00  0.00     0.065 H 
ATOM     44  C   UNL     1     -43.321  42.006  27.221  1.00  0.00     0.136 A 
ATOM     45  C   UNL     1     -44.996  40.875  26.104  1.00  0.00     0.120 A 
ATOM     46  N   UNL     1     -44.171  41.935  26.179  1.00  0.00    -0.219 NA
ATOM     47  H   UNL     1     -45.658  40.856  25.242  1.00  0.00     0.106 H 
BRANCH  44  48
ATOM     48  N   UNL     1     -42.482  43.110  27.287  1.00  0.00    -0.383 N 
ATOM     49  H   UNL     1     -41.670  42.990  27.876  1.00  0.00     0.158 HD
ATOM     50  H   UNL     1     -43.019  43.958  27.426  1.00  0.00     0.158 HD
ENDBRANCH  44  48
ENDBRANCH  27  36
BRANCH  30  51
ATOM     51  O   UNL     1     -46.623  37.269  30.783  1.00  0.00    -0.388 OA
ATOM     52  H   UNL     1     -46.766  36.361  30.442  1.00  0.00     0.211 HD
ENDBRANCH  30  51
ENDBRANCH   1  23
TORSDOF 8
ENDMDL
MODEL 6
REMARK VINA RESULT:      -8.9      2.483      9.321
REMARK SMILES Nc1ccc2ccc(OC[C@H]3C[C@@H](n4ccc5c(N)ncnc54)[C@H](O)[C@@H]3O)cc2n1
REMARK SMILES IDX 10 1 9 4 8 5 2 6 3 7 30 8 4 9 29 11 5 12 28 14 6 15 7 17
REMARK SMILES IDX 1 20 11 23 12 24 26 25 13 27 24 30 27 34 14 36 15 37 23 38
REMARK SMILES IDX 16 39 17 41 22 42 18 44 21 45 20 46 19 48 25 51
REMARK H PARENT 10 2 10 3 3 10 4 13 28 16 6 18 7 19 1 21 1 22 11 26 12 28
REMARK H PARENT 12 29 26 31 13 32 24 33 27 35 15 40 16 43 21 47 19 49 19 50
REMARK H PARENT 25 52
REMARK Flexibility Score: inf
ROOT
ATOM      1  C   UNL     1     -46.552  39.676  27.479  1.00  0.00     0.094 C 
ATOM      2  H   UNL     1     -46.402  39.480  26.410  1.00  0.00     0.071 H 
ATOM      3  H   UNL     1     -47.358  40.409  27.608  1.00  0.00     0.071 H 
ENDROOT
BRANCH   1   4
ATOM      4  O   UNL     1     -45.341  40.171  28.053  1.00  0.00    -0.493 OA
BRANCH   4   5
ATOM      5  C   UNL     1     -44.557  40.968  27.265  1.00  0.00     0.121 A 
ATOM      6  C   UNL     1     -43.583  43.575  23.422  1.00  0.00     0.124 A 
ATOM      7  C   UNL     1     -42.309  43.882  23.870  1.00  0.00    -0.019 A 
ATOM      8  N   UNL     1     -44.436  42.800  24.111  1.00  0.00    -0.231 NA
ATOM      9  C   UNL     1     -41.896  43.378  25.098  1.00  0.00    -0.049 A 
ATOM     10  H   UNL     1     -41.644  44.492  23.271  1.00  0.00     0.066 H 
ATOM     11  C   UNL     1     -44.040  42.307  25.300  1.00  0.00     0.076 A 
ATOM     12  C   UNL     1     -42.765  42.575  25.841  1.00  0.00     0.001 A 
ATOM     13  H   UNL     1     -40.899  43.610  25.462  1.00  0.00     0.063 H 
ATOM     14  C   UNL     1     -44.913  41.506  26.026  1.00  0.00     0.007 A 
ATOM     15  C   UNL     1     -42.399  42.040  27.085  1.00  0.00    -0.049 A 
ATOM     16  H   UNL     1     -45.886  41.317  25.585  1.00  0.00     0.069 H 
ATOM     17  C   UNL     1     -43.296  41.241  27.791  1.00  0.00    -0.019 A 
ATOM     18  H   UNL     1     -41.419  42.242  27.509  1.00  0.00     0.063 H 
ATOM     19  H   UNL     1     -43.009  40.827  28.754  1.00  0.00     0.066 H 
BRANCH   6  20
ATOM     20  N   UNL     1     -44.029  44.043  22.188  1.00  0.00    -0.384 N 
ATOM     21  H   UNL     1     -44.091  45.056  22.261  1.00  0.00     0.158 HD
ATOM     22  H   UNL     1     -43.412  43.757  21.436  1.00  0.00     0.158 HD
ENDBRANCH   6  20
ENDBRANCH   4   5
ENDBRANCH   1   4
BRANCH   1  23
ATOM     23  C   UNL     1     -46.918  38.373  28.185  1.00  0.00     0.024 C 
ATOM     24  C   UNL     1     -47.603  37.363  27.258  1.00  0.00    -0.021 C 
ATOM     25  C   UNL     1     -45.702  37.604  28.692  1.00  0.00     0.088 C 
ATOM     26  H   UNL     1     -47.594  38.608  29.019  1.00  0.00     0.037 H 
ATOM     27  C   UNL     1     -47.375  35.992  27.923  1.00  0.00     0.064 C 
ATOM     28  H   UNL     1     -48.672  37.578  27.157  1.00  0.00     0.029 H 
ATOM     29  H   UNL     1     -47.174  37.406  26.250  1.00  0.00     0.029 H 
ATOM     30  C   UNL     1     -46.260  36.199  28.966  1.00  0.00     0.101 C 
ATOM     31  H   UNL     1     -44.905  37.569  27.941  1.00  0.00     0.063 H 
ATOM     32  H   UNL     1     -48.300  35.705  28.442  1.00  0.00     0.056 H 
ATOM     33  H   UNL     1     -45.473  35.438  28.952  1.00  0.00     0.065 H 
BRANCH  25  34
ATOM     34  O   UNL     1     -45.179  38.158  29.897  1.00  0.00    -0.390 OA
ATOM     35  H   UNL     1     -44.214  38.025  29.894  1.00  0.00     0.211 HD
ENDBRANCH  25  34
BRANCH  27  36
ATOM     36  N   UNL     1     -47.101  34.931  26.965  1.00  0.00    -0.327 N 
ATOM     37  C   UNL     1     -45.856  34.651  26.451  1.00  0.00     0.007 A 
ATOM     38  C   UNL     1     -48.020  34.054  26.439  1.00  0.00     0.145 A 
ATOM     39  C   UNL     1     -45.982  33.583  25.588  1.00  0.00    -0.031 A 
ATOM     40  H   UNL     1     -44.987  35.229  26.739  1.00  0.00     0.082 H 
ATOM     41  C   UNL     1     -47.351  33.200  25.572  1.00  0.00     0.061 A 
ATOM     42  N   UNL     1     -49.334  34.030  26.721  1.00  0.00    -0.218 NA
ATOM     43  H   UNL     1     -45.175  33.123  25.033  1.00  0.00     0.065 H 
ATOM     44  C   UNL     1     -48.122  32.222  24.929  1.00  0.00     0.136 A 
ATOM     45  C   UNL     1     -49.965  33.052  26.047  1.00  0.00     0.120 A 
ATOM     46  N   UNL     1     -49.444  32.166  25.178  1.00  0.00    -0.219 NA
ATOM     47  H   UNL     1     -51.033  32.964  26.224  1.00  0.00     0.106 H 
BRANCH  44  48
ATOM     48  N   UNL     1     -47.603  31.306  24.025  1.00  0.00    -0.383 N 
ATOM     49  H   UNL     1     -48.176  31.148  23.207  1.00  0.00     0.158 HD
ATOM     50  H   UNL     1     -47.266  30.481  24.506  1.00  0.00     0.158 HD
ENDBRANCH  44  48
ENDBRANCH  27  36
BRANCH  30  51
ATOM     51  O   UNL     1     -46.835  36.172  30.285  1.00  0.00    -0.388 OA
ATOM     52  H   UNL     1     -47.432  36.950  30.307  1.00  0.00     0.211 HD
ENDBRANCH  30  51
ENDBRANCH   1  23
TORSDOF 8
ENDMDL
MODEL 7
REMARK VINA RESULT:      -8.9      4.372     11.380
REMARK SMILES Nc1ccc2ccc(OC[C@H]3C[C@@H](n4ccc5c(N)ncnc54)[C@H](O)[C@@H]3O)cc2n1
REMARK SMILES IDX 10 1 9 4 8 5 2 6 3 7 30 8 4 9 29 11 5 12 28 14 6 15 7 17
REMARK SMILES IDX 1 20 11 23 12 24 26 25 13 27 24 30 27 34 14 36 15 37 23 38
REMARK SMILES IDX 16 39 17 41 22 42 18 44 21 45 20 46 19 48 25 51
REMARK H PARENT 10 2 10 3 3 10 4 13 28 16 6 18 7 19 1 21 1 22 11 26 12 28
REMARK H PARENT 12 29 26 31 13 32 24 33 27 35 15 40 16 43 21 47 19 49 19 50
REMARK H PARENT 25 52
REMARK Flexibility Score: inf
ROOT
ATOM      1  C   UNL     1     -46.417  31.586  22.940  1.00  0.00     0.094 C 
ATOM      2  H   UNL     1     -45.346  31.553  22.707  1.00  0.00     0.071 H 
ATOM      3  H   UNL     1     -46.832  32.551  22.626  1.00  0.00     0.071 H 
ENDROOT
BRANCH   1   4
ATOM      4  O   UNL     1     -46.611  31.403  24.344  1.00  0.00    -0.493 OA
BRANCH   4   5
ATOM      5  C   UNL     1     -47.124  32.458  25.046  1.00  0.00     0.121 A 
ATOM      6  C   UNL     1     -47.006  36.787  26.985  1.00  0.00     0.124 A 
ATOM      7  C   UNL     1     -48.291  36.672  27.486  1.00  0.00    -0.019 A 
ATOM      8  N   UNL     1     -46.401  35.814  26.285  1.00  0.00    -0.231 NA
ATOM      9  C   UNL     1     -48.998  35.500  27.243  1.00  0.00    -0.049 A 
ATOM     10  H   UNL     1     -48.733  37.473  28.067  1.00  0.00     0.066 H 
ATOM     11  C   UNL     1     -47.080  34.675  26.049  1.00  0.00     0.076 A 
ATOM     12  C   UNL     1     -48.397  34.472  26.511  1.00  0.00     0.001 A 
ATOM     13  H   UNL     1     -50.008  35.395  27.630  1.00  0.00     0.063 H 
ATOM     14  C   UNL     1     -46.469  33.660  25.323  1.00  0.00     0.007 A 
ATOM     15  C   UNL     1     -49.064  33.269  26.237  1.00  0.00    -0.049 A 
ATOM     16  H   UNL     1     -45.455  33.844  24.981  1.00  0.00     0.069 H 
ATOM     17  C   UNL     1     -48.426  32.269  25.506  1.00  0.00    -0.019 A 
ATOM     18  H   UNL     1     -50.079  33.105  26.589  1.00  0.00     0.063 H 
ATOM     19  H   UNL     1     -48.945  31.338  25.296  1.00  0.00     0.066 H 
BRANCH   6  20
ATOM     20  N   UNL     1     -46.256  37.937  27.224  1.00  0.00    -0.384 N 
ATOM     21  H   UNL     1     -46.899  38.640  27.582  1.00  0.00     0.158 HD
ATOM     22  H   UNL     1     -45.496  37.758  27.869  1.00  0.00     0.158 HD
ENDBRANCH   6  20
ENDBRANCH   4   5
ENDBRANCH   1   4
BRANCH   1  23
ATOM     23  C   UNL     1     -47.128  30.451  22.208  1.00  0.00     0.024 C 
ATOM     24  C   UNL     1     -47.480  29.275  23.126  1.00  0.00    -0.021 C 
ATOM     25  C   UNL     1     -48.483  30.860  21.639  1.00  0.00     0.088 C 
ATOM     26  H   UNL     1     -46.471  30.092  21.403  1.00  0.00     0.037 H 
ATOM     27  C   UNL     1     -48.633  28.544  22.413  1.00  0.00     0.064 C 
ATOM     28  H   UNL     1     -46.621  28.611  23.268  1.00  0.00     0.029 H 
ATOM     29  H   UNL     1     -47.773  29.632  24.120  1.00  0.00     0.029 H 
ATOM     30  C   UNL     1     -49.163  29.515  21.341  1.00  0.00     0.101 C 
ATOM     31  H   UNL     1     -49.065  31.441  22.362  1.00  0.00     0.063 H 
ATOM     32  H   UNL     1     -48.219  27.655  21.916  1.00  0.00     0.056 H 
ATOM     33  H   UNL     1     -50.254  29.609  21.307  1.00  0.00     0.065 H 
BRANCH  25  34
ATOM     34  O   UNL     1     -48.356  31.613  20.435  1.00  0.00    -0.390 OA
ATOM     35  H   UNL     1     -47.787  31.109  19.826  1.00  0.00     0.211 HD
ENDBRANCH  25  34
BRANCH  27  36
ATOM     36  N   UNL     1     -49.654  28.058  23.329  1.00  0.00    -0.327 N 
ATOM     37  C   UNL     1     -50.985  28.396  23.259  1.00  0.00     0.007 A 
ATOM     38  C   UNL     1     -49.457  27.195  24.381  1.00  0.00     0.145 A 
ATOM     39  C   UNL     1     -51.645  27.742  24.277  1.00  0.00    -0.031 A 
ATOM     40  H   UNL     1     -51.355  29.069  22.495  1.00  0.00     0.082 H 
ATOM     41  C   UNL     1     -50.684  26.981  24.996  1.00  0.00     0.061 A 
ATOM     42  N   UNL     1     -48.281  26.655  24.746  1.00  0.00    -0.218 NA
ATOM     43  H   UNL     1     -52.707  27.801  24.480  1.00  0.00     0.065 H 
ATOM     44  C   UNL     1     -50.694  26.120  26.103  1.00  0.00     0.136 A 
ATOM     45  C   UNL     1     -48.419  25.850  25.814  1.00  0.00     0.120 A 
ATOM     46  N   UNL     1     -49.537  25.562  26.505  1.00  0.00    -0.219 NA
ATOM     47  H   UNL     1     -47.511  25.370  26.169  1.00  0.00     0.106 H 
BRANCH  44  48
ATOM     48  N   UNL     1     -51.836  25.818  26.831  1.00  0.00    -0.383 N 
ATOM     49  H   UNL     1     -51.744  25.934  27.831  1.00  0.00     0.158 HD
ATOM     50  H   UNL     1     -52.242  24.946  26.513  1.00  0.00     0.158 HD
ENDBRANCH  44  48
ENDBRANCH  27  36
BRANCH  30  51
ATOM     51  O   UNL     1     -48.748  29.058  20.041  1.00  0.00    -0.388 OA
ATOM     52  H   UNL     1     -47.891  28.610  20.202  1.00  0.00     0.211 HD
ENDBRANCH  30  51
ENDBRANCH   1  23
TORSDOF 8
ENDMDL
