MODEL 1
REMARK VINA RESULT:     -10.2      0.000      0.000
REMARK SMILES CNc1ccc2ccc(OCc3cncc(-n4cc(Cl)c5c(N)ncnc54)c3)cc2n1
REMARK SMILES IDX 11 1 10 4 9 5 3 6 4 7 31 8 5 9 30 11 6 12 29 14 7 15 8 17
REMARK SMILES IDX 2 20 1 22 12 26 13 27 28 28 14 29 16 31 15 33 17 35 18 36
REMARK SMILES IDX 27 37 19 38 21 40 26 41 20 42 22 43 25 44 24 45 23 47
REMARK H PARENT 11 2 11 3 4 10 5 13 29 16 7 18 8 19 2 21 1 23 1 24 1 25 13 30
REMARK H PARENT 28 32 15 34 18 39 25 46 23 48 23 49
REMARK Flexibility Score: inf
ROOT
ATOM      1  C   UNL     1     -46.649  36.789  26.864  1.00  0.00     0.115 C 
ATOM      2  H   UNL     1     -45.859  37.211  26.229  1.00  0.00     0.076 H 
ATOM      3  H   UNL     1     -47.593  37.099  26.401  1.00  0.00     0.076 H 
ENDROOT
BRANCH   1   4
ATOM      4  O   UNL     1     -46.626  37.363  28.172  1.00  0.00    -0.489 OA
BRANCH   4   5
ATOM      5  C   UNL     1     -45.587  38.185  28.514  1.00  0.00     0.122 A 
ATOM      6  C   UNL     1     -42.610  41.840  27.909  1.00  0.00     0.126 A 
ATOM      7  C   UNL     1     -41.940  41.567  29.093  1.00  0.00    -0.019 A 
ATOM      8  N   UNL     1     -43.657  41.105  27.487  1.00  0.00    -0.231 NA
ATOM      9  C   UNL     1     -42.347  40.482  29.862  1.00  0.00    -0.049 A 
ATOM     10  H   UNL     1     -41.124  42.198  29.428  1.00  0.00     0.066 H 
ATOM     11  C   UNL     1     -44.054  40.054  28.227  1.00  0.00     0.076 A 
ATOM     12  C   UNL     1     -43.421  39.699  29.435  1.00  0.00     0.001 A 
ATOM     13  H   UNL     1     -41.828  40.262  30.791  1.00  0.00     0.063 H 
ATOM     14  C   UNL     1     -45.127  39.286  27.791  1.00  0.00     0.007 A 
ATOM     15  C   UNL     1     -43.872  38.593  30.169  1.00  0.00    -0.049 A 
ATOM     16  H   UNL     1     -45.584  39.585  26.854  1.00  0.00     0.069 H 
ATOM     17  C   UNL     1     -44.949  37.841  29.705  1.00  0.00    -0.019 A 
ATOM     18  H   UNL     1     -43.389  38.309  31.101  1.00  0.00     0.063 H 
ATOM     19  H   UNL     1     -45.295  36.982  30.277  1.00  0.00     0.066 H 
BRANCH   6  20
ATOM     20  N   UNL     1     -42.268  42.920  27.093  1.00  0.00    -0.373 N 
ATOM     21  H   UNL     1     -41.682  43.502  27.692  1.00  0.00     0.161 HD
BRANCH  20  22
ATOM     22  C   UNL     1     -43.408  43.665  26.587  1.00  0.00     0.005 C 
ATOM     23  H   UNL     1     -43.977  43.086  25.853  1.00  0.00     0.045 H 
ATOM     24  H   UNL     1     -43.047  44.567  26.081  1.00  0.00     0.045 H 
ATOM     25  H   UNL     1     -44.075  43.981  27.397  1.00  0.00     0.045 H 
ENDBRANCH  20  22
ENDBRANCH   6  20
ENDBRANCH   4   5
ENDBRANCH   1   4
BRANCH   1  26
ATOM     26  C   UNL     1     -46.632  35.284  26.895  1.00  0.00     0.010 A 
ATOM     27  C   UNL     1     -45.950  34.599  27.891  1.00  0.00     0.034 A 
ATOM     28  C   UNL     1     -47.337  34.523  25.952  1.00  0.00    -0.028 A 
ATOM     29  N   UNL     1     -45.924  33.255  27.994  1.00  0.00    -0.262 NA
ATOM     30  H   UNL     1     -45.389  35.127  28.658  1.00  0.00     0.084 H 
ATOM     31  C   UNL     1     -47.326  33.120  26.015  1.00  0.00     0.066 A 
ATOM     32  H   UNL     1     -47.893  35.056  25.186  1.00  0.00     0.065 H 
ATOM     33  C   UNL     1     -46.605  32.546  27.057  1.00  0.00     0.051 A 
ATOM     34  H   UNL     1     -46.506  31.478  27.200  1.00  0.00     0.086 H 
BRANCH  31  35
ATOM     35  N   UNL     1     -48.021  32.327  25.046  1.00  0.00    -0.298 N 
ATOM     36  C   UNL     1     -49.387  32.087  25.050  1.00  0.00     0.031 A 
ATOM     37  C   UNL     1     -47.491  31.656  23.941  1.00  0.00     0.151 A 
ATOM     38  C   UNL     1     -49.712  31.299  23.973  1.00  0.00     0.072 A 
ATOM     39  H   UNL     1     -50.042  32.508  25.797  1.00  0.00     0.084 H 
ATOM     40  C   UNL     1     -48.526  31.017  23.261  1.00  0.00     0.080 A 
ATOM     41  N   UNL     1     -46.193  31.602  23.583  1.00  0.00    -0.218 NA
ATOM     42  Cl  UNL     1     -51.276  30.758  23.580  1.00  0.00    -0.082 Cl
ATOM     43  C   UNL     1     -48.184  30.290  22.110  1.00  0.00     0.137 A 
ATOM     44  C   UNL     1     -45.984  30.875  22.478  1.00  0.00     0.120 A 
ATOM     45  N   UNL     1     -46.894  30.224  21.738  1.00  0.00    -0.219 NA
ATOM     46  H   UNL     1     -44.954  30.801  22.140  1.00  0.00     0.106 H 
BRANCH  43  47
ATOM     47  N   UNL     1     -49.097  29.610  21.321  1.00  0.00    -0.383 N 
ATOM     48  H   UNL     1     -49.250  30.075  20.435  1.00  0.00     0.158 HD
ATOM     49  H   UNL     1     -49.014  28.603  21.309  1.00  0.00     0.158 HD
ENDBRANCH  43  47
ENDBRANCH  31  35
ENDBRANCH   1  26
TORSDOF 7
ENDMDL
MODEL 2
REMARK VINA RESULT:      -9.6      3.415     10.820
REMARK SMILES CNc1ccc2ccc(OCc3cncc(-n4cc(Cl)c5c(N)ncnc54)c3)cc2n1
REMARK SMILES IDX 11 1 10 4 9 5 3 6 4 7 31 8 5 9 30 11 6 12 29 14 7 15 8 17
REMARK SMILES IDX 2 20 1 22 12 26 13 27 28 28 14 29 16 31 15 33 17 35 18 36
REMARK SMILES IDX 27 37 19 38 21 40 26 41 20 42 22 43 25 44 24 45 23 47
REMARK H PARENT 11 2 11 3 4 10 5 13 29 16 7 18 8 19 2 21 1 23 1 24 1 25 13 30
REMARK H PARENT 28 32 15 34 18 39 25 46 23 48 23 49
REMARK Flexibility Score: inf
ROOT
ATOM      1  C   UNL     1     -47.085  35.447  26.323  1.00  0.00     0.115 C 
ATOM      2  H   UNL     1     -47.584  36.120  25.614  1.00  0.00     0.076 H 
ATOM      3  H   UNL     1     -46.190  35.085  25.803  1.00  0.00     0.076 H 
ENDROOT
BRANCH   1   4
ATOM      4  O   UNL     1     -47.889  34.298  26.601  1.00  0.00    -0.489 OA
BRANCH   4   5
ATOM      5  C   UNL     1     -47.702  33.165  25.858  1.00  0.00     0.122 A 
ATOM      6  C   UNL     1     -48.729  28.766  24.381  1.00  0.00     0.126 A 
ATOM      7  C   UNL     1     -47.650  28.743  23.509  1.00  0.00    -0.019 A 
ATOM      8  N   UNL     1     -49.014  29.836  25.148  1.00  0.00    -0.231 NA
ATOM      9  C   UNL     1     -46.817  29.855  23.438  1.00  0.00    -0.049 A 
ATOM     10  H   UNL     1     -47.466  27.883  22.876  1.00  0.00     0.066 H 
ATOM     11  C   UNL     1     -48.211  30.915  25.083  1.00  0.00     0.076 A 
ATOM     12  C   UNL     1     -47.088  30.970  24.235  1.00  0.00     0.001 A 
ATOM     13  H   UNL     1     -45.971  29.846  22.757  1.00  0.00     0.063 H 
ATOM     14  C   UNL     1     -48.495  32.017  25.880  1.00  0.00     0.007 A 
ATOM     15  C   UNL     1     -46.281  32.116  24.206  1.00  0.00    -0.049 A 
ATOM     16  H   UNL     1     -49.363  31.936  26.525  1.00  0.00     0.069 H 
ATOM     17  C   UNL     1     -46.590  33.206  25.017  1.00  0.00    -0.019 A 
ATOM     18  H   UNL     1     -45.411  32.168  23.556  1.00  0.00     0.063 H 
ATOM     19  H   UNL     1     -45.961  34.093  24.993  1.00  0.00     0.066 H 
BRANCH   6  20
ATOM     20  N   UNL     1     -49.615  27.693  24.495  1.00  0.00    -0.373 N 
ATOM     21  H   UNL     1     -49.024  26.874  24.357  1.00  0.00     0.161 HD
BRANCH  20  22
ATOM     22  C   UNL     1     -50.707  27.723  23.537  1.00  0.00     0.005 C 
ATOM     23  H   UNL     1     -51.598  27.215  23.921  1.00  0.00     0.045 H 
ATOM     24  H   UNL     1     -50.398  27.194  22.629  1.00  0.00     0.045 H 
ATOM     25  H   UNL     1     -50.967  28.749  23.253  1.00  0.00     0.045 H 
ENDBRANCH  20  22
ENDBRANCH   6  20
ENDBRANCH   4   5
ENDBRANCH   1   4
BRANCH   1  26
ATOM     26  C   UNL     1     -46.631  36.148  27.574  1.00  0.00     0.010 A 
ATOM     27  C   UNL     1     -47.002  35.683  28.828  1.00  0.00     0.034 A 
ATOM     28  C   UNL     1     -45.782  37.264  27.523  1.00  0.00    -0.028 A 
ATOM     29  N   UNL     1     -46.602  36.246  29.986  1.00  0.00    -0.262 NA
ATOM     30  H   UNL     1     -47.652  34.819  28.941  1.00  0.00     0.084 H 
ATOM     31  C   UNL     1     -45.352  37.888  28.704  1.00  0.00     0.066 A 
ATOM     32  H   UNL     1     -45.468  37.615  26.544  1.00  0.00     0.065 H 
ATOM     33  C   UNL     1     -45.793  37.333  29.902  1.00  0.00     0.051 A 
ATOM     34  H   UNL     1     -45.544  37.736  30.876  1.00  0.00     0.086 H 
BRANCH  31  35
ATOM     35  N   UNL     1     -44.505  39.043  28.669  1.00  0.00    -0.298 N 
ATOM     36  C   UNL     1     -43.486  39.306  29.572  1.00  0.00     0.031 A 
ATOM     37  C   UNL     1     -44.528  40.102  27.758  1.00  0.00     0.151 A 
ATOM     38  C   UNL     1     -42.875  40.489  29.234  1.00  0.00     0.072 A 
ATOM     39  H   UNL     1     -43.243  38.631  30.377  1.00  0.00     0.084 H 
ATOM     40  C   UNL     1     -43.520  41.005  28.089  1.00  0.00     0.080 A 
ATOM     41  N   UNL     1     -45.387  40.257  26.731  1.00  0.00    -0.218 NA
ATOM     42  Cl  UNL     1     -41.571  41.201  30.063  1.00  0.00    -0.082 Cl
ATOM     43  C   UNL     1     -43.385  42.141  27.276  1.00  0.00     0.137 A 
ATOM     44  C   UNL     1     -45.170  41.378  26.031  1.00  0.00     0.120 A 
ATOM     45  N   UNL     1     -44.233  42.314  26.248  1.00  0.00    -0.219 NA
ATOM     46  H   UNL     1     -45.831  41.553  25.187  1.00  0.00     0.106 H 
BRANCH  43  47
ATOM     47  N   UNL     1     -42.428  43.124  27.467  1.00  0.00    -0.383 N 
ATOM     48  H   UNL     1     -41.506  42.813  27.190  1.00  0.00     0.158 HD
ATOM     49  H   UNL     1     -42.698  44.065  27.213  1.00  0.00     0.158 HD
ENDBRANCH  43  47
ENDBRANCH  31  35
ENDBRANCH   1  26
TORSDOF 7
ENDMDL
MODEL 3
REMARK VINA RESULT:      -9.5      3.064     10.822
REMARK SMILES CNc1ccc2ccc(OCc3cncc(-n4cc(Cl)c5c(N)ncnc54)c3)cc2n1
REMARK SMILES IDX 11 1 10 4 9 5 3 6 4 7 31 8 5 9 30 11 6 12 29 14 7 15 8 17
REMARK SMILES IDX 2 20 1 22 12 26 13 27 28 28 14 29 16 31 15 33 17 35 18 36
REMARK SMILES IDX 27 37 19 38 21 40 26 41 20 42 22 43 25 44 24 45 23 47
REMARK H PARENT 11 2 11 3 4 10 5 13 29 16 7 18 8 19 2 21 1 23 1 24 1 25 13 30
REMARK H PARENT 28 32 15 34 18 39 25 46 23 48 23 49
REMARK Flexibility Score: inf
ROOT
ATOM      1  C   UNL     1     -45.823  34.462  27.648  1.00  0.00     0.115 C 
ATOM      2  H   UNL     1     -45.166  34.481  26.770  1.00  0.00     0.076 H 
ATOM      3  H   UNL     1     -45.395  33.708  28.319  1.00  0.00     0.076 H 
ENDROOT
BRANCH   1   4
ATOM      4  O   UNL     1     -47.135  34.009  27.306  1.00  0.00    -0.489 OA
BRANCH   4   5
ATOM      5  C   UNL     1     -47.274  33.095  26.297  1.00  0.00     0.122 A 
ATOM      6  C   UNL     1     -49.324  29.442  24.053  1.00  0.00     0.126 A 
ATOM      7  C   UNL     1     -48.402  29.484  23.017  1.00  0.00    -0.019 A 
ATOM      8  N   UNL     1     -49.289  30.305  25.086  1.00  0.00    -0.231 NA
ATOM      9  C   UNL     1     -47.390  30.437  23.055  1.00  0.00    -0.049 A 
ATOM     10  H   UNL     1     -48.478  28.801  22.178  1.00  0.00     0.066 H 
ATOM     11  C   UNL     1     -48.310  31.228  25.128  1.00  0.00     0.076 A 
ATOM     12  C   UNL     1     -47.327  31.332  24.125  1.00  0.00     0.001 A 
ATOM     13  H   UNL     1     -46.665  30.478  22.247  1.00  0.00     0.063 H 
ATOM     14  C   UNL     1     -48.263  32.115  26.197  1.00  0.00     0.007 A 
ATOM     15  C   UNL     1     -46.327  32.311  24.215  1.00  0.00    -0.049 A 
ATOM     16  H   UNL     1     -49.031  32.000  26.954  1.00  0.00     0.069 H 
ATOM     17  C   UNL     1     -46.304  33.185  25.300  1.00  0.00    -0.019 A 
ATOM     18  H   UNL     1     -45.562  32.398  23.447  1.00  0.00     0.063 H 
ATOM     19  H   UNL     1     -45.525  33.941  25.368  1.00  0.00     0.066 H 
BRANCH   6  20
ATOM     20  N   UNL     1     -50.376  28.523  24.075  1.00  0.00    -0.373 N 
ATOM     21  H   UNL     1     -50.498  28.317  25.066  1.00  0.00     0.161 HD
BRANCH  20  22
ATOM     22  C   UNL     1     -50.120  27.313  23.312  1.00  0.00     0.005 C 
ATOM     23  H   UNL     1     -49.284  27.440  22.617  1.00  0.00     0.045 H 
ATOM     24  H   UNL     1     -51.007  27.075  22.714  1.00  0.00     0.045 H 
ATOM     25  H   UNL     1     -49.922  26.457  23.968  1.00  0.00     0.045 H 
ENDBRANCH  20  22
ENDBRANCH   6  20
ENDBRANCH   4   5
ENDBRANCH   1   4
BRANCH   1  26
ATOM     26  C   UNL     1     -45.843  35.771  28.391  1.00  0.00     0.010 A 
ATOM     27  C   UNL     1     -46.343  35.851  29.683  1.00  0.00     0.034 A 
ATOM     28  C   UNL     1     -45.317  36.943  27.827  1.00  0.00    -0.028 A 
ATOM     29  N   UNL     1     -46.359  36.984  30.413  1.00  0.00    -0.262 NA
ATOM     30  H   UNL     1     -46.760  34.980  30.182  1.00  0.00     0.084 H 
ATOM     31  C   UNL     1     -45.324  38.147  28.548  1.00  0.00     0.066 A 
ATOM     32  H   UNL     1     -44.900  36.878  26.826  1.00  0.00     0.065 H 
ATOM     33  C   UNL     1     -45.856  38.104  29.833  1.00  0.00     0.051 A 
ATOM     34  H   UNL     1     -45.933  38.970  30.479  1.00  0.00     0.086 H 
BRANCH  31  35
ATOM     35  N   UNL     1     -44.813  39.358  27.979  1.00  0.00    -0.298 N 
ATOM     36  C   UNL     1     -45.267  39.934  26.802  1.00  0.00     0.031 A 
ATOM     37  C   UNL     1     -43.793  40.179  28.469  1.00  0.00     0.151 A 
ATOM     38  C   UNL     1     -44.564  41.089  26.562  1.00  0.00     0.072 A 
ATOM     39  H   UNL     1     -46.071  39.504  26.225  1.00  0.00     0.084 H 
ATOM     40  C   UNL     1     -43.629  41.260  27.605  1.00  0.00     0.080 A 
ATOM     41  N   UNL     1     -43.060  39.968  29.580  1.00  0.00    -0.218 NA
ATOM     42  Cl  UNL     1     -44.788  42.124  25.230  1.00  0.00    -0.082 Cl
ATOM     43  C   UNL     1     -42.644  42.202  27.939  1.00  0.00     0.137 A 
ATOM     44  C   UNL     1     -42.147  40.925  29.794  1.00  0.00     0.120 A 
ATOM     45  N   UNL     1     -41.902  42.009  29.043  1.00  0.00    -0.219 NA
ATOM     46  H   UNL     1     -41.529  40.809  30.679  1.00  0.00     0.106 H 
BRANCH  43  47
ATOM     47  N   UNL     1     -42.367  43.334  27.191  1.00  0.00    -0.383 N 
ATOM     48  H   UNL     1     -41.382  43.566  27.207  1.00  0.00     0.158 HD
ATOM     49  H   UNL     1     -42.850  43.414  26.306  1.00  0.00     0.158 HD
ENDBRANCH  43  47
ENDBRANCH  31  35
ENDBRANCH   1  26
TORSDOF 7
ENDMDL
MODEL 4
REMARK VINA RESULT:      -9.4      3.290     10.595
REMARK SMILES CNc1ccc2ccc(OCc3cncc(-n4cc(Cl)c5c(N)ncnc54)c3)cc2n1
REMARK SMILES IDX 11 1 10 4 9 5 3 6 4 7 31 8 5 9 30 11 6 12 29 14 7 15 8 17
REMARK SMILES IDX 2 20 1 22 12 26 13 27 28 28 14 29 16 31 15 33 17 35 18 36
REMARK SMILES IDX 27 37 19 38 21 40 26 41 20 42 22 43 25 44 24 45 23 47
REMARK H PARENT 11 2 11 3 4 10 5 13 29 16 7 18 8 19 2 21 1 23 1 24 1 25 13 30
REMARK H PARENT 28 32 15 34 18 39 25 46 23 48 23 49
REMARK Flexibility Score: inf
ROOT
ATOM      1  C   UNL     1     -46.071  35.163  27.882  1.00  0.00     0.115 C 
ATOM      2  H   UNL     1     -45.261  34.876  28.563  1.00  0.00     0.076 H 
ATOM      3  H   UNL     1     -46.957  34.620  28.235  1.00  0.00     0.076 H 
ENDROOT
BRANCH   1   4
ATOM      4  O   UNL     1     -45.816  34.710  26.551  1.00  0.00    -0.489 OA
BRANCH   4   5
ATOM      5  C   UNL     1     -46.694  33.835  25.972  1.00  0.00     0.122 A 
ATOM      6  C   UNL     1     -48.052  30.569  22.798  1.00  0.00     0.126 A 
ATOM      7  C   UNL     1     -49.322  30.475  23.350  1.00  0.00    -0.019 A 
ATOM      8  N   UNL     1     -47.107  31.387  23.299  1.00  0.00    -0.231 NA
ATOM      9  C   UNL     1     -49.640  31.269  24.447  1.00  0.00    -0.049 A 
ATOM     10  H   UNL     1     -50.052  29.779  22.950  1.00  0.00     0.066 H 
ATOM     11  C   UNL     1     -47.410  32.158  24.360  1.00  0.00     0.076 A 
ATOM     12  C   UNL     1     -48.678  32.134  24.972  1.00  0.00     0.001 A 
ATOM     13  H   UNL     1     -50.631  31.200  24.886  1.00  0.00     0.063 H 
ATOM     14  C   UNL     1     -46.441  33.011  24.874  1.00  0.00     0.007 A 
ATOM     15  C   UNL     1     -48.945  32.958  26.075  1.00  0.00    -0.049 A 
ATOM     16  H   UNL     1     -45.480  33.009  24.371  1.00  0.00     0.069 H 
ATOM     17  C   UNL     1     -47.954  33.805  26.568  1.00  0.00    -0.019 A 
ATOM     18  H   UNL     1     -49.921  32.948  26.554  1.00  0.00     0.063 H 
ATOM     19  H   UNL     1     -48.165  34.445  27.422  1.00  0.00     0.066 H 
BRANCH   6  20
ATOM     20  N   UNL     1     -47.657  29.793  21.706  1.00  0.00    -0.373 N 
ATOM     21  H   UNL     1     -47.075  30.425  21.157  1.00  0.00     0.161 HD
BRANCH  20  22
ATOM     22  C   UNL     1     -48.762  29.275  20.917  1.00  0.00     0.005 C 
ATOM     23  H   UNL     1     -48.554  28.269  20.539  1.00  0.00     0.045 H 
ATOM     24  H   UNL     1     -48.914  29.925  20.048  1.00  0.00     0.045 H 
ATOM     25  H   UNL     1     -49.696  29.263  21.490  1.00  0.00     0.045 H 
ENDBRANCH  20  22
ENDBRANCH   6  20
ENDBRANCH   4   5
ENDBRANCH   1   4
BRANCH   1  26
ATOM     26  C   UNL     1     -46.389  36.633  27.939  1.00  0.00     0.010 A 
ATOM     27  C   UNL     1     -47.693  37.075  28.111  1.00  0.00     0.034 A 
ATOM     28  C   UNL     1     -45.380  37.605  27.867  1.00  0.00    -0.028 A 
ATOM     29  N   UNL     1     -48.039  38.375  28.202  1.00  0.00    -0.262 NA
ATOM     30  H   UNL     1     -48.523  36.376  28.181  1.00  0.00     0.084 H 
ATOM     31  C   UNL     1     -45.698  38.970  27.947  1.00  0.00     0.066 A 
ATOM     32  H   UNL     1     -44.356  37.262  27.760  1.00  0.00     0.065 H 
ATOM     33  C   UNL     1     -47.041  39.292  28.115  1.00  0.00     0.051 A 
ATOM     34  H   UNL     1     -47.412  40.308  28.171  1.00  0.00     0.086 H 
BRANCH  31  35
ATOM     35  N   UNL     1     -44.683  39.977  27.851  1.00  0.00    -0.298 N 
ATOM     36  C   UNL     1     -43.617  40.113  28.726  1.00  0.00     0.031 A 
ATOM     37  C   UNL     1     -44.561  40.990  26.896  1.00  0.00     0.151 A 
ATOM     38  C   UNL     1     -42.837  41.172  28.330  1.00  0.00     0.072 A 
ATOM     39  H   UNL     1     -43.465  39.440  29.556  1.00  0.00     0.084 H 
ATOM     40  C   UNL     1     -43.418  41.737  27.174  1.00  0.00     0.080 A 
ATOM     41  N   UNL     1     -45.407  41.237  25.877  1.00  0.00    -0.218 NA
ATOM     42  Cl  UNL     1     -41.421  41.704  29.108  1.00  0.00    -0.082 Cl
ATOM     43  C   UNL     1     -43.126  42.805  26.312  1.00  0.00     0.137 A 
ATOM     44  C   UNL     1     -45.034  42.282  25.127  1.00  0.00     0.120 A 
ATOM     45  N   UNL     1     -43.959  43.068  25.290  1.00  0.00    -0.219 NA
ATOM     46  H   UNL     1     -45.678  42.524  24.287  1.00  0.00     0.106 H 
BRANCH  43  47
ATOM     47  N   UNL     1     -42.024  43.633  26.447  1.00  0.00    -0.383 N 
ATOM     48  H   UNL     1     -41.318  43.440  25.748  1.00  0.00     0.158 HD
ATOM     49  H   UNL     1     -42.218  44.604  26.657  1.00  0.00     0.158 HD
ENDBRANCH  43  47
ENDBRANCH  31  35
ENDBRANCH   1  26
TORSDOF 7
ENDMDL
MODEL 5
REMARK VINA RESULT:      -9.3      1.987      2.467
REMARK SMILES CNc1ccc2ccc(OCc3cncc(-n4cc(Cl)c5c(N)ncnc54)c3)cc2n1
REMARK SMILES IDX 11 1 10 4 9 5 3 6 4 7 31 8 5 9 30 11 6 12 29 14 7 15 8 17
REMARK SMILES IDX 2 20 1 22 12 26 13 27 28 28 14 29 16 31 15 33 17 35 18 36
REMARK SMILES IDX 27 37 19 38 21 40 26 41 20 42 22 43 25 44 24 45 23 47
REMARK H PARENT 11 2 11 3 4 10 5 13 29 16 7 18 8 19 2 21 1 23 1 24 1 25 13 30
REMARK H PARENT 28 32 15 34 18 39 25 46 23 48 23 49
REMARK Flexibility Score: inf
ROOT
ATOM      1  C   UNL     1     -46.557  36.256  26.559  1.00  0.00     0.115 C 
ATOM      2  H   UNL     1     -45.503  36.043  26.343  1.00  0.00     0.076 H 
ATOM      3  H   UNL     1     -46.862  37.006  25.820  1.00  0.00     0.076 H 
ENDROOT
BRANCH   1   4
ATOM      4  O   UNL     1     -46.712  36.860  27.845  1.00  0.00    -0.489 OA
BRANCH   4   5
ATOM      5  C   UNL     1     -45.752  37.730  28.285  1.00  0.00     0.122 A 
ATOM      6  C   UNL     1     -42.944  41.552  27.986  1.00  0.00     0.126 A 
ATOM      7  C   UNL     1     -42.360  41.293  29.217  1.00  0.00    -0.019 A 
ATOM      8  N   UNL     1     -43.910  40.770  27.466  1.00  0.00    -0.231 NA
ATOM      9  C   UNL     1     -42.768  40.173  29.934  1.00  0.00    -0.049 A 
ATOM     10  H   UNL     1     -41.612  41.961  29.629  1.00  0.00     0.066 H 
ATOM     11  C   UNL     1     -44.308  39.685  28.155  1.00  0.00     0.076 A 
ATOM     12  C   UNL     1     -43.758  39.341  29.406  1.00  0.00     0.001 A 
ATOM     13  H   UNL     1     -42.317  39.964  30.900  1.00  0.00     0.063 H 
ATOM     14  C   UNL     1     -45.296  38.868  27.619  1.00  0.00     0.007 A 
ATOM     15  C   UNL     1     -44.206  38.198  30.084  1.00  0.00    -0.049 A 
ATOM     16  H   UNL     1     -45.690  39.160  26.651  1.00  0.00     0.069 H 
ATOM     17  C   UNL     1     -45.198  37.398  29.520  1.00  0.00    -0.019 A 
ATOM     18  H   UNL     1     -43.787  37.924  31.049  1.00  0.00     0.063 H 
ATOM     19  H   UNL     1     -45.541  36.511  30.048  1.00  0.00     0.066 H 
BRANCH   6  20
ATOM     20  N   UNL     1     -42.596  42.665  27.217  1.00  0.00    -0.373 N 
ATOM     21  H   UNL     1     -41.628  42.850  27.482  1.00  0.00     0.161 HD
BRANCH  20  22
ATOM     22  C   UNL     1     -43.436  43.828  27.444  1.00  0.00     0.005 C 
ATOM     23  H   UNL     1     -44.477  43.639  27.161  1.00  0.00     0.045 H 
ATOM     24  H   UNL     1     -43.075  44.655  26.823  1.00  0.00     0.045 H 
ATOM     25  H   UNL     1     -43.398  44.156  28.489  1.00  0.00     0.045 H 
ENDBRANCH  20  22
ENDBRANCH   6  20
ENDBRANCH   4   5
ENDBRANCH   1   4
BRANCH   1  26
ATOM     26  C   UNL     1     -47.445  35.054  26.377  1.00  0.00     0.010 A 
ATOM     27  C   UNL     1     -48.733  35.034  26.895  1.00  0.00     0.034 A 
ATOM     28  C   UNL     1     -47.024  33.935  25.643  1.00  0.00    -0.028 A 
ATOM     29  N   UNL     1     -49.588  34.003  26.739  1.00  0.00    -0.262 NA
ATOM     30  H   UNL     1     -49.125  35.870  27.468  1.00  0.00     0.084 H 
ATOM     31  C   UNL     1     -47.879  32.835  25.466  1.00  0.00     0.066 A 
ATOM     32  H   UNL     1     -46.027  33.959  25.214  1.00  0.00     0.065 H 
ATOM     33  C   UNL     1     -49.145  32.929  26.035  1.00  0.00     0.051 A 
ATOM     34  H   UNL     1     -49.885  32.140  25.983  1.00  0.00     0.086 H 
BRANCH  31  35
ATOM     35  N   UNL     1     -47.457  31.675  24.740  1.00  0.00    -0.298 N 
ATOM     36  C   UNL     1     -46.536  31.680  23.704  1.00  0.00     0.031 A 
ATOM     37  C   UNL     1     -47.868  30.351  24.917  1.00  0.00     0.151 A 
ATOM     38  C   UNL     1     -46.361  30.396  23.247  1.00  0.00     0.072 A 
ATOM     39  H   UNL     1     -46.048  32.583  23.373  1.00  0.00     0.084 H 
ATOM     40  C   UNL     1     -47.193  29.543  24.003  1.00  0.00     0.080 A 
ATOM     41  N   UNL     1     -48.779  29.906  25.804  1.00  0.00    -0.218 NA
ATOM     42  Cl  UNL     1     -45.321  29.929  21.984  1.00  0.00    -0.082 Cl
ATOM     43  C   UNL     1     -47.475  28.169  24.034  1.00  0.00     0.137 A 
ATOM     44  C   UNL     1     -48.973  28.582  25.738  1.00  0.00     0.120 A 
ATOM     45  N   UNL     1     -48.382  27.706  24.911  1.00  0.00    -0.219 NA
ATOM     46  H   UNL     1     -49.696  28.168  26.434  1.00  0.00     0.106 H 
BRANCH  43  47
ATOM     47  N   UNL     1     -46.882  27.236  23.199  1.00  0.00    -0.383 N 
ATOM     48  H   UNL     1     -46.003  27.568  22.825  1.00  0.00     0.158 HD
ATOM     49  H   UNL     1     -46.923  26.273  23.506  1.00  0.00     0.158 HD
ENDBRANCH  43  47
ENDBRANCH  31  35
ENDBRANCH   1  26
TORSDOF 7
ENDMDL
MODEL 6
REMARK VINA RESULT:      -9.2      1.492      2.089
REMARK SMILES CNc1ccc2ccc(OCc3cncc(-n4cc(Cl)c5c(N)ncnc54)c3)cc2n1
REMARK SMILES IDX 11 1 10 4 9 5 3 6 4 7 31 8 5 9 30 11 6 12 29 14 7 15 8 17
REMARK SMILES IDX 2 20 1 22 12 26 13 27 28 28 14 29 16 31 15 33 17 35 18 36
REMARK SMILES IDX 27 37 19 38 21 40 26 41 20 42 22 43 25 44 24 45 23 47
REMARK H PARENT 11 2 11 3 4 10 5 13 29 16 7 18 8 19 2 21 1 23 1 24 1 25 13 30
REMARK H PARENT 28 32 15 34 18 39 25 46 23 48 23 49
REMARK Flexibility Score: inf
ROOT
ATOM      1  C   UNL     1     -47.564  36.945  27.245  1.00  0.00     0.115 C 
ATOM      2  H   UNL     1     -48.630  37.047  27.006  1.00  0.00     0.076 H 
ATOM      3  H   UNL     1     -47.454  37.333  28.265  1.00  0.00     0.076 H 
ENDROOT
BRANCH   1   4
ATOM      4  O   UNL     1     -46.761  37.775  26.402  1.00  0.00    -0.489 OA
BRANCH   4   5
ATOM      5  C   UNL     1     -45.808  38.571  26.976  1.00  0.00     0.122 A 
ATOM      6  C   UNL     1     -42.638  42.111  27.059  1.00  0.00     0.126 A 
ATOM      7  C   UNL     1     -42.293  41.850  28.377  1.00  0.00    -0.019 A 
ATOM      8  N   UNL     1     -43.575  41.398  26.404  1.00  0.00    -0.231 NA
ATOM      9  C   UNL     1     -42.918  40.801  29.042  1.00  0.00    -0.049 A 
ATOM     10  H   UNL     1     -41.562  42.464  28.892  1.00  0.00     0.066 H 
ATOM     11  C   UNL     1     -44.182  40.382  27.043  1.00  0.00     0.076 A 
ATOM     12  C   UNL     1     -43.882  40.041  28.376  1.00  0.00     0.001 A 
ATOM     13  H   UNL     1     -42.655  40.591  30.075  1.00  0.00     0.063 H 
ATOM     14  C   UNL     1     -45.142  39.637  26.368  1.00  0.00     0.007 A 
ATOM     15  C   UNL     1     -44.543  38.971  28.997  1.00  0.00    -0.049 A 
ATOM     16  H   UNL     1     -45.341  39.923  25.341  1.00  0.00     0.069 H 
ATOM     17  C   UNL     1     -45.500  38.241  28.295  1.00  0.00    -0.019 A 
ATOM     18  H   UNL     1     -44.317  38.699  30.025  1.00  0.00     0.063 H 
ATOM     19  H   UNL     1     -46.008  37.411  28.779  1.00  0.00     0.066 H 
BRANCH   6  20
ATOM     20  N   UNL     1     -42.063  43.156  26.333  1.00  0.00    -0.373 N 
ATOM     21  H   UNL     1     -41.507  43.657  27.026  1.00  0.00     0.161 HD
BRANCH  20  22
ATOM     22  C   UNL     1     -43.028  44.036  25.696  1.00  0.00     0.005 C 
ATOM     23  H   UNL     1     -43.768  44.411  26.410  1.00  0.00     0.045 H 
ATOM     24  H   UNL     1     -43.571  43.473  24.929  1.00  0.00     0.045 H 
ATOM     25  H   UNL     1     -42.537  44.883  25.202  1.00  0.00     0.045 H 
ENDBRANCH  20  22
ENDBRANCH   6  20
ENDBRANCH   4   5
ENDBRANCH   1   4
BRANCH   1  26
ATOM     26  C   UNL     1     -47.101  35.513  27.252  1.00  0.00     0.010 A 
ATOM     27  C   UNL     1     -46.500  34.963  28.376  1.00  0.00     0.034 A 
ATOM     28  C   UNL     1     -47.299  34.672  26.147  1.00  0.00    -0.028 A 
ATOM     29  N   UNL     1     -46.093  33.680  28.457  1.00  0.00    -0.262 NA
ATOM     30  H   UNL     1     -46.322  35.556  29.269  1.00  0.00     0.084 H 
ATOM     31  C   UNL     1     -46.880  33.333  26.185  1.00  0.00     0.066 A 
ATOM     32  H   UNL     1     -47.793  35.092  25.276  1.00  0.00     0.065 H 
ATOM     33  C   UNL     1     -46.286  32.896  27.366  1.00  0.00     0.051 A 
ATOM     34  H   UNL     1     -45.906  31.892  27.509  1.00  0.00     0.086 H 
BRANCH  31  35
ATOM     35  N   UNL     1     -47.053  32.467  25.057  1.00  0.00    -0.298 N 
ATOM     36  C   UNL     1     -46.023  31.979  24.268  1.00  0.00     0.031 A 
ATOM     37  C   UNL     1     -48.245  31.955  24.537  1.00  0.00     0.151 A 
ATOM     38  C   UNL     1     -46.547  31.173  23.287  1.00  0.00     0.072 A 
ATOM     39  H   UNL     1     -44.988  32.211  24.465  1.00  0.00     0.084 H 
ATOM     40  C   UNL     1     -47.950  31.146  23.442  1.00  0.00     0.080 A 
ATOM     41  N   UNL     1     -49.490  32.206  24.990  1.00  0.00    -0.218 NA
ATOM     42  Cl  UNL     1     -45.650  30.358  22.093  1.00  0.00    -0.082 Cl
ATOM     43  C   UNL     1     -49.031  30.535  22.788  1.00  0.00     0.137 A 
ATOM     44  C   UNL     1     -50.440  31.579  24.285  1.00  0.00     0.120 A 
ATOM     45  N   UNL     1     -50.279  30.774  23.224  1.00  0.00    -0.219 NA
ATOM     46  H   UNL     1     -51.464  31.741  24.609  1.00  0.00     0.106 H 
BRANCH  43  47
ATOM     47  N   UNL     1     -48.902  29.696  21.693  1.00  0.00    -0.383 N 
ATOM     48  H   UNL     1     -49.199  30.144  20.836  1.00  0.00     0.158 HD
ATOM     49  H   UNL     1     -48.061  29.135  21.657  1.00  0.00     0.158 HD
ENDBRANCH  43  47
ENDBRANCH  31  35
ENDBRANCH   1  26
TORSDOF 7
ENDMDL
MODEL 7
REMARK VINA RESULT:      -9.2      3.384     10.128
REMARK SMILES CNc1ccc2ccc(OCc3cncc(-n4cc(Cl)c5c(N)ncnc54)c3)cc2n1
REMARK SMILES IDX 11 1 10 4 9 5 3 6 4 7 31 8 5 9 30 11 6 12 29 14 7 15 8 17
REMARK SMILES IDX 2 20 1 22 12 26 13 27 28 28 14 29 16 31 15 33 17 35 18 36
REMARK SMILES IDX 27 37 19 38 21 40 26 41 20 42 22 43 25 44 24 45 23 47
REMARK H PARENT 11 2 11 3 4 10 5 13 29 16 7 18 8 19 2 21 1 23 1 24 1 25 13 30
REMARK H PARENT 28 32 15 34 18 39 25 46 23 48 23 49
REMARK Flexibility Score: inf
ROOT
ATOM      1  C   UNL     1     -47.312  36.419  28.482  1.00  0.00     0.115 C 
ATOM      2  H   UNL     1     -47.209  35.425  28.935  1.00  0.00     0.076 H 
ATOM      3  H   UNL     1     -48.256  36.821  28.867  1.00  0.00     0.076 H 
ENDROOT
BRANCH   1   4
ATOM      4  O   UNL     1     -47.453  36.330  27.062  1.00  0.00    -0.489 OA
BRANCH   4   5
ATOM      5  C   UNL     1     -47.634  35.099  26.493  1.00  0.00     0.122 A 
ATOM      6  C   UNL     1     -46.354  31.324  23.905  1.00  0.00     0.126 A 
ATOM      7  C   UNL     1     -47.569  30.690  24.120  1.00  0.00    -0.019 A 
ATOM      8  N   UNL     1     -46.066  32.530  24.431  1.00  0.00    -0.231 NA
ATOM      9  C   UNL     1     -48.536  31.330  24.889  1.00  0.00    -0.049 A 
ATOM     10  H   UNL     1     -47.760  29.703  23.716  1.00  0.00     0.066 H 
ATOM     11  C   UNL     1     -46.998  33.154  25.176  1.00  0.00     0.076 A 
ATOM     12  C   UNL     1     -48.262  32.587  25.433  1.00  0.00     0.001 A 
ATOM     13  H   UNL     1     -49.489  30.840  25.064  1.00  0.00     0.063 H 
ATOM     14  C   UNL     1     -46.710  34.402  25.713  1.00  0.00     0.007 A 
ATOM     15  C   UNL     1     -49.200  33.278  26.213  1.00  0.00    -0.049 A 
ATOM     16  H   UNL     1     -45.730  34.810  25.487  1.00  0.00     0.069 H 
ATOM     17  C   UNL     1     -48.882  34.530  26.738  1.00  0.00    -0.019 A 
ATOM     18  H   UNL     1     -50.178  32.850  26.416  1.00  0.00     0.063 H 
ATOM     19  H   UNL     1     -49.613  35.064  27.341  1.00  0.00     0.066 H 
BRANCH   6  20
ATOM     20  N   UNL     1     -45.332  30.737  23.156  1.00  0.00    -0.373 N 
ATOM     21  H   UNL     1     -44.778  31.531  22.836  1.00  0.00     0.161 HD
BRANCH  20  22
ATOM     22  C   UNL     1     -45.802  29.937  22.038  1.00  0.00     0.005 C 
ATOM     23  H   UNL     1     -44.971  29.537  21.448  1.00  0.00     0.045 H 
ATOM     24  H   UNL     1     -46.397  30.571  21.373  1.00  0.00     0.045 H 
ATOM     25  H   UNL     1     -46.441  29.112  22.373  1.00  0.00     0.045 H 
ENDBRANCH  20  22
ENDBRANCH   6  20
ENDBRANCH   4   5
ENDBRANCH   1   4
BRANCH   1  26
ATOM     26  C   UNL     1     -46.215  37.365  28.893  1.00  0.00     0.010 A 
ATOM     27  C   UNL     1     -45.513  37.172  30.075  1.00  0.00     0.034 A 
ATOM     28  C   UNL     1     -45.833  38.442  28.081  1.00  0.00    -0.028 A 
ATOM     29  N   UNL     1     -44.500  37.964  30.483  1.00  0.00    -0.262 NA
ATOM     30  H   UNL     1     -45.753  36.354  30.748  1.00  0.00     0.084 H 
ATOM     31  C   UNL     1     -44.791  39.297  28.473  1.00  0.00     0.066 A 
ATOM     32  H   UNL     1     -46.362  38.579  27.142  1.00  0.00     0.065 H 
ATOM     33  C   UNL     1     -44.164  39.006  29.681  1.00  0.00     0.051 A 
ATOM     34  H   UNL     1     -43.362  39.602  30.098  1.00  0.00     0.086 H 
BRANCH  31  35
ATOM     35  N   UNL     1     -44.403  40.416  27.667  1.00  0.00    -0.298 N 
ATOM     36  C   UNL     1     -43.094  40.795  27.415  1.00  0.00     0.031 A 
ATOM     37  C   UNL     1     -45.229  41.322  26.996  1.00  0.00     0.151 A 
ATOM     38  C   UNL     1     -43.091  41.900  26.598  1.00  0.00     0.072 A 
ATOM     39  H   UNL     1     -42.251  40.247  27.807  1.00  0.00     0.084 H 
ATOM     40  C   UNL     1     -44.431  42.246  26.323  1.00  0.00     0.080 A 
ATOM     41  N   UNL     1     -46.576  41.334  27.000  1.00  0.00    -0.218 NA
ATOM     42  Cl  UNL     1     -41.705  42.705  26.029  1.00  0.00    -0.082 Cl
ATOM     43  C   UNL     1     -45.090  43.240  25.582  1.00  0.00     0.137 A 
ATOM     44  C   UNL     1     -47.094  42.329  26.269  1.00  0.00     0.120 A 
ATOM     45  N   UNL     1     -46.433  43.269  25.575  1.00  0.00    -0.219 NA
ATOM     46  H   UNL     1     -48.178  42.385  26.233  1.00  0.00     0.106 H 
BRANCH  43  47
ATOM     47  N   UNL     1     -44.441  44.222  24.851  1.00  0.00    -0.383 N 
ATOM     48  H   UNL     1     -44.961  44.482  24.023  1.00  0.00     0.158 HD
ATOM     49  H   UNL     1     -44.013  44.966  25.386  1.00  0.00     0.158 HD
ENDBRANCH  43  47
ENDBRANCH  31  35
ENDBRANCH   1  26
TORSDOF 7
ENDMDL
