MODEL 1
REMARK VINA RESULT:     -10.0      0.000      0.000
REMARK SMILES CC(C)(C)C1CN(Cc2cc3ccc(CNC(=O)c4cc(=O)n5ccccc5n4)cc3[nH]2)C1
REMARK SMILES IDX 9 1 10 2 11 3 12 4 13 5 14 6 30 7 31 8 32 9 8 15 7 18 5 19
REMARK SMILES IDX 6 20 33 21 2 27 1 28 3 32 4 36 15 40 16 43 17 44 18 46 19 47
REMARK SMILES IDX 20 48 29 49 21 50 28 52 22 53 23 54 27 55 24 56 26 57 25 59
REMARK H PARENT 10 10 12 11 13 12 30 13 32 14 8 16 8 17 5 22 6 23 6 24 33 25
REMARK H PARENT 33 26 1 29 1 30 1 31 3 33 3 34 3 35 4 37 4 38 4 39 15 41 15 42
REMARK H PARENT 16 45 20 51 27 58 24 60 26 61 25 62
REMARK Flexibility Score: inf
ROOT
ATOM      1  C   UNL     1     -47.869  31.620  24.157  1.00  0.00     0.030 A 
ATOM      2  C   UNL     1     -46.602  32.039  24.519  1.00  0.00    -0.032 A 
ATOM      3  C   UNL     1     -46.736  33.105  25.449  1.00  0.00    -0.000 A 
ATOM      4  C   UNL     1     -45.822  33.927  26.132  1.00  0.00    -0.052 A 
ATOM      5  C   UNL     1     -46.306  34.917  26.997  1.00  0.00    -0.057 A 
ATOM      6  C   UNL     1     -47.681  35.095  27.201  1.00  0.00    -0.027 A 
ATOM      7  C   UNL     1     -48.602  34.282  26.520  1.00  0.00    -0.033 A 
ATOM      8  C   UNL     1     -48.100  33.298  25.658  1.00  0.00     0.046 A 
ATOM      9  N   UNL     1     -48.762  32.372  24.884  1.00  0.00    -0.357 N 
ATOM     10  H   UNL     1     -45.674  31.631  24.142  1.00  0.00     0.065 H 
ATOM     11  H   UNL     1     -44.753  33.804  25.988  1.00  0.00     0.063 H 
ATOM     12  H   UNL     1     -45.594  35.560  27.514  1.00  0.00     0.063 H 
ATOM     13  H   UNL     1     -49.671  34.410  26.655  1.00  0.00     0.065 H 
ATOM     14  H   UNL     1     -49.766  32.278  24.843  1.00  0.00     0.166 HD
ENDROOT
BRANCH   1  15
ATOM     15  C   UNL     1     -48.317  30.540  23.223  1.00  0.00     0.039 C 
ATOM     16  H   UNL     1     -48.962  30.992  22.458  1.00  0.00     0.050 H 
ATOM     17  H   UNL     1     -47.444  30.164  22.674  1.00  0.00     0.050 H 
BRANCH  15  18
ATOM     18  N   UNL     1     -49.028  29.382  23.782  1.00  0.00    -0.297 NA
ATOM     19  C   UNL     1     -47.870  27.948  24.858  1.00  0.00    -0.011 C 
ATOM     20  C   UNL     1     -48.780  29.155  25.212  1.00  0.00     0.003 C 
ATOM     21  C   UNL     1     -48.462  28.075  23.430  1.00  0.00     0.003 C 
ATOM     22  H   UNL     1     -46.812  28.256  24.859  1.00  0.00     0.033 H 
ATOM     23  H   UNL     1     -49.696  28.903  25.755  1.00  0.00     0.043 H 
ATOM     24  H   UNL     1     -48.296  29.961  25.773  1.00  0.00     0.043 H 
ATOM     25  H   UNL     1     -47.735  28.043  22.612  1.00  0.00     0.043 H 
ATOM     26  H   UNL     1     -49.240  27.343  23.183  1.00  0.00     0.043 H 
BRANCH  19  27
ATOM     27  C   UNL     1     -47.967  26.623  25.643  1.00  0.00    -0.033 C 
BRANCH  27  28
ATOM     28  C   UNL     1     -46.832  25.648  25.304  1.00  0.00    -0.060 C 
ATOM     29  H   UNL     1     -45.865  26.047  25.632  1.00  0.00     0.024 H 
ATOM     30  H   UNL     1     -46.755  25.467  24.227  1.00  0.00     0.024 H 
ATOM     31  H   UNL     1     -46.963  24.679  25.794  1.00  0.00     0.024 H 
ENDBRANCH  27  28
BRANCH  27  32
ATOM     32  C   UNL     1     -49.315  25.961  25.311  1.00  0.00    -0.060 C 
ATOM     33  H   UNL     1     -49.891  25.756  26.221  1.00  0.00     0.024 H 
ATOM     34  H   UNL     1     -49.171  25.004  24.796  1.00  0.00     0.024 H 
ATOM     35  H   UNL     1     -49.925  26.602  24.665  1.00  0.00     0.024 H 
ENDBRANCH  27  32
BRANCH  27  36
ATOM     36  C   UNL     1     -47.921  26.947  27.146  1.00  0.00    -0.060 C 
ATOM     37  H   UNL     1     -47.003  26.567  27.608  1.00  0.00     0.024 H 
ATOM     38  H   UNL     1     -48.765  26.491  27.675  1.00  0.00     0.024 H 
ATOM     39  H   UNL     1     -47.961  28.029  27.321  1.00  0.00     0.024 H 
ENDBRANCH  27  36
ENDBRANCH  19  27
ENDBRANCH  15  18
ENDBRANCH   1  15
BRANCH   6  40
ATOM     40  C   UNL     1     -48.167  36.192  28.115  1.00  0.00     0.043 C 
ATOM     41  H   UNL     1     -48.265  35.817  29.140  1.00  0.00     0.054 H 
ATOM     42  H   UNL     1     -49.158  36.540  27.800  1.00  0.00     0.054 H 
BRANCH  40  43
ATOM     43  N   UNL     1     -47.280  37.325  28.068  1.00  0.00    -0.347 N 
ATOM     44  C   UNL     1     -46.344  37.575  29.041  1.00  0.00     0.270 C 
ATOM     45  H   UNL     1     -47.151  37.820  27.192  1.00  0.00     0.164 HD
ATOM     46  O   UNL     1     -46.270  36.974  30.105  1.00  0.00    -0.268 OA
BRANCH  44  47
ATOM     47  C   UNL     1     -45.390  38.678  28.648  1.00  0.00     0.136 A 
ATOM     48  C   UNL     1     -45.666  39.325  27.513  1.00  0.00     0.035 A 
ATOM     49  N   UNL     1     -44.320  38.953  29.469  1.00  0.00    -0.225 NA
ATOM     50  C   UNL     1     -44.771  40.410  27.096  1.00  0.00     0.258 A 
ATOM     51  H   UNL     1     -46.512  39.100  26.877  1.00  0.00     0.071 H 
ATOM     52  C   UNL     1     -43.533  39.917  29.099  1.00  0.00     0.140 A 
ATOM     53  O   UNL     1     -45.012  41.008  26.048  1.00  0.00    -0.269 OA
ATOM     54  N   UNL     1     -43.703  40.671  27.942  1.00  0.00    -0.268 N 
ATOM     55  C   UNL     1     -42.363  40.255  29.959  1.00  0.00    -0.019 A 
ATOM     56  C   UNL     1     -42.812  41.689  27.615  1.00  0.00     0.014 A 
ATOM     57  C   UNL     1     -41.535  41.244  29.604  1.00  0.00    -0.057 A 
ATOM     58  H   UNL     1     -42.224  39.674  30.863  1.00  0.00     0.066 H 
ATOM     59  C   UNL     1     -41.764  41.986  28.393  1.00  0.00    -0.045 A 
ATOM     60  H   UNL     1     -43.005  42.237  26.696  1.00  0.00     0.082 H 
ATOM     61  H   UNL     1     -40.678  41.505  30.217  1.00  0.00     0.062 H 
ATOM     62  H   UNL     1     -41.076  42.783  28.128  1.00  0.00     0.064 H 
ENDBRANCH  44  47
ENDBRANCH  40  43
ENDBRANCH   6  40
TORSDOF 9
ENDMDL
MODEL 2
REMARK VINA RESULT:      -9.7      1.250      1.940
REMARK SMILES CC(C)(C)C1CN(Cc2cc3ccc(CNC(=O)c4cc(=O)n5ccccc5n4)cc3[nH]2)C1
REMARK SMILES IDX 9 1 10 2 11 3 12 4 13 5 14 6 30 7 31 8 32 9 8 15 7 18 5 19
REMARK SMILES IDX 6 20 33 21 2 27 1 28 3 32 4 36 15 40 16 43 17 44 18 46 19 47
REMARK SMILES IDX 20 48 29 49 21 50 28 52 22 53 23 54 27 55 24 56 26 57 25 59
REMARK H PARENT 10 10 12 11 13 12 30 13 32 14 8 16 8 17 5 22 6 23 6 24 33 25
REMARK H PARENT 33 26 1 29 1 30 1 31 3 33 3 34 3 35 4 37 4 38 4 39 15 41 15 42
REMARK H PARENT 16 45 20 51 27 58 24 60 26 61 25 62
REMARK Flexibility Score: inf
ROOT
ATOM      1  C   UNL     1     -47.869  31.181  23.636  1.00  0.00     0.030 A 
ATOM      2  C   UNL     1     -46.651  31.775  23.911  1.00  0.00    -0.032 A 
ATOM      3  C   UNL     1     -46.869  32.823  24.846  1.00  0.00    -0.000 A 
ATOM      4  C   UNL     1     -46.034  33.772  25.464  1.00  0.00    -0.052 A 
ATOM      5  C   UNL     1     -46.592  34.695  26.357  1.00  0.00    -0.057 A 
ATOM      6  C   UNL     1     -47.962  34.684  26.653  1.00  0.00    -0.027 A 
ATOM      7  C   UNL     1     -48.805  33.743  26.037  1.00  0.00    -0.033 A 
ATOM      8  C   UNL     1     -48.229  32.829  25.146  1.00  0.00     0.046 A 
ATOM      9  N   UNL     1     -48.807  31.811  24.421  1.00  0.00    -0.357 N 
ATOM     10  H   UNL     1     -45.702  31.495  23.473  1.00  0.00     0.065 H 
ATOM     11  H   UNL     1     -44.970  33.795  25.248  1.00  0.00     0.063 H 
ATOM     12  H   UNL     1     -45.943  35.436  26.824  1.00  0.00     0.063 H 
ATOM     13  H   UNL     1     -49.870  33.724  26.244  1.00  0.00     0.065 H 
ATOM     14  H   UNL     1     -49.789  31.579  24.448  1.00  0.00     0.166 HD
ENDROOT
BRANCH   1  15
ATOM     15  C   UNL     1     -48.225  30.039  22.737  1.00  0.00     0.039 C 
ATOM     16  H   UNL     1     -48.837  30.427  21.913  1.00  0.00     0.050 H 
ATOM     17  H   UNL     1     -47.308  29.667  22.260  1.00  0.00     0.050 H 
BRANCH  15  18
ATOM     18  N   UNL     1     -48.929  28.887  23.316  1.00  0.00    -0.297 NA
ATOM     19  C   UNL     1     -47.929  27.802  24.859  1.00  0.00    -0.011 C 
ATOM     20  C   UNL     1     -49.016  28.908  24.782  1.00  0.00     0.003 C 
ATOM     21  C   UNL     1     -48.163  27.635  23.334  1.00  0.00     0.003 C 
ATOM     22  H   UNL     1     -46.941  28.252  25.043  1.00  0.00     0.033 H 
ATOM     23  H   UNL     1     -50.007  28.611  25.140  1.00  0.00     0.043 H 
ATOM     24  H   UNL     1     -48.770  29.847  25.288  1.00  0.00     0.043 H 
ATOM     25  H   UNL     1     -47.258  27.587  22.719  1.00  0.00     0.043 H 
ATOM     26  H   UNL     1     -48.777  26.773  23.050  1.00  0.00     0.043 H 
BRANCH  19  27
ATOM     27  C   UNL     1     -48.079  26.605  25.821  1.00  0.00    -0.033 C 
BRANCH  27  28
ATOM     28  C   UNL     1     -49.427  25.889  25.672  1.00  0.00    -0.060 C 
ATOM     29  H   UNL     1     -49.676  25.335  26.585  1.00  0.00     0.024 H 
ATOM     30  H   UNL     1     -49.419  25.166  24.850  1.00  0.00     0.024 H 
ATOM     31  H   UNL     1     -50.246  26.590  25.488  1.00  0.00     0.024 H 
ENDBRANCH  27  28
BRANCH  27  32
ATOM     32  C   UNL     1     -47.942  27.124  27.263  1.00  0.00    -0.060 C 
ATOM     33  H   UNL     1     -47.420  26.398  27.897  1.00  0.00     0.024 H 
ATOM     34  H   UNL     1     -48.924  27.303  27.716  1.00  0.00     0.024 H 
ATOM     35  H   UNL     1     -47.381  28.064  27.296  1.00  0.00     0.024 H 
ENDBRANCH  27  32
BRANCH  27  36
ATOM     36  C   UNL     1     -46.944  25.609  25.534  1.00  0.00    -0.060 C 
ATOM     37  H   UNL     1     -46.154  25.675  26.291  1.00  0.00     0.024 H 
ATOM     38  H   UNL     1     -46.479  25.807  24.562  1.00  0.00     0.024 H 
ATOM     39  H   UNL     1     -47.313  24.577  25.524  1.00  0.00     0.024 H 
ENDBRANCH  27  36
ENDBRANCH  19  27
ENDBRANCH  15  18
ENDBRANCH   1  15
BRANCH   6  40
ATOM     40  C   UNL     1     -48.533  35.714  27.596  1.00  0.00     0.043 C 
ATOM     41  H   UNL     1     -48.777  35.253  28.560  1.00  0.00     0.054 H 
ATOM     42  H   UNL     1     -49.463  36.129  27.189  1.00  0.00     0.054 H 
BRANCH  40  43
ATOM     43  N   UNL     1     -47.615  36.809  27.770  1.00  0.00    -0.347 N 
ATOM     44  C   UNL     1     -46.760  36.896  28.841  1.00  0.00     0.270 C 
ATOM     45  H   UNL     1     -47.399  37.407  26.981  1.00  0.00     0.164 HD
ATOM     46  O   UNL     1     -46.793  36.160  29.819  1.00  0.00    -0.268 OA
BRANCH  44  47
ATOM     47  C   UNL     1     -45.746  38.004  28.676  1.00  0.00     0.136 A 
ATOM     48  C   UNL     1     -44.874  38.165  29.674  1.00  0.00     0.035 A 
ATOM     49  N   UNL     1     -45.774  38.761  27.527  1.00  0.00    -0.225 NA
ATOM     50  C   UNL     1     -43.866  39.223  29.552  1.00  0.00     0.258 A 
ATOM     51  H   UNL     1     -44.862  37.560  30.571  1.00  0.00     0.071 H 
ATOM     52  C   UNL     1     -44.876  39.693  27.421  1.00  0.00     0.140 A 
ATOM     53  O   UNL     1     -43.062  39.384  30.470  1.00  0.00    -0.269 OA
ATOM     54  N   UNL     1     -43.911  39.969  28.383  1.00  0.00    -0.268 N 
ATOM     55  C   UNL     1     -44.864  40.536  26.191  1.00  0.00    -0.019 A 
ATOM     56  C   UNL     1     -42.984  40.989  28.194  1.00  0.00     0.014 A 
ATOM     57  C   UNL     1     -43.951  41.504  26.053  1.00  0.00    -0.057 A 
ATOM     58  H   UNL     1     -45.611  40.327  25.435  1.00  0.00     0.066 H 
ATOM     59  C   UNL     1     -42.978  41.741  27.086  1.00  0.00    -0.045 A 
ATOM     60  H   UNL     1     -42.258  41.149  28.987  1.00  0.00     0.082 H 
ATOM     61  H   UNL     1     -43.925  42.128  25.165  1.00  0.00     0.062 H 
ATOM     62  H   UNL     1     -42.249  42.534  26.950  1.00  0.00     0.064 H 
ENDBRANCH  44  47
ENDBRANCH  40  43
ENDBRANCH   6  40
TORSDOF 9
ENDMDL
MODEL 3
REMARK VINA RESULT:      -9.6      2.010      3.330
REMARK SMILES CC(C)(C)C1CN(Cc2cc3ccc(CNC(=O)c4cc(=O)n5ccccc5n4)cc3[nH]2)C1
REMARK SMILES IDX 9 1 10 2 11 3 12 4 13 5 14 6 30 7 31 8 32 9 8 15 7 18 5 19
REMARK SMILES IDX 6 20 33 21 2 27 1 28 3 32 4 36 15 40 16 43 17 44 18 46 19 47
REMARK SMILES IDX 20 48 29 49 21 50 28 52 22 53 23 54 27 55 24 56 26 57 25 59
REMARK H PARENT 10 10 12 11 13 12 30 13 32 14 8 16 8 17 5 22 6 23 6 24 33 25
REMARK H PARENT 33 26 1 29 1 30 1 31 3 33 3 34 3 35 4 37 4 38 4 39 15 41 15 42
REMARK H PARENT 16 45 20 51 27 58 24 60 26 61 25 62
REMARK Flexibility Score: inf
ROOT
ATOM      1  C   UNL     1     -47.070  32.885  25.474  1.00  0.00     0.030 A 
ATOM      2  C   UNL     1     -48.195  33.586  25.866  1.00  0.00    -0.032 A 
ATOM      3  C   UNL     1     -47.784  34.641  26.725  1.00  0.00    -0.000 A 
ATOM      4  C   UNL     1     -48.466  35.646  27.435  1.00  0.00    -0.052 A 
ATOM      5  C   UNL     1     -47.733  36.548  28.217  1.00  0.00    -0.057 A 
ATOM      6  C   UNL     1     -46.336  36.473  28.296  1.00  0.00    -0.027 A 
ATOM      7  C   UNL     1     -45.646  35.470  27.594  1.00  0.00    -0.033 A 
ATOM      8  C   UNL     1     -46.396  34.576  26.818  1.00  0.00     0.046 A 
ATOM      9  N   UNL     1     -45.987  33.522  26.033  1.00  0.00    -0.357 N 
ATOM     10  H   UNL     1     -49.212  33.355  25.577  1.00  0.00     0.065 H 
ATOM     11  H   UNL     1     -49.548  35.720  27.386  1.00  0.00     0.063 H 
ATOM     12  H   UNL     1     -48.267  37.316  28.775  1.00  0.00     0.063 H 
ATOM     13  H   UNL     1     -44.565  35.388  27.649  1.00  0.00     0.065 H 
ATOM     14  H   UNL     1     -45.024  33.245  25.909  1.00  0.00     0.166 HD
ENDROOT
BRANCH   1  15
ATOM     15  C   UNL     1     -46.915  31.695  24.579  1.00  0.00     0.039 C 
ATOM     16  H   UNL     1     -46.170  31.937  23.811  1.00  0.00     0.050 H 
ATOM     17  H   UNL     1     -46.473  30.873  25.157  1.00  0.00     0.050 H 
BRANCH  15  18
ATOM     18  N   UNL     1     -48.108  31.173  23.898  1.00  0.00    -0.297 NA
ATOM     19  C   UNL     1     -48.565  29.106  24.171  1.00  0.00    -0.011 C 
ATOM     20  C   UNL     1     -49.038  30.454  24.779  1.00  0.00     0.003 C 
ATOM     21  C   UNL     1     -47.884  29.975  23.081  1.00  0.00     0.003 C 
ATOM     22  H   UNL     1     -47.803  28.644  24.818  1.00  0.00     0.033 H 
ATOM     23  H   UNL     1     -50.082  30.714  24.576  1.00  0.00     0.043 H 
ATOM     24  H   UNL     1     -48.894  30.560  25.859  1.00  0.00     0.043 H 
ATOM     25  H   UNL     1     -46.848  29.711  22.845  1.00  0.00     0.043 H 
ATOM     26  H   UNL     1     -48.418  30.023  22.125  1.00  0.00     0.043 H 
BRANCH  19  27
ATOM     27  C   UNL     1     -49.578  28.006  23.791  1.00  0.00    -0.033 C 
BRANCH  27  28
ATOM     28  C   UNL     1     -51.035  28.459  23.952  1.00  0.00    -0.060 C 
ATOM     29  H   UNL     1     -51.274  28.632  25.008  1.00  0.00     0.024 H 
ATOM     30  H   UNL     1     -51.741  27.710  23.582  1.00  0.00     0.024 H 
ATOM     31  H   UNL     1     -51.235  29.393  23.420  1.00  0.00     0.024 H 
ENDBRANCH  27  28
BRANCH  27  32
ATOM     32  C   UNL     1     -49.328  26.786  24.694  1.00  0.00    -0.060 C 
ATOM     33  H   UNL     1     -50.242  26.195  24.824  1.00  0.00     0.024 H 
ATOM     34  H   UNL     1     -48.994  27.092  25.692  1.00  0.00     0.024 H 
ATOM     35  H   UNL     1     -48.561  26.128  24.270  1.00  0.00     0.024 H 
ENDBRANCH  27  32
BRANCH  27  36
ATOM     36  C   UNL     1     -49.333  27.607  22.326  1.00  0.00    -0.060 C 
ATOM     37  H   UNL     1     -48.962  26.579  22.250  1.00  0.00     0.024 H 
ATOM     38  H   UNL     1     -48.586  28.259  21.858  1.00  0.00     0.024 H 
ATOM     39  H   UNL     1     -50.253  27.676  21.735  1.00  0.00     0.024 H 
ENDBRANCH  27  36
ENDBRANCH  19  27
ENDBRANCH  15  18
ENDBRANCH   1  15
BRANCH   6  40
ATOM     40  C   UNL     1     -45.582  37.441  29.174  1.00  0.00     0.043 C 
ATOM     41  H   UNL     1     -44.866  36.904  29.806  1.00  0.00     0.054 H 
ATOM     42  H   UNL     1     -46.273  37.968  29.841  1.00  0.00     0.054 H 
BRANCH  40  43
ATOM     43  N   UNL     1     -44.914  38.436  28.376  1.00  0.00    -0.347 N 
ATOM     44  C   UNL     1     -45.501  39.629  28.033  1.00  0.00     0.270 C 
ATOM     45  H   UNL     1     -43.907  38.389  28.263  1.00  0.00     0.164 HD
ATOM     46  O   UNL     1     -46.678  39.905  28.225  1.00  0.00    -0.268 OA
BRANCH  44  47
ATOM     47  C   UNL     1     -44.521  40.588  27.398  1.00  0.00     0.136 A 
ATOM     48  C   UNL     1     -43.382  40.798  28.062  1.00  0.00     0.035 A 
ATOM     49  N   UNL     1     -44.848  41.169  26.194  1.00  0.00    -0.225 NA
ATOM     50  C   UNL     1     -42.396  41.715  27.479  1.00  0.00     0.258 A 
ATOM     51  H   UNL     1     -43.136  40.332  29.007  1.00  0.00     0.071 H 
ATOM     52  C   UNL     1     -43.971  41.976  25.679  1.00  0.00     0.140 A 
ATOM     53  O   UNL     1     -41.346  41.921  28.086  1.00  0.00    -0.269 OA
ATOM     54  N   UNL     1     -42.747  42.284  26.263  1.00  0.00    -0.268 N 
ATOM     55  C   UNL     1     -44.279  42.626  24.373  1.00  0.00    -0.019 A 
ATOM     56  C   UNL     1     -41.861  43.162  25.645  1.00  0.00     0.014 A 
ATOM     57  C   UNL     1     -43.395  43.462  23.817  1.00  0.00    -0.057 A 
ATOM     58  H   UNL     1     -45.230  42.390  23.910  1.00  0.00     0.066 H 
ATOM     59  C   UNL     1     -42.145  43.741  24.472  1.00  0.00    -0.045 A 
ATOM     60  H   UNL     1     -40.923  43.358  26.158  1.00  0.00     0.082 H 
ATOM     61  H   UNL     1     -43.600  43.945  22.867  1.00  0.00     0.062 H 
ATOM     62  H   UNL     1     -41.446  44.424  24.000  1.00  0.00     0.064 H 
ENDBRANCH  44  47
ENDBRANCH  40  43
ENDBRANCH   6  40
TORSDOF 9
ENDMDL
MODEL 4
REMARK VINA RESULT:      -9.3      1.568      2.370
REMARK SMILES CC(C)(C)C1CN(Cc2cc3ccc(CNC(=O)c4cc(=O)n5ccccc5n4)cc3[nH]2)C1
REMARK SMILES IDX 9 1 10 2 11 3 12 4 13 5 14 6 30 7 31 8 32 9 8 15 7 18 5 19
REMARK SMILES IDX 6 20 33 21 2 27 1 28 3 32 4 36 15 40 16 43 17 44 18 46 19 47
REMARK SMILES IDX 20 48 29 49 21 50 28 52 22 53 23 54 27 55 24 56 26 57 25 59
REMARK H PARENT 10 10 12 11 13 12 30 13 32 14 8 16 8 17 5 22 6 23 6 24 33 25
REMARK H PARENT 33 26 1 29 1 30 1 31 3 33 3 34 3 35 4 37 4 38 4 39 15 41 15 42
REMARK H PARENT 16 45 20 51 27 58 24 60 26 61 25 62
REMARK Flexibility Score: inf
ROOT
ATOM      1  C   UNL     1     -46.655  31.745  24.378  1.00  0.00     0.030 A 
ATOM      2  C   UNL     1     -47.807  32.487  24.565  1.00  0.00    -0.032 A 
ATOM      3  C   UNL     1     -47.597  33.363  25.663  1.00  0.00    -0.000 A 
ATOM      4  C   UNL     1     -48.396  34.316  26.321  1.00  0.00    -0.052 A 
ATOM      5  C   UNL     1     -47.865  35.022  27.407  1.00  0.00    -0.057 A 
ATOM      6  C   UNL     1     -46.552  34.803  27.844  1.00  0.00    -0.027 A 
ATOM      7  C   UNL     1     -45.747  33.850  27.197  1.00  0.00    -0.033 A 
ATOM      8  C   UNL     1     -46.296  33.153  26.113  1.00  0.00     0.046 A 
ATOM      9  N   UNL     1     -45.740  32.188  25.304  1.00  0.00    -0.357 N 
ATOM     10  H   UNL     1     -48.713  32.399  23.980  1.00  0.00     0.065 H 
ATOM     11  H   UNL     1     -49.416  34.501  25.996  1.00  0.00     0.063 H 
ATOM     12  H   UNL     1     -48.493  35.750  27.921  1.00  0.00     0.063 H 
ATOM     13  H   UNL     1     -44.731  33.658  27.526  1.00  0.00     0.065 H 
ATOM     14  H   UNL     1     -44.797  31.841  25.398  1.00  0.00     0.166 HD
ENDROOT
BRANCH   1  15
ATOM     15  C   UNL     1     -46.320  30.687  23.374  1.00  0.00     0.039 C 
ATOM     16  H   UNL     1     -46.235  31.162  22.388  1.00  0.00     0.050 H 
ATOM     17  H   UNL     1     -45.315  30.300  23.591  1.00  0.00     0.050 H 
BRANCH  15  18
ATOM     18  N   UNL     1     -47.224  29.537  23.241  1.00  0.00    -0.297 NA
ATOM     19  C   UNL     1     -47.436  28.257  24.936  1.00  0.00    -0.011 C 
ATOM     20  C   UNL     1     -48.229  29.434  24.308  1.00  0.00     0.003 C 
ATOM     21  C   UNL     1     -46.640  28.241  23.604  1.00  0.00     0.003 C 
ATOM     22  H   UNL     1     -46.796  28.623  25.755  1.00  0.00     0.033 H 
ATOM     23  H   UNL     1     -49.218  29.172  23.918  1.00  0.00     0.043 H 
ATOM     24  H   UNL     1     -48.369  30.306  24.954  1.00  0.00     0.043 H 
ATOM     25  H   UNL     1     -45.551  28.188  23.705  1.00  0.00     0.043 H 
ATOM     26  H   UNL     1     -46.926  27.449  22.902  1.00  0.00     0.043 H 
BRANCH  19  27
ATOM     27  C   UNL     1     -48.159  26.992  25.444  1.00  0.00    -0.033 C 
BRANCH  27  28
ATOM     28  C   UNL     1     -48.745  27.168  26.851  1.00  0.00    -0.060 C 
ATOM     29  H   UNL     1     -49.822  27.368  26.802  1.00  0.00     0.024 H 
ATOM     30  H   UNL     1     -48.287  28.007  27.384  1.00  0.00     0.024 H 
ATOM     31  H   UNL     1     -48.611  26.273  27.466  1.00  0.00     0.024 H 
ENDBRANCH  27  28
BRANCH  27  32
ATOM     32  C   UNL     1     -47.149  25.831  25.461  1.00  0.00    -0.060 C 
ATOM     33  H   UNL     1     -47.657  24.863  25.384  1.00  0.00     0.024 H 
ATOM     34  H   UNL     1     -46.571  25.821  26.393  1.00  0.00     0.024 H 
ATOM     35  H   UNL     1     -46.442  25.907  24.628  1.00  0.00     0.024 H 
ENDBRANCH  27  32
BRANCH  27  36
ATOM     36  C   UNL     1     -49.294  26.657  24.463  1.00  0.00    -0.060 C 
ATOM     37  H   UNL     1     -49.744  25.684  24.690  1.00  0.00     0.024 H 
ATOM     38  H   UNL     1     -48.927  26.613  23.431  1.00  0.00     0.024 H 
ATOM     39  H   UNL     1     -50.090  27.411  24.502  1.00  0.00     0.024 H 
ENDBRANCH  27  36
ENDBRANCH  19  27
ENDBRANCH  15  18
ENDBRANCH   1  15
BRANCH   6  40
ATOM     40  C   UNL     1     -46.023  35.558  29.039  1.00  0.00     0.043 C 
ATOM     41  H   UNL     1     -45.355  34.919  29.628  1.00  0.00     0.054 H 
ATOM     42  H   UNL     1     -46.848  35.859  29.695  1.00  0.00     0.054 H 
BRANCH  40  43
ATOM     43  N   UNL     1     -45.347  36.759  28.622  1.00  0.00    -0.347 N 
ATOM     44  C   UNL     1     -45.963  37.986  28.595  1.00  0.00     0.270 C 
ATOM     45  H   UNL     1     -44.333  36.771  28.584  1.00  0.00     0.164 HD
ATOM     46  O   UNL     1     -47.163  38.165  28.762  1.00  0.00    -0.268 OA
BRANCH  44  47
ATOM     47  C   UNL     1     -44.986  39.111  28.349  1.00  0.00     0.136 A 
ATOM     48  C   UNL     1     -44.078  39.329  29.303  1.00  0.00     0.035 A 
ATOM     49  N   UNL     1     -45.081  39.827  27.176  1.00  0.00    -0.225 NA
ATOM     50  C   UNL     1     -43.103  40.407  29.103  1.00  0.00     0.258 A 
ATOM     51  H   UNL     1     -44.013  38.757  30.219  1.00  0.00     0.071 H 
ATOM     52  C   UNL     1     -44.213  40.776  27.001  1.00  0.00     0.140 A 
ATOM     53  O   UNL     1     -42.266  40.619  29.979  1.00  0.00    -0.269 OA
ATOM     54  N   UNL     1     -43.216  41.109  27.912  1.00  0.00    -0.268 N 
ATOM     55  C   UNL     1     -44.273  41.575  25.744  1.00  0.00    -0.019 A 
ATOM     56  C   UNL     1     -42.324  42.144  27.649  1.00  0.00     0.014 A 
ATOM     57  C   UNL     1     -43.392  42.560  25.535  1.00  0.00    -0.057 A 
ATOM     58  H   UNL     1     -45.045  41.322  25.028  1.00  0.00     0.066 H 
ATOM     59  C   UNL     1     -42.384  42.857  26.517  1.00  0.00    -0.045 A 
ATOM     60  H   UNL     1     -41.570  42.350  28.405  1.00  0.00     0.082 H 
ATOM     61  H   UNL     1     -43.419  43.153  24.626  1.00  0.00     0.062 H 
ATOM     62  H   UNL     1     -41.682  43.662  26.323  1.00  0.00     0.064 H 
ENDBRANCH  44  47
ENDBRANCH  40  43
ENDBRANCH   6  40
TORSDOF 9
ENDMDL
MODEL 5
REMARK VINA RESULT:      -9.3      3.321     11.560
REMARK SMILES CC(C)(C)C1CN(Cc2cc3ccc(CNC(=O)c4cc(=O)n5ccccc5n4)cc3[nH]2)C1
REMARK SMILES IDX 9 1 10 2 11 3 12 4 13 5 14 6 30 7 31 8 32 9 8 15 7 18 5 19
REMARK SMILES IDX 6 20 33 21 2 27 1 28 3 32 4 36 15 40 16 43 17 44 18 46 19 47
REMARK SMILES IDX 20 48 29 49 21 50 28 52 22 53 23 54 27 55 24 56 26 57 25 59
REMARK H PARENT 10 10 12 11 13 12 30 13 32 14 8 16 8 17 5 22 6 23 6 24 33 25
REMARK H PARENT 33 26 1 29 1 30 1 31 3 33 3 34 3 35 4 37 4 38 4 39 15 41 15 42
REMARK H PARENT 16 45 20 51 27 58 24 60 26 61 25 62
REMARK Flexibility Score: inf
ROOT
ATOM      1  C   UNL     1     -45.575  38.680  27.774  1.00  0.00     0.030 A 
ATOM      2  C   UNL     1     -46.869  38.393  27.382  1.00  0.00    -0.032 A 
ATOM      3  C   UNL     1     -47.004  36.982  27.295  1.00  0.00    -0.000 A 
ATOM      4  C   UNL     1     -48.055  36.120  26.930  1.00  0.00    -0.052 A 
ATOM      5  C   UNL     1     -47.842  34.736  26.948  1.00  0.00    -0.057 A 
ATOM      6  C   UNL     1     -46.607  34.195  27.331  1.00  0.00    -0.027 A 
ATOM      7  C   UNL     1     -45.550  35.047  27.693  1.00  0.00    -0.033 A 
ATOM      8  C   UNL     1     -45.781  36.429  27.668  1.00  0.00     0.046 A 
ATOM      9  N   UNL     1     -44.942  37.476  27.976  1.00  0.00    -0.357 N 
ATOM     10  H   UNL     1     -47.636  39.124  27.164  1.00  0.00     0.065 H 
ATOM     11  H   UNL     1     -49.019  36.520  26.632  1.00  0.00     0.063 H 
ATOM     12  H   UNL     1     -48.655  34.074  26.653  1.00  0.00     0.063 H 
ATOM     13  H   UNL     1     -44.583  34.650  27.983  1.00  0.00     0.065 H 
ATOM     14  H   UNL     1     -43.987  37.368  28.285  1.00  0.00     0.166 HD
ENDROOT
BRANCH   1  15
ATOM     15  C   UNL     1     -44.891  39.987  28.025  1.00  0.00     0.039 C 
ATOM     16  H   UNL     1     -45.658  40.768  28.106  1.00  0.00     0.050 H 
ATOM     17  H   UNL     1     -44.415  39.952  29.014  1.00  0.00     0.050 H 
BRANCH  15  18
ATOM     18  N   UNL     1     -43.884  40.446  27.059  1.00  0.00    -0.297 NA
ATOM     19  C   UNL     1     -44.074  42.439  26.318  1.00  0.00    -0.011 C 
ATOM     20  C   UNL     1     -43.243  41.719  27.415  1.00  0.00     0.003 C 
ATOM     21  C   UNL     1     -44.425  41.013  25.818  1.00  0.00     0.003 C 
ATOM     22  H   UNL     1     -44.962  42.914  26.764  1.00  0.00     0.033 H 
ATOM     23  H   UNL     1     -42.162  41.700  27.241  1.00  0.00     0.043 H 
ATOM     24  H   UNL     1     -43.389  42.089  28.435  1.00  0.00     0.043 H 
ATOM     25  H   UNL     1     -45.483  40.835  25.601  1.00  0.00     0.043 H 
ATOM     26  H   UNL     1     -43.867  40.680  24.936  1.00  0.00     0.043 H 
BRANCH  19  27
ATOM     27  C   UNL     1     -43.421  43.473  25.377  1.00  0.00    -0.033 C 
BRANCH  27  28
ATOM     28  C   UNL     1     -43.843  43.292  23.913  1.00  0.00    -0.060 C 
ATOM     29  H   UNL     1     -43.084  43.700  23.236  1.00  0.00     0.024 H 
ATOM     30  H   UNL     1     -44.782  43.808  23.690  1.00  0.00     0.024 H 
ATOM     31  H   UNL     1     -43.975  42.238  23.651  1.00  0.00     0.024 H 
ENDBRANCH  27  28
BRANCH  27  32
ATOM     32  C   UNL     1     -41.893  43.326  25.481  1.00  0.00    -0.060 C 
ATOM     33  H   UNL     1     -41.609  42.291  25.704  1.00  0.00     0.024 H 
ATOM     34  H   UNL     1     -41.488  43.954  26.284  1.00  0.00     0.024 H 
ATOM     35  H   UNL     1     -41.401  43.616  24.547  1.00  0.00     0.024 H 
ENDBRANCH  27  32
BRANCH  27  36
ATOM     36  C   UNL     1     -43.826  44.879  25.848  1.00  0.00    -0.060 C 
ATOM     37  H   UNL     1     -44.280  44.850  26.845  1.00  0.00     0.024 H 
ATOM     38  H   UNL     1     -44.558  45.330  25.169  1.00  0.00     0.024 H 
ATOM     39  H   UNL     1     -42.958  45.548  25.895  1.00  0.00     0.024 H 
ENDBRANCH  27  36
ENDBRANCH  19  27
ENDBRANCH  15  18
ENDBRANCH   1  15
BRANCH   6  40
ATOM     40  C   UNL     1     -46.404  32.700  27.308  1.00  0.00     0.043 C 
ATOM     41  H   UNL     1     -47.044  32.218  28.055  1.00  0.00     0.054 H 
ATOM     42  H   UNL     1     -45.367  32.453  27.560  1.00  0.00     0.054 H 
BRANCH  40  43
ATOM     43  N   UNL     1     -46.665  32.172  25.994  1.00  0.00    -0.347 N 
ATOM     44  C   UNL     1     -47.861  31.591  25.653  1.00  0.00     0.270 C 
ATOM     45  H   UNL     1     -46.067  32.445  25.221  1.00  0.00     0.164 HD
ATOM     46  O   UNL     1     -48.754  31.320  26.445  1.00  0.00    -0.268 OA
BRANCH  44  47
ATOM     47  C   UNL     1     -47.968  31.331  24.168  1.00  0.00     0.136 A 
ATOM     48  C   UNL     1     -46.846  30.956  23.549  1.00  0.00     0.035 A 
ATOM     49  N   UNL     1     -49.190  31.484  23.555  1.00  0.00    -0.225 NA
ATOM     50  C   UNL     1     -46.904  30.684  22.108  1.00  0.00     0.258 A 
ATOM     51  H   UNL     1     -45.891  30.837  24.044  1.00  0.00     0.071 H 
ATOM     52  C   UNL     1     -49.239  31.238  22.281  1.00  0.00     0.140 A 
ATOM     53  O   UNL     1     -45.874  30.344  21.527  1.00  0.00    -0.269 OA
ATOM     54  N   UNL     1     -48.149  30.841  21.514  1.00  0.00    -0.268 N 
ATOM     55  C   UNL     1     -50.543  31.386  21.574  1.00  0.00    -0.019 A 
ATOM     56  C   UNL     1     -48.284  30.597  20.151  1.00  0.00     0.014 A 
ATOM     57  C   UNL     1     -50.624  31.139  20.262  1.00  0.00    -0.057 A 
ATOM     58  H   UNL     1     -51.399  31.693  22.164  1.00  0.00     0.066 H 
ATOM     59  C   UNL     1     -49.459  30.732  19.524  1.00  0.00    -0.045 A 
ATOM     60  H   UNL     1     -47.390  30.290  19.614  1.00  0.00     0.082 H 
ATOM     61  H   UNL     1     -51.565  31.240  19.729  1.00  0.00     0.062 H 
ATOM     62  H   UNL     1     -49.552  30.538  18.459  1.00  0.00     0.064 H 
ENDBRANCH  44  47
ENDBRANCH  40  43
ENDBRANCH   6  40
TORSDOF 9
ENDMDL
MODEL 6
REMARK VINA RESULT:      -9.3      2.611      5.357
REMARK SMILES CC(C)(C)C1CN(Cc2cc3ccc(CNC(=O)c4cc(=O)n5ccccc5n4)cc3[nH]2)C1
REMARK SMILES IDX 9 1 10 2 11 3 12 4 13 5 14 6 30 7 31 8 32 9 8 15 7 18 5 19
REMARK SMILES IDX 6 20 33 21 2 27 1 28 3 32 4 36 15 40 16 43 17 44 18 46 19 47
REMARK SMILES IDX 20 48 29 49 21 50 28 52 22 53 23 54 27 55 24 56 26 57 25 59
REMARK H PARENT 10 10 12 11 13 12 30 13 32 14 8 16 8 17 5 22 6 23 6 24 33 25
REMARK H PARENT 33 26 1 29 1 30 1 31 3 33 3 34 3 35 4 37 4 38 4 39 15 41 15 42
REMARK H PARENT 16 45 20 51 27 58 24 60 26 61 25 62
REMARK Flexibility Score: inf
ROOT
ATOM      1  C   UNL     1     -46.988  35.672  27.454  1.00  0.00     0.030 A 
ATOM      2  C   UNL     1     -47.102  35.692  28.831  1.00  0.00    -0.032 A 
ATOM      3  C   UNL     1     -46.170  36.635  29.340  1.00  0.00    -0.000 A 
ATOM      4  C   UNL     1     -45.818  37.062  30.634  1.00  0.00    -0.052 A 
ATOM      5  C   UNL     1     -44.821  38.035  30.786  1.00  0.00    -0.057 A 
ATOM      6  C   UNL     1     -44.178  38.595  29.674  1.00  0.00    -0.027 A 
ATOM      7  C   UNL     1     -44.519  38.173  28.378  1.00  0.00    -0.033 A 
ATOM      8  C   UNL     1     -45.517  37.198  28.246  1.00  0.00     0.046 A 
ATOM      9  N   UNL     1     -46.047  36.616  27.117  1.00  0.00    -0.357 N 
ATOM     10  H   UNL     1     -47.777  35.079  29.415  1.00  0.00     0.065 H 
ATOM     11  H   UNL     1     -46.306  36.640  31.507  1.00  0.00     0.063 H 
ATOM     12  H   UNL     1     -44.543  38.353  31.790  1.00  0.00     0.063 H 
ATOM     13  H   UNL     1     -44.026  38.586  27.504  1.00  0.00     0.065 H 
ATOM     14  H   UNL     1     -45.763  36.841  26.174  1.00  0.00     0.166 HD
ENDROOT
BRANCH   1  15
ATOM     15  C   UNL     1     -47.721  34.877  26.418  1.00  0.00     0.039 C 
ATOM     16  H   UNL     1     -48.755  35.242  26.372  1.00  0.00     0.050 H 
ATOM     17  H   UNL     1     -47.294  35.105  25.432  1.00  0.00     0.050 H 
BRANCH  15  18
ATOM     18  N   UNL     1     -47.766  33.416  26.561  1.00  0.00    -0.297 NA
ATOM     19  C   UNL     1     -48.099  32.268  24.793  1.00  0.00    -0.011 C 
ATOM     20  C   UNL     1     -46.874  32.693  25.646  1.00  0.00     0.003 C 
ATOM     21  C   UNL     1     -48.953  32.771  25.987  1.00  0.00     0.003 C 
ATOM     22  H   UNL     1     -48.216  32.946  23.932  1.00  0.00     0.033 H 
ATOM     23  H   UNL     1     -46.348  31.872  26.146  1.00  0.00     0.043 H 
ATOM     24  H   UNL     1     -46.112  33.276  25.120  1.00  0.00     0.043 H 
ATOM     25  H   UNL     1     -49.800  33.413  25.725  1.00  0.00     0.043 H 
ATOM     26  H   UNL     1     -49.349  31.983  26.638  1.00  0.00     0.043 H 
BRANCH  19  27
ATOM     27  C   UNL     1     -48.240  30.825  24.267  1.00  0.00    -0.033 C 
BRANCH  27  28
ATOM     28  C   UNL     1     -48.691  29.839  25.353  1.00  0.00    -0.060 C 
ATOM     29  H   UNL     1     -48.528  28.804  25.030  1.00  0.00     0.024 H 
ATOM     30  H   UNL     1     -49.756  29.940  25.582  1.00  0.00     0.024 H 
ATOM     31  H   UNL     1     -48.138  29.976  26.286  1.00  0.00     0.024 H 
ENDBRANCH  27  28
BRANCH  27  32
ATOM     32  C   UNL     1     -46.876  30.375  23.715  1.00  0.00    -0.060 C 
ATOM     33  H   UNL     1     -46.242  29.966  24.510  1.00  0.00     0.024 H 
ATOM     34  H   UNL     1     -46.333  31.215  23.266  1.00  0.00     0.024 H 
ATOM     35  H   UNL     1     -46.993  29.602  22.947  1.00  0.00     0.024 H 
ENDBRANCH  27  32
BRANCH  27  36
ATOM     36  C   UNL     1     -49.270  30.824  23.126  1.00  0.00    -0.060 C 
ATOM     37  H   UNL     1     -48.909  31.395  22.263  1.00  0.00     0.024 H 
ATOM     38  H   UNL     1     -50.215  31.279  23.444  1.00  0.00     0.024 H 
ATOM     39  H   UNL     1     -49.488  29.805  22.786  1.00  0.00     0.024 H 
ENDBRANCH  27  36
ENDBRANCH  19  27
ENDBRANCH  15  18
ENDBRANCH   1  15
BRANCH   6  40
ATOM     40  C   UNL     1     -43.087  39.618  29.876  1.00  0.00     0.043 C 
ATOM     41  H   UNL     1     -42.103  39.161  29.717  1.00  0.00     0.054 H 
ATOM     42  H   UNL     1     -43.106  39.997  30.904  1.00  0.00     0.054 H 
BRANCH  40  43
ATOM     43  N   UNL     1     -43.275  40.744  28.999  1.00  0.00    -0.347 N 
ATOM     44  C   UNL     1     -42.250  41.581  28.636  1.00  0.00     0.270 C 
ATOM     45  H   UNL     1     -44.113  40.795  28.429  1.00  0.00     0.164 HD
ATOM     46  O   UNL     1     -41.128  41.561  29.128  1.00  0.00    -0.268 OA
BRANCH  44  47
ATOM     47  C   UNL     1     -42.652  42.535  27.536  1.00  0.00     0.136 A 
ATOM     48  C   UNL     1     -41.858  42.573  26.464  1.00  0.00     0.035 A 
ATOM     49  N   UNL     1     -43.794  43.287  27.695  1.00  0.00    -0.225 NA
ATOM     50  C   UNL     1     -42.214  43.479  25.366  1.00  0.00     0.258 A 
ATOM     51  H   UNL     1     -40.963  41.974  26.350  1.00  0.00     0.071 H 
ATOM     52  C   UNL     1     -44.108  44.083  26.719  1.00  0.00     0.140 A 
ATOM     53  O   UNL     1     -41.484  43.526  24.376  1.00  0.00    -0.269 OA
ATOM     54  N   UNL     1     -43.371  44.222  25.548  1.00  0.00    -0.268 N 
ATOM     55  C   UNL     1     -45.339  44.914  26.844  1.00  0.00    -0.019 A 
ATOM     56  C   UNL     1     -43.777  45.101  24.548  1.00  0.00     0.014 A 
ATOM     57  C   UNL     1     -45.690  45.744  25.855  1.00  0.00    -0.057 A 
ATOM     58  H   UNL     1     -45.921  44.812  27.753  1.00  0.00     0.066 H 
ATOM     59  C   UNL     1     -44.884  45.843  24.668  1.00  0.00    -0.045 A 
ATOM     60  H   UNL     1     -43.153  45.158  23.659  1.00  0.00     0.082 H 
ATOM     61  H   UNL     1     -46.583  46.357  25.927  1.00  0.00     0.062 H 
ATOM     62  H   UNL     1     -45.190  46.525  23.880  1.00  0.00     0.064 H 
ENDBRANCH  44  47
ENDBRANCH  40  43
ENDBRANCH   6  40
TORSDOF 9
ENDMDL
MODEL 7
REMARK VINA RESULT:      -9.2      2.421      3.401
REMARK SMILES CC(C)(C)C1CN(Cc2cc3ccc(CNC(=O)c4cc(=O)n5ccccc5n4)cc3[nH]2)C1
REMARK SMILES IDX 9 1 10 2 11 3 12 4 13 5 14 6 30 7 31 8 32 9 8 15 7 18 5 19
REMARK SMILES IDX 6 20 33 21 2 27 1 28 3 32 4 36 15 40 16 43 17 44 18 46 19 47
REMARK SMILES IDX 20 48 29 49 21 50 28 52 22 53 23 54 27 55 24 56 26 57 25 59
REMARK H PARENT 10 10 12 11 13 12 30 13 32 14 8 16 8 17 5 22 6 23 6 24 33 25
REMARK H PARENT 33 26 1 29 1 30 1 31 3 33 3 34 3 35 4 37 4 38 4 39 15 41 15 42
REMARK H PARENT 16 45 20 51 27 58 24 60 26 61 25 62
REMARK Flexibility Score: inf
ROOT
ATOM      1  C   UNL     1     -47.030  32.293  24.893  1.00  0.00     0.030 A 
ATOM      2  C   UNL     1     -48.142  32.972  25.356  1.00  0.00    -0.032 A 
ATOM      3  C   UNL     1     -47.700  34.014  26.214  1.00  0.00    -0.000 A 
ATOM      4  C   UNL     1     -48.357  34.996  26.978  1.00  0.00    -0.052 A 
ATOM      5  C   UNL     1     -47.596  35.892  27.740  1.00  0.00    -0.057 A 
ATOM      6  C   UNL     1     -46.196  35.834  27.745  1.00  0.00    -0.027 A 
ATOM      7  C   UNL     1     -45.531  34.855  26.989  1.00  0.00    -0.033 A 
ATOM      8  C   UNL     1     -46.308  33.967  26.234  1.00  0.00     0.046 A 
ATOM      9  N   UNL     1     -45.928  32.933  25.409  1.00  0.00    -0.357 N 
ATOM     10  H   UNL     1     -49.169  32.732  25.115  1.00  0.00     0.065 H 
ATOM     11  H   UNL     1     -49.441  35.057  26.986  1.00  0.00     0.063 H 
ATOM     12  H   UNL     1     -48.110  36.643  28.340  1.00  0.00     0.063 H 
ATOM     13  H   UNL     1     -44.448  34.786  26.987  1.00  0.00     0.065 H 
ATOM     14  H   UNL     1     -44.969  32.671  25.230  1.00  0.00     0.166 HD
ENDROOT
BRANCH   1  15
ATOM     15  C   UNL     1     -46.907  31.123  23.967  1.00  0.00     0.039 C 
ATOM     16  H   UNL     1     -45.848  30.999  23.707  1.00  0.00     0.050 H 
ATOM     17  H   UNL     1     -47.175  30.210  24.516  1.00  0.00     0.050 H 
BRANCH  15  18
ATOM     18  N   UNL     1     -47.678  31.138  22.717  1.00  0.00    -0.297 NA
ATOM     19  C   UNL     1     -48.910  29.444  22.305  1.00  0.00    -0.011 C 
ATOM     20  C   UNL     1     -49.111  30.868  22.889  1.00  0.00     0.003 C 
ATOM     21  C   UNL     1     -47.510  29.952  21.869  1.00  0.00     0.003 C 
ATOM     22  H   UNL     1     -48.809  28.710  23.120  1.00  0.00     0.033 H 
ATOM     23  H   UNL     1     -49.732  31.535  22.282  1.00  0.00     0.043 H 
ATOM     24  H   UNL     1     -49.513  30.908  23.906  1.00  0.00     0.043 H 
ATOM     25  H   UNL     1     -46.673  29.284  22.094  1.00  0.00     0.043 H 
ATOM     26  H   UNL     1     -47.422  30.213  20.808  1.00  0.00     0.043 H 
BRANCH  19  27
ATOM     27  C   UNL     1     -49.899  28.859  21.276  1.00  0.00    -0.033 C 
BRANCH  27  28
ATOM     28  C   UNL     1     -51.292  29.496  21.363  1.00  0.00    -0.060 C 
ATOM     29  H   UNL     1     -51.777  29.242  22.313  1.00  0.00     0.024 H 
ATOM     30  H   UNL     1     -51.952  29.149  20.562  1.00  0.00     0.024 H 
ATOM     31  H   UNL     1     -51.248  30.587  21.305  1.00  0.00     0.024 H 
ENDBRANCH  27  28
BRANCH  27  32
ATOM     32  C   UNL     1     -50.021  27.346  21.529  1.00  0.00    -0.060 C 
ATOM     33  H   UNL     1     -49.318  27.015  22.301  1.00  0.00     0.024 H 
ATOM     34  H   UNL     1     -49.800  26.772  20.621  1.00  0.00     0.024 H 
ATOM     35  H   UNL     1     -51.032  27.078  21.857  1.00  0.00     0.024 H 
ENDBRANCH  27  32
BRANCH  27  36
ATOM     36  C   UNL     1     -49.325  29.089  19.869  1.00  0.00    -0.060 C 
ATOM     37  H   UNL     1     -49.994  28.695  19.095  1.00  0.00     0.024 H 
ATOM     38  H   UNL     1     -48.358  28.588  19.748  1.00  0.00     0.024 H 
ATOM     39  H   UNL     1     -49.175  30.157  19.670  1.00  0.00     0.024 H 
ENDBRANCH  27  36
ENDBRANCH  19  27
ENDBRANCH  15  18
ENDBRANCH   1  15
BRANCH   6  40
ATOM     40  C   UNL     1     -45.410  36.795  28.603  1.00  0.00     0.043 C 
ATOM     41  H   UNL     1     -44.395  36.415  28.769  1.00  0.00     0.054 H 
ATOM     42  H   UNL     1     -45.881  36.902  29.586  1.00  0.00     0.054 H 
BRANCH  40  43
ATOM     43  N   UNL     1     -45.373  38.102  28.000  1.00  0.00    -0.347 N 
ATOM     44  C   UNL     1     -44.607  39.127  28.497  1.00  0.00     0.270 C 
ATOM     45  H   UNL     1     -45.712  38.222  27.051  1.00  0.00     0.164 HD
ATOM     46  O   UNL     1     -44.012  39.095  29.567  1.00  0.00    -0.268 OA
BRANCH  44  47
ATOM     47  C   UNL     1     -44.561  40.313  27.562  1.00  0.00     0.136 A 
ATOM     48  C   UNL     1     -45.729  40.717  27.058  1.00  0.00     0.035 A 
ATOM     49  N   UNL     1     -43.345  40.901  27.296  1.00  0.00    -0.225 NA
ATOM     50  C   UNL     1     -45.734  41.871  26.152  1.00  0.00     0.258 A 
ATOM     51  H   UNL     1     -46.679  40.248  27.277  1.00  0.00     0.071 H 
ATOM     52  C   UNL     1     -43.354  41.925  26.498  1.00  0.00     0.140 A 
ATOM     53  O   UNL     1     -46.805  42.248  25.677  1.00  0.00    -0.269 OA
ATOM     54  N   UNL     1     -44.497  42.449  25.904  1.00  0.00    -0.268 N 
ATOM     55  C   UNL     1     -42.061  42.597  26.185  1.00  0.00    -0.019 A 
ATOM     56  C   UNL     1     -44.421  43.551  25.057  1.00  0.00     0.014 A 
ATOM     57  C   UNL     1     -42.039  43.655  25.366  1.00  0.00    -0.057 A 
ATOM     58  H   UNL     1     -41.165  42.197  26.645  1.00  0.00     0.066 H 
ATOM     59  C   UNL     1     -43.256  44.150  24.781  1.00  0.00    -0.045 A 
ATOM     60  H   UNL     1     -45.354  43.907  24.628  1.00  0.00     0.082 H 
ATOM     61  H   UNL     1     -41.108  44.159  25.126  1.00  0.00     0.062 H 
ATOM     62  H   UNL     1     -43.210  45.009  24.119  1.00  0.00     0.064 H 
ENDBRANCH  44  47
ENDBRANCH  40  43
ENDBRANCH   6  40
TORSDOF 9
ENDMDL
