MODEL 1
REMARK VINA RESULT:     -10.6      0.000      0.000
REMARK SMILES CNc1ccc2ccc(OC[C@H]3O[C@@H](n4cc([C@@H]5CCCO5)c5c(N)ncnc54)[C@@H](F)[C@@H]3O)cc2n1
REMARK SMILES IDX 11 1 10 4 9 5 3 6 4 7 36 8 5 9 35 11 6 12 34 14 7 15 8 17
REMARK SMILES IDX 2 20 1 22 12 26 13 27 32 28 14 30 30 31 31 34 33 36 15 38
REMARK SMILES IDX 16 39 29 40 17 41 23 43 28 44 24 45 27 46 26 47 18 49 19 50
REMARK SMILES IDX 22 51 20 53 21 56 25 61
REMARK H PARENT 11 2 11 3 4 10 5 13 34 16 7 18 8 19 2 21 1 23 1 24 1 25 12 29
REMARK H PARENT 32 32 14 33 30 35 33 37 16 42 27 48 18 52 19 54 19 55 20 57
REMARK H PARENT 20 58 21 59 21 60 25 62 25 63
REMARK Flexibility Score: inf
ROOT
ATOM      1  C   UNL     1     -45.594  35.329  27.448  1.00  0.00     0.117 C 
ATOM      2  H   UNL     1     -44.645  35.639  26.994  1.00  0.00     0.073 H 
ATOM      3  H   UNL     1     -45.499  34.284  27.768  1.00  0.00     0.073 H 
ENDROOT
BRANCH   1   4
ATOM      4  O   UNL     1     -46.668  35.470  26.515  1.00  0.00    -0.491 OA
BRANCH   4   5
ATOM      5  C   UNL     1     -47.232  34.319  26.038  1.00  0.00     0.121 A 
ATOM      6  C   UNL     1     -46.583  30.782  22.910  1.00  0.00     0.126 A 
ATOM      7  C   UNL     1     -47.768  30.164  23.294  1.00  0.00    -0.019 A 
ATOM      8  N   UNL     1     -46.164  31.926  23.488  1.00  0.00    -0.231 NA
ATOM      9  C   UNL     1     -48.555  30.749  24.282  1.00  0.00    -0.049 A 
ATOM     10  H   UNL     1     -48.074  29.229  22.837  1.00  0.00     0.066 H 
ATOM     11  C   UNL     1     -46.918  32.496  24.445  1.00  0.00     0.076 A 
ATOM     12  C   UNL     1     -48.135  31.941  24.878  1.00  0.00     0.001 A 
ATOM     13  H   UNL     1     -49.480  30.268  24.582  1.00  0.00     0.063 H 
ATOM     14  C   UNL     1     -46.492  33.678  25.037  1.00  0.00     0.007 A 
ATOM     15  C   UNL     1     -48.888  32.575  25.880  1.00  0.00    -0.049 A 
ATOM     16  H   UNL     1     -45.552  34.111  24.705  1.00  0.00     0.069 H 
ATOM     17  C   UNL     1     -48.436  33.763  26.458  1.00  0.00    -0.019 A 
ATOM     18  H   UNL     1     -49.829  32.146  26.218  1.00  0.00     0.063 H 
ATOM     19  H   UNL     1     -49.047  34.221  27.229  1.00  0.00     0.066 H 
BRANCH   6  20
ATOM     20  N   UNL     1     -45.800  30.147  21.927  1.00  0.00    -0.373 N 
ATOM     21  H   UNL     1     -45.225  30.846  21.465  1.00  0.00     0.161 HD
BRANCH  20  22
ATOM     22  C   UNL     1     -45.007  29.036  22.425  1.00  0.00     0.005 C 
ATOM     23  H   UNL     1     -45.067  29.020  23.518  1.00  0.00     0.045 H 
ATOM     24  H   UNL     1     -45.384  28.075  22.060  1.00  0.00     0.045 H 
ATOM     25  H   UNL     1     -43.950  29.144  22.159  1.00  0.00     0.045 H 
ENDBRANCH  20  22
ENDBRANCH   6  20
ENDBRANCH   4   5
ENDBRANCH   1   4
BRANCH   1  26
ATOM     26  C   UNL     1     -45.886  36.197  28.671  1.00  0.00     0.123 C 
ATOM     27  O   UNL     1     -44.773  37.056  28.961  1.00  0.00    -0.345 OA
ATOM     28  C   UNL     1     -47.122  37.075  28.491  1.00  0.00     0.119 C 
ATOM     29  H   UNL     1     -46.033  35.537  29.538  1.00  0.00     0.067 H 
ATOM     30  C   UNL     1     -45.307  38.314  29.430  1.00  0.00     0.169 C 
ATOM     31  C   UNL     1     -46.828  38.225  29.430  1.00  0.00     0.173 C 
ATOM     32  H   UNL     1     -47.252  37.435  27.468  1.00  0.00     0.066 H 
ATOM     33  H   UNL     1     -44.951  38.438  30.461  1.00  0.00     0.088 H 
ATOM     34  F   UNL     1     -47.424  39.367  29.014  1.00  0.00    -0.239 F 
ATOM     35  H   UNL     1     -47.204  38.007  30.436  1.00  0.00     0.074 H 
BRANCH  28  36
ATOM     36  O   UNL     1     -48.313  36.382  28.863  1.00  0.00    -0.387 OA
ATOM     37  H   UNL     1     -48.765  36.142  28.030  1.00  0.00     0.211 HD
ENDBRANCH  28  36
BRANCH  30  38
ATOM     38  N   UNL     1     -44.726  39.398  28.652  1.00  0.00    -0.303 N 
ATOM     39  C   UNL     1     -45.289  39.906  27.500  1.00  0.00     0.015 A 
ATOM     40  C   UNL     1     -43.570  40.082  28.931  1.00  0.00     0.148 A 
ATOM     41  C   UNL     1     -44.484  40.926  27.016  1.00  0.00     0.012 A 
ATOM     42  H   UNL     1     -46.217  39.498  27.120  1.00  0.00     0.082 H 
ATOM     43  C   UNL     1     -43.385  41.034  27.936  1.00  0.00     0.067 A 
ATOM     44  N   UNL     1     -42.759  39.865  29.981  1.00  0.00    -0.218 NA
ATOM     45  C   UNL     1     -42.236  41.838  28.046  1.00  0.00     0.136 A 
ATOM     46  C   UNL     1     -41.699  40.689  29.973  1.00  0.00     0.120 A 
ATOM     47  N   UNL     1     -41.396  41.647  29.079  1.00  0.00    -0.219 NA
ATOM     48  H   UNL     1     -40.996  40.568  30.790  1.00  0.00     0.106 H 
BRANCH  41  49
ATOM     49  C   UNL     1     -44.689  41.789  25.797  1.00  0.00     0.085 C 
ATOM     50  C   UNL     1     -44.222  43.234  25.916  1.00  0.00    -0.020 C 
ATOM     51  O   UNL     1     -46.100  41.873  25.477  1.00  0.00    -0.373 OA
ATOM     52  H   UNL     1     -44.183  41.303  24.954  1.00  0.00     0.066 H 
ATOM     53  C   UNL     1     -45.442  43.925  26.474  1.00  0.00    -0.027 C 
ATOM     54  H   UNL     1     -44.022  43.633  24.914  1.00  0.00     0.030 H 
ATOM     55  H   UNL     1     -43.321  43.387  26.514  1.00  0.00     0.030 H 
ATOM     56  C   UNL     1     -46.562  43.202  25.762  1.00  0.00     0.048 C 
ATOM     57  H   UNL     1     -45.512  43.759  27.555  1.00  0.00     0.029 H 
ATOM     58  H   UNL     1     -45.455  45.004  26.295  1.00  0.00     0.029 H 
ATOM     59  H   UNL     1     -46.800  43.681  24.807  1.00  0.00     0.057 H 
ATOM     60  H   UNL     1     -47.475  43.150  26.362  1.00  0.00     0.057 H 
ENDBRANCH  41  49
BRANCH  45  61
ATOM     61  N   UNL     1     -41.894  42.820  27.121  1.00  0.00    -0.383 N 
ATOM     62  H   UNL     1     -42.355  42.640  26.239  1.00  0.00     0.158 HD
ATOM     63  H   UNL     1     -42.022  43.760  27.497  1.00  0.00     0.158 HD
ENDBRANCH  45  61
ENDBRANCH  30  38
ENDBRANCH   1  26
TORSDOF 9
ENDMDL
MODEL 2
REMARK VINA RESULT:     -10.1      2.317      3.128
REMARK SMILES CNc1ccc2ccc(OC[C@H]3O[C@@H](n4cc([C@@H]5CCCO5)c5c(N)ncnc54)[C@@H](F)[C@@H]3O)cc2n1
REMARK SMILES IDX 11 1 10 4 9 5 3 6 4 7 36 8 5 9 35 11 6 12 34 14 7 15 8 17
REMARK SMILES IDX 2 20 1 22 12 26 13 27 32 28 14 30 30 31 31 34 33 36 15 38
REMARK SMILES IDX 16 39 29 40 17 41 23 43 28 44 24 45 27 46 26 47 18 49 19 50
REMARK SMILES IDX 22 51 20 53 21 56 25 61
REMARK H PARENT 11 2 11 3 4 10 5 13 34 16 7 18 8 19 2 21 1 23 1 24 1 25 12 29
REMARK H PARENT 32 32 14 33 30 35 33 37 16 42 27 48 18 52 19 54 19 55 20 57
REMARK H PARENT 20 58 21 59 21 60 25 62 25 63
REMARK Flexibility Score: inf
ROOT
ATOM      1  C   UNL     1     -47.361  34.930  27.608  1.00  0.00     0.117 C 
ATOM      2  H   UNL     1     -48.189  34.962  28.326  1.00  0.00     0.073 H 
ATOM      3  H   UNL     1     -47.696  35.395  26.673  1.00  0.00     0.073 H 
ENDROOT
BRANCH   1   4
ATOM      4  O   UNL     1     -46.948  33.582  27.377  1.00  0.00    -0.491 OA
BRANCH   4   5
ATOM      5  C   UNL     1     -47.520  32.929  26.319  1.00  0.00     0.121 A 
ATOM      6  C   UNL     1     -46.497  30.392  22.416  1.00  0.00     0.126 A 
ATOM      7  C   UNL     1     -47.845  30.235  22.111  1.00  0.00    -0.019 A 
ATOM      8  N   UNL     1     -46.096  31.071  23.510  1.00  0.00    -0.231 NA
ATOM      9  C   UNL     1     -48.805  30.808  22.939  1.00  0.00    -0.049 A 
ATOM     10  H   UNL     1     -48.148  29.661  21.242  1.00  0.00     0.066 H 
ATOM     11  C   UNL     1     -47.019  31.625  24.318  1.00  0.00     0.076 A 
ATOM     12  C   UNL     1     -48.399  31.522  24.069  1.00  0.00     0.001 A 
ATOM     13  H   UNL     1     -49.857  30.684  22.702  1.00  0.00     0.063 H 
ATOM     14  C   UNL     1     -46.609  32.330  25.441  1.00  0.00     0.007 A 
ATOM     15  C   UNL     1     -49.323  32.120  24.941  1.00  0.00    -0.049 A 
ATOM     16  H   UNL     1     -45.542  32.413  25.637  1.00  0.00     0.069 H 
ATOM     17  C   UNL     1     -48.883  32.823  26.064  1.00  0.00    -0.019 A 
ATOM     18  H   UNL     1     -50.392  32.040  24.752  1.00  0.00     0.063 H 
ATOM     19  H   UNL     1     -49.629  33.271  26.712  1.00  0.00     0.066 H 
BRANCH   6  20
ATOM     20  N   UNL     1     -45.556  29.776  21.570  1.00  0.00    -0.373 N 
ATOM     21  H   UNL     1     -45.066  30.495  21.046  1.00  0.00     0.161 HD
BRANCH  20  22
ATOM     22  C   UNL     1     -44.635  28.884  22.256  1.00  0.00     0.005 C 
ATOM     23  H   UNL     1     -45.030  28.666  23.253  1.00  0.00     0.045 H 
ATOM     24  H   UNL     1     -44.527  27.931  21.727  1.00  0.00     0.045 H 
ATOM     25  H   UNL     1     -43.651  29.347  22.390  1.00  0.00     0.045 H 
ENDBRANCH  20  22
ENDBRANCH   6  20
ENDBRANCH   4   5
ENDBRANCH   1   4
BRANCH   1  26
ATOM     26  C   UNL     1     -46.174  35.721  28.157  1.00  0.00     0.123 C 
ATOM     27  O   UNL     1     -45.807  36.776  27.254  1.00  0.00    -0.345 OA
ATOM     28  C   UNL     1     -46.461  36.350  29.519  1.00  0.00     0.119 C 
ATOM     29  H   UNL     1     -45.314  35.042  28.244  1.00  0.00     0.067 H 
ATOM     30  C   UNL     1     -45.395  37.907  28.053  1.00  0.00     0.169 C 
ATOM     31  C   UNL     1     -45.514  37.530  29.524  1.00  0.00     0.173 C 
ATOM     32  H   UNL     1     -47.496  36.683  29.633  1.00  0.00     0.066 H 
ATOM     33  H   UNL     1     -44.341  38.092  27.811  1.00  0.00     0.088 H 
ATOM     34  F   UNL     1     -45.989  38.540  30.291  1.00  0.00    -0.239 F 
ATOM     35  H   UNL     1     -44.538  37.241  29.931  1.00  0.00     0.074 H 
BRANCH  28  36
ATOM     36  O   UNL     1     -46.177  35.441  30.583  1.00  0.00    -0.387 OA
ATOM     37  H   UNL     1     -46.864  34.747  30.545  1.00  0.00     0.211 HD
ENDBRANCH  28  36
BRANCH  30  38
ATOM     38  N   UNL     1     -46.136  39.085  27.628  1.00  0.00    -0.303 N 
ATOM     39  C   UNL     1     -47.486  39.266  27.848  1.00  0.00     0.015 A 
ATOM     40  C   UNL     1     -45.633  40.180  26.973  1.00  0.00     0.148 A 
ATOM     41  C   UNL     1     -47.869  40.489  27.321  1.00  0.00     0.012 A 
ATOM     42  H   UNL     1     -48.062  38.508  28.364  1.00  0.00     0.082 H 
ATOM     43  C   UNL     1     -46.679  41.070  26.761  1.00  0.00     0.067 A 
ATOM     44  N   UNL     1     -44.354  40.357  26.600  1.00  0.00    -0.218 NA
ATOM     45  C   UNL     1     -46.358  42.264  26.089  1.00  0.00     0.136 A 
ATOM     46  C   UNL     1     -44.176  41.528  25.966  1.00  0.00     0.120 A 
ATOM     47  N   UNL     1     -45.090  42.475  25.693  1.00  0.00    -0.219 NA
ATOM     48  H   UNL     1     -43.165  41.737  25.630  1.00  0.00     0.106 H 
BRANCH  41  49
ATOM     49  C   UNL     1     -49.232  41.133  27.330  1.00  0.00     0.085 C 
ATOM     50  C   UNL     1     -49.419  42.289  28.302  1.00  0.00    -0.020 C 
ATOM     51  O   UNL     1     -50.240  40.161  27.700  1.00  0.00    -0.373 OA
ATOM     52  H   UNL     1     -49.450  41.468  26.308  1.00  0.00     0.066 H 
ATOM     53  C   UNL     1     -49.865  41.588  29.561  1.00  0.00    -0.027 C 
ATOM     54  H   UNL     1     -50.238  42.930  27.950  1.00  0.00     0.030 H 
ATOM     55  H   UNL     1     -48.544  42.928  28.444  1.00  0.00     0.030 H 
ATOM     56  C   UNL     1     -50.736  40.482  29.009  1.00  0.00     0.048 C 
ATOM     57  H   UNL     1     -49.002  41.161  30.085  1.00  0.00     0.029 H 
ATOM     58  H   UNL     1     -50.399  42.238  30.260  1.00  0.00     0.029 H 
ATOM     59  H   UNL     1     -51.774  40.814  28.896  1.00  0.00     0.057 H 
ATOM     60  H   UNL     1     -50.724  39.586  29.635  1.00  0.00     0.057 H 
ENDBRANCH  41  49
BRANCH  45  61
ATOM     61  N   UNL     1     -47.293  43.246  25.780  1.00  0.00    -0.383 N 
ATOM     62  H   UNL     1     -46.823  44.116  25.562  1.00  0.00     0.158 HD
ATOM     63  H   UNL     1     -47.966  42.928  25.081  1.00  0.00     0.158 HD
ENDBRANCH  45  61
ENDBRANCH  30  38
ENDBRANCH   1  26
TORSDOF 9
ENDMDL
MODEL 3
REMARK VINA RESULT:     -10.0      3.192      4.683
REMARK SMILES CNc1ccc2ccc(OC[C@H]3O[C@@H](n4cc([C@@H]5CCCO5)c5c(N)ncnc54)[C@@H](F)[C@@H]3O)cc2n1
REMARK SMILES IDX 11 1 10 4 9 5 3 6 4 7 36 8 5 9 35 11 6 12 34 14 7 15 8 17
REMARK SMILES IDX 2 20 1 22 12 26 13 27 32 28 14 30 30 31 31 34 33 36 15 38
REMARK SMILES IDX 16 39 29 40 17 41 23 43 28 44 24 45 27 46 26 47 18 49 19 50
REMARK SMILES IDX 22 51 20 53 21 56 25 61
REMARK H PARENT 11 2 11 3 4 10 5 13 34 16 7 18 8 19 2 21 1 23 1 24 1 25 12 29
REMARK H PARENT 32 32 14 33 30 35 33 37 16 42 27 48 18 52 19 54 19 55 20 57
REMARK H PARENT 20 58 21 59 21 60 25 62 25 63
REMARK Flexibility Score: inf
ROOT
ATOM      1  C   UNL     1     -48.054  34.464  26.522  1.00  0.00     0.117 C 
ATOM      2  H   UNL     1     -48.973  34.853  26.975  1.00  0.00     0.073 H 
ATOM      3  H   UNL     1     -48.136  34.565  25.432  1.00  0.00     0.073 H 
ENDROOT
BRANCH   1   4
ATOM      4  O   UNL     1     -47.855  33.096  26.884  1.00  0.00    -0.491 OA
BRANCH   4   5
ATOM      5  C   UNL     1     -47.673  32.204  25.863  1.00  0.00     0.121 A 
ATOM      6  C   UNL     1     -49.182  28.014  24.164  1.00  0.00     0.126 A 
ATOM      7  C   UNL     1     -48.321  28.094  23.075  1.00  0.00    -0.019 A 
ATOM      8  N   UNL     1     -49.240  28.991  25.092  1.00  0.00    -0.231 NA
ATOM      9  C   UNL     1     -47.481  29.197  22.947  1.00  0.00    -0.049 A 
ATOM     10  H   UNL     1     -48.310  27.311  22.325  1.00  0.00     0.066 H 
ATOM     11  C   UNL     1     -48.434  30.061  24.973  1.00  0.00     0.076 A 
ATOM     12  C   UNL     1     -47.526  30.209  23.909  1.00  0.00     0.001 A 
ATOM     13  H   UNL     1     -46.809  29.260  22.097  1.00  0.00     0.063 H 
ATOM     14  C   UNL     1     -48.487  31.066  25.930  1.00  0.00     0.007 A 
ATOM     15  C   UNL     1     -46.703  31.344  23.831  1.00  0.00    -0.049 A 
ATOM     16  H   UNL     1     -49.187  30.956  26.755  1.00  0.00     0.069 H 
ATOM     17  C   UNL     1     -46.777  32.339  24.807  1.00  0.00    -0.019 A 
ATOM     18  H   UNL     1     -46.002  31.461  23.007  1.00  0.00     0.063 H 
ATOM     19  H   UNL     1     -46.124  33.200  24.710  1.00  0.00     0.066 H 
BRANCH   6  20
ATOM     20  N   UNL     1     -50.036  26.897  24.246  1.00  0.00    -0.373 N 
ATOM     21  H   UNL     1     -49.522  26.071  23.955  1.00  0.00     0.161 HD
BRANCH  20  22
ATOM     22  C   UNL     1     -50.658  26.719  25.547  1.00  0.00     0.005 C 
ATOM     23  H   UNL     1     -51.209  25.773  25.549  1.00  0.00     0.045 H 
ATOM     24  H   UNL     1     -49.913  26.667  26.348  1.00  0.00     0.045 H 
ATOM     25  H   UNL     1     -51.378  27.516  25.762  1.00  0.00     0.045 H 
ENDBRANCH  20  22
ENDBRANCH   6  20
ENDBRANCH   4   5
ENDBRANCH   1   4
BRANCH   1  26
ATOM     26  C   UNL     1     -46.856  35.281  27.006  1.00  0.00     0.123 C 
ATOM     27  O   UNL     1     -46.848  36.580  26.394  1.00  0.00    -0.345 OA
ATOM     28  C   UNL     1     -46.846  35.476  28.520  1.00  0.00     0.119 C 
ATOM     29  H   UNL     1     -45.937  34.762  26.700  1.00  0.00     0.067 H 
ATOM     30  C   UNL     1     -46.367  37.520  27.379  1.00  0.00     0.169 C 
ATOM     31  C   UNL     1     -46.061  36.761  28.664  1.00  0.00     0.173 C 
ATOM     32  H   UNL     1     -47.846  35.583  28.949  1.00  0.00     0.066 H 
ATOM     33  H   UNL     1     -45.436  37.942  26.978  1.00  0.00     0.088 H 
ATOM     34  F   UNL     1     -46.425  37.440  29.778  1.00  0.00    -0.239 F 
ATOM     35  H   UNL     1     -44.988  36.551  28.745  1.00  0.00     0.074 H 
BRANCH  28  36
ATOM     36  O   UNL     1     -46.203  34.388  29.182  1.00  0.00    -0.387 OA
ATOM     37  H   UNL     1     -45.552  34.024  28.549  1.00  0.00     0.211 HD
ENDBRANCH  28  36
BRANCH  30  38
ATOM     38  N   UNL     1     -47.313  38.621  27.491  1.00  0.00    -0.303 N 
ATOM     39  C   UNL     1     -48.569  38.501  28.047  1.00  0.00     0.015 A 
ATOM     40  C   UNL     1     -47.116  39.917  27.089  1.00  0.00     0.148 A 
ATOM     41  C   UNL     1     -49.203  39.733  27.997  1.00  0.00     0.012 A 
ATOM     42  H   UNL     1     -48.907  37.548  28.433  1.00  0.00     0.082 H 
ATOM     43  C   UNL     1     -48.268  40.636  27.382  1.00  0.00     0.067 A 
ATOM     44  N   UNL     1     -46.004  40.404  26.511  1.00  0.00    -0.218 NA
ATOM     45  C   UNL     1     -48.261  41.999  27.034  1.00  0.00     0.136 A 
ATOM     46  C   UNL     1     -46.121  41.710  26.223  1.00  0.00     0.120 A 
ATOM     47  N   UNL     1     -47.169  42.522  26.447  1.00  0.00    -0.219 NA
ATOM     48  H   UNL     1     -45.261  42.171  25.748  1.00  0.00     0.106 H 
BRANCH  41  49
ATOM     49  C   UNL     1     -50.577  40.106  28.494  1.00  0.00     0.085 C 
ATOM     50  C   UNL     1     -51.436  38.959  29.007  1.00  0.00    -0.020 C 
ATOM     51  O   UNL     1     -51.347  40.706  27.423  1.00  0.00    -0.373 OA
ATOM     52  H   UNL     1     -50.455  40.861  29.281  1.00  0.00     0.066 H 
ATOM     53  C   UNL     1     -52.137  38.491  27.755  1.00  0.00    -0.027 C 
ATOM     54  H   UNL     1     -52.188  39.353  29.702  1.00  0.00     0.030 H 
ATOM     55  H   UNL     1     -50.895  38.165  29.528  1.00  0.00     0.030 H 
ATOM     56  C   UNL     1     -52.387  39.796  27.033  1.00  0.00     0.048 C 
ATOM     57  H   UNL     1     -51.471  37.854  27.163  1.00  0.00     0.029 H 
ATOM     58  H   UNL     1     -53.057  37.932  27.950  1.00  0.00     0.029 H 
ATOM     59  H   UNL     1     -53.342  40.238  27.333  1.00  0.00     0.057 H 
ATOM     60  H   UNL     1     -52.383  39.680  25.946  1.00  0.00     0.057 H 
ENDBRANCH  41  49
BRANCH  45  61
ATOM     61  N   UNL     1     -49.342  42.850  27.239  1.00  0.00    -0.383 N 
ATOM     62  H   UNL     1     -50.199  42.313  27.298  1.00  0.00     0.158 HD
ATOM     63  H   UNL     1     -49.179  43.498  28.010  1.00  0.00     0.158 HD
ENDBRANCH  45  61
ENDBRANCH  30  38
ENDBRANCH   1  26
TORSDOF 9
ENDMDL
MODEL 4
REMARK VINA RESULT:      -9.8      2.734      4.865
REMARK SMILES CNc1ccc2ccc(OC[C@H]3O[C@@H](n4cc([C@@H]5CCCO5)c5c(N)ncnc54)[C@@H](F)[C@@H]3O)cc2n1
REMARK SMILES IDX 11 1 10 4 9 5 3 6 4 7 36 8 5 9 35 11 6 12 34 14 7 15 8 17
REMARK SMILES IDX 2 20 1 22 12 26 13 27 32 28 14 30 30 31 31 34 33 36 15 38
REMARK SMILES IDX 16 39 29 40 17 41 23 43 28 44 24 45 27 46 26 47 18 49 19 50
REMARK SMILES IDX 22 51 20 53 21 56 25 61
REMARK H PARENT 11 2 11 3 4 10 5 13 34 16 7 18 8 19 2 21 1 23 1 24 1 25 12 29
REMARK H PARENT 32 32 14 33 30 35 33 37 16 42 27 48 18 52 19 54 19 55 20 57
REMARK H PARENT 20 58 21 59 21 60 25 62 25 63
REMARK Flexibility Score: inf
ROOT
ATOM      1  C   UNL     1     -45.964  39.565  27.945  1.00  0.00     0.117 C 
ATOM      2  H   UNL     1     -46.195  40.339  28.685  1.00  0.00     0.073 H 
ATOM      3  H   UNL     1     -46.751  39.570  27.181  1.00  0.00     0.073 H 
ENDROOT
BRANCH   1   4
ATOM      4  O   UNL     1     -45.881  38.281  28.568  1.00  0.00    -0.491 OA
BRANCH   4   5
ATOM      5  C   UNL     1     -46.665  37.287  28.049  1.00  0.00     0.121 A 
ATOM      6  C   UNL     1     -46.491  33.157  25.677  1.00  0.00     0.126 A 
ATOM      7  C   UNL     1     -47.875  33.028  25.709  1.00  0.00    -0.019 A 
ATOM      8  N   UNL     1     -45.867  34.210  26.244  1.00  0.00    -0.231 NA
ATOM      9  C   UNL     1     -48.640  34.018  26.321  1.00  0.00    -0.049 A 
ATOM     10  H   UNL     1     -48.357  32.159  25.274  1.00  0.00     0.066 H 
ATOM     11  C   UNL     1     -46.599  35.169  26.838  1.00  0.00     0.076 A 
ATOM     12  C   UNL     1     -48.003  35.117  26.900  1.00  0.00     0.001 A 
ATOM     13  H   UNL     1     -49.720  33.917  26.347  1.00  0.00     0.063 H 
ATOM     14  C   UNL     1     -45.959  36.257  27.416  1.00  0.00     0.007 A 
ATOM     15  C   UNL     1     -48.723  36.145  27.530  1.00  0.00    -0.049 A 
ATOM     16  H   UNL     1     -44.874  36.301  27.370  1.00  0.00     0.069 H 
ATOM     17  C   UNL     1     -48.054  37.228  28.103  1.00  0.00    -0.019 A 
ATOM     18  H   UNL     1     -49.810  36.107  27.581  1.00  0.00     0.063 H 
ATOM     19  H   UNL     1     -48.647  38.001  28.581  1.00  0.00     0.066 H 
BRANCH   6  20
ATOM     20  N   UNL     1     -45.749  32.123  25.075  1.00  0.00    -0.373 N 
ATOM     21  H   UNL     1     -45.468  31.461  25.792  1.00  0.00     0.161 HD
BRANCH  20  22
ATOM     22  C   UNL     1     -46.429  31.469  23.970  1.00  0.00     0.005 C 
ATOM     23  H   UNL     1     -45.821  30.624  23.631  1.00  0.00     0.045 H 
ATOM     24  H   UNL     1     -47.405  31.074  24.272  1.00  0.00     0.045 H 
ATOM     25  H   UNL     1     -46.552  32.145  23.116  1.00  0.00     0.045 H 
ENDBRANCH  20  22
ENDBRANCH   6  20
ENDBRANCH   4   5
ENDBRANCH   1   4
BRANCH   1  26
ATOM     26  C   UNL     1     -44.624  39.875  27.277  1.00  0.00     0.123 C 
ATOM     27  O   UNL     1     -44.826  40.394  25.953  1.00  0.00    -0.345 OA
ATOM     28  C   UNL     1     -43.796  40.892  28.058  1.00  0.00     0.119 C 
ATOM     29  H   UNL     1     -44.057  38.938  27.185  1.00  0.00     0.067 H 
ATOM     30  C   UNL     1     -43.814  41.398  25.723  1.00  0.00     0.169 C 
ATOM     31  C   UNL     1     -42.942  41.503  26.968  1.00  0.00     0.173 C 
ATOM     32  H   UNL     1     -44.401  41.657  28.550  1.00  0.00     0.066 H 
ATOM     33  H   UNL     1     -43.204  41.039  24.884  1.00  0.00     0.088 H 
ATOM     34  F   UNL     1     -42.598  42.778  27.266  1.00  0.00    -0.239 F 
ATOM     35  H   UNL     1     -42.013  40.934  26.841  1.00  0.00     0.074 H 
BRANCH  28  36
ATOM     36  O   UNL     1     -42.999  40.258  29.058  1.00  0.00    -0.387 OA
ATOM     37  H   UNL     1     -42.113  40.129  28.666  1.00  0.00     0.211 HD
ENDBRANCH  28  36
BRANCH  30  38
ATOM     38  N   UNL     1     -44.453  42.628  25.280  1.00  0.00    -0.303 N 
ATOM     39  C   UNL     1     -45.651  43.095  25.779  1.00  0.00     0.015 A 
ATOM     40  C   UNL     1     -43.983  43.504  24.335  1.00  0.00     0.148 A 
ATOM     41  C   UNL     1     -45.971  44.285  25.145  1.00  0.00     0.012 A 
ATOM     42  H   UNL     1     -46.176  42.540  26.547  1.00  0.00     0.082 H 
ATOM     43  C   UNL     1     -44.900  44.542  24.221  1.00  0.00     0.067 A 
ATOM     44  N   UNL     1     -42.839  43.378  23.642  1.00  0.00    -0.218 NA
ATOM     45  C   UNL     1     -44.594  45.548  23.286  1.00  0.00     0.136 A 
ATOM     46  C   UNL     1     -42.661  44.393  22.781  1.00  0.00     0.120 A 
ATOM     47  N   UNL     1     -43.460  45.453  22.566  1.00  0.00    -0.219 NA
ATOM     48  H   UNL     1     -41.758  44.355  22.181  1.00  0.00     0.106 H 
BRANCH  41  49
ATOM     49  C   UNL     1     -47.168  45.176  25.361  1.00  0.00     0.085 C 
ATOM     50  C   UNL     1     -48.155  44.721  26.427  1.00  0.00    -0.020 C 
ATOM     51  O   UNL     1     -47.945  45.270  24.142  1.00  0.00    -0.373 OA
ATOM     52  H   UNL     1     -46.799  46.181  25.601  1.00  0.00     0.066 H 
ATOM     53  C   UNL     1     -49.094  43.835  25.645  1.00  0.00    -0.027 C 
ATOM     54  H   UNL     1     -48.718  45.589  26.793  1.00  0.00     0.030 H 
ATOM     55  H   UNL     1     -47.713  44.229  27.296  1.00  0.00     0.030 H 
ATOM     56  C   UNL     1     -49.183  44.566  24.324  1.00  0.00     0.048 C 
ATOM     57  H   UNL     1     -48.649  42.845  25.499  1.00  0.00     0.029 H 
ATOM     58  H   UNL     1     -50.070  43.702  26.121  1.00  0.00     0.029 H 
ATOM     59  H   UNL     1     -49.987  45.310  24.336  1.00  0.00     0.057 H 
ATOM     60  H   UNL     1     -49.347  43.890  23.481  1.00  0.00     0.057 H 
ENDBRANCH  41  49
BRANCH  45  61
ATOM     61  N   UNL     1     -45.417  46.640  23.035  1.00  0.00    -0.383 N 
ATOM     62  H   UNL     1     -46.101  46.736  23.774  1.00  0.00     0.158 HD
ATOM     63  H   UNL     1     -44.880  47.483  22.824  1.00  0.00     0.158 HD
ENDBRANCH  45  61
ENDBRANCH  30  38
ENDBRANCH   1  26
TORSDOF 9
ENDMDL
MODEL 5
REMARK VINA RESULT:      -9.8      3.341     11.245
REMARK SMILES CNc1ccc2ccc(OC[C@H]3O[C@@H](n4cc([C@@H]5CCCO5)c5c(N)ncnc54)[C@@H](F)[C@@H]3O)cc2n1
REMARK SMILES IDX 11 1 10 4 9 5 3 6 4 7 36 8 5 9 35 11 6 12 34 14 7 15 8 17
REMARK SMILES IDX 2 20 1 22 12 26 13 27 32 28 14 30 30 31 31 34 33 36 15 38
REMARK SMILES IDX 16 39 29 40 17 41 23 43 28 44 24 45 27 46 26 47 18 49 19 50
REMARK SMILES IDX 22 51 20 53 21 56 25 61
REMARK H PARENT 11 2 11 3 4 10 5 13 34 16 7 18 8 19 2 21 1 23 1 24 1 25 12 29
REMARK H PARENT 32 32 14 33 30 35 33 37 16 42 27 48 18 52 19 54 19 55 20 57
REMARK H PARENT 20 58 21 59 21 60 25 62 25 63
REMARK Flexibility Score: inf
ROOT
ATOM      1  C   UNL     1     -46.806  33.409  26.477  1.00  0.00     0.117 C 
ATOM      2  H   UNL     1     -46.515  32.449  26.919  1.00  0.00     0.073 H 
ATOM      3  H   UNL     1     -45.904  33.901  26.092  1.00  0.00     0.073 H 
ENDROOT
BRANCH   1   4
ATOM      4  O   UNL     1     -47.450  34.235  27.450  1.00  0.00    -0.491 OA
BRANCH   4   5
ATOM      5  C   UNL     1     -46.770  35.346  27.868  1.00  0.00     0.121 A 
ATOM      6  C   UNL     1     -45.752  39.849  26.683  1.00  0.00     0.126 A 
ATOM      7  C   UNL     1     -45.003  40.032  27.841  1.00  0.00    -0.019 A 
ATOM      8  N   UNL     1     -46.366  38.678  26.418  1.00  0.00    -0.231 NA
ATOM      9  C   UNL     1     -44.865  38.978  28.739  1.00  0.00    -0.049 A 
ATOM     10  H   UNL     1     -44.541  40.990  28.050  1.00  0.00     0.066 H 
ATOM     11  C   UNL     1     -46.239  37.655  27.282  1.00  0.00     0.076 A 
ATOM     12  C   UNL     1     -45.488  37.758  28.467  1.00  0.00     0.001 A 
ATOM     13  H   UNL     1     -44.281  39.120  29.643  1.00  0.00     0.063 H 
ATOM     14  C   UNL     1     -46.865  36.447  27.008  1.00  0.00     0.007 A 
ATOM     15  C   UNL     1     -45.383  36.660  29.337  1.00  0.00    -0.049 A 
ATOM     16  H   UNL     1     -47.446  36.363  26.093  1.00  0.00     0.069 H 
ATOM     17  C   UNL     1     -46.023  35.457  29.036  1.00  0.00    -0.019 A 
ATOM     18  H   UNL     1     -44.804  36.738  30.255  1.00  0.00     0.063 H 
ATOM     19  H   UNL     1     -45.917  34.633  29.735  1.00  0.00     0.066 H 
BRANCH   6  20
ATOM     20  N   UNL     1     -45.893  40.945  25.812  1.00  0.00    -0.373 N 
ATOM     21  H   UNL     1     -46.607  41.567  26.179  1.00  0.00     0.161 HD
BRANCH  20  22
ATOM     22  C   UNL     1     -44.651  41.649  25.536  1.00  0.00     0.005 C 
ATOM     23  H   UNL     1     -44.444  42.337  26.363  1.00  0.00     0.045 H 
ATOM     24  H   UNL     1     -43.804  40.960  25.460  1.00  0.00     0.045 H 
ATOM     25  H   UNL     1     -44.723  42.250  24.624  1.00  0.00     0.045 H 
ENDBRANCH  20  22
ENDBRANCH   6  20
ENDBRANCH   4   5
ENDBRANCH   1   4
BRANCH   1  26
ATOM     26  C   UNL     1     -47.773  33.169  25.317  1.00  0.00     0.123 C 
ATOM     27  O   UNL     1     -47.156  32.363  24.302  1.00  0.00    -0.345 OA
ATOM     28  C   UNL     1     -49.058  32.471  25.754  1.00  0.00     0.119 C 
ATOM     29  H   UNL     1     -48.022  34.141  24.867  1.00  0.00     0.067 H 
ATOM     30  C   UNL     1     -48.175  31.494  23.760  1.00  0.00     0.169 C 
ATOM     31  C   UNL     1     -49.489  31.781  24.477  1.00  0.00     0.173 C 
ATOM     32  H   UNL     1     -48.906  31.743  26.555  1.00  0.00     0.066 H 
ATOM     33  H   UNL     1     -48.278  31.758  22.699  1.00  0.00     0.088 H 
ATOM     34  F   UNL     1     -50.203  30.661  24.738  1.00  0.00    -0.239 F 
ATOM     35  H   UNL     1     -50.123  32.442  23.876  1.00  0.00     0.074 H 
BRANCH  28  36
ATOM     36  O   UNL     1     -50.036  33.410  26.200  1.00  0.00    -0.387 OA
ATOM     37  H   UNL     1     -50.907  33.048  25.942  1.00  0.00     0.211 HD
ENDBRANCH  28  36
BRANCH  30  38
ATOM     38  N   UNL     1     -47.704  30.118  23.806  1.00  0.00    -0.303 N 
ATOM     39  C   UNL     1     -48.386  29.092  24.425  1.00  0.00     0.015 A 
ATOM     40  C   UNL     1     -46.550  29.626  23.252  1.00  0.00     0.148 A 
ATOM     41  C   UNL     1     -47.663  27.918  24.281  1.00  0.00     0.012 A 
ATOM     42  H   UNL     1     -49.332  29.283  24.917  1.00  0.00     0.082 H 
ATOM     43  C   UNL     1     -46.488  28.266  23.529  1.00  0.00     0.067 A 
ATOM     44  N   UNL     1     -45.640  30.337  22.563  1.00  0.00    -0.218 NA
ATOM     45  C   UNL     1     -45.361  27.579  23.043  1.00  0.00     0.136 A 
ATOM     46  C   UNL     1     -44.613  29.573  22.157  1.00  0.00     0.120 A 
ATOM     47  N   UNL     1     -44.424  28.257  22.356  1.00  0.00    -0.219 NA
ATOM     48  H   UNL     1     -43.834  30.082  21.599  1.00  0.00     0.106 H 
BRANCH  41  49
ATOM     49  C   UNL     1     -48.006  26.534  24.770  1.00  0.00     0.085 C 
ATOM     50  C   UNL     1     -49.285  26.413  25.587  1.00  0.00    -0.020 C 
ATOM     51  O   UNL     1     -46.956  26.037  25.636  1.00  0.00    -0.373 OA
ATOM     52  H   UNL     1     -48.059  25.874  23.896  1.00  0.00     0.066 H 
ATOM     53  C   UNL     1     -48.800  26.669  26.993  1.00  0.00    -0.027 C 
ATOM     54  H   UNL     1     -49.655  25.381  25.528  1.00  0.00     0.030 H 
ATOM     55  H   UNL     1     -50.102  27.070  25.280  1.00  0.00     0.030 H 
ATOM     56  C   UNL     1     -47.449  25.990  26.984  1.00  0.00     0.048 C 
ATOM     57  H   UNL     1     -48.680  27.744  27.163  1.00  0.00     0.029 H 
ATOM     58  H   UNL     1     -49.466  26.275  27.766  1.00  0.00     0.029 H 
ATOM     59  H   UNL     1     -47.533  24.936  27.267  1.00  0.00     0.057 H 
ATOM     60  H   UNL     1     -46.732  26.473  27.653  1.00  0.00     0.057 H 
ENDBRANCH  41  49
BRANCH  45  61
ATOM     61  N   UNL     1     -45.137  26.223  23.255  1.00  0.00    -0.383 N 
ATOM     62  H   UNL     1     -44.818  26.068  24.203  1.00  0.00     0.158 HD
ATOM     63  H   UNL     1     -45.933  25.653  22.964  1.00  0.00     0.158 HD
ENDBRANCH  45  61
ENDBRANCH  30  38
ENDBRANCH   1  26
TORSDOF 9
ENDMDL
MODEL 6
REMARK VINA RESULT:      -9.8      3.384      5.571
REMARK SMILES CNc1ccc2ccc(OC[C@H]3O[C@@H](n4cc([C@@H]5CCCO5)c5c(N)ncnc54)[C@@H](F)[C@@H]3O)cc2n1
REMARK SMILES IDX 11 1 10 4 9 5 3 6 4 7 36 8 5 9 35 11 6 12 34 14 7 15 8 17
REMARK SMILES IDX 2 20 1 22 12 26 13 27 32 28 14 30 30 31 31 34 33 36 15 38
REMARK SMILES IDX 16 39 29 40 17 41 23 43 28 44 24 45 27 46 26 47 18 49 19 50
REMARK SMILES IDX 22 51 20 53 21 56 25 61
REMARK H PARENT 11 2 11 3 4 10 5 13 34 16 7 18 8 19 2 21 1 23 1 24 1 25 12 29
REMARK H PARENT 32 32 14 33 30 35 33 37 16 42 27 48 18 52 19 54 19 55 20 57
REMARK H PARENT 20 58 21 59 21 60 25 62 25 63
REMARK Flexibility Score: inf
ROOT
ATOM      1  C   UNL     1     -48.979  32.708  25.179  1.00  0.00     0.117 C 
ATOM      2  H   UNL     1     -49.496  32.117  25.944  1.00  0.00     0.073 H 
ATOM      3  H   UNL     1     -49.495  33.671  25.078  1.00  0.00     0.073 H 
ENDROOT
BRANCH   1   4
ATOM      4  O   UNL     1     -48.968  32.013  23.929  1.00  0.00    -0.491 OA
BRANCH   4   5
ATOM      5  C   UNL     1     -48.207  30.878  23.857  1.00  0.00     0.121 A 
ATOM      6  C   UNL     1     -47.806  26.454  25.584  1.00  0.00     0.126 A 
ATOM      7  C   UNL     1     -46.685  26.202  24.801  1.00  0.00    -0.019 A 
ATOM      8  N   UNL     1     -48.447  27.640  25.536  1.00  0.00    -0.231 NA
ATOM      9  C   UNL     1     -46.198  27.200  23.962  1.00  0.00    -0.049 A 
ATOM     10  H   UNL     1     -46.199  25.232  24.832  1.00  0.00     0.066 H 
ATOM     11  C   UNL     1     -47.985  28.608  24.726  1.00  0.00     0.076 A 
ATOM     12  C   UNL     1     -46.850  28.434  23.913  1.00  0.00     0.001 A 
ATOM     13  H   UNL     1     -45.324  27.003  23.349  1.00  0.00     0.063 H 
ATOM     14  C   UNL     1     -48.640  29.831  24.679  1.00  0.00     0.007 A 
ATOM     15  C   UNL     1     -46.404  29.477  23.085  1.00  0.00    -0.049 A 
ATOM     16  H   UNL     1     -49.517  29.970  25.306  1.00  0.00     0.069 H 
ATOM     17  C   UNL     1     -47.082  30.697  23.058  1.00  0.00    -0.019 A 
ATOM     18  H   UNL     1     -45.527  29.344  22.454  1.00  0.00     0.063 H 
ATOM     19  H   UNL     1     -46.705  31.477  22.405  1.00  0.00     0.066 H 
BRANCH   6  20
ATOM     20  N   UNL     1     -48.285  25.412  26.400  1.00  0.00    -0.373 N 
ATOM     21  H   UNL     1     -48.923  24.838  25.857  1.00  0.00     0.161 HD
BRANCH  20  22
ATOM     22  C   UNL     1     -47.241  24.619  27.026  1.00  0.00     0.005 C 
ATOM     23  H   UNL     1     -47.516  24.432  28.070  1.00  0.00     0.045 H 
ATOM     24  H   UNL     1     -47.124  23.646  26.537  1.00  0.00     0.045 H 
ATOM     25  H   UNL     1     -46.282  25.149  27.032  1.00  0.00     0.045 H 
ENDBRANCH  20  22
ENDBRANCH   6  20
ENDBRANCH   4   5
ENDBRANCH   1   4
BRANCH   1  26
ATOM     26  C   UNL     1     -47.536  32.962  25.613  1.00  0.00     0.123 C 
ATOM     27  O   UNL     1     -47.147  34.312  25.312  1.00  0.00    -0.345 OA
ATOM     28  C   UNL     1     -47.319  32.734  27.107  1.00  0.00     0.119 C 
ATOM     29  H   UNL     1     -46.878  32.290  25.043  1.00  0.00     0.067 H 
ATOM     30  C   UNL     1     -46.286  34.763  26.380  1.00  0.00     0.169 C 
ATOM     31  C   UNL     1     -46.135  33.633  27.392  1.00  0.00     0.173 C 
ATOM     32  H   UNL     1     -48.178  33.021  27.718  1.00  0.00     0.066 H 
ATOM     33  H   UNL     1     -45.309  34.974  25.925  1.00  0.00     0.088 H 
ATOM     34  F   UNL     1     -46.143  34.068  28.674  1.00  0.00    -0.239 F 
ATOM     35  H   UNL     1     -45.194  33.094  27.234  1.00  0.00     0.074 H 
BRANCH  28  36
ATOM     36  O   UNL     1     -47.022  31.367  27.388  1.00  0.00    -0.387 OA
ATOM     37  H   UNL     1     -46.871  31.309  28.352  1.00  0.00     0.211 HD
ENDBRANCH  28  36
BRANCH  30  38
ATOM     38  N   UNL     1     -46.789  36.026  26.897  1.00  0.00    -0.303 N 
ATOM     39  C   UNL     1     -46.003  37.138  27.111  1.00  0.00     0.015 A 
ATOM     40  C   UNL     1     -48.086  36.317  27.235  1.00  0.00     0.148 A 
ATOM     41  C   UNL     1     -46.794  38.164  27.604  1.00  0.00     0.012 A 
ATOM     42  H   UNL     1     -44.942  37.108  26.893  1.00  0.00     0.082 H 
ATOM     43  C   UNL     1     -48.128  37.632  27.682  1.00  0.00     0.067 A 
ATOM     44  N   UNL     1     -49.131  35.476  27.150  1.00  0.00    -0.218 NA
ATOM     45  C   UNL     1     -49.386  38.117  28.084  1.00  0.00     0.136 A 
ATOM     46  C   UNL     1     -50.271  36.051  27.566  1.00  0.00     0.120 A 
ATOM     47  N   UNL     1     -50.455  37.303  28.022  1.00  0.00    -0.219 NA
ATOM     48  H   UNL     1     -51.159  35.428  27.531  1.00  0.00     0.106 H 
BRANCH  41  49
ATOM     49  C   UNL     1     -46.394  39.570  27.973  1.00  0.00     0.085 C 
ATOM     50  C   UNL     1     -46.404  40.586  26.839  1.00  0.00    -0.020 C 
ATOM     51  O   UNL     1     -45.037  39.584  28.481  1.00  0.00    -0.373 OA
ATOM     52  H   UNL     1     -47.057  39.905  28.780  1.00  0.00     0.066 H 
ATOM     53  C   UNL     1     -45.011  40.457  26.273  1.00  0.00    -0.027 C 
ATOM     54  H   UNL     1     -46.518  41.594  27.259  1.00  0.00     0.030 H 
ATOM     55  H   UNL     1     -47.193  40.451  26.096  1.00  0.00     0.030 H 
ATOM     56  C   UNL     1     -44.188  40.230  27.521  1.00  0.00     0.048 C 
ATOM     57  H   UNL     1     -44.949  39.582  25.616  1.00  0.00     0.029 H 
ATOM     58  H   UNL     1     -44.686  41.333  25.705  1.00  0.00     0.029 H 
ATOM     59  H   UNL     1     -43.860  41.179  27.957  1.00  0.00     0.057 H 
ATOM     60  H   UNL     1     -43.307  39.610  27.335  1.00  0.00     0.057 H 
ENDBRANCH  41  49
BRANCH  45  61
ATOM     61  N   UNL     1     -49.593  39.401  28.577  1.00  0.00    -0.383 N 
ATOM     62  H   UNL     1     -49.952  39.355  29.522  1.00  0.00     0.158 HD
ATOM     63  H   UNL     1     -48.773  39.997  28.450  1.00  0.00     0.158 HD
ENDBRANCH  45  61
ENDBRANCH  30  38
ENDBRANCH   1  26
TORSDOF 9
ENDMDL
MODEL 7
REMARK VINA RESULT:      -9.7      2.373      3.479
REMARK SMILES CNc1ccc2ccc(OC[C@H]3O[C@@H](n4cc([C@@H]5CCCO5)c5c(N)ncnc54)[C@@H](F)[C@@H]3O)cc2n1
REMARK SMILES IDX 11 1 10 4 9 5 3 6 4 7 36 8 5 9 35 11 6 12 34 14 7 15 8 17
REMARK SMILES IDX 2 20 1 22 12 26 13 27 32 28 14 30 30 31 31 34 33 36 15 38
REMARK SMILES IDX 16 39 29 40 17 41 23 43 28 44 24 45 27 46 26 47 18 49 19 50
REMARK SMILES IDX 22 51 20 53 21 56 25 61
REMARK H PARENT 11 2 11 3 4 10 5 13 34 16 7 18 8 19 2 21 1 23 1 24 1 25 12 29
REMARK H PARENT 32 32 14 33 30 35 33 37 16 42 27 48 18 52 19 54 19 55 20 57
REMARK H PARENT 20 58 21 59 21 60 25 62 25 63
REMARK Flexibility Score: inf
ROOT
ATOM      1  C   UNL     1     -47.950  35.221  27.240  1.00  0.00     0.117 C 
ATOM      2  H   UNL     1     -48.723  35.686  27.864  1.00  0.00     0.073 H 
ATOM      3  H   UNL     1     -48.110  35.533  26.201  1.00  0.00     0.073 H 
ENDROOT
BRANCH   1   4
ATOM      4  O   UNL     1     -48.004  33.797  27.350  1.00  0.00    -0.491 OA
BRANCH   4   5
ATOM      5  C   UNL     1     -47.564  33.074  26.275  1.00  0.00     0.121 A 
ATOM      6  C   UNL     1     -48.300  29.037  23.851  1.00  0.00     0.126 A 
ATOM      7  C   UNL     1     -47.293  29.345  22.943  1.00  0.00    -0.019 A 
ATOM      8  N   UNL     1     -48.614  29.868  24.866  1.00  0.00    -0.231 NA
ATOM      9  C   UNL     1     -46.574  30.528  23.095  1.00  0.00    -0.049 A 
ATOM     10  H   UNL     1     -47.075  28.678  22.117  1.00  0.00     0.066 H 
ATOM     11  C   UNL     1     -47.926  31.014  25.017  1.00  0.00     0.076 A 
ATOM     12  C   UNL     1     -46.885  31.390  24.149  1.00  0.00     0.001 A 
ATOM     13  H   UNL     1     -45.788  30.770  22.386  1.00  0.00     0.063 H 
ATOM     14  C   UNL     1     -48.243  31.869  26.065  1.00  0.00     0.007 A 
ATOM     15  C   UNL     1     -46.194  32.596  24.350  1.00  0.00    -0.049 A 
ATOM     16  H   UNL     1     -49.047  31.582  26.738  1.00  0.00     0.069 H 
ATOM     17  C   UNL     1     -46.534  33.436  25.413  1.00  0.00    -0.019 A 
ATOM     18  H   UNL     1     -45.389  32.889  23.679  1.00  0.00     0.063 H 
ATOM     19  H   UNL     1     -45.976  34.359  25.533  1.00  0.00     0.066 H 
BRANCH   6  20
ATOM     20  N   UNL     1     -49.024  27.847  23.651  1.00  0.00    -0.373 N 
ATOM     21  H   UNL     1     -49.813  27.831  24.289  1.00  0.00     0.161 HD
BRANCH  20  22
ATOM     22  C   UNL     1     -49.435  27.625  22.274  1.00  0.00     0.005 C 
ATOM     23  H   UNL     1     -50.368  28.168  22.092  1.00  0.00     0.045 H 
ATOM     24  H   UNL     1     -48.690  28.001  21.564  1.00  0.00     0.045 H 
ATOM     25  H   UNL     1     -49.631  26.565  22.078  1.00  0.00     0.045 H 
ENDBRANCH  20  22
ENDBRANCH   6  20
ENDBRANCH   4   5
ENDBRANCH   1   4
BRANCH   1  26
ATOM     26  C   UNL     1     -46.570  35.698  27.692  1.00  0.00     0.123 C 
ATOM     27  O   UNL     1     -46.050  36.680  26.782  1.00  0.00    -0.345 OA
ATOM     28  C   UNL     1     -46.584  36.315  29.088  1.00  0.00     0.119 C 
ATOM     29  H   UNL     1     -45.885  34.838  27.681  1.00  0.00     0.067 H 
ATOM     30  C   UNL     1     -45.321  37.652  27.563  1.00  0.00     0.169 C 
ATOM     31  C   UNL     1     -45.395  37.248  29.031  1.00  0.00     0.173 C 
ATOM     32  H   UNL     1     -47.501  36.868  29.308  1.00  0.00     0.066 H 
ATOM     33  H   UNL     1     -44.278  37.603  27.227  1.00  0.00     0.088 H 
ATOM     34  F   UNL     1     -45.556  38.305  29.862  1.00  0.00    -0.239 F 
ATOM     35  H   UNL     1     -44.480  36.727  29.336  1.00  0.00     0.074 H 
BRANCH  28  36
ATOM     36  O   UNL     1     -46.425  35.320  30.100  1.00  0.00    -0.387 OA
ATOM     37  H   UNL     1     -47.149  34.675  29.970  1.00  0.00     0.211 HD
ENDBRANCH  28  36
BRANCH  30  38
ATOM     38  N   UNL     1     -45.806  38.985  27.238  1.00  0.00    -0.303 N 
ATOM     39  C   UNL     1     -45.035  39.958  26.638  1.00  0.00     0.015 A 
ATOM     40  C   UNL     1     -47.068  39.476  27.455  1.00  0.00     0.148 A 
ATOM     41  C   UNL     1     -45.801  41.101  26.470  1.00  0.00     0.012 A 
ATOM     42  H   UNL     1     -44.003  39.756  26.378  1.00  0.00     0.082 H 
ATOM     43  C   UNL     1     -47.102  40.787  26.995  1.00  0.00     0.067 A 
ATOM     44  N   UNL     1     -48.090  38.806  28.015  1.00  0.00    -0.218 NA
ATOM     45  C   UNL     1     -48.324  41.469  27.139  1.00  0.00     0.136 A 
ATOM     46  C   UNL     1     -49.196  39.562  28.100  1.00  0.00     0.120 A 
ATOM     47  N   UNL     1     -49.369  40.834  27.702  1.00  0.00    -0.219 NA
ATOM     48  H   UNL     1     -50.063  39.087  28.549  1.00  0.00     0.106 H 
BRANCH  41  49
ATOM     49  C   UNL     1     -45.407  42.417  25.849  1.00  0.00     0.085 C 
ATOM     50  C   UNL     1     -44.082  42.432  25.099  1.00  0.00    -0.020 C 
ATOM     51  O   UNL     1     -45.272  43.432  26.875  1.00  0.00    -0.373 OA
ATOM     52  H   UNL     1     -46.218  42.726  25.177  1.00  0.00     0.066 H 
ATOM     53  C   UNL     1     -43.095  42.777  26.188  1.00  0.00    -0.027 C 
ATOM     54  H   UNL     1     -44.091  43.247  24.365  1.00  0.00     0.030 H 
ATOM     55  H   UNL     1     -43.837  41.512  24.562  1.00  0.00     0.030 H 
ATOM     56  C   UNL     1     -43.883  43.764  27.020  1.00  0.00     0.048 C 
ATOM     57  H   UNL     1     -42.859  41.887  26.782  1.00  0.00     0.029 H 
ATOM     58  H   UNL     1     -42.156  43.194  25.813  1.00  0.00     0.029 H 
ATOM     59  H   UNL     1     -43.748  44.787  26.654  1.00  0.00     0.057 H 
ATOM     60  H   UNL     1     -43.608  43.733  28.077  1.00  0.00     0.057 H 
ENDBRANCH  41  49
BRANCH  45  61
ATOM     61  N   UNL     1     -48.517  42.791  26.751  1.00  0.00    -0.383 N 
ATOM     62  H   UNL     1     -48.021  42.974  25.888  1.00  0.00     0.158 HD
ATOM     63  H   UNL     1     -49.504  43.050  26.752  1.00  0.00     0.158 HD
ENDBRANCH  45  61
ENDBRANCH  30  38
ENDBRANCH   1  26
TORSDOF 9
ENDMDL
