MODEL 1
REMARK VINA RESULT:     -11.5      0.000      0.000
REMARK SMILES O=C(NCc1ccc2cc(CN3C[C@H]4CC[C@@H]3CC4)[nH]c2c1)c1cc(=O)n2ccccc2n1
REMARK SMILES IDX 5 1 6 2 7 3 8 4 9 5 10 6 20 7 21 8 22 9 4 15 3 18 1 19 2 20
REMARK SMILES IDX 23 22 24 23 33 24 25 25 32 27 26 28 27 29 31 30 28 31 30 32
REMARK SMILES IDX 29 34 11 38 12 41 13 42 17 43 14 44 16 47 18 48 15 50 19 51
REMARK H PARENT 6 10 7 11 9 12 20 13 22 14 4 16 4 17 3 21 24 26 31 33 28 35
REMARK H PARENT 30 36 29 37 11 39 11 40 13 45 13 46 17 49 14 52 16 53 16 54
REMARK H PARENT 18 55 18 56 15 57 15 58 19 59 19 60
REMARK Flexibility Score: inf
ROOT
ATOM      1  C   UNL     1     -47.961  35.125  26.607  1.00  0.00    -0.027 A 
ATOM      2  C   UNL     1     -46.713  35.022  25.979  1.00  0.00    -0.057 A 
ATOM      3  C   UNL     1     -46.348  33.866  25.278  1.00  0.00    -0.052 A 
ATOM      4  C   UNL     1     -47.249  32.788  25.209  1.00  0.00    -0.000 A 
ATOM      5  C   UNL     1     -47.209  31.502  24.605  1.00  0.00    -0.032 A 
ATOM      6  C   UNL     1     -48.401  30.860  24.881  1.00  0.00     0.030 A 
ATOM      7  N   UNL     1     -49.159  31.723  25.634  1.00  0.00    -0.357 N 
ATOM      8  C   UNL     1     -48.481  32.903  25.848  1.00  0.00     0.046 A 
ATOM      9  C   UNL     1     -48.864  34.049  26.554  1.00  0.00    -0.033 A 
ATOM     10  H   UNL     1     -46.005  35.848  26.032  1.00  0.00     0.063 H 
ATOM     11  H   UNL     1     -45.378  33.803  24.794  1.00  0.00     0.063 H 
ATOM     12  H   UNL     1     -46.391  31.080  24.034  1.00  0.00     0.065 H 
ATOM     13  H   UNL     1     -50.083  31.526  25.991  1.00  0.00     0.166 HD
ATOM     14  H   UNL     1     -49.828  34.105  27.052  1.00  0.00     0.065 H 
ENDROOT
BRANCH   1  15
ATOM     15  C   UNL     1     -48.319  36.363  27.386  1.00  0.00     0.043 C 
ATOM     16  H   UNL     1     -49.210  36.845  26.967  1.00  0.00     0.054 H 
ATOM     17  H   UNL     1     -48.554  36.115  28.428  1.00  0.00     0.054 H 
BRANCH  15  18
ATOM     18  N   UNL     1     -47.238  37.313  27.357  1.00  0.00    -0.347 N 
ATOM     19  O   UNL     1     -46.553  36.961  29.519  1.00  0.00    -0.268 OA
ATOM     20  C   UNL     1     -46.463  37.567  28.459  1.00  0.00     0.270 C 
ATOM     21  H   UNL     1     -47.128  37.935  26.562  1.00  0.00     0.164 HD
BRANCH  20  22
ATOM     22  C   UNL     1     -45.484  38.693  28.228  1.00  0.00     0.136 A 
ATOM     23  C   UNL     1     -45.655  39.411  27.115  1.00  0.00     0.035 A 
ATOM     24  N   UNL     1     -44.490  38.907  29.155  1.00  0.00    -0.225 NA
ATOM     25  C   UNL     1     -44.723  40.515  26.852  1.00  0.00     0.258 A 
ATOM     26  H   UNL     1     -46.439  39.232  26.393  1.00  0.00     0.071 H 
ATOM     27  C   UNL     1     -43.669  39.883  28.918  1.00  0.00     0.140 A 
ATOM     28  O   UNL     1     -44.874  41.184  25.830  1.00  0.00    -0.269 OA
ATOM     29  N   UNL     1     -43.732  40.710  27.802  1.00  0.00    -0.268 N 
ATOM     30  C   UNL     1     -42.577  40.151  29.897  1.00  0.00    -0.019 A 
ATOM     31  C   UNL     1     -42.811  41.737  27.620  1.00  0.00     0.014 A 
ATOM     32  C   UNL     1     -41.715  41.151  29.678  1.00  0.00    -0.057 A 
ATOM     33  H   UNL     1     -42.520  39.512  30.769  1.00  0.00     0.066 H 
ATOM     34  C   UNL     1     -41.833  41.971  28.503  1.00  0.00    -0.045 A 
ATOM     35  H   UNL     1     -42.919  42.343  26.725  1.00  0.00     0.082 H 
ATOM     36  H   UNL     1     -40.913  41.362  30.380  1.00  0.00     0.062 H 
ATOM     37  H   UNL     1     -41.119  42.776  28.351  1.00  0.00     0.064 H 
ENDBRANCH  20  22
ENDBRANCH  15  18
ENDBRANCH   1  15
BRANCH   6  38
ATOM     38  C   UNL     1     -48.892  29.503  24.490  1.00  0.00     0.039 C 
ATOM     39  H   UNL     1     -49.961  29.400  24.712  1.00  0.00     0.050 H 
ATOM     40  H   UNL     1     -48.790  29.430  23.399  1.00  0.00     0.050 H 
BRANCH  38  41
ATOM     41  N   UNL     1     -48.108  28.451  25.134  1.00  0.00    -0.294 NA
ATOM     42  C   UNL     1     -48.450  28.250  26.555  1.00  0.00     0.002 C 
ATOM     43  C   UNL     1     -48.118  27.177  24.391  1.00  0.00     0.010 C 
ATOM     44  C   UNL     1     -48.487  26.747  26.899  1.00  0.00    -0.028 C 
ATOM     45  H   UNL     1     -47.698  28.754  27.171  1.00  0.00     0.043 H 
ATOM     46  H   UNL     1     -49.424  28.687  26.808  1.00  0.00     0.043 H 
ATOM     47  C   UNL     1     -49.436  26.407  24.605  1.00  0.00    -0.037 C 
ATOM     48  C   UNL     1     -46.958  26.331  24.959  1.00  0.00    -0.037 C 
ATOM     49  H   UNL     1     -47.940  27.341  23.321  1.00  0.00     0.047 H 
ATOM     50  C   UNL     1     -49.632  26.107  26.096  1.00  0.00    -0.048 C 
ATOM     51  C   UNL     1     -47.160  26.106  26.464  1.00  0.00    -0.048 C 
ATOM     52  H   UNL     1     -48.648  26.603  27.974  1.00  0.00     0.032 H 
ATOM     53  H   UNL     1     -50.289  26.978  24.221  1.00  0.00     0.028 H 
ATOM     54  H   UNL     1     -49.417  25.467  24.042  1.00  0.00     0.028 H 
ATOM     55  H   UNL     1     -46.907  25.366  24.443  1.00  0.00     0.028 H 
ATOM     56  H   UNL     1     -45.996  26.830  24.784  1.00  0.00     0.028 H 
ATOM     57  H   UNL     1     -50.599  26.502  26.430  1.00  0.00     0.027 H 
ATOM     58  H   UNL     1     -49.659  25.024  26.264  1.00  0.00     0.027 H 
ATOM     59  H   UNL     1     -47.159  25.032  26.687  1.00  0.00     0.027 H 
ATOM     60  H   UNL     1     -46.326  26.547  27.023  1.00  0.00     0.027 H 
ENDBRANCH  38  41
ENDBRANCH   6  38
TORSDOF 5
ENDMDL
MODEL 2
REMARK VINA RESULT:     -10.8      1.412      2.066
REMARK SMILES O=C(NCc1ccc2cc(CN3C[C@H]4CC[C@@H]3CC4)[nH]c2c1)c1cc(=O)n2ccccc2n1
REMARK SMILES IDX 5 1 6 2 7 3 8 4 9 5 10 6 20 7 21 8 22 9 4 15 3 18 1 19 2 20
REMARK SMILES IDX 23 22 24 23 33 24 25 25 32 27 26 28 27 29 31 30 28 31 30 32
REMARK SMILES IDX 29 34 11 38 12 41 13 42 17 43 14 44 16 47 18 48 15 50 19 51
REMARK H PARENT 6 10 7 11 9 12 20 13 22 14 4 16 4 17 3 21 24 26 31 33 28 35
REMARK H PARENT 30 36 29 37 11 39 11 40 13 45 13 46 17 49 14 52 16 53 16 54
REMARK H PARENT 18 55 18 56 15 57 15 58 19 59 19 60
REMARK Flexibility Score: inf
ROOT
ATOM      1  C   UNL     1     -47.673  35.874  27.072  1.00  0.00    -0.027 A 
ATOM      2  C   UNL     1     -46.391  35.565  26.598  1.00  0.00    -0.057 A 
ATOM      3  C   UNL     1     -46.138  34.361  25.929  1.00  0.00    -0.052 A 
ATOM      4  C   UNL     1     -47.188  33.445  25.736  1.00  0.00    -0.000 A 
ATOM      5  C   UNL     1     -47.286  32.167  25.122  1.00  0.00    -0.032 A 
ATOM      6  C   UNL     1     -48.591  31.730  25.241  1.00  0.00     0.030 A 
ATOM      7  N   UNL     1     -49.284  32.711  25.910  1.00  0.00    -0.357 N 
ATOM      8  C   UNL     1     -48.453  33.764  26.222  1.00  0.00     0.046 A 
ATOM      9  C   UNL     1     -48.727  34.961  26.894  1.00  0.00    -0.033 A 
ATOM     10  H   UNL     1     -45.570  36.263  26.749  1.00  0.00     0.063 H 
ATOM     11  H   UNL     1     -45.139  34.137  25.565  1.00  0.00     0.063 H 
ATOM     12  H   UNL     1     -46.484  31.614  24.648  1.00  0.00     0.065 H 
ATOM     13  H   UNL     1     -50.265  32.670  26.150  1.00  0.00     0.166 HD
ATOM     14  H   UNL     1     -49.722  35.177  27.272  1.00  0.00     0.065 H 
ENDROOT
BRANCH   1  15
ATOM     15  C   UNL     1     -47.916  37.159  27.820  1.00  0.00     0.043 C 
ATOM     16  H   UNL     1     -48.842  37.639  27.483  1.00  0.00     0.054 H 
ATOM     17  H   UNL     1     -48.031  36.970  28.894  1.00  0.00     0.054 H 
BRANCH  15  18
ATOM     18  N   UNL     1     -46.830  38.081  27.614  1.00  0.00    -0.347 N 
ATOM     19  O   UNL     1     -45.848  37.753  29.663  1.00  0.00    -0.268 OA
ATOM     20  C   UNL     1     -45.899  38.337  28.587  1.00  0.00     0.270 C 
ATOM     21  H   UNL     1     -46.823  38.684  26.798  1.00  0.00     0.164 HD
BRANCH  20  22
ATOM     22  C   UNL     1     -44.939  39.433  28.192  1.00  0.00     0.136 A 
ATOM     23  C   UNL     1     -43.935  39.678  29.037  1.00  0.00     0.035 A 
ATOM     24  N   UNL     1     -45.152  40.105  27.010  1.00  0.00    -0.225 NA
ATOM     25  C   UNL     1     -42.978  40.737  28.690  1.00  0.00     0.258 A 
ATOM     26  H   UNL     1     -43.778  39.143  29.964  1.00  0.00     0.071 H 
ATOM     27  C   UNL     1     -44.305  41.040  26.708  1.00  0.00     0.140 A 
ATOM     28  O   UNL     1     -42.048  40.968  29.462  1.00  0.00    -0.269 OA
ATOM     29  N   UNL     1     -43.215  41.398  27.494  1.00  0.00    -0.268 N 
ATOM     30  C   UNL     1     -44.497  41.794  25.437  1.00  0.00    -0.019 A 
ATOM     31  C   UNL     1     -42.352  42.415  27.100  1.00  0.00     0.014 A 
ATOM     32  C   UNL     1     -43.640  42.765  25.099  1.00  0.00    -0.057 A 
ATOM     33  H   UNL     1     -45.344  41.522  24.818  1.00  0.00     0.066 H 
ATOM     34  C   UNL     1     -42.531  43.088  25.956  1.00  0.00    -0.045 A 
ATOM     35  H   UNL     1     -41.522  42.642  27.763  1.00  0.00     0.082 H 
ATOM     36  H   UNL     1     -43.763  43.324  24.177  1.00  0.00     0.062 H 
ATOM     37  H   UNL     1     -41.851  43.880  25.658  1.00  0.00     0.064 H 
ENDBRANCH  20  22
ENDBRANCH  15  18
ENDBRANCH   1  15
BRANCH   6  38
ATOM     38  C   UNL     1     -49.246  30.471  24.774  1.00  0.00     0.039 C 
ATOM     39  H   UNL     1     -50.199  30.314  25.294  1.00  0.00     0.050 H 
ATOM     40  H   UNL     1     -49.487  30.613  23.712  1.00  0.00     0.050 H 
BRANCH  38  41
ATOM     41  N   UNL     1     -48.356  29.322  24.931  1.00  0.00    -0.294 NA
ATOM     42  C   UNL     1     -48.732  28.437  26.050  1.00  0.00     0.002 C 
ATOM     43  C   UNL     1     -48.159  28.561  23.683  1.00  0.00     0.010 C 
ATOM     44  C   UNL     1     -48.580  26.955  25.648  1.00  0.00    -0.028 C 
ATOM     45  H   UNL     1     -48.084  28.658  26.905  1.00  0.00     0.043 H 
ATOM     46  H   UNL     1     -49.767  28.602  26.374  1.00  0.00     0.043 H 
ATOM     47  C   UNL     1     -49.368  27.656  23.374  1.00  0.00    -0.037 C 
ATOM     48  C   UNL     1     -46.922  27.665  23.909  1.00  0.00    -0.037 C 
ATOM     49  H   UNL     1     -47.956  29.231  22.839  1.00  0.00     0.047 H 
ATOM     50  C   UNL     1     -49.589  26.665  24.524  1.00  0.00    -0.048 C 
ATOM     51  C   UNL     1     -47.159  26.733  25.105  1.00  0.00    -0.048 C 
ATOM     52  H   UNL     1     -48.768  26.302  26.507  1.00  0.00     0.032 H 
ATOM     53  H   UNL     1     -50.272  28.254  23.215  1.00  0.00     0.028 H 
ATOM     54  H   UNL     1     -49.195  27.104  22.443  1.00  0.00     0.028 H 
ATOM     55  H   UNL     1     -46.716  27.072  23.011  1.00  0.00     0.028 H 
ATOM     56  H   UNL     1     -46.029  28.279  24.088  1.00  0.00     0.028 H 
ATOM     57  H   UNL     1     -50.615  26.757  24.900  1.00  0.00     0.027 H 
ATOM     58  H   UNL     1     -49.475  25.636  24.163  1.00  0.00     0.027 H 
ATOM     59  H   UNL     1     -47.022  25.688  24.800  1.00  0.00     0.027 H 
ATOM     60  H   UNL     1     -46.419  26.934  25.889  1.00  0.00     0.027 H 
ENDBRANCH  38  41
ENDBRANCH   6  38
TORSDOF 5
ENDMDL
MODEL 3
REMARK VINA RESULT:     -10.8      2.355      3.690
REMARK SMILES O=C(NCc1ccc2cc(CN3C[C@H]4CC[C@@H]3CC4)[nH]c2c1)c1cc(=O)n2ccccc2n1
REMARK SMILES IDX 5 1 6 2 7 3 8 4 9 5 10 6 20 7 21 8 22 9 4 15 3 18 1 19 2 20
REMARK SMILES IDX 23 22 24 23 33 24 25 25 32 27 26 28 27 29 31 30 28 31 30 32
REMARK SMILES IDX 29 34 11 38 12 41 13 42 17 43 14 44 16 47 18 48 15 50 19 51
REMARK H PARENT 6 10 7 11 9 12 20 13 22 14 4 16 4 17 3 21 24 26 31 33 28 35
REMARK H PARENT 30 36 29 37 11 39 11 40 13 45 13 46 17 49 14 52 16 53 16 54
REMARK H PARENT 18 55 18 56 15 57 15 58 19 59 19 60
REMARK Flexibility Score: inf
ROOT
ATOM      1  C   UNL     1     -46.679  35.752  28.512  1.00  0.00    -0.027 A 
ATOM      2  C   UNL     1     -47.994  35.984  28.086  1.00  0.00    -0.057 A 
ATOM      3  C   UNL     1     -48.568  35.223  27.060  1.00  0.00    -0.052 A 
ATOM      4  C   UNL     1     -47.808  34.213  26.443  1.00  0.00    -0.000 A 
ATOM      5  C   UNL     1     -48.063  33.280  25.402  1.00  0.00    -0.032 A 
ATOM      6  C   UNL     1     -46.922  32.524  25.211  1.00  0.00     0.030 A 
ATOM      7  N   UNL     1     -45.986  32.976  26.111  1.00  0.00    -0.357 N 
ATOM      8  C   UNL     1     -46.500  34.002  26.871  1.00  0.00     0.046 A 
ATOM      9  C   UNL     1     -45.908  34.752  27.894  1.00  0.00    -0.033 A 
ATOM     10  H   UNL     1     -48.589  36.769  28.552  1.00  0.00     0.063 H 
ATOM     11  H   UNL     1     -49.590  35.413  26.744  1.00  0.00     0.063 H 
ATOM     12  H   UNL     1     -48.982  33.173  24.838  1.00  0.00     0.065 H 
ATOM     13  H   UNL     1     -45.047  32.615  26.203  1.00  0.00     0.166 HD
ATOM     14  H   UNL     1     -44.881  34.572  28.199  1.00  0.00     0.065 H 
ENDROOT
BRANCH   1  15
ATOM     15  C   UNL     1     -46.070  36.606  29.592  1.00  0.00     0.043 C 
ATOM     16  H   UNL     1     -46.846  37.034  30.237  1.00  0.00     0.054 H 
ATOM     17  H   UNL     1     -45.417  36.008  30.239  1.00  0.00     0.054 H 
BRANCH  15  18
ATOM     18  N   UNL     1     -45.311  37.686  29.020  1.00  0.00    -0.347 N 
ATOM     19  O   UNL     1     -44.246  38.285  30.963  1.00  0.00    -0.268 OA
ATOM     20  C   UNL     1     -44.484  38.476  29.777  1.00  0.00     0.270 C 
ATOM     21  H   UNL     1     -45.496  37.990  28.069  1.00  0.00     0.164 HD
BRANCH  20  22
ATOM     22  C   UNL     1     -43.900  39.622  28.988  1.00  0.00     0.136 A 
ATOM     23  C   UNL     1     -42.829  40.222  29.513  1.00  0.00     0.035 A 
ATOM     24  N   UNL     1     -44.495  39.978  27.799  1.00  0.00    -0.225 NA
ATOM     25  C   UNL     1     -42.230  41.342  28.777  1.00  0.00     0.258 A 
ATOM     26  H   UNL     1     -42.371  39.933  30.449  1.00  0.00     0.071 H 
ATOM     27  C   UNL     1     -43.963  40.969  27.153  1.00  0.00     0.140 A 
ATOM     28  O   UNL     1     -41.242  41.900  29.252  1.00  0.00    -0.269 OA
ATOM     29  N   UNL     1     -42.848  41.680  27.582  1.00  0.00    -0.268 N 
ATOM     30  C   UNL     1     -44.575  41.388  25.860  1.00  0.00    -0.019 A 
ATOM     31  C   UNL     1     -42.338  42.734  26.830  1.00  0.00     0.014 A 
ATOM     32  C   UNL     1     -44.048  42.408  25.171  1.00  0.00    -0.057 A 
ATOM     33  H   UNL     1     -45.444  40.840  25.517  1.00  0.00     0.066 H 
ATOM     34  C   UNL     1     -42.893  43.104  25.669  1.00  0.00    -0.045 A 
ATOM     35  H   UNL     1     -41.465  43.245  27.226  1.00  0.00     0.082 H 
ATOM     36  H   UNL     1     -44.480  42.727  24.227  1.00  0.00     0.062 H 
ATOM     37  H   UNL     1     -42.487  43.928  25.090  1.00  0.00     0.064 H 
ENDBRANCH  20  22
ENDBRANCH  15  18
ENDBRANCH   1  15
BRANCH   6  38
ATOM     38  C   UNL     1     -46.637  31.408  24.260  1.00  0.00     0.039 C 
ATOM     39  H   UNL     1     -45.619  31.489  23.860  1.00  0.00     0.050 H 
ATOM     40  H   UNL     1     -46.672  30.477  24.842  1.00  0.00     0.050 H 
BRANCH  38  41
ATOM     41  N   UNL     1     -47.631  31.360  23.189  1.00  0.00    -0.294 NA
ATOM     42  C   UNL     1     -47.157  30.660  21.979  1.00  0.00     0.002 C 
ATOM     43  C   UNL     1     -48.942  30.846  23.630  1.00  0.00     0.010 C 
ATOM     44  C   UNL     1     -48.269  29.765  21.395  1.00  0.00    -0.028 C 
ATOM     45  H   UNL     1     -46.854  31.408  21.238  1.00  0.00     0.043 H 
ATOM     46  H   UNL     1     -46.281  30.032  22.185  1.00  0.00     0.043 H 
ATOM     47  C   UNL     1     -48.931  29.312  23.769  1.00  0.00    -0.037 C 
ATOM     48  C   UNL     1     -49.954  31.232  22.530  1.00  0.00    -0.037 C 
ATOM     49  H   UNL     1     -49.253  31.314  24.572  1.00  0.00     0.047 H 
ATOM     50  C   UNL     1     -48.579  28.665  22.424  1.00  0.00    -0.048 C 
ATOM     51  C   UNL     1     -49.532  30.617  21.188  1.00  0.00    -0.048 C 
ATOM     52  H   UNL     1     -47.948  29.321  20.447  1.00  0.00     0.032 H 
ATOM     53  H   UNL     1     -48.217  28.994  24.537  1.00  0.00     0.028 H 
ATOM     54  H   UNL     1     -49.915  28.958  24.098  1.00  0.00     0.028 H 
ATOM     55  H   UNL     1     -50.957  30.881  22.800  1.00  0.00     0.028 H 
ATOM     56  H   UNL     1     -50.021  32.323  22.434  1.00  0.00     0.028 H 
ATOM     57  H   UNL     1     -47.713  28.003  22.546  1.00  0.00     0.027 H 
ATOM     58  H   UNL     1     -49.408  28.038  22.076  1.00  0.00     0.027 H 
ATOM     59  H   UNL     1     -50.347  30.006  20.783  1.00  0.00     0.027 H 
ATOM     60  H   UNL     1     -49.337  31.412  20.458  1.00  0.00     0.027 H 
ENDBRANCH  38  41
ENDBRANCH   6  38
TORSDOF 5
ENDMDL
MODEL 4
REMARK VINA RESULT:     -10.7      1.939      2.676
REMARK SMILES O=C(NCc1ccc2cc(CN3C[C@H]4CC[C@@H]3CC4)[nH]c2c1)c1cc(=O)n2ccccc2n1
REMARK SMILES IDX 5 1 6 2 7 3 8 4 9 5 10 6 20 7 21 8 22 9 4 15 3 18 1 19 2 20
REMARK SMILES IDX 23 22 24 23 33 24 25 25 32 27 26 28 27 29 31 30 28 31 30 32
REMARK SMILES IDX 29 34 11 38 12 41 13 42 17 43 14 44 16 47 18 48 15 50 19 51
REMARK H PARENT 6 10 7 11 9 12 20 13 22 14 4 16 4 17 3 21 24 26 31 33 28 35
REMARK H PARENT 30 36 29 37 11 39 11 40 13 45 13 46 17 49 14 52 16 53 16 54
REMARK H PARENT 18 55 18 56 15 57 15 58 19 59 19 60
REMARK Flexibility Score: inf
ROOT
ATOM      1  C   UNL     1     -47.864  36.045  26.937  1.00  0.00    -0.027 A 
ATOM      2  C   UNL     1     -46.540  35.802  26.548  1.00  0.00    -0.057 A 
ATOM      3  C   UNL     1     -46.140  34.542  26.086  1.00  0.00    -0.052 A 
ATOM      4  C   UNL     1     -47.084  33.502  26.018  1.00  0.00    -0.000 A 
ATOM      5  C   UNL     1     -47.029  32.140  25.613  1.00  0.00    -0.032 A 
ATOM      6  C   UNL     1     -48.287  31.592  25.771  1.00  0.00     0.030 A 
ATOM      7  N   UNL     1     -49.101  32.586  26.260  1.00  0.00    -0.357 N 
ATOM      8  C   UNL     1     -48.393  33.757  26.418  1.00  0.00     0.046 A 
ATOM      9  C   UNL     1     -48.812  35.009  26.884  1.00  0.00    -0.033 A 
ATOM     10  H   UNL     1     -45.799  36.599  26.604  1.00  0.00     0.063 H 
ATOM     11  H   UNL     1     -45.111  34.371  25.785  1.00  0.00     0.063 H 
ATOM     12  H   UNL     1     -46.158  31.607  25.252  1.00  0.00     0.065 H 
ATOM     13  H   UNL     1     -50.081  32.480  26.480  1.00  0.00     0.166 HD
ATOM     14  H   UNL     1     -49.838  35.175  27.200  1.00  0.00     0.065 H 
ENDROOT
BRANCH   1  15
ATOM     15  C   UNL     1     -48.264  37.398  27.465  1.00  0.00     0.043 C 
ATOM     16  H   UNL     1     -48.964  37.893  26.782  1.00  0.00     0.054 H 
ATOM     17  H   UNL     1     -48.776  37.304  28.430  1.00  0.00     0.054 H 
BRANCH  15  18
ATOM     18  N   UNL     1     -47.110  38.245  27.621  1.00  0.00    -0.347 N 
ATOM     19  O   UNL     1     -47.860  39.923  26.246  1.00  0.00    -0.268 OA
ATOM     20  C   UNL     1     -46.986  39.435  26.951  1.00  0.00     0.270 C 
ATOM     21  H   UNL     1     -46.289  37.901  28.109  1.00  0.00     0.164 HD
BRANCH  20  22
ATOM     22  C   UNL     1     -45.638  40.080  27.169  1.00  0.00     0.136 A 
ATOM     23  C   UNL     1     -45.222  40.923  26.221  1.00  0.00     0.035 A 
ATOM     24  N   UNL     1     -44.930  39.765  28.306  1.00  0.00    -0.225 NA
ATOM     25  C   UNL     1     -43.916  41.572  26.394  1.00  0.00     0.258 A 
ATOM     26  H   UNL     1     -45.788  41.161  25.330  1.00  0.00     0.071 H 
ATOM     27  C   UNL     1     -43.777  40.341  28.454  1.00  0.00     0.140 A 
ATOM     28  O   UNL     1     -43.525  42.352  25.527  1.00  0.00    -0.269 OA
ATOM     29  N   UNL     1     -43.223  41.239  27.549  1.00  0.00    -0.268 N 
ATOM     30  C   UNL     1     -42.975  40.030  29.672  1.00  0.00    -0.019 A 
ATOM     31  C   UNL     1     -41.977  41.813  27.781  1.00  0.00     0.014 A 
ATOM     32  C   UNL     1     -41.782  40.608  29.852  1.00  0.00    -0.057 A 
ATOM     33  H   UNL     1     -43.398  39.331  30.384  1.00  0.00     0.066 H 
ATOM     34  C   UNL     1     -41.264  41.528  28.877  1.00  0.00    -0.045 A 
ATOM     35  H   UNL     1     -41.606  42.505  27.030  1.00  0.00     0.082 H 
ATOM     36  H   UNL     1     -41.184  40.394  30.733  1.00  0.00     0.062 H 
ATOM     37  H   UNL     1     -40.292  41.983  29.048  1.00  0.00     0.064 H 
ENDBRANCH  20  22
ENDBRANCH  15  18
ENDBRANCH   1  15
BRANCH   6  38
ATOM     38  C   UNL     1     -48.793  30.213  25.496  1.00  0.00     0.039 C 
ATOM     39  H   UNL     1     -48.132  29.461  25.944  1.00  0.00     0.050 H 
ATOM     40  H   UNL     1     -49.762  30.122  26.005  1.00  0.00     0.050 H 
BRANCH  38  41
ATOM     41  N   UNL     1     -48.963  29.989  24.061  1.00  0.00    -0.294 NA
ATOM     42  C   UNL     1     -48.588  31.155  23.237  1.00  0.00     0.002 C 
ATOM     43  C   UNL     1     -48.310  28.757  23.581  1.00  0.00     0.010 C 
ATOM     44  C   UNL     1     -47.816  30.707  21.979  1.00  0.00    -0.028 C 
ATOM     45  H   UNL     1     -49.502  31.685  22.944  1.00  0.00     0.043 H 
ATOM     46  H   UNL     1     -47.963  31.866  23.791  1.00  0.00     0.043 H 
ATOM     47  C   UNL     1     -46.788  28.943  23.431  1.00  0.00    -0.037 C 
ATOM     48  C   UNL     1     -48.907  28.462  22.188  1.00  0.00    -0.037 C 
ATOM     49  H   UNL     1     -48.530  27.910  24.242  1.00  0.00     0.047 H 
ATOM     50  C   UNL     1     -46.492  30.073  22.438  1.00  0.00    -0.048 C 
ATOM     51  C   UNL     1     -48.644  29.642  21.242  1.00  0.00    -0.048 C 
ATOM     52  H   UNL     1     -47.622  31.563  21.322  1.00  0.00     0.032 H 
ATOM     53  H   UNL     1     -46.324  29.163  24.400  1.00  0.00     0.028 H 
ATOM     54  H   UNL     1     -46.330  28.013  23.075  1.00  0.00     0.028 H 
ATOM     55  H   UNL     1     -48.465  27.549  21.774  1.00  0.00     0.028 H 
ATOM     56  H   UNL     1     -49.987  28.279  22.263  1.00  0.00     0.028 H 
ATOM     57  H   UNL     1     -45.854  30.827  22.914  1.00  0.00     0.027 H 
ATOM     58  H   UNL     1     -45.935  29.685  21.578  1.00  0.00     0.027 H 
ATOM     59  H   UNL     1     -48.117  29.295  20.346  1.00  0.00     0.027 H 
ATOM     60  H   UNL     1     -49.596  30.070  20.905  1.00  0.00     0.027 H 
ENDBRANCH  38  41
ENDBRANCH   6  38
TORSDOF 5
ENDMDL
MODEL 5
REMARK VINA RESULT:     -10.3      2.493      4.451
REMARK SMILES O=C(NCc1ccc2cc(CN3C[C@H]4CC[C@@H]3CC4)[nH]c2c1)c1cc(=O)n2ccccc2n1
REMARK SMILES IDX 5 1 6 2 7 3 8 4 9 5 10 6 20 7 21 8 22 9 4 15 3 18 1 19 2 20
REMARK SMILES IDX 23 22 24 23 33 24 25 25 32 27 26 28 27 29 31 30 28 31 30 32
REMARK SMILES IDX 29 34 11 38 12 41 13 42 17 43 14 44 16 47 18 48 15 50 19 51
REMARK H PARENT 6 10 7 11 9 12 20 13 22 14 4 16 4 17 3 21 24 26 31 33 28 35
REMARK H PARENT 30 36 29 37 11 39 11 40 13 45 13 46 17 49 14 52 16 53 16 54
REMARK H PARENT 18 55 18 56 15 57 15 58 19 59 19 60
REMARK Flexibility Score: inf
ROOT
ATOM      1  C   UNL     1     -45.732  37.438  28.233  1.00  0.00    -0.027 A 
ATOM      2  C   UNL     1     -46.948  37.847  27.670  1.00  0.00    -0.057 A 
ATOM      3  C   UNL     1     -47.795  36.932  27.032  1.00  0.00    -0.052 A 
ATOM      4  C   UNL     1     -47.413  35.581  26.950  1.00  0.00    -0.000 A 
ATOM      5  C   UNL     1     -48.007  34.417  26.390  1.00  0.00    -0.032 A 
ATOM      6  C   UNL     1     -47.155  33.351  26.608  1.00  0.00     0.030 A 
ATOM      7  N   UNL     1     -46.064  33.840  27.286  1.00  0.00    -0.357 N 
ATOM      8  C   UNL     1     -46.197  35.193  27.505  1.00  0.00     0.046 A 
ATOM      9  C   UNL     1     -45.336  36.092  28.147  1.00  0.00    -0.033 A 
ATOM     10  H   UNL     1     -47.250  38.892  27.721  1.00  0.00     0.063 H 
ATOM     11  H   UNL     1     -48.736  37.265  26.603  1.00  0.00     0.063 H 
ATOM     12  H   UNL     1     -48.955  34.361  25.870  1.00  0.00     0.065 H 
ATOM     13  H   UNL     1     -45.269  33.291  27.580  1.00  0.00     0.166 HD
ATOM     14  H   UNL     1     -44.388  35.762  28.561  1.00  0.00     0.065 H 
ENDROOT
BRANCH   1  15
ATOM     15  C   UNL     1     -44.820  38.445  28.884  1.00  0.00     0.043 C 
ATOM     16  H   UNL     1     -45.269  38.844  29.801  1.00  0.00     0.054 H 
ATOM     17  H   UNL     1     -43.870  37.981  29.174  1.00  0.00     0.054 H 
BRANCH  15  18
ATOM     18  N   UNL     1     -44.558  39.545  27.994  1.00  0.00    -0.347 N 
ATOM     19  O   UNL     1     -42.883  40.479  29.254  1.00  0.00    -0.268 OA
ATOM     20  C   UNL     1     -43.627  40.509  28.283  1.00  0.00     0.270 C 
ATOM     21  H   UNL     1     -45.174  39.719  27.205  1.00  0.00     0.164 HD
BRANCH  20  22
ATOM     22  C   UNL     1     -43.624  41.628  27.270  1.00  0.00     0.136 A 
ATOM     23  C   UNL     1     -42.433  41.993  26.789  1.00  0.00     0.035 A 
ATOM     24  N   UNL     1     -44.824  42.200  26.910  1.00  0.00    -0.225 NA
ATOM     25  C   UNL     1     -42.385  43.079  25.802  1.00  0.00     0.258 A 
ATOM     26  H   UNL     1     -41.496  41.537  27.081  1.00  0.00     0.071 H 
ATOM     27  C   UNL     1     -44.777  43.159  26.039  1.00  0.00     0.140 A 
ATOM     28  O   UNL     1     -41.293  43.420  25.352  1.00  0.00    -0.269 OA
ATOM     29  N   UNL     1     -43.608  43.636  25.457  1.00  0.00    -0.268 N 
ATOM     30  C   UNL     1     -46.053  43.805  25.619  1.00  0.00    -0.019 A 
ATOM     31  C   UNL     1     -43.642  44.672  24.528  1.00  0.00     0.014 A 
ATOM     32  C   UNL     1     -46.035  44.798  24.722  1.00  0.00    -0.057 A 
ATOM     33  H   UNL     1     -46.969  43.440  26.067  1.00  0.00     0.066 H 
ATOM     34  C   UNL     1     -44.792  45.248  24.157  1.00  0.00    -0.045 A 
ATOM     35  H   UNL     1     -42.691  44.995  24.114  1.00  0.00     0.082 H 
ATOM     36  H   UNL     1     -46.954  45.281  24.405  1.00  0.00     0.062 H 
ATOM     37  H   UNL     1     -44.807  46.055  23.431  1.00  0.00     0.064 H 
ENDBRANCH  20  22
ENDBRANCH  15  18
ENDBRANCH   1  15
BRANCH   6  38
ATOM     38  C   UNL     1     -47.283  31.909  26.240  1.00  0.00     0.039 C 
ATOM     39  H   UNL     1     -46.338  31.379  26.414  1.00  0.00     0.050 H 
ATOM     40  H   UNL     1     -48.019  31.469  26.926  1.00  0.00     0.050 H 
BRANCH  38  41
ATOM     41  N   UNL     1     -47.736  31.753  24.859  1.00  0.00    -0.294 NA
ATOM     42  C   UNL     1     -46.662  31.353  23.930  1.00  0.00     0.002 C 
ATOM     43  C   UNL     1     -48.917  30.879  24.726  1.00  0.00     0.010 C 
ATOM     44  C   UNL     1     -47.170  30.293  22.932  1.00  0.00    -0.028 C 
ATOM     45  H   UNL     1     -46.319  32.241  23.387  1.00  0.00     0.043 H 
ATOM     46  H   UNL     1     -45.794  30.940  24.460  1.00  0.00     0.043 H 
ATOM     47  C   UNL     1     -48.535  29.390  24.830  1.00  0.00    -0.037 C 
ATOM     48  C   UNL     1     -49.496  31.140  23.319  1.00  0.00    -0.037 C 
ATOM     49  H   UNL     1     -49.681  31.132  25.471  1.00  0.00     0.047 H 
ATOM     50  C   UNL     1     -47.531  29.028  23.730  1.00  0.00    -0.048 C 
ATOM     51  C   UNL     1     -48.441  30.825  22.249  1.00  0.00    -0.048 C 
ATOM     52  H   UNL     1     -46.401  30.067  22.185  1.00  0.00     0.032 H 
ATOM     53  H   UNL     1     -48.110  29.164  25.815  1.00  0.00     0.028 H 
ATOM     54  H   UNL     1     -49.430  28.765  24.729  1.00  0.00     0.028 H 
ATOM     55  H   UNL     1     -50.386  30.520  23.157  1.00  0.00     0.028 H 
ATOM     56  H   UNL     1     -49.821  32.184  23.223  1.00  0.00     0.028 H 
ATOM     57  H   UNL     1     -46.630  28.591  24.178  1.00  0.00     0.027 H 
ATOM     58  H   UNL     1     -47.955  28.265  23.066  1.00  0.00     0.027 H 
ATOM     59  H   UNL     1     -48.835  30.088  21.539  1.00  0.00     0.027 H 
ATOM     60  H   UNL     1     -48.210  31.729  21.674  1.00  0.00     0.027 H 
ENDBRANCH  38  41
ENDBRANCH   6  38
TORSDOF 5
ENDMDL
MODEL 6
REMARK VINA RESULT:     -10.2      2.169      3.422
REMARK SMILES O=C(NCc1ccc2cc(CN3C[C@H]4CC[C@@H]3CC4)[nH]c2c1)c1cc(=O)n2ccccc2n1
REMARK SMILES IDX 5 1 6 2 7 3 8 4 9 5 10 6 20 7 21 8 22 9 4 15 3 18 1 19 2 20
REMARK SMILES IDX 23 22 24 23 33 24 25 25 32 27 26 28 27 29 31 30 28 31 30 32
REMARK SMILES IDX 29 34 11 38 12 41 13 42 17 43 14 44 16 47 18 48 15 50 19 51
REMARK H PARENT 6 10 7 11 9 12 20 13 22 14 4 16 4 17 3 21 24 26 31 33 28 35
REMARK H PARENT 30 36 29 37 11 39 11 40 13 45 13 46 17 49 14 52 16 53 16 54
REMARK H PARENT 18 55 18 56 15 57 15 58 19 59 19 60
REMARK Flexibility Score: inf
ROOT
ATOM      1  C   UNL     1     -46.287  35.794  28.026  1.00  0.00    -0.027 A 
ATOM      2  C   UNL     1     -47.522  36.329  27.635  1.00  0.00    -0.057 A 
ATOM      3  C   UNL     1     -48.476  35.543  26.977  1.00  0.00    -0.052 A 
ATOM      4  C   UNL     1     -48.185  34.195  26.698  1.00  0.00    -0.000 A 
ATOM      5  C   UNL     1     -48.896  33.140  26.063  1.00  0.00    -0.032 A 
ATOM      6  C   UNL     1     -48.094  32.015  26.070  1.00  0.00     0.030 A 
ATOM      7  N   UNL     1     -46.919  32.362  26.693  1.00  0.00    -0.357 N 
ATOM      8  C   UNL     1     -46.950  33.682  27.084  1.00  0.00     0.046 A 
ATOM      9  C   UNL     1     -45.983  34.452  27.741  1.00  0.00    -0.033 A 
ATOM     10  H   UNL     1     -47.754  37.373  27.840  1.00  0.00     0.063 H 
ATOM     11  H   UNL     1     -49.430  35.971  26.684  1.00  0.00     0.063 H 
ATOM     12  H   UNL     1     -49.889  33.195  25.635  1.00  0.00     0.065 H 
ATOM     13  H   UNL     1     -46.134  31.743  26.841  1.00  0.00     0.166 HD
ATOM     14  H   UNL     1     -45.022  34.027  28.020  1.00  0.00     0.065 H 
ENDROOT
BRANCH   1  15
ATOM     15  C   UNL     1     -45.262  36.666  28.701  1.00  0.00     0.043 C 
ATOM     16  H   UNL     1     -45.578  36.927  29.717  1.00  0.00     0.054 H 
ATOM     17  H   UNL     1     -44.303  36.142  28.793  1.00  0.00     0.054 H 
BRANCH  15  18
ATOM     18  N   UNL     1     -45.066  37.886  27.963  1.00  0.00    -0.347 N 
ATOM     19  O   UNL     1     -44.087  39.051  29.681  1.00  0.00    -0.268 OA
ATOM     20  C   UNL     1     -44.527  39.008  28.540  1.00  0.00     0.270 C 
ATOM     21  H   UNL     1     -45.473  37.993  27.039  1.00  0.00     0.164 HD
BRANCH  20  22
ATOM     22  C   UNL     1     -44.544  40.198  27.611  1.00  0.00     0.136 A 
ATOM     23  C   UNL     1     -45.732  40.544  27.109  1.00  0.00     0.035 A 
ATOM     24  N   UNL     1     -43.359  40.842  27.339  1.00  0.00    -0.225 NA
ATOM     25  C   UNL     1     -45.792  41.696  26.201  1.00  0.00     0.258 A 
ATOM     26  H   UNL     1     -46.657  40.029  27.330  1.00  0.00     0.071 H 
ATOM     27  C   UNL     1     -43.417  41.859  26.536  1.00  0.00     0.140 A 
ATOM     28  O   UNL     1     -46.883  42.024  25.735  1.00  0.00    -0.269 OA
ATOM     29  N   UNL     1     -44.584  42.328  25.944  1.00  0.00    -0.268 N 
ATOM     30  C   UNL     1     -42.157  42.587  26.214  1.00  0.00    -0.019 A 
ATOM     31  C   UNL     1     -44.563  43.427  25.091  1.00  0.00     0.014 A 
ATOM     32  C   UNL     1     -42.186  43.640  25.388  1.00  0.00    -0.057 A 
ATOM     33  H   UNL     1     -41.242  42.229  26.670  1.00  0.00     0.066 H 
ATOM     34  C   UNL     1     -43.426  44.076  24.806  1.00  0.00    -0.045 A 
ATOM     35  H   UNL     1     -45.512  43.738  24.664  1.00  0.00     0.082 H 
ATOM     36  H   UNL     1     -41.279  44.182  25.141  1.00  0.00     0.062 H 
ATOM     37  H   UNL     1     -43.421  44.933  24.140  1.00  0.00     0.064 H 
ENDBRANCH  20  22
ENDBRANCH  15  18
ENDBRANCH   1  15
BRANCH   6  38
ATOM     38  C   UNL     1     -48.341  30.637  25.547  1.00  0.00     0.039 C 
ATOM     39  H   UNL     1     -47.611  29.930  25.960  1.00  0.00     0.050 H 
ATOM     40  H   UNL     1     -49.325  30.327  25.920  1.00  0.00     0.050 H 
BRANCH  38  41
ATOM     41  N   UNL     1     -48.335  30.618  24.085  1.00  0.00    -0.294 NA
ATOM     42  C   UNL     1     -47.169  31.302  23.494  1.00  0.00     0.002 C 
ATOM     43  C   UNL     1     -48.514  29.268  23.517  1.00  0.00     0.010 C 
ATOM     44  C   UNL     1     -46.621  30.505  22.292  1.00  0.00    -0.028 C 
ATOM     45  H   UNL     1     -47.477  32.302  23.167  1.00  0.00     0.043 H 
ATOM     46  H   UNL     1     -46.358  31.433  24.220  1.00  0.00     0.043 H 
ATOM     47  C   UNL     1     -47.214  28.446  23.592  1.00  0.00    -0.037 C 
ATOM     48  C   UNL     1     -48.886  29.466  22.032  1.00  0.00    -0.037 C 
ATOM     49  H   UNL     1     -49.333  28.736  24.015  1.00  0.00     0.047 H 
ATOM     50  C   UNL     1     -46.097  29.158  22.819  1.00  0.00    -0.048 C 
ATOM     51  C   UNL     1     -47.772  30.236  21.309  1.00  0.00    -0.048 C 
ATOM     52  H   UNL     1     -45.817  31.060  21.797  1.00  0.00     0.032 H 
ATOM     53  H   UNL     1     -46.909  28.289  24.633  1.00  0.00     0.028 H 
ATOM     54  H   UNL     1     -47.375  27.449  23.165  1.00  0.00     0.028 H 
ATOM     55  H   UNL     1     -49.038  28.494  21.549  1.00  0.00     0.028 H 
ATOM     56  H   UNL     1     -49.834  30.012  21.941  1.00  0.00     0.028 H 
ATOM     57  H   UNL     1     -45.233  29.317  23.476  1.00  0.00     0.027 H 
ATOM     58  H   UNL     1     -45.751  28.531  21.989  1.00  0.00     0.027 H 
ATOM     59  H   UNL     1     -47.416  29.661  20.447  1.00  0.00     0.027 H 
ATOM     60  H   UNL     1     -48.164  31.183  20.919  1.00  0.00     0.027 H 
ENDBRANCH  38  41
ENDBRANCH   6  38
TORSDOF 5
ENDMDL
MODEL 7
REMARK VINA RESULT:     -10.2      2.313      3.753
REMARK SMILES O=C(NCc1ccc2cc(CN3C[C@H]4CC[C@@H]3CC4)[nH]c2c1)c1cc(=O)n2ccccc2n1
REMARK SMILES IDX 5 1 6 2 7 3 8 4 9 5 10 6 20 7 21 8 22 9 4 15 3 18 1 19 2 20
REMARK SMILES IDX 23 22 24 23 33 24 25 25 32 27 26 28 27 29 31 30 28 31 30 32
REMARK SMILES IDX 29 34 11 38 12 41 13 42 17 43 14 44 16 47 18 48 15 50 19 51
REMARK H PARENT 6 10 7 11 9 12 20 13 22 14 4 16 4 17 3 21 24 26 31 33 28 35
REMARK H PARENT 30 36 29 37 11 39 11 40 13 45 13 46 17 49 14 52 16 53 16 54
REMARK H PARENT 18 55 18 56 15 57 15 58 19 59 19 60
REMARK Flexibility Score: inf
ROOT
ATOM      1  C   UNL     1     -47.230  36.921  27.783  1.00  0.00    -0.027 A 
ATOM      2  C   UNL     1     -45.951  36.419  28.062  1.00  0.00    -0.057 A 
ATOM      3  C   UNL     1     -45.614  35.092  27.764  1.00  0.00    -0.052 A 
ATOM      4  C   UNL     1     -46.578  34.250  27.182  1.00  0.00    -0.000 A 
ATOM      5  C   UNL     1     -46.582  32.891  26.763  1.00  0.00    -0.032 A 
ATOM      6  C   UNL     1     -47.835  32.599  26.261  1.00  0.00     0.030 A 
ATOM      7  N   UNL     1     -48.588  33.744  26.364  1.00  0.00    -0.357 N 
ATOM      8  C   UNL     1     -47.846  34.762  26.921  1.00  0.00     0.046 A 
ATOM      9  C   UNL     1     -48.203  36.084  27.212  1.00  0.00    -0.033 A 
ATOM     10  H   UNL     1     -45.200  37.060  28.520  1.00  0.00     0.063 H 
ATOM     11  H   UNL     1     -44.618  34.719  27.984  1.00  0.00     0.063 H 
ATOM     12  H   UNL     1     -45.758  32.192  26.829  1.00  0.00     0.065 H 
ATOM     13  H   UNL     1     -49.553  33.833  26.080  1.00  0.00     0.166 HD
ATOM     14  H   UNL     1     -49.205  36.453  27.007  1.00  0.00     0.065 H 
ENDROOT
BRANCH   1  15
ATOM     15  C   UNL     1     -47.582  38.340  28.144  1.00  0.00     0.043 C 
ATOM     16  H   UNL     1     -48.480  38.669  27.607  1.00  0.00     0.054 H 
ATOM     17  H   UNL     1     -47.804  38.427  29.214  1.00  0.00     0.054 H 
BRANCH  15  18
ATOM     18  N   UNL     1     -46.504  39.233  27.809  1.00  0.00    -0.347 N 
ATOM     19  O   UNL     1     -47.716  40.540  26.363  1.00  0.00    -0.268 OA
ATOM     20  C   UNL     1     -46.654  40.246  26.898  1.00  0.00     0.270 C 
ATOM     21  H   UNL     1     -45.560  39.031  28.123  1.00  0.00     0.164 HD
BRANCH  20  22
ATOM     22  C   UNL     1     -45.356  40.962  26.612  1.00  0.00     0.136 A 
ATOM     23  C   UNL     1     -44.386  40.817  27.518  1.00  0.00     0.035 A 
ATOM     24  N   UNL     1     -45.252  41.710  25.462  1.00  0.00    -0.225 NA
ATOM     25  C   UNL     1     -43.107  41.498  27.279  1.00  0.00     0.258 A 
ATOM     26  H   UNL     1     -44.480  40.227  28.419  1.00  0.00     0.071 H 
ATOM     27  C   UNL     1     -44.120  42.310  25.255  1.00  0.00     0.140 A 
ATOM     28  O   UNL     1     -42.205  41.368  28.106  1.00  0.00    -0.269 OA
ATOM     29  N   UNL     1     -43.027  42.244  26.112  1.00  0.00    -0.268 N 
ATOM     30  C   UNL     1     -43.962  43.131  24.021  1.00  0.00    -0.019 A 
ATOM     31  C   UNL     1     -41.846  42.919  25.818  1.00  0.00     0.014 A 
ATOM     32  C   UNL     1     -42.806  43.761  23.782  1.00  0.00    -0.057 A 
ATOM     33  H   UNL     1     -44.808  43.188  23.348  1.00  0.00     0.066 H 
ATOM     34  C   UNL     1     -41.712  43.654  24.708  1.00  0.00    -0.045 A 
ATOM     35  H   UNL     1     -41.033  42.823  26.533  1.00  0.00     0.082 H 
ATOM     36  H   UNL     1     -42.673  44.364  22.888  1.00  0.00     0.062 H 
ATOM     37  H   UNL     1     -40.786  44.176  24.488  1.00  0.00     0.064 H 
ENDBRANCH  20  22
ENDBRANCH  15  18
ENDBRANCH   1  15
BRANCH   6  38
ATOM     38  C   UNL     1     -48.386  31.335  25.685  1.00  0.00     0.039 C 
ATOM     39  H   UNL     1     -47.971  30.460  26.202  1.00  0.00     0.050 H 
ATOM     40  H   UNL     1     -49.465  31.336  25.887  1.00  0.00     0.050 H 
BRANCH  38  41
ATOM     41  N   UNL     1     -48.151  31.265  24.243  1.00  0.00    -0.294 NA
ATOM     42  C   UNL     1     -46.721  31.288  23.880  1.00  0.00     0.002 C 
ATOM     43  C   UNL     1     -48.855  30.145  23.590  1.00  0.00     0.010 C 
ATOM     44  C   UNL     1     -46.430  30.284  22.745  1.00  0.00    -0.028 C 
ATOM     45  H   UNL     1     -46.457  32.301  23.557  1.00  0.00     0.043 H 
ATOM     46  H   UNL     1     -46.076  31.040  24.733  1.00  0.00     0.043 H 
ATOM     47  C   UNL     1     -48.136  28.804  23.832  1.00  0.00    -0.037 C 
ATOM     48  C   UNL     1     -48.838  30.445  22.075  1.00  0.00    -0.037 C 
ATOM     49  H   UNL     1     -49.898  30.086  23.923  1.00  0.00     0.047 H 
ATOM     50  C   UNL     1     -46.705  28.870  23.284  1.00  0.00    -0.048 C 
ATOM     51  C   UNL     1     -47.391  30.564  21.579  1.00  0.00    -0.048 C 
ATOM     52  H   UNL     1     -45.390  30.370  22.412  1.00  0.00     0.032 H 
ATOM     53  H   UNL     1     -48.118  28.557  24.899  1.00  0.00     0.028 H 
ATOM     54  H   UNL     1     -48.680  27.992  23.337  1.00  0.00     0.028 H 
ATOM     55  H   UNL     1     -49.354  29.647  21.528  1.00  0.00     0.028 H 
ATOM     56  H   UNL     1     -49.383  31.373  21.860  1.00  0.00     0.028 H 
ATOM     57  H   UNL     1     -45.992  28.619  24.078  1.00  0.00     0.027 H 
ATOM     58  H   UNL     1     -46.569  28.125  22.491  1.00  0.00     0.027 H 
ATOM     59  H   UNL     1     -47.217  29.859  20.757  1.00  0.00     0.027 H 
ATOM     60  H   UNL     1     -47.215  31.569  21.177  1.00  0.00     0.027 H 
ENDBRANCH  38  41
ENDBRANCH   6  38
TORSDOF 5
ENDMDL
