MODEL 1
REMARK VINA RESULT:      -9.9      0.000      0.000
REMARK SMILES CNc1ccc2cnc(OC[C@H]3O[C@@H](n4cc(Br)c5c(N)ncnc54)[C@H](O)[C@@H]3O)nc2n1
REMARK SMILES IDX 11 1 10 4 9 5 3 6 4 7 32 8 5 9 31 11 6 12 30 14 7 15 8 16
REMARK SMILES IDX 2 18 1 20 12 24 13 25 28 26 14 28 26 29 29 33 15 35 16 36
REMARK SMILES IDX 25 37 17 38 19 40 24 41 18 42 20 43 23 44 22 45 21 47 27 50
REMARK H PARENT 11 2 11 3 4 10 5 13 7 17 2 19 1 21 1 22 1 23 12 27 28 30 14 31
REMARK H PARENT 26 32 29 34 16 39 23 46 21 48 21 49 27 51
REMARK Flexibility Score: inf
ROOT
ATOM      1  C   UNL     1     -45.834  35.431  27.175  1.00  0.00     0.120 C 
ATOM      2  H   UNL     1     -45.084  35.893  26.516  1.00  0.00     0.074 H 
ATOM      3  H   UNL     1     -45.537  34.380  27.268  1.00  0.00     0.074 H 
ENDROOT
BRANCH   1   4
ATOM      4  O   UNL     1     -47.162  35.461  26.656  1.00  0.00    -0.461 OA
BRANCH   4   5
ATOM      5  C   UNL     1     -47.484  34.240  26.125  1.00  0.00     0.318 A 
ATOM      6  C   UNL     1     -46.585  30.892  23.104  1.00  0.00     0.128 A 
ATOM      7  C   UNL     1     -47.647  30.121  23.558  1.00  0.00    -0.019 A 
ATOM      8  N   UNL     1     -46.299  32.093  23.650  1.00  0.00    -0.211 NA
ATOM      9  C   UNL     1     -48.441  30.607  24.585  1.00  0.00    -0.046 A 
ATOM     10  H   UNL     1     -47.844  29.145  23.126  1.00  0.00     0.066 H 
ATOM     11  C   UNL     1     -47.046  32.581  24.642  1.00  0.00     0.168 A 
ATOM     12  C   UNL     1     -48.134  31.858  25.132  1.00  0.00     0.038 A 
ATOM     13  H   UNL     1     -49.274  30.016  24.953  1.00  0.00     0.063 H 
ATOM     14  N   UNL     1     -46.725  33.770  25.135  1.00  0.00    -0.175 NA
ATOM     15  C   UNL     1     -48.856  32.451  26.156  1.00  0.00     0.044 A 
ATOM     16  N   UNL     1     -48.557  33.653  26.670  1.00  0.00    -0.203 NA
ATOM     17  H   UNL     1     -49.717  31.960  26.603  1.00  0.00     0.085 H 
BRANCH   6  18
ATOM     18  N   UNL     1     -45.776  30.360  22.085  1.00  0.00    -0.373 N 
ATOM     19  H   UNL     1     -45.147  31.080  21.740  1.00  0.00     0.161 HD
BRANCH  18  20
ATOM     20  C   UNL     1     -45.058  29.151  22.459  1.00  0.00     0.005 C 
ATOM     21  H   UNL     1     -45.086  28.984  23.541  1.00  0.00     0.045 H 
ATOM     22  H   UNL     1     -45.454  28.271  21.939  1.00  0.00     0.045 H 
ATOM     23  H   UNL     1     -44.009  29.257  22.167  1.00  0.00     0.045 H 
ENDBRANCH  18  20
ENDBRANCH   6  18
ENDBRANCH   4   5
ENDBRANCH   1   4
BRANCH   1  24
ATOM     24  C   UNL     1     -45.793  36.087  28.557  1.00  0.00     0.123 C 
ATOM     25  O   UNL     1     -44.560  36.816  28.712  1.00  0.00    -0.345 OA
ATOM     26  C   UNL     1     -46.913  37.097  28.798  1.00  0.00     0.114 C 
ATOM     27  H   UNL     1     -45.828  35.299  29.321  1.00  0.00     0.067 H 
ATOM     28  C   UNL     1     -44.838  38.010  29.493  1.00  0.00     0.164 C 
ATOM     29  C   UNL     1     -46.311  37.943  29.907  1.00  0.00     0.128 C 
ATOM     30  H   UNL     1     -47.092  37.719  27.911  1.00  0.00     0.066 H 
ATOM     31  H   UNL     1     -44.154  38.015  30.349  1.00  0.00     0.088 H 
ATOM     32  H   UNL     1     -46.808  38.912  30.016  1.00  0.00     0.068 H 
BRANCH  26  33
ATOM     33  O   UNL     1     -48.141  36.522  29.231  1.00  0.00    -0.387 OA
ATOM     34  H   UNL     1     -47.917  35.744  29.787  1.00  0.00     0.211 HD
ENDBRANCH  26  33
BRANCH  28  35
ATOM     35  N   UNL     1     -44.528  39.187  28.682  1.00  0.00    -0.302 N 
ATOM     36  C   UNL     1     -45.193  39.626  27.562  1.00  0.00     0.023 A 
ATOM     37  C   UNL     1     -43.486  40.044  28.956  1.00  0.00     0.148 A 
ATOM     38  C   UNL     1     -44.567  40.774  27.137  1.00  0.00     0.049 A 
ATOM     39  H   UNL     1     -46.037  39.086  27.154  1.00  0.00     0.083 H 
ATOM     40  C   UNL     1     -43.485  41.059  28.004  1.00  0.00     0.075 A 
ATOM     41  N   UNL     1     -42.631  39.911  29.982  1.00  0.00    -0.218 NA
ATOM     42  Br  UNL     1     -45.068  41.791  25.642  1.00  0.00    -0.048 Br
ATOM     43  C   UNL     1     -42.486  42.036  28.136  1.00  0.00     0.137 A 
ATOM     44  C   UNL     1     -41.720  40.897  30.001  1.00  0.00     0.120 A 
ATOM     45  N   UNL     1     -41.601  41.931  29.148  1.00  0.00    -0.219 NA
ATOM     46  H   UNL     1     -40.989  40.857  30.803  1.00  0.00     0.106 H 
BRANCH  43  47
ATOM     47  N   UNL     1     -42.333  43.116  27.281  1.00  0.00    -0.383 N 
ATOM     48  H   UNL     1     -41.354  43.325  27.128  1.00  0.00     0.158 HD
ATOM     49  H   UNL     1     -42.932  43.109  26.466  1.00  0.00     0.158 HD
ENDBRANCH  43  47
ENDBRANCH  28  35
BRANCH  29  50
ATOM     50  O   UNL     1     -46.465  37.252  31.159  1.00  0.00    -0.386 OA
ATOM     51  H   UNL     1     -45.572  36.900  31.362  1.00  0.00     0.211 HD
ENDBRANCH  29  50
ENDBRANCH   1  24
TORSDOF 9
ENDMDL
MODEL 2
REMARK VINA RESULT:      -9.0      3.274      9.540
REMARK SMILES CNc1ccc2cnc(OC[C@H]3O[C@@H](n4cc(Br)c5c(N)ncnc54)[C@H](O)[C@@H]3O)nc2n1
REMARK SMILES IDX 11 1 10 4 9 5 3 6 4 7 32 8 5 9 31 11 6 12 30 14 7 15 8 16
REMARK SMILES IDX 2 18 1 20 12 24 13 25 28 26 14 28 26 29 29 33 15 35 16 36
REMARK SMILES IDX 25 37 17 38 19 40 24 41 18 42 20 43 23 44 22 45 21 47 27 50
REMARK H PARENT 11 2 11 3 4 10 5 13 7 17 2 19 1 21 1 22 1 23 12 27 28 30 14 31
REMARK H PARENT 26 32 29 34 16 39 23 46 21 48 21 49 27 51
REMARK Flexibility Score: inf
ROOT
ATOM      1  C   UNL     1     -49.295  35.192  26.780  1.00  0.00     0.120 C 
ATOM      2  H   UNL     1     -49.053  35.789  25.888  1.00  0.00     0.074 H 
ATOM      3  H   UNL     1     -50.298  34.788  26.600  1.00  0.00     0.074 H 
ENDROOT
BRANCH   1   4
ATOM      4  O   UNL     1     -49.343  35.945  27.989  1.00  0.00    -0.461 OA
BRANCH   4   5
ATOM      5  C   UNL     1     -48.183  36.658  28.144  1.00  0.00     0.318 A 
ATOM      6  C   UNL     1     -45.339  39.941  26.635  1.00  0.00     0.128 A 
ATOM      7  C   UNL     1     -44.463  39.748  27.696  1.00  0.00    -0.019 A 
ATOM      8  N   UNL     1     -46.472  39.218  26.513  1.00  0.00    -0.211 NA
ATOM      9  C   UNL     1     -44.754  38.776  28.641  1.00  0.00    -0.046 A 
ATOM     10  H   UNL     1     -43.572  40.360  27.793  1.00  0.00     0.066 H 
ATOM     11  C   UNL     1     -46.777  38.279  27.411  1.00  0.00     0.168 A 
ATOM     12  C   UNL     1     -45.929  38.031  28.491  1.00  0.00     0.038 A 
ATOM     13  H   UNL     1     -44.081  38.614  29.477  1.00  0.00     0.063 H 
ATOM     14  N   UNL     1     -47.898  37.592  27.237  1.00  0.00    -0.175 NA
ATOM     15  C   UNL     1     -46.325  37.030  29.366  1.00  0.00     0.044 A 
ATOM     16  N   UNL     1     -47.449  36.316  29.211  1.00  0.00    -0.203 NA
ATOM     17  H   UNL     1     -45.729  36.769  30.237  1.00  0.00     0.085 H 
BRANCH   6  18
ATOM     18  N   UNL     1     -45.037  40.956  25.712  1.00  0.00    -0.373 N 
ATOM     19  H   UNL     1     -45.209  40.619  24.768  1.00  0.00     0.161 HD
BRANCH  18  20
ATOM     20  C   UNL     1     -45.714  42.219  25.964  1.00  0.00     0.005 C 
ATOM     21  H   UNL     1     -46.603  42.081  26.590  1.00  0.00     0.045 H 
ATOM     22  H   UNL     1     -45.043  42.949  26.430  1.00  0.00     0.045 H 
ATOM     23  H   UNL     1     -46.044  42.642  25.010  1.00  0.00     0.045 H 
ENDBRANCH  18  20
ENDBRANCH   6  18
ENDBRANCH   4   5
ENDBRANCH   1   4
BRANCH   1  24
ATOM     24  C   UNL     1     -48.306  34.033  26.919  1.00  0.00     0.123 C 
ATOM     25  O   UNL     1     -48.978  32.786  26.654  1.00  0.00    -0.345 OA
ATOM     26  C   UNL     1     -47.135  34.096  25.940  1.00  0.00     0.114 C 
ATOM     27  H   UNL     1     -47.931  34.012  27.951  1.00  0.00     0.067 H 
ATOM     28  C   UNL     1     -48.044  31.907  25.973  1.00  0.00     0.164 C 
ATOM     29  C   UNL     1     -46.701  32.641  25.908  1.00  0.00     0.128 C 
ATOM     30  H   UNL     1     -47.462  34.409  24.940  1.00  0.00     0.066 H 
ATOM     31  H   UNL     1     -47.992  30.972  26.542  1.00  0.00     0.088 H 
ATOM     32  H   UNL     1     -46.083  32.403  25.037  1.00  0.00     0.068 H 
BRANCH  26  33
ATOM     33  O   UNL     1     -46.055  34.921  26.366  1.00  0.00    -0.387 OA
ATOM     34  H   UNL     1     -45.786  34.608  27.257  1.00  0.00     0.211 HD
ENDBRANCH  26  33
BRANCH  28  35
ATOM     35  N   UNL     1     -48.579  31.581  24.651  1.00  0.00    -0.302 N 
ATOM     36  C   UNL     1     -49.865  31.770  24.204  1.00  0.00     0.023 A 
ATOM     37  C   UNL     1     -47.825  31.025  23.643  1.00  0.00     0.148 A 
ATOM     38  C   UNL     1     -49.912  31.337  22.900  1.00  0.00     0.049 A 
ATOM     39  H   UNL     1     -50.635  32.179  24.844  1.00  0.00     0.083 H 
ATOM     40  C   UNL     1     -48.633  30.862  22.523  1.00  0.00     0.075 A 
ATOM     41  N   UNL     1     -46.524  30.709  23.741  1.00  0.00    -0.218 NA
ATOM     42  Br  UNL     1     -51.436  31.365  21.804  1.00  0.00    -0.048 Br
ATOM     43  C   UNL     1     -48.021  30.310  21.387  1.00  0.00     0.137 A 
ATOM     44  C   UNL     1     -46.052  30.185  22.598  1.00  0.00     0.120 A 
ATOM     45  N   UNL     1     -46.718  29.969  21.450  1.00  0.00    -0.219 NA
ATOM     46  H   UNL     1     -45.004  29.901  22.600  1.00  0.00     0.106 H 
BRANCH  43  47
ATOM     47  N   UNL     1     -48.672  30.076  20.186  1.00  0.00    -0.383 N 
ATOM     48  H   UNL     1     -48.591  30.873  19.566  1.00  0.00     0.158 HD
ATOM     49  H   UNL     1     -48.513  29.163  19.780  1.00  0.00     0.158 HD
ENDBRANCH  43  47
ENDBRANCH  28  35
BRANCH  29  50
ATOM     50  O   UNL     1     -45.904  32.364  27.073  1.00  0.00    -0.386 OA
ATOM     51  H   UNL     1     -45.503  31.486  26.899  1.00  0.00     0.211 HD
ENDBRANCH  29  50
ENDBRANCH   1  24
TORSDOF 9
ENDMDL
MODEL 3
REMARK VINA RESULT:      -9.0      1.564      2.045
REMARK SMILES CNc1ccc2cnc(OC[C@H]3O[C@@H](n4cc(Br)c5c(N)ncnc54)[C@H](O)[C@@H]3O)nc2n1
REMARK SMILES IDX 11 1 10 4 9 5 3 6 4 7 32 8 5 9 31 11 6 12 30 14 7 15 8 16
REMARK SMILES IDX 2 18 1 20 12 24 13 25 28 26 14 28 26 29 29 33 15 35 16 36
REMARK SMILES IDX 25 37 17 38 19 40 24 41 18 42 20 43 23 44 22 45 21 47 27 50
REMARK H PARENT 11 2 11 3 4 10 5 13 7 17 2 19 1 21 1 22 1 23 12 27 28 30 14 31
REMARK H PARENT 26 32 29 34 16 39 23 46 21 48 21 49 27 51
REMARK Flexibility Score: inf
ROOT
ATOM      1  C   UNL     1     -46.078  34.286  27.113  1.00  0.00     0.120 C 
ATOM      2  H   UNL     1     -46.169  34.628  26.072  1.00  0.00     0.074 H 
ATOM      3  H   UNL     1     -45.041  34.497  27.402  1.00  0.00     0.074 H 
ENDROOT
BRANCH   1   4
ATOM      4  O   UNL     1     -46.299  32.889  27.288  1.00  0.00    -0.461 OA
BRANCH   4   5
ATOM      5  C   UNL     1     -47.043  32.398  26.247  1.00  0.00     0.318 A 
ATOM      6  C   UNL     1     -47.267  31.010  21.870  1.00  0.00     0.128 A 
ATOM      7  C   UNL     1     -48.617  30.702  21.977  1.00  0.00    -0.019 A 
ATOM      8  N   UNL     1     -46.566  31.496  22.916  1.00  0.00    -0.211 NA
ATOM      9  C   UNL     1     -49.262  30.915  23.187  1.00  0.00    -0.046 A 
ATOM     10  H   UNL     1     -49.157  30.285  21.133  1.00  0.00     0.066 H 
ATOM     11  C   UNL     1     -47.162  31.706  24.091  1.00  0.00     0.168 A 
ATOM     12  C   UNL     1     -48.519  31.428  24.257  1.00  0.00     0.038 A 
ATOM     13  H   UNL     1     -50.316  30.678  23.289  1.00  0.00     0.063 H 
ATOM     14  N   UNL     1     -46.428  32.193  25.082  1.00  0.00    -0.175 NA
ATOM     15  C   UNL     1     -49.052  31.689  25.510  1.00  0.00     0.044 A 
ATOM     16  N   UNL     1     -48.335  32.185  26.529  1.00  0.00    -0.203 NA
ATOM     17  H   UNL     1     -50.099  31.500  25.733  1.00  0.00     0.085 H 
BRANCH   6  18
ATOM     18  N   UNL     1     -46.632  30.751  20.643  1.00  0.00    -0.373 N 
ATOM     19  H   UNL     1     -47.301  30.347  19.993  1.00  0.00     0.161 HD
BRANCH  18  20
ATOM     20  C   UNL     1     -45.947  31.899  20.067  1.00  0.00     0.005 C 
ATOM     21  H   UNL     1     -46.232  32.055  19.021  1.00  0.00     0.045 H 
ATOM     22  H   UNL     1     -46.138  32.812  20.643  1.00  0.00     0.045 H 
ATOM     23  H   UNL     1     -44.868  31.718  20.093  1.00  0.00     0.045 H 
ENDBRANCH  18  20
ENDBRANCH   6  18
ENDBRANCH   4   5
ENDBRANCH   1   4
BRANCH   1  24
ATOM     24  C   UNL     1     -47.022  35.087  28.013  1.00  0.00     0.123 C 
ATOM     25  O   UNL     1     -46.256  35.971  28.855  1.00  0.00    -0.345 OA
ATOM     26  C   UNL     1     -48.000  35.977  27.248  1.00  0.00     0.114 C 
ATOM     27  H   UNL     1     -47.573  34.387  28.654  1.00  0.00     0.067 H 
ATOM     28  C   UNL     1     -47.013  37.200  29.023  1.00  0.00     0.164 C 
ATOM     29  C   UNL     1     -48.355  37.003  28.311  1.00  0.00     0.128 C 
ATOM     30  H   UNL     1     -47.514  36.473  26.399  1.00  0.00     0.066 H 
ATOM     31  H   UNL     1     -47.123  37.378  30.099  1.00  0.00     0.088 H 
ATOM     32  H   UNL     1     -48.795  37.911  27.890  1.00  0.00     0.068 H 
BRANCH  26  33
ATOM     33  O   UNL     1     -49.175  35.309  26.800  1.00  0.00    -0.387 OA
ATOM     34  H   UNL     1     -49.932  35.915  26.957  1.00  0.00     0.211 HD
ENDBRANCH  26  33
BRANCH  28  35
ATOM     35  N   UNL     1     -46.236  38.311  28.475  1.00  0.00    -0.302 N 
ATOM     36  C   UNL     1     -46.534  39.070  27.369  1.00  0.00     0.023 A 
ATOM     37  C   UNL     1     -45.058  38.759  29.029  1.00  0.00     0.148 A 
ATOM     38  C   UNL     1     -45.538  40.008  27.235  1.00  0.00     0.049 A 
ATOM     39  H   UNL     1     -47.411  38.876  26.765  1.00  0.00     0.083 H 
ATOM     40  C   UNL     1     -44.594  39.832  28.275  1.00  0.00     0.075 A 
ATOM     41  N   UNL     1     -44.476  38.240  30.122  1.00  0.00    -0.218 NA
ATOM     42  Br  UNL     1     -45.447  41.306  25.883  1.00  0.00    -0.048 Br
ATOM     43  C   UNL     1     -43.396  40.423  28.705  1.00  0.00     0.137 A 
ATOM     44  C   UNL     1     -43.339  38.882  30.431  1.00  0.00     0.120 A 
ATOM     45  N   UNL     1     -42.775  39.923  29.792  1.00  0.00    -0.219 NA
ATOM     46  H   UNL     1     -42.807  38.516  31.305  1.00  0.00     0.106 H 
BRANCH  43  47
ATOM     47  N   UNL     1     -42.787  41.498  28.076  1.00  0.00    -0.383 N 
ATOM     48  H   UNL     1     -43.376  41.875  27.344  1.00  0.00     0.158 HD
ATOM     49  H   UNL     1     -42.343  42.165  28.694  1.00  0.00     0.158 HD
ENDBRANCH  43  47
ENDBRANCH  28  35
BRANCH  29  50
ATOM     50  O   UNL     1     -49.334  36.437  29.200  1.00  0.00    -0.386 OA
ATOM     51  H   UNL     1     -50.196  36.757  28.859  1.00  0.00     0.211 HD
ENDBRANCH  29  50
ENDBRANCH   1  24
TORSDOF 9
ENDMDL
MODEL 4
REMARK VINA RESULT:      -8.9      4.115     10.252
REMARK SMILES CNc1ccc2cnc(OC[C@H]3O[C@@H](n4cc(Br)c5c(N)ncnc54)[C@H](O)[C@@H]3O)nc2n1
REMARK SMILES IDX 11 1 10 4 9 5 3 6 4 7 32 8 5 9 31 11 6 12 30 14 7 15 8 16
REMARK SMILES IDX 2 18 1 20 12 24 13 25 28 26 14 28 26 29 29 33 15 35 16 36
REMARK SMILES IDX 25 37 17 38 19 40 24 41 18 42 20 43 23 44 22 45 21 47 27 50
REMARK H PARENT 11 2 11 3 4 10 5 13 7 17 2 19 1 21 1 22 1 23 12 27 28 30 14 31
REMARK H PARENT 26 32 29 34 16 39 23 46 21 48 21 49 27 51
REMARK Flexibility Score: inf
ROOT
ATOM      1  C   UNL     1     -46.391  33.255  25.801  1.00  0.00     0.120 C 
ATOM      2  H   UNL     1     -45.574  32.591  25.481  1.00  0.00     0.074 H 
ATOM      3  H   UNL     1     -46.073  34.268  25.523  1.00  0.00     0.074 H 
ENDROOT
BRANCH   1   4
ATOM      4  O   UNL     1     -46.630  33.248  27.206  1.00  0.00    -0.461 OA
BRANCH   4   5
ATOM      5  C   UNL     1     -46.560  34.525  27.700  1.00  0.00     0.318 A 
ATOM      6  C   UNL     1     -46.547  39.057  26.925  1.00  0.00     0.128 A 
ATOM      7  C   UNL     1     -46.443  39.345  28.279  1.00  0.00    -0.019 A 
ATOM      8  N   UNL     1     -46.609  37.786  26.474  1.00  0.00    -0.211 NA
ATOM      9  C   UNL     1     -46.384  38.299  29.187  1.00  0.00    -0.046 A 
ATOM     10  H   UNL     1     -46.423  40.374  28.624  1.00  0.00     0.066 H 
ATOM     11  C   UNL     1     -46.558  36.762  27.328  1.00  0.00     0.168 A 
ATOM     12  C   UNL     1     -46.441  36.988  28.700  1.00  0.00     0.038 A 
ATOM     13  H   UNL     1     -46.304  38.506  30.250  1.00  0.00     0.063 H 
ATOM     14  N   UNL     1     -46.615  35.534  26.830  1.00  0.00    -0.175 NA
ATOM     15  C   UNL     1     -46.385  35.862  29.507  1.00  0.00     0.044 A 
ATOM     16  N   UNL     1     -46.434  34.609  29.030  1.00  0.00    -0.203 NA
ATOM     17  H   UNL     1     -46.297  35.941  30.587  1.00  0.00     0.085 H 
BRANCH   6  18
ATOM     18  N   UNL     1     -46.640  40.137  26.030  1.00  0.00    -0.373 N 
ATOM     19  H   UNL     1     -47.582  40.519  26.055  1.00  0.00     0.161 HD
BRANCH  18  20
ATOM     20  C   UNL     1     -45.634  41.170  26.229  1.00  0.00     0.005 C 
ATOM     21  H   UNL     1     -45.716  41.961  25.476  1.00  0.00     0.045 H 
ATOM     22  H   UNL     1     -45.699  41.605  27.232  1.00  0.00     0.045 H 
ATOM     23  H   UNL     1     -44.641  40.721  26.132  1.00  0.00     0.045 H 
ENDBRANCH  18  20
ENDBRANCH   6  18
ENDBRANCH   4   5
ENDBRANCH   1   4
BRANCH   1  24
ATOM     24  C   UNL     1     -47.675  32.909  25.045  1.00  0.00     0.123 C 
ATOM     25  O   UNL     1     -47.377  31.991  23.975  1.00  0.00    -0.345 OA
ATOM     26  C   UNL     1     -48.734  32.222  25.906  1.00  0.00     0.114 C 
ATOM     27  H   UNL     1     -48.085  33.829  24.609  1.00  0.00     0.067 H 
ATOM     28  C   UNL     1     -48.493  31.069  23.848  1.00  0.00     0.164 C 
ATOM     29  C   UNL     1     -49.565  31.522  24.844  1.00  0.00     0.128 C 
ATOM     30  H   UNL     1     -48.287  31.479  26.578  1.00  0.00     0.066 H 
ATOM     31  H   UNL     1     -48.836  31.104  22.808  1.00  0.00     0.088 H 
ATOM     32  H   UNL     1     -50.185  30.719  25.255  1.00  0.00     0.068 H 
BRANCH  26  33
ATOM     33  O   UNL     1     -49.550  33.114  26.657  1.00  0.00    -0.387 OA
ATOM     34  H   UNL     1     -50.394  33.220  26.166  1.00  0.00     0.211 HD
ENDBRANCH  26  33
BRANCH  28  35
ATOM     35  N   UNL     1     -48.015  29.711  24.104  1.00  0.00    -0.302 N 
ATOM     36  C   UNL     1     -48.611  28.753  24.890  1.00  0.00     0.023 A 
ATOM     37  C   UNL     1     -46.859  29.198  23.561  1.00  0.00     0.148 A 
ATOM     38  C   UNL     1     -47.824  27.627  24.828  1.00  0.00     0.049 A 
ATOM     39  H   UNL     1     -49.525  28.950  25.432  1.00  0.00     0.083 H 
ATOM     40  C   UNL     1     -46.712  27.884  23.993  1.00  0.00     0.075 A 
ATOM     41  N   UNL     1     -46.031  29.867  22.743  1.00  0.00    -0.218 NA
ATOM     42  Br  UNL     1     -48.173  26.013  25.720  1.00  0.00    -0.048 Br
ATOM     43  C   UNL     1     -45.580  27.198  23.525  1.00  0.00     0.137 A 
ATOM     44  C   UNL     1     -44.986  29.113  22.368  1.00  0.00     0.120 A 
ATOM     45  N   UNL     1     -44.719  27.840  22.710  1.00  0.00    -0.219 NA
ATOM     46  H   UNL     1     -44.268  29.588  21.706  1.00  0.00     0.106 H 
BRANCH  43  47
ATOM     47  N   UNL     1     -45.273  25.887  23.851  1.00  0.00    -0.383 N 
ATOM     48  H   UNL     1     -45.211  25.765  24.855  1.00  0.00     0.158 HD
ATOM     49  H   UNL     1     -45.784  25.182  23.336  1.00  0.00     0.158 HD
ENDBRANCH  43  47
ENDBRANCH  28  35
BRANCH  29  50
ATOM     50  O   UNL     1     -50.459  32.476  24.244  1.00  0.00    -0.386 OA
ATOM     51  H   UNL     1     -51.306  32.360  24.723  1.00  0.00     0.211 HD
ENDBRANCH  29  50
ENDBRANCH   1  24
TORSDOF 9
ENDMDL
MODEL 5
REMARK VINA RESULT:      -8.9      2.430      3.275
REMARK SMILES CNc1ccc2cnc(OC[C@H]3O[C@@H](n4cc(Br)c5c(N)ncnc54)[C@H](O)[C@@H]3O)nc2n1
REMARK SMILES IDX 11 1 10 4 9 5 3 6 4 7 32 8 5 9 31 11 6 12 30 14 7 15 8 16
REMARK SMILES IDX 2 18 1 20 12 24 13 25 28 26 14 28 26 29 29 33 15 35 16 36
REMARK SMILES IDX 25 37 17 38 19 40 24 41 18 42 20 43 23 44 22 45 21 47 27 50
REMARK H PARENT 11 2 11 3 4 10 5 13 7 17 2 19 1 21 1 22 1 23 12 27 28 30 14 31
REMARK H PARENT 26 32 29 34 16 39 23 46 21 48 21 49 27 51
REMARK Flexibility Score: inf
ROOT
ATOM      1  C   UNL     1     -46.134  34.497  27.232  1.00  0.00     0.120 C 
ATOM      2  H   UNL     1     -46.152  34.781  26.169  1.00  0.00     0.074 H 
ATOM      3  H   UNL     1     -45.138  34.780  27.595  1.00  0.00     0.074 H 
ENDROOT
BRANCH   1   4
ATOM      4  O   UNL     1     -46.296  33.099  27.463  1.00  0.00    -0.461 OA
BRANCH   4   5
ATOM      5  C   UNL     1     -46.918  32.516  26.390  1.00  0.00     0.318 A 
ATOM      6  C   UNL     1     -46.720  31.040  22.040  1.00  0.00     0.128 A 
ATOM      7  C   UNL     1     -48.035  30.594  22.072  1.00  0.00    -0.019 A 
ATOM      8  N   UNL     1     -46.141  31.614  23.116  1.00  0.00    -0.211 NA
ATOM      9  C   UNL     1     -48.773  30.759  23.234  1.00  0.00    -0.046 A 
ATOM     10  H   UNL     1     -48.475  30.109  21.206  1.00  0.00     0.066 H 
ATOM     11  C   UNL     1     -46.829  31.780  24.247  1.00  0.00     0.168 A 
ATOM     12  C   UNL     1     -48.158  31.364  24.336  1.00  0.00     0.038 A 
ATOM     13  H   UNL     1     -49.802  30.414  23.277  1.00  0.00     0.063 H 
ATOM     14  N   UNL     1     -46.213  32.358  25.270  1.00  0.00    -0.175 NA
ATOM     15  C   UNL     1     -48.793  31.588  25.548  1.00  0.00     0.044 A 
ATOM     16  N   UNL     1     -48.196  32.174  26.597  1.00  0.00    -0.203 NA
ATOM     17  H   UNL     1     -49.827  31.294  25.711  1.00  0.00     0.085 H 
BRANCH   6  18
ATOM     18  N   UNL     1     -45.985  30.829  20.861  1.00  0.00    -0.373 N 
ATOM     19  H   UNL     1     -46.212  29.915  20.478  1.00  0.00     0.161 HD
BRANCH  18  20
ATOM     20  C   UNL     1     -46.131  31.881  19.866  1.00  0.00     0.005 C 
ATOM     21  H   UNL     1     -45.297  32.589  19.903  1.00  0.00     0.045 H 
ATOM     22  H   UNL     1     -46.221  31.468  18.855  1.00  0.00     0.045 H 
ATOM     23  H   UNL     1     -47.049  32.440  20.072  1.00  0.00     0.045 H 
ENDBRANCH  18  20
ENDBRANCH   6  18
ENDBRANCH   4   5
ENDBRANCH   1   4
BRANCH   1  24
ATOM     24  C   UNL     1     -47.192  35.286  28.005  1.00  0.00     0.123 C 
ATOM     25  O   UNL     1     -46.564  36.365  28.726  1.00  0.00    -0.345 OA
ATOM     26  C   UNL     1     -48.253  35.935  27.117  1.00  0.00     0.114 C 
ATOM     27  H   UNL     1     -47.670  34.616  28.732  1.00  0.00     0.067 H 
ATOM     28  C   UNL     1     -47.470  37.500  28.717  1.00  0.00     0.164 C 
ATOM     29  C   UNL     1     -48.758  37.042  28.026  1.00  0.00     0.128 C 
ATOM     30  H   UNL     1     -47.810  36.370  26.213  1.00  0.00     0.066 H 
ATOM     31  H   UNL     1     -47.629  37.806  29.757  1.00  0.00     0.088 H 
ATOM     32  H   UNL     1     -49.296  37.823  27.481  1.00  0.00     0.068 H 
BRANCH  26  33
ATOM     33  O   UNL     1     -49.325  35.071  26.754  1.00  0.00    -0.387 OA
ATOM     34  H   UNL     1     -50.042  35.207  27.411  1.00  0.00     0.211 HD
ENDBRANCH  26  33
BRANCH  28  35
ATOM     35  N   UNL     1     -46.822  38.616  28.029  1.00  0.00    -0.302 N 
ATOM     36  C   UNL     1     -45.490  38.742  27.717  1.00  0.00     0.023 A 
ATOM     37  C   UNL     1     -47.498  39.730  27.585  1.00  0.00     0.148 A 
ATOM     38  C   UNL     1     -45.333  39.940  27.062  1.00  0.00     0.049 A 
ATOM     39  H   UNL     1     -44.767  37.985  27.993  1.00  0.00     0.083 H 
ATOM     40  C   UNL     1     -46.591  40.582  26.966  1.00  0.00     0.075 A 
ATOM     41  N   UNL     1     -48.818  39.935  27.727  1.00  0.00    -0.218 NA
ATOM     42  Br  UNL     1     -43.708  40.614  26.409  1.00  0.00    -0.048 Br
ATOM     43  C   UNL     1     -47.113  41.774  26.441  1.00  0.00     0.137 A 
ATOM     44  C   UNL     1     -49.199  41.107  27.193  1.00  0.00     0.120 A 
ATOM     45  N   UNL     1     -48.432  42.022  26.573  1.00  0.00    -0.219 NA
ATOM     46  H   UNL     1     -50.255  41.346  27.271  1.00  0.00     0.106 H 
BRANCH  43  47
ATOM     47  N   UNL     1     -46.358  42.739  25.793  1.00  0.00    -0.383 N 
ATOM     48  H   UNL     1     -46.295  43.586  26.345  1.00  0.00     0.158 HD
ATOM     49  H   UNL     1     -45.502  42.405  25.370  1.00  0.00     0.158 HD
ENDBRANCH  43  47
ENDBRANCH  28  35
BRANCH  29  50
ATOM     50  O   UNL     1     -49.683  36.483  28.976  1.00  0.00    -0.386 OA
ATOM     51  H   UNL     1     -49.221  36.540  29.839  1.00  0.00     0.211 HD
ENDBRANCH  29  50
ENDBRANCH   1  24
TORSDOF 9
ENDMDL
MODEL 6
REMARK VINA RESULT:      -8.8      2.548      3.236
REMARK SMILES CNc1ccc2cnc(OC[C@H]3O[C@@H](n4cc(Br)c5c(N)ncnc54)[C@H](O)[C@@H]3O)nc2n1
REMARK SMILES IDX 11 1 10 4 9 5 3 6 4 7 32 8 5 9 31 11 6 12 30 14 7 15 8 16
REMARK SMILES IDX 2 18 1 20 12 24 13 25 28 26 14 28 26 29 29 33 15 35 16 36
REMARK SMILES IDX 25 37 17 38 19 40 24 41 18 42 20 43 23 44 22 45 21 47 27 50
REMARK H PARENT 11 2 11 3 4 10 5 13 7 17 2 19 1 21 1 22 1 23 12 27 28 30 14 31
REMARK H PARENT 26 32 29 34 16 39 23 46 21 48 21 49 27 51
REMARK Flexibility Score: inf
ROOT
ATOM      1  C   UNL     1     -46.233  35.235  26.900  1.00  0.00     0.120 C 
ATOM      2  H   UNL     1     -46.982  35.790  26.316  1.00  0.00     0.074 H 
ATOM      3  H   UNL     1     -45.436  34.981  26.190  1.00  0.00     0.074 H 
ENDROOT
BRANCH   1   4
ATOM      4  O   UNL     1     -46.717  34.017  27.460  1.00  0.00    -0.461 OA
BRANCH   4   5
ATOM      5  C   UNL     1     -47.243  33.224  26.473  1.00  0.00     0.318 A 
ATOM      6  C   UNL     1     -46.591  30.614  22.745  1.00  0.00     0.128 A 
ATOM      7  C   UNL     1     -47.944  30.315  22.648  1.00  0.00    -0.019 A 
ATOM      8  N   UNL     1     -46.109  31.402  23.729  1.00  0.00    -0.211 NA
ATOM      9  C   UNL     1     -48.820  30.855  23.577  1.00  0.00    -0.046 A 
ATOM     10  H   UNL     1     -48.308  29.656  21.867  1.00  0.00     0.066 H 
ATOM     11  C   UNL     1     -46.931  31.930  24.637  1.00  0.00     0.168 A 
ATOM     12  C   UNL     1     -48.302  31.677  24.585  1.00  0.00     0.038 A 
ATOM     13  H   UNL     1     -49.880  30.630  23.518  1.00  0.00     0.063 H 
ATOM     14  N   UNL     1     -46.404  32.705  25.576  1.00  0.00    -0.175 NA
ATOM     15  C   UNL     1     -49.076  32.277  25.565  1.00  0.00     0.044 A 
ATOM     16  N   UNL     1     -48.572  33.069  26.523  1.00  0.00    -0.203 NA
ATOM     17  H   UNL     1     -50.154  32.134  25.606  1.00  0.00     0.085 H 
BRANCH   6  18
ATOM     18  N   UNL     1     -45.721  30.026  21.810  1.00  0.00    -0.373 N 
ATOM     19  H   UNL     1     -45.122  30.741  21.407  1.00  0.00     0.161 HD
BRANCH  18  20
ATOM     20  C   UNL     1     -44.950  28.906  22.330  1.00  0.00     0.005 C 
ATOM     21  H   UNL     1     -44.965  28.053  21.643  1.00  0.00     0.045 H 
ATOM     22  H   UNL     1     -43.913  29.195  22.538  1.00  0.00     0.045 H 
ATOM     23  H   UNL     1     -45.393  28.578  23.275  1.00  0.00     0.045 H 
ENDBRANCH  18  20
ENDBRANCH   6  18
ENDBRANCH   4   5
ENDBRANCH   1   4
BRANCH   1  24
ATOM     24  C   UNL     1     -45.656  36.130  28.000  1.00  0.00     0.123 C 
ATOM     25  O   UNL     1     -45.543  37.482  27.516  1.00  0.00    -0.345 OA
ATOM     26  C   UNL     1     -46.523  36.203  29.256  1.00  0.00     0.114 C 
ATOM     27  H   UNL     1     -44.653  35.768  28.257  1.00  0.00     0.067 H 
ATOM     28  C   UNL     1     -45.835  38.381  28.620  1.00  0.00     0.164 C 
ATOM     29  C   UNL     1     -46.048  37.512  29.863  1.00  0.00     0.128 C 
ATOM     30  H   UNL     1     -47.589  36.274  29.006  1.00  0.00     0.066 H 
ATOM     31  H   UNL     1     -44.989  39.070  28.721  1.00  0.00     0.088 H 
ATOM     32  H   UNL     1     -46.751  37.916  30.598  1.00  0.00     0.068 H 
BRANCH  26  33
ATOM     33  O   UNL     1     -46.319  35.134  30.174  1.00  0.00    -0.387 OA
ATOM     34  H   UNL     1     -46.791  34.350  29.817  1.00  0.00     0.211 HD
ENDBRANCH  26  33
BRANCH  28  35
ATOM     35  N   UNL     1     -47.010  39.182  28.278  1.00  0.00    -0.302 N 
ATOM     36  C   UNL     1     -48.309  38.964  28.670  1.00  0.00     0.023 A 
ATOM     37  C   UNL     1     -46.957  40.308  27.489  1.00  0.00     0.148 A 
ATOM     38  C   UNL     1     -49.074  39.971  28.129  1.00  0.00     0.049 A 
ATOM     39  H   UNL     1     -48.584  38.116  29.283  1.00  0.00     0.083 H 
ATOM     40  C   UNL     1     -48.240  40.833  27.379  1.00  0.00     0.075 A 
ATOM     41  N   UNL     1     -45.840  40.807  26.935  1.00  0.00    -0.218 NA
ATOM     42  Br  UNL     1     -50.929  40.159  28.348  1.00  0.00    -0.048 Br
ATOM     43  C   UNL     1     -48.373  41.999  26.609  1.00  0.00     0.137 A 
ATOM     44  C   UNL     1     -46.092  41.915  26.220  1.00  0.00     0.120 A 
ATOM     45  N   UNL     1     -47.276  42.525  26.028  1.00  0.00    -0.219 NA
ATOM     46  H   UNL     1     -45.236  42.377  25.738  1.00  0.00     0.106 H 
BRANCH  43  47
ATOM     47  N   UNL     1     -49.572  42.658  26.390  1.00  0.00    -0.383 N 
ATOM     48  H   UNL     1     -50.183  42.583  27.196  1.00  0.00     0.158 HD
ATOM     49  H   UNL     1     -49.492  43.571  25.962  1.00  0.00     0.158 HD
ENDBRANCH  43  47
ENDBRANCH  28  35
BRANCH  29  50
ATOM     50  O   UNL     1     -44.806  37.285  30.553  1.00  0.00    -0.386 OA
ATOM     51  H   UNL     1     -44.113  37.568  29.921  1.00  0.00     0.211 HD
ENDBRANCH  29  50
ENDBRANCH   1  24
TORSDOF 9
ENDMDL
MODEL 7
REMARK VINA RESULT:      -8.6      4.456     11.357
REMARK SMILES CNc1ccc2cnc(OC[C@H]3O[C@@H](n4cc(Br)c5c(N)ncnc54)[C@H](O)[C@@H]3O)nc2n1
REMARK SMILES IDX 11 1 10 4 9 5 3 6 4 7 32 8 5 9 31 11 6 12 30 14 7 15 8 16
REMARK SMILES IDX 2 18 1 20 12 24 13 25 28 26 14 28 26 29 29 33 15 35 16 36
REMARK SMILES IDX 25 37 17 38 19 40 24 41 18 42 20 43 23 44 22 45 21 47 27 50
REMARK H PARENT 11 2 11 3 4 10 5 13 7 17 2 19 1 21 1 22 1 23 12 27 28 30 14 31
REMARK H PARENT 26 32 29 34 16 39 23 46 21 48 21 49 27 51
REMARK Flexibility Score: inf
ROOT
ATOM      1  C   UNL     1     -47.408  32.406  24.715  1.00  0.00     0.120 C 
ATOM      2  H   UNL     1     -48.416  32.409  24.274  1.00  0.00     0.074 H 
ATOM      3  H   UNL     1     -47.551  32.175  25.777  1.00  0.00     0.074 H 
ENDROOT
BRANCH   1   4
ATOM      4  O   UNL     1     -46.733  33.659  24.632  1.00  0.00    -0.461 OA
BRANCH   4   5
ATOM      5  C   UNL     1     -46.602  34.204  25.883  1.00  0.00     0.318 A 
ATOM      6  C   UNL     1     -46.845  37.886  28.626  1.00  0.00     0.128 A 
ATOM      7  C   UNL     1     -46.492  37.145  29.746  1.00  0.00    -0.019 A 
ATOM      8  N   UNL     1     -46.961  37.315  27.408  1.00  0.00    -0.211 NA
ATOM      9  C   UNL     1     -46.236  35.789  29.603  1.00  0.00    -0.046 A 
ATOM     10  H   UNL     1     -46.432  37.615  30.722  1.00  0.00     0.066 H 
ATOM     11  C   UNL     1     -46.724  36.013  27.245  1.00  0.00     0.168 A 
ATOM     12  C   UNL     1     -46.353  35.219  28.330  1.00  0.00     0.038 A 
ATOM     13  H   UNL     1     -45.960  35.194  30.468  1.00  0.00     0.063 H 
ATOM     14  N   UNL     1     -46.845  35.507  26.024  1.00  0.00    -0.175 NA
ATOM     15  C   UNL     1     -46.118  33.879  28.061  1.00  0.00     0.044 A 
ATOM     16  N   UNL     1     -46.227  33.342  26.837  1.00  0.00    -0.203 NA
ATOM     17  H   UNL     1     -45.828  33.184  28.845  1.00  0.00     0.085 H 
BRANCH   6  18
ATOM     18  N   UNL     1     -47.132  39.250  28.806  1.00  0.00    -0.373 N 
ATOM     19  H   UNL     1     -46.388  39.685  29.345  1.00  0.00     0.161 HD
BRANCH  18  20
ATOM     20  C   UNL     1     -47.400  39.975  27.573  1.00  0.00     0.005 C 
ATOM     21  H   UNL     1     -48.445  39.871  27.264  1.00  0.00     0.045 H 
ATOM     22  H   UNL     1     -47.146  41.037  27.668  1.00  0.00     0.045 H 
ATOM     23  H   UNL     1     -46.775  39.561  26.775  1.00  0.00     0.045 H 
ENDBRANCH  18  20
ENDBRANCH   6  18
ENDBRANCH   4   5
ENDBRANCH   1   4
BRANCH   1  24
ATOM     24  C   UNL     1     -46.559  31.305  24.074  1.00  0.00     0.123 C 
ATOM     25  O   UNL     1     -47.164  30.021  24.318  1.00  0.00    -0.345 OA
ATOM     26  C   UNL     1     -46.428  31.428  22.557  1.00  0.00     0.114 C 
ATOM     27  H   UNL     1     -45.564  31.314  24.539  1.00  0.00     0.067 H 
ATOM     28  C   UNL     1     -46.946  29.191  23.146  1.00  0.00     0.164 C 
ATOM     29  C   UNL     1     -46.077  30.000  22.177  1.00  0.00     0.128 C 
ATOM     30  H   UNL     1     -47.380  31.714  22.092  1.00  0.00     0.066 H 
ATOM     31  H   UNL     1     -46.464  28.265  23.479  1.00  0.00     0.088 H 
ATOM     32  H   UNL     1     -46.247  29.791  21.117  1.00  0.00     0.068 H 
BRANCH  26  33
ATOM     33  O   UNL     1     -45.402  32.316  22.125  1.00  0.00    -0.387 OA
ATOM     34  H   UNL     1     -45.838  33.148  21.840  1.00  0.00     0.211 HD
ENDBRANCH  26  33
BRANCH  28  35
ATOM     35  N   UNL     1     -48.243  28.825  22.578  1.00  0.00    -0.302 N 
ATOM     36  C   UNL     1     -48.788  29.265  21.395  1.00  0.00     0.023 A 
ATOM     37  C   UNL     1     -49.118  27.952  23.183  1.00  0.00     0.148 A 
ATOM     38  C   UNL     1     -50.010  28.652  21.254  1.00  0.00     0.049 A 
ATOM     39  H   UNL     1     -48.275  29.979  20.763  1.00  0.00     0.083 H 
ATOM     40  C   UNL     1     -50.240  27.816  22.373  1.00  0.00     0.075 A 
ATOM     41  N   UNL     1     -48.900  27.335  24.355  1.00  0.00    -0.218 NA
ATOM     42  Br  UNL     1     -51.185  28.897  19.811  1.00  0.00    -0.048 Br
ATOM     43  C   UNL     1     -51.241  26.948  22.835  1.00  0.00     0.137 A 
ATOM     44  C   UNL     1     -49.926  26.539  24.696  1.00  0.00     0.120 A 
ATOM     45  N   UNL     1     -51.064  26.318  24.014  1.00  0.00    -0.219 NA
ATOM     46  H   UNL     1     -49.825  26.006  25.637  1.00  0.00     0.106 H 
BRANCH  43  47
ATOM     47  N   UNL     1     -52.425  26.692  22.161  1.00  0.00    -0.383 N 
ATOM     48  H   UNL     1     -52.573  27.363  21.416  1.00  0.00     0.158 HD
ATOM     49  H   UNL     1     -52.595  25.719  21.941  1.00  0.00     0.158 HD
ENDBRANCH  43  47
ENDBRANCH  28  35
BRANCH  29  50
ATOM     50  O   UNL     1     -44.678  29.777  22.429  1.00  0.00    -0.386 OA
ATOM     51  H   UNL     1     -44.602  29.740  23.406  1.00  0.00     0.211 HD
ENDBRANCH  29  50
ENDBRANCH   1  24
TORSDOF 9
ENDMDL
