MODEL 1
REMARK VINA RESULT:     -11.3      0.000      0.000
REMARK SMILES O=C(NCc1ccc2cc(CN[C@]34C[C@H]5C[C@H](C[C@H](C5)C3)C4)[nH]c2c1)c1cc(=O)n2ccccc2n1
REMARK SMILES IDX 5 1 6 2 7 3 8 4 9 5 10 6 23 7 24 8 25 9 4 15 3 18 1 19 2 20
REMARK SMILES IDX 26 22 27 23 36 24 28 25 35 27 29 28 30 29 34 30 31 31 33 32
REMARK SMILES IDX 32 34 11 38 12 41 13 43 14 44 21 45 22 46 15 47 19 50 17 53
REMARK SMILES IDX 16 56 20 57 18 59
REMARK H PARENT 6 10 7 11 9 12 23 13 25 14 4 16 4 17 3 21 27 26 34 33 31 35
REMARK H PARENT 33 36 32 37 11 39 11 40 12 42 14 48 14 49 21 51 21 52 22 54
REMARK H PARENT 22 55 15 58 19 60 17 61 16 62 16 63 20 64 20 65 18 66 18 67
REMARK Flexibility Score: inf
ROOT
ATOM      1  C   UNL     1     -46.315  36.417  28.406  1.00  0.00    -0.027 A 
ATOM      2  C   UNL     1     -47.703  36.462  28.222  1.00  0.00    -0.057 A 
ATOM      3  C   UNL     1     -48.344  35.588  27.334  1.00  0.00    -0.052 A 
ATOM      4  C   UNL     1     -47.582  34.644  26.624  1.00  0.00    -0.000 A 
ATOM      5  C   UNL     1     -47.894  33.629  25.676  1.00  0.00    -0.032 A 
ATOM      6  C   UNL     1     -46.719  32.996  25.325  1.00  0.00     0.030 A 
ATOM      7  N   UNL     1     -45.707  33.609  26.024  1.00  0.00    -0.357 N 
ATOM      8  C   UNL     1     -46.203  34.609  26.825  1.00  0.00     0.046 A 
ATOM      9  C   UNL     1     -45.543  35.472  27.708  1.00  0.00    -0.033 A 
ATOM     10  H   UNL     1     -48.303  37.182  28.775  1.00  0.00     0.063 H 
ATOM     11  H   UNL     1     -49.421  35.637  27.202  1.00  0.00     0.063 H 
ATOM     12  H   UNL     1     -48.878  33.386  25.298  1.00  0.00     0.065 H 
ATOM     13  H   UNL     1     -44.740  33.316  25.970  1.00  0.00     0.166 HD
ATOM     14  H   UNL     1     -44.468  35.411  27.851  1.00  0.00     0.065 H 
ENDROOT
BRANCH   1  15
ATOM     15  C   UNL     1     -45.652  37.341  29.394  1.00  0.00     0.043 C 
ATOM     16  H   UNL     1     -44.960  36.791  30.043  1.00  0.00     0.054 H 
ATOM     17  H   UNL     1     -46.396  37.808  30.050  1.00  0.00     0.054 H 
BRANCH  15  18
ATOM     18  N   UNL     1     -44.919  38.374  28.713  1.00  0.00    -0.347 N 
ATOM     19  O   UNL     1     -46.717  39.753  28.355  1.00  0.00    -0.268 OA
ATOM     20  C   UNL     1     -45.520  39.515  28.250  1.00  0.00     0.270 C 
ATOM     21  H   UNL     1     -43.915  38.291  28.585  1.00  0.00     0.164 HD
BRANCH  20  22
ATOM     22  C   UNL     1     -44.542  40.457  27.591  1.00  0.00     0.136 A 
ATOM     23  C   UNL     1     -43.396  40.674  28.239  1.00  0.00     0.035 A 
ATOM     24  N   UNL     1     -44.882  41.027  26.385  1.00  0.00    -0.225 NA
ATOM     25  C   UNL     1     -42.416  41.585  27.634  1.00  0.00     0.258 A 
ATOM     26  H   UNL     1     -43.140  40.220  29.187  1.00  0.00     0.071 H 
ATOM     27  C   UNL     1     -44.014  41.831  25.853  1.00  0.00     0.140 A 
ATOM     28  O   UNL     1     -41.357  41.791  28.224  1.00  0.00    -0.269 OA
ATOM     29  N   UNL     1     -42.783  42.146  26.419  1.00  0.00    -0.268 N 
ATOM     30  C   UNL     1     -44.341  42.472  24.547  1.00  0.00    -0.019 A 
ATOM     31  C   UNL     1     -41.908  43.020  25.783  1.00  0.00     0.014 A 
ATOM     32  C   UNL     1     -43.465  43.306  23.975  1.00  0.00    -0.057 A 
ATOM     33  H   UNL     1     -45.297  42.233  24.099  1.00  0.00     0.066 H 
ATOM     34  C   UNL     1     -42.207  43.591  24.612  1.00  0.00    -0.045 A 
ATOM     35  H   UNL     1     -40.962  43.220  26.282  1.00  0.00     0.082 H 
ATOM     36  H   UNL     1     -43.685  43.782  23.024  1.00  0.00     0.062 H 
ATOM     37  H   UNL     1     -41.515  44.272  24.124  1.00  0.00     0.064 H 
ENDBRANCH  20  22
ENDBRANCH  15  18
ENDBRANCH   1  15
BRANCH   6  38
ATOM     38  C   UNL     1     -46.452  31.876  24.380  1.00  0.00     0.036 C 
ATOM     39  H   UNL     1     -45.411  31.563  24.540  1.00  0.00     0.049 H 
ATOM     40  H   UNL     1     -46.510  32.213  23.341  1.00  0.00     0.049 H 
BRANCH  38  41
ATOM     41  N   UNL     1     -47.314  30.726  24.655  1.00  0.00    -0.306 NA
ATOM     42  H   UNL     1     -46.713  29.915  24.807  1.00  0.00     0.123 HD
BRANCH  41  43
ATOM     43  C   UNL     1     -48.297  30.379  23.610  1.00  0.00     0.019 C 
ATOM     44  C   UNL     1     -49.535  31.315  23.663  1.00  0.00    -0.032 C 
ATOM     45  C   UNL     1     -48.779  28.906  23.644  1.00  0.00    -0.032 C 
ATOM     46  C   UNL     1     -47.583  30.615  22.250  1.00  0.00    -0.032 C 
ATOM     47  C   UNL     1     -50.488  31.022  22.491  1.00  0.00    -0.039 C 
ATOM     48  H   UNL     1     -49.222  32.367  23.623  1.00  0.00     0.029 H 
ATOM     49  H   UNL     1     -50.082  31.188  24.605  1.00  0.00     0.029 H 
ATOM     50  C   UNL     1     -49.734  28.617  22.472  1.00  0.00    -0.039 C 
ATOM     51  H   UNL     1     -49.305  28.686  24.581  1.00  0.00     0.029 H 
ATOM     52  H   UNL     1     -47.923  28.221  23.586  1.00  0.00     0.029 H 
ATOM     53  C   UNL     1     -48.529  30.325  21.072  1.00  0.00    -0.039 C 
ATOM     54  H   UNL     1     -47.226  31.652  22.178  1.00  0.00     0.029 H 
ATOM     55  H   UNL     1     -46.696  29.971  22.171  1.00  0.00     0.029 H 
ATOM     56  C   UNL     1     -49.750  31.256  21.165  1.00  0.00    -0.047 C 
ATOM     57  C   UNL     1     -50.948  29.556  22.564  1.00  0.00    -0.047 C 
ATOM     58  H   UNL     1     -51.360  31.685  22.550  1.00  0.00     0.030 H 
ATOM     59  C   UNL     1     -48.998  28.865  21.146  1.00  0.00    -0.047 C 
ATOM     60  H   UNL     1     -50.069  27.575  22.518  1.00  0.00     0.030 H 
ATOM     61  H   UNL     1     -48.005  30.498  20.126  1.00  0.00     0.030 H 
ATOM     62  H   UNL     1     -50.426  31.072  20.321  1.00  0.00     0.027 H 
ATOM     63  H   UNL     1     -49.429  32.302  21.093  1.00  0.00     0.027 H 
ATOM     64  H   UNL     1     -51.648  29.342  21.747  1.00  0.00     0.027 H 
ATOM     65  H   UNL     1     -51.489  29.379  23.501  1.00  0.00     0.027 H 
ATOM     66  H   UNL     1     -49.661  28.641  20.301  1.00  0.00     0.027 H 
ATOM     67  H   UNL     1     -48.138  28.189  21.062  1.00  0.00     0.027 H 
ENDBRANCH  41  43
ENDBRANCH  38  41
ENDBRANCH   6  38
TORSDOF 6
ENDMDL
MODEL 2
REMARK VINA RESULT:     -11.0      2.276      4.129
REMARK SMILES O=C(NCc1ccc2cc(CN[C@]34C[C@H]5C[C@H](C[C@H](C5)C3)C4)[nH]c2c1)c1cc(=O)n2ccccc2n1
REMARK SMILES IDX 5 1 6 2 7 3 8 4 9 5 10 6 23 7 24 8 25 9 4 15 3 18 1 19 2 20
REMARK SMILES IDX 26 22 27 23 36 24 28 25 35 27 29 28 30 29 34 30 31 31 33 32
REMARK SMILES IDX 32 34 11 38 12 41 13 43 14 44 21 45 22 46 15 47 19 50 17 53
REMARK SMILES IDX 16 56 20 57 18 59
REMARK H PARENT 6 10 7 11 9 12 23 13 25 14 4 16 4 17 3 21 27 26 34 33 31 35
REMARK H PARENT 33 36 32 37 11 39 11 40 12 42 14 48 14 49 21 51 21 52 22 54
REMARK H PARENT 22 55 15 58 19 60 17 61 16 62 16 63 20 64 20 65 18 66 18 67
REMARK Flexibility Score: inf
ROOT
ATOM      1  C   UNL     1     -47.885  34.799  26.747  1.00  0.00    -0.027 A 
ATOM      2  C   UNL     1     -46.587  34.749  26.222  1.00  0.00    -0.057 A 
ATOM      3  C   UNL     1     -46.205  33.737  25.331  1.00  0.00    -0.052 A 
ATOM      4  C   UNL     1     -47.144  32.761  24.951  1.00  0.00    -0.000 A 
ATOM      5  C   UNL     1     -47.103  31.630  24.088  1.00  0.00    -0.032 A 
ATOM      6  C   UNL     1     -48.352  31.041  24.097  1.00  0.00     0.030 A 
ATOM      7  N   UNL     1     -49.139  31.778  24.950  1.00  0.00    -0.357 N 
ATOM      8  C   UNL     1     -48.432  32.832  25.478  1.00  0.00     0.046 A 
ATOM      9  C   UNL     1     -48.834  33.834  26.368  1.00  0.00    -0.033 A 
ATOM     10  H   UNL     1     -45.856  35.504  26.502  1.00  0.00     0.063 H 
ATOM     11  H   UNL     1     -45.194  33.711  24.935  1.00  0.00     0.063 H 
ATOM     12  H   UNL     1     -46.250  31.291  23.517  1.00  0.00     0.065 H 
ATOM     13  H   UNL     1     -50.116  31.575  25.116  1.00  0.00     0.166 HD
ATOM     14  H   UNL     1     -49.850  33.867  26.751  1.00  0.00     0.065 H 
ENDROOT
BRANCH   1  15
ATOM     15  C   UNL     1     -48.284  35.917  27.674  1.00  0.00     0.043 C 
ATOM     16  H   UNL     1     -48.366  35.560  28.708  1.00  0.00     0.054 H 
ATOM     17  H   UNL     1     -49.266  36.319  27.399  1.00  0.00     0.054 H 
BRANCH  15  18
ATOM     18  N   UNL     1     -47.318  36.983  27.633  1.00  0.00    -0.347 N 
ATOM     19  O   UNL     1     -46.521  36.670  29.762  1.00  0.00    -0.268 OA
ATOM     20  C   UNL     1     -46.500  37.270  28.694  1.00  0.00     0.270 C 
ATOM     21  H   UNL     1     -47.200  37.536  26.789  1.00  0.00     0.164 HD
BRANCH  20  22
ATOM     22  C   UNL     1     -45.558  38.414  28.403  1.00  0.00     0.136 A 
ATOM     23  C   UNL     1     -45.778  39.093  27.276  1.00  0.00     0.035 A 
ATOM     24  N   UNL     1     -44.548  38.682  29.298  1.00  0.00    -0.225 NA
ATOM     25  C   UNL     1     -44.884  40.214  26.955  1.00  0.00     0.258 A 
ATOM     26  H   UNL     1     -46.575  38.873  26.580  1.00  0.00     0.071 H 
ATOM     27  C   UNL     1     -43.761  39.673  29.011  1.00  0.00     0.140 A 
ATOM     28  O   UNL     1     -45.078  40.847  25.918  1.00  0.00    -0.269 OA
ATOM     29  N   UNL     1     -43.875  40.464  27.874  1.00  0.00    -0.268 N 
ATOM     30  C   UNL     1     -42.652  40.000  29.953  1.00  0.00    -0.019 A 
ATOM     31  C   UNL     1     -42.987  41.509  27.638  1.00  0.00     0.014 A 
ATOM     32  C   UNL     1     -41.824  41.016  29.682  1.00  0.00    -0.057 A 
ATOM     33  H   UNL     1     -42.555  39.389  30.842  1.00  0.00     0.066 H 
ATOM     34  C   UNL     1     -41.995  41.797  28.487  1.00  0.00    -0.045 A 
ATOM     35  H   UNL     1     -43.136  42.086  26.728  1.00  0.00     0.082 H 
ATOM     36  H   UNL     1     -41.011  41.269  30.356  1.00  0.00     0.062 H 
ATOM     37  H   UNL     1     -41.308  42.616  28.293  1.00  0.00     0.064 H 
ENDBRANCH  20  22
ENDBRANCH  15  18
ENDBRANCH   1  15
BRANCH   6  38
ATOM     38  C   UNL     1     -48.875  29.840  23.389  1.00  0.00     0.036 C 
ATOM     39  H   UNL     1     -49.032  30.128  22.341  1.00  0.00     0.049 H 
ATOM     40  H   UNL     1     -49.858  29.551  23.774  1.00  0.00     0.049 H 
BRANCH  38  41
ATOM     41  N   UNL     1     -47.909  28.741  23.413  1.00  0.00    -0.306 NA
ATOM     42  H   UNL     1     -48.039  28.193  22.562  1.00  0.00     0.123 HD
BRANCH  41  43
ATOM     43  C   UNL     1     -47.988  27.823  24.566  1.00  0.00     0.019 C 
ATOM     44  C   UNL     1     -48.320  28.586  25.877  1.00  0.00    -0.032 C 
ATOM     45  C   UNL     1     -46.718  26.963  24.792  1.00  0.00    -0.032 C 
ATOM     46  C   UNL     1     -49.170  26.858  24.269  1.00  0.00    -0.032 C 
ATOM     47  C   UNL     1     -48.524  27.601  27.042  1.00  0.00    -0.039 C 
ATOM     48  H   UNL     1     -49.228  29.190  25.749  1.00  0.00     0.029 H 
ATOM     49  H   UNL     1     -47.515  29.283  26.139  1.00  0.00     0.029 H 
ATOM     50  C   UNL     1     -46.925  25.981  25.960  1.00  0.00    -0.039 C 
ATOM     51  H   UNL     1     -45.852  27.594  25.021  1.00  0.00     0.029 H 
ATOM     52  H   UNL     1     -46.473  26.395  23.885  1.00  0.00     0.029 H 
ATOM     53  C   UNL     1     -49.381  25.870  25.429  1.00  0.00    -0.039 C 
ATOM     54  H   UNL     1     -50.097  27.424  24.104  1.00  0.00     0.029 H 
ATOM     55  H   UNL     1     -48.977  26.296  23.343  1.00  0.00     0.029 H 
ATOM     56  C   UNL     1     -49.691  26.658  26.712  1.00  0.00    -0.047 C 
ATOM     57  C   UNL     1     -47.242  26.774  27.238  1.00  0.00    -0.047 C 
ATOM     58  H   UNL     1     -48.747  28.157  27.960  1.00  0.00     0.030 H 
ATOM     59  C   UNL     1     -48.101  25.047  25.634  1.00  0.00    -0.047 C 
ATOM     60  H   UNL     1     -46.015  25.389  26.108  1.00  0.00     0.030 H 
ATOM     61  H   UNL     1     -50.217  25.201  25.197  1.00  0.00     0.030 H 
ATOM     62  H   UNL     1     -49.861  25.965  27.545  1.00  0.00     0.027 H 
ATOM     63  H   UNL     1     -50.614  27.235  26.585  1.00  0.00     0.027 H 
ATOM     64  H   UNL     1     -47.367  26.084  28.083  1.00  0.00     0.027 H 
ATOM     65  H   UNL     1     -46.403  27.434  27.488  1.00  0.00     0.027 H 
ATOM     66  H   UNL     1     -48.245  24.327  26.449  1.00  0.00     0.027 H 
ATOM     67  H   UNL     1     -47.879  24.465  24.731  1.00  0.00     0.027 H 
ENDBRANCH  41  43
ENDBRANCH  38  41
ENDBRANCH   6  38
TORSDOF 6
ENDMDL
MODEL 3
REMARK VINA RESULT:     -10.7      2.322      4.078
REMARK SMILES O=C(NCc1ccc2cc(CN[C@]34C[C@H]5C[C@H](C[C@H](C5)C3)C4)[nH]c2c1)c1cc(=O)n2ccccc2n1
REMARK SMILES IDX 5 1 6 2 7 3 8 4 9 5 10 6 23 7 24 8 25 9 4 15 3 18 1 19 2 20
REMARK SMILES IDX 26 22 27 23 36 24 28 25 35 27 29 28 30 29 34 30 31 31 33 32
REMARK SMILES IDX 32 34 11 38 12 41 13 43 14 44 21 45 22 46 15 47 19 50 17 53
REMARK SMILES IDX 16 56 20 57 18 59
REMARK H PARENT 6 10 7 11 9 12 23 13 25 14 4 16 4 17 3 21 27 26 34 33 31 35
REMARK H PARENT 33 36 32 37 11 39 11 40 12 42 14 48 14 49 21 51 21 52 22 54
REMARK H PARENT 22 55 15 58 19 60 17 61 16 62 16 63 20 64 20 65 18 66 18 67
REMARK Flexibility Score: inf
ROOT
ATOM      1  C   UNL     1     -47.885  34.926  26.793  1.00  0.00    -0.027 A 
ATOM      2  C   UNL     1     -46.567  34.836  26.327  1.00  0.00    -0.057 A 
ATOM      3  C   UNL     1     -46.169  33.797  25.476  1.00  0.00    -0.052 A 
ATOM      4  C   UNL     1     -47.113  32.834  25.074  1.00  0.00    -0.000 A 
ATOM      5  C   UNL     1     -47.060  31.684  24.237  1.00  0.00    -0.032 A 
ATOM      6  C   UNL     1     -48.321  31.123  24.203  1.00  0.00     0.030 A 
ATOM      7  N   UNL     1     -49.127  31.895  25.005  1.00  0.00    -0.357 N 
ATOM      8  C   UNL     1     -48.421  32.944  25.542  1.00  0.00     0.046 A 
ATOM      9  C   UNL     1     -48.839  33.975  26.391  1.00  0.00    -0.033 A 
ATOM     10  H   UNL     1     -45.832  35.581  26.623  1.00  0.00     0.063 H 
ATOM     11  H   UNL     1     -45.143  33.741  25.125  1.00  0.00     0.063 H 
ATOM     12  H   UNL     1     -46.190  31.313  23.712  1.00  0.00     0.065 H 
ATOM     13  H   UNL     1     -50.116  31.717  25.132  1.00  0.00     0.166 HD
ATOM     14  H   UNL     1     -49.870  34.038  26.728  1.00  0.00     0.065 H 
ENDROOT
BRANCH   1  15
ATOM     15  C   UNL     1     -48.299  36.073  27.677  1.00  0.00     0.043 C 
ATOM     16  H   UNL     1     -48.819  35.711  28.572  1.00  0.00     0.054 H 
ATOM     17  H   UNL     1     -48.997  36.737  27.153  1.00  0.00     0.054 H 
BRANCH  15  18
ATOM     18  N   UNL     1     -47.152  36.838  28.091  1.00  0.00    -0.347 N 
ATOM     19  O   UNL     1     -47.718  38.754  26.963  1.00  0.00    -0.268 OA
ATOM     20  C   UNL     1     -46.959  38.136  27.699  1.00  0.00     0.270 C 
ATOM     21  H   UNL     1     -46.464  36.432  28.718  1.00  0.00     0.164 HD
BRANCH  20  22
ATOM     22  C   UNL     1     -45.698  38.732  28.278  1.00  0.00     0.136 A 
ATOM     23  C   UNL     1     -45.273  38.217  29.433  1.00  0.00     0.035 A 
ATOM     24  N   UNL     1     -45.074  39.752  27.596  1.00  0.00    -0.225 NA
ATOM     25  C   UNL     1     -44.050  38.768  30.032  1.00  0.00     0.258 A 
ATOM     26  H   UNL     1     -45.772  37.415  29.960  1.00  0.00     0.071 H 
ATOM     27  C   UNL     1     -43.994  40.236  28.128  1.00  0.00     0.140 A 
ATOM     28  O   UNL     1     -43.650  38.300  31.097  1.00  0.00    -0.269 OA
ATOM     29  N   UNL     1     -43.441  39.794  29.325  1.00  0.00    -0.268 N 
ATOM     30  C   UNL     1     -43.286  41.342  27.424  1.00  0.00    -0.019 A 
ATOM     31  C   UNL     1     -42.278  40.368  29.829  1.00  0.00     0.014 A 
ATOM     32  C   UNL     1     -42.170  41.862  27.949  1.00  0.00    -0.057 A 
ATOM     33  H   UNL     1     -43.709  41.693  26.491  1.00  0.00     0.066 H 
ATOM     34  C   UNL     1     -41.647  41.360  29.192  1.00  0.00    -0.045 A 
ATOM     35  H   UNL     1     -41.901  39.973  30.769  1.00  0.00     0.082 H 
ATOM     36  H   UNL     1     -41.639  42.668  27.451  1.00  0.00     0.062 H 
ATOM     37  H   UNL     1     -40.740  41.801  29.595  1.00  0.00     0.064 H 
ENDBRANCH  20  22
ENDBRANCH  15  18
ENDBRANCH   1  15
BRANCH   6  38
ATOM     38  C   UNL     1     -48.840  29.918  23.498  1.00  0.00     0.036 C 
ATOM     39  H   UNL     1     -49.017  30.208  22.454  1.00  0.00     0.049 H 
ATOM     40  H   UNL     1     -49.813  29.615  23.897  1.00  0.00     0.049 H 
BRANCH  38  41
ATOM     41  N   UNL     1     -47.860  28.831  23.502  1.00  0.00    -0.306 NA
ATOM     42  H   UNL     1     -47.904  28.369  22.594  1.00  0.00     0.123 HD
BRANCH  41  43
ATOM     43  C   UNL     1     -48.024  27.803  24.549  1.00  0.00     0.019 C 
ATOM     44  C   UNL     1     -46.709  27.011  24.777  1.00  0.00    -0.032 C 
ATOM     45  C   UNL     1     -49.177  26.800  24.289  1.00  0.00    -0.032 C 
ATOM     46  C   UNL     1     -48.348  28.571  25.861  1.00  0.00    -0.032 C 
ATOM     47  C   UNL     1     -46.862  26.033  25.956  1.00  0.00    -0.039 C 
ATOM     48  H   UNL     1     -45.878  27.700  24.982  1.00  0.00     0.029 H 
ATOM     49  H   UNL     1     -46.431  26.445  23.880  1.00  0.00     0.029 H 
ATOM     50  C   UNL     1     -49.325  25.821  25.468  1.00  0.00    -0.039 C 
ATOM     51  H   UNL     1     -48.993  26.218  23.378  1.00  0.00     0.029 H 
ATOM     52  H   UNL     1     -50.125  27.334  24.145  1.00  0.00     0.029 H 
ATOM     53  C   UNL     1     -48.502  27.601  27.045  1.00  0.00    -0.039 C 
ATOM     54  H   UNL     1     -47.554  29.295  26.089  1.00  0.00     0.029 H 
ATOM     55  H   UNL     1     -49.275  29.150  25.742  1.00  0.00     0.029 H 
ATOM     56  C   UNL     1     -47.189  26.823  27.232  1.00  0.00    -0.047 C 
ATOM     57  C   UNL     1     -48.007  25.053  25.657  1.00  0.00    -0.047 C 
ATOM     58  H   UNL     1     -45.927  25.476  26.096  1.00  0.00     0.030 H 
ATOM     59  C   UNL     1     -49.640  26.614  26.747  1.00  0.00    -0.047 C 
ATOM     60  H   UNL     1     -50.138  25.117  25.262  1.00  0.00     0.030 H 
ATOM     61  H   UNL     1     -48.730  28.164  27.956  1.00  0.00     0.030 H 
ATOM     62  H   UNL     1     -47.278  26.138  28.084  1.00  0.00     0.027 H 
ATOM     63  H   UNL     1     -46.372  27.515  27.465  1.00  0.00     0.027 H 
ATOM     64  H   UNL     1     -48.110  24.333  26.480  1.00  0.00     0.027 H 
ATOM     65  H   UNL     1     -47.780  24.472  24.755  1.00  0.00     0.027 H 
ATOM     66  H   UNL     1     -49.770  25.926  27.592  1.00  0.00     0.027 H 
ATOM     67  H   UNL     1     -50.586  27.156  26.629  1.00  0.00     0.027 H 
ENDBRANCH  41  43
ENDBRANCH  38  41
ENDBRANCH   6  38
TORSDOF 6
ENDMDL
MODEL 4
REMARK VINA RESULT:     -10.7      1.638      2.101
REMARK SMILES O=C(NCc1ccc2cc(CN[C@]34C[C@H]5C[C@H](C[C@H](C5)C3)C4)[nH]c2c1)c1cc(=O)n2ccccc2n1
REMARK SMILES IDX 5 1 6 2 7 3 8 4 9 5 10 6 23 7 24 8 25 9 4 15 3 18 1 19 2 20
REMARK SMILES IDX 26 22 27 23 36 24 28 25 35 27 29 28 30 29 34 30 31 31 33 32
REMARK SMILES IDX 32 34 11 38 12 41 13 43 14 44 21 45 22 46 15 47 19 50 17 53
REMARK SMILES IDX 16 56 20 57 18 59
REMARK H PARENT 6 10 7 11 9 12 23 13 25 14 4 16 4 17 3 21 27 26 34 33 31 35
REMARK H PARENT 33 36 32 37 11 39 11 40 12 42 14 48 14 49 21 51 21 52 22 54
REMARK H PARENT 22 55 15 58 19 60 17 61 16 62 16 63 20 64 20 65 18 66 18 67
REMARK Flexibility Score: inf
ROOT
ATOM      1  C   UNL     1     -45.544  37.697  28.263  1.00  0.00    -0.027 A 
ATOM      2  C   UNL     1     -46.718  38.083  27.603  1.00  0.00    -0.057 A 
ATOM      3  C   UNL     1     -47.522  37.143  26.946  1.00  0.00    -0.052 A 
ATOM      4  C   UNL     1     -47.149  35.787  26.959  1.00  0.00    -0.000 A 
ATOM      5  C   UNL     1     -47.715  34.598  26.418  1.00  0.00    -0.032 A 
ATOM      6  C   UNL     1     -46.900  33.540  26.766  1.00  0.00     0.030 A 
ATOM      7  N   UNL     1     -45.852  34.059  27.489  1.00  0.00    -0.357 N 
ATOM      8  C   UNL     1     -45.982  35.420  27.626  1.00  0.00     0.046 A 
ATOM      9  C   UNL     1     -45.165  36.344  28.289  1.00  0.00    -0.033 A 
ATOM     10  H   UNL     1     -47.021  39.128  27.596  1.00  0.00     0.063 H 
ATOM     11  H   UNL     1     -48.428  37.459  26.437  1.00  0.00     0.063 H 
ATOM     12  H   UNL     1     -48.628  34.528  25.841  1.00  0.00     0.065 H 
ATOM     13  H   UNL     1     -45.120  33.488  27.892  1.00  0.00     0.166 HD
ATOM     14  H   UNL     1     -44.268  36.023  28.810  1.00  0.00     0.065 H 
ENDROOT
BRANCH   1  15
ATOM     15  C   UNL     1     -44.715  38.721  28.994  1.00  0.00     0.043 C 
ATOM     16  H   UNL     1     -43.740  38.306  29.277  1.00  0.00     0.054 H 
ATOM     17  H   UNL     1     -45.209  39.029  29.923  1.00  0.00     0.054 H 
BRANCH  15  18
ATOM     18  N   UNL     1     -44.500  39.883  28.173  1.00  0.00    -0.347 N 
ATOM     19  O   UNL     1     -42.595  40.585  29.243  1.00  0.00    -0.268 OA
ATOM     20  C   UNL     1     -43.437  40.726  28.365  1.00  0.00     0.270 C 
ATOM     21  H   UNL     1     -45.127  40.089  27.402  1.00  0.00     0.164 HD
BRANCH  20  22
ATOM     22  C   UNL     1     -43.413  41.859  27.367  1.00  0.00     0.136 A 
ATOM     23  C   UNL     1     -42.260  42.066  26.729  1.00  0.00     0.035 A 
ATOM     24  N   UNL     1     -44.558  42.600  27.179  1.00  0.00    -0.225 NA
ATOM     25  C   UNL     1     -42.193  43.159  25.750  1.00  0.00     0.258 A 
ATOM     26  H   UNL     1     -41.366  41.477  26.885  1.00  0.00     0.071 H 
ATOM     27  C   UNL     1     -44.495  43.564  26.314  1.00  0.00     0.140 A 
ATOM     28  O   UNL     1     -41.134  43.357  25.156  1.00  0.00    -0.269 OA
ATOM     29  N   UNL     1     -43.360  43.889  25.579  1.00  0.00    -0.268 N 
ATOM     30  C   UNL     1     -45.712  44.393  26.079  1.00  0.00    -0.019 A 
ATOM     31  C   UNL     1     -43.375  44.942  24.670  1.00  0.00     0.014 A 
ATOM     32  C   UNL     1     -45.677  45.395  25.192  1.00  0.00    -0.057 A 
ATOM     33  H   UNL     1     -46.601  44.147  26.646  1.00  0.00     0.066 H 
ATOM     34  C   UNL     1     -44.470  45.681  24.463  1.00  0.00    -0.045 A 
ATOM     35  H   UNL     1     -42.452  45.139  24.130  1.00  0.00     0.082 H 
ATOM     36  H   UNL     1     -46.553  46.009  25.007  1.00  0.00     0.062 H 
ATOM     37  H   UNL     1     -44.470  46.500  23.750  1.00  0.00     0.064 H 
ENDBRANCH  20  22
ENDBRANCH  15  18
ENDBRANCH   1  15
BRANCH   6  38
ATOM     38  C   UNL     1     -47.002  32.084  26.471  1.00  0.00     0.036 C 
ATOM     39  H   UNL     1     -46.614  31.550  27.349  1.00  0.00     0.049 H 
ATOM     40  H   UNL     1     -46.353  31.803  25.636  1.00  0.00     0.049 H 
BRANCH  38  41
ATOM     41  N   UNL     1     -48.393  31.673  26.274  1.00  0.00    -0.306 NA
ATOM     42  H   UNL     1     -48.684  31.153  27.102  1.00  0.00     0.123 HD
BRANCH  41  43
ATOM     43  C   UNL     1     -48.669  30.839  25.088  1.00  0.00     0.019 C 
ATOM     44  C   UNL     1     -49.914  31.350  24.313  1.00  0.00    -0.032 C 
ATOM     45  C   UNL     1     -48.849  29.329  25.391  1.00  0.00    -0.032 C 
ATOM     46  C   UNL     1     -47.435  30.994  24.155  1.00  0.00    -0.032 C 
ATOM     47  C   UNL     1     -50.111  30.548  23.014  1.00  0.00    -0.039 C 
ATOM     48  H   UNL     1     -49.804  32.415  24.070  1.00  0.00     0.029 H 
ATOM     49  H   UNL     1     -50.820  31.261  24.925  1.00  0.00     0.029 H 
ATOM     50  C   UNL     1     -49.049  28.532  24.089  1.00  0.00    -0.039 C 
ATOM     51  H   UNL     1     -49.718  29.159  26.037  1.00  0.00     0.029 H 
ATOM     52  H   UNL     1     -47.971  28.938  25.921  1.00  0.00     0.029 H 
ATOM     53  C   UNL     1     -47.624  30.197  22.853  1.00  0.00    -0.039 C 
ATOM     54  H   UNL     1     -47.270  32.051  23.909  1.00  0.00     0.029 H 
ATOM     55  H   UNL     1     -46.527  30.645  24.667  1.00  0.00     0.029 H 
ATOM     56  C   UNL     1     -48.873  30.716  22.121  1.00  0.00    -0.047 C 
ATOM     57  C   UNL     1     -50.293  29.061  23.357  1.00  0.00    -0.047 C 
ATOM     58  H   UNL     1     -50.999  30.916  22.486  1.00  0.00     0.030 H 
ATOM     59  C   UNL     1     -47.814  28.711  23.191  1.00  0.00    -0.047 C 
ATOM     60  H   UNL     1     -49.182  27.470  24.325  1.00  0.00     0.030 H 
ATOM     61  H   UNL     1     -46.744  30.320  22.213  1.00  0.00     0.030 H 
ATOM     62  H   UNL     1     -49.011  30.167  21.181  1.00  0.00     0.027 H 
ATOM     63  H   UNL     1     -48.741  31.771  21.856  1.00  0.00     0.027 H 
ATOM     64  H   UNL     1     -50.460  28.482  22.439  1.00  0.00     0.027 H 
ATOM     65  H   UNL     1     -51.183  28.925  23.984  1.00  0.00     0.027 H 
ATOM     66  H   UNL     1     -47.934  28.129  22.269  1.00  0.00     0.027 H 
ATOM     67  H   UNL     1     -46.922  28.323  23.698  1.00  0.00     0.027 H 
ENDBRANCH  41  43
ENDBRANCH  38  41
ENDBRANCH   6  38
TORSDOF 6
ENDMDL
MODEL 5
REMARK VINA RESULT:     -10.6      1.284      2.171
REMARK SMILES O=C(NCc1ccc2cc(CN[C@]34C[C@H]5C[C@H](C[C@H](C5)C3)C4)[nH]c2c1)c1cc(=O)n2ccccc2n1
REMARK SMILES IDX 5 1 6 2 7 3 8 4 9 5 10 6 23 7 24 8 25 9 4 15 3 18 1 19 2 20
REMARK SMILES IDX 26 22 27 23 36 24 28 25 35 27 29 28 30 29 34 30 31 31 33 32
REMARK SMILES IDX 32 34 11 38 12 41 13 43 14 44 21 45 22 46 15 47 19 50 17 53
REMARK SMILES IDX 16 56 20 57 18 59
REMARK H PARENT 6 10 7 11 9 12 23 13 25 14 4 16 4 17 3 21 27 26 34 33 31 35
REMARK H PARENT 33 36 32 37 11 39 11 40 12 42 14 48 14 49 21 51 21 52 22 54
REMARK H PARENT 22 55 15 58 19 60 17 61 16 62 16 63 20 64 20 65 18 66 18 67
REMARK Flexibility Score: inf
ROOT
ATOM      1  C   UNL     1     -46.657  37.033  28.511  1.00  0.00    -0.027 A 
ATOM      2  C   UNL     1     -45.466  36.304  28.404  1.00  0.00    -0.057 A 
ATOM      3  C   UNL     1     -45.437  35.053  27.773  1.00  0.00    -0.052 A 
ATOM      4  C   UNL     1     -46.622  34.527  27.228  1.00  0.00    -0.000 A 
ATOM      5  C   UNL     1     -46.946  33.329  26.533  1.00  0.00    -0.032 A 
ATOM      6  C   UNL     1     -48.292  33.363  26.228  1.00  0.00     0.030 A 
ATOM      7  N   UNL     1     -48.790  34.541  26.730  1.00  0.00    -0.357 N 
ATOM      8  C   UNL     1     -47.796  35.271  27.338  1.00  0.00     0.046 A 
ATOM      9  C   UNL     1     -47.846  36.521  27.964  1.00  0.00    -0.033 A 
ATOM     10  H   UNL     1     -44.541  36.706  28.813  1.00  0.00     0.063 H 
ATOM     11  H   UNL     1     -44.505  34.500  27.700  1.00  0.00     0.063 H 
ATOM     12  H   UNL     1     -46.262  32.530  26.279  1.00  0.00     0.065 H 
ATOM     13  H   UNL     1     -49.753  34.829  26.617  1.00  0.00     0.166 HD
ATOM     14  H   UNL     1     -48.776  37.080  28.022  1.00  0.00     0.065 H 
ENDROOT
BRANCH   1  15
ATOM     15  C   UNL     1     -46.657  38.392  29.162  1.00  0.00     0.043 C 
ATOM     16  H   UNL     1     -46.379  38.320  30.220  1.00  0.00     0.054 H 
ATOM     17  H   UNL     1     -47.656  38.840  29.127  1.00  0.00     0.054 H 
BRANCH  15  18
ATOM     18  N   UNL     1     -45.729  39.273  28.503  1.00  0.00    -0.347 N 
ATOM     19  O   UNL     1     -47.103  39.799  26.743  1.00  0.00    -0.268 OA
ATOM     20  C   UNL     1     -46.037  39.918  27.335  1.00  0.00     0.270 C 
ATOM     21  H   UNL     1     -44.820  39.460  28.914  1.00  0.00     0.164 HD
BRANCH  20  22
ATOM     22  C   UNL     1     -44.913  40.802  26.850  1.00  0.00     0.136 A 
ATOM     23  C   UNL     1     -43.844  40.893  27.643  1.00  0.00     0.035 A 
ATOM     24  N   UNL     1     -45.055  41.452  25.645  1.00  0.00    -0.225 NA
ATOM     25  C   UNL     1     -42.727  41.744  27.210  1.00  0.00     0.258 A 
ATOM     26  H   UNL     1     -43.744  40.378  28.589  1.00  0.00     0.071 H 
ATOM     27  C   UNL     1     -44.067  42.202  25.265  1.00  0.00     0.140 A 
ATOM     28  O   UNL     1     -41.737  41.834  27.934  1.00  0.00    -0.269 OA
ATOM     29  N   UNL     1     -42.895  42.386  25.991  1.00  0.00    -0.268 N 
ATOM     30  C   UNL     1     -44.177  42.924  23.966  1.00  0.00    -0.019 A 
ATOM     31  C   UNL     1     -41.881  43.210  25.514  1.00  0.00     0.014 A 
ATOM     32  C   UNL     1     -43.174  43.705  23.549  1.00  0.00    -0.057 A 
ATOM     33  H   UNL     1     -45.086  42.787  23.394  1.00  0.00     0.066 H 
ATOM     34  C   UNL     1     -41.986  43.855  24.347  1.00  0.00    -0.045 A 
ATOM     35  H   UNL     1     -40.993  43.308  26.133  1.00  0.00     0.082 H 
ATOM     36  H   UNL     1     -43.235  44.239  22.605  1.00  0.00     0.062 H 
ATOM     37  H   UNL     1     -41.188  44.495  23.984  1.00  0.00     0.064 H 
ENDBRANCH  20  22
ENDBRANCH  15  18
ENDBRANCH   1  15
BRANCH   6  38
ATOM     38  C   UNL     1     -49.163  32.384  25.519  1.00  0.00     0.036 C 
ATOM     39  H   UNL     1     -48.939  32.473  24.448  1.00  0.00     0.049 H 
ATOM     40  H   UNL     1     -50.220  32.643  25.630  1.00  0.00     0.049 H 
BRANCH  38  41
ATOM     41  N   UNL     1     -48.867  31.010  25.927  1.00  0.00    -0.306 NA
ATOM     42  H   UNL     1     -48.024  31.030  26.502  1.00  0.00     0.123 HD
BRANCH  41  43
ATOM     43  C   UNL     1     -48.657  30.034  24.839  1.00  0.00     0.019 C 
ATOM     44  C   UNL     1     -47.309  30.279  24.110  1.00  0.00    -0.032 C 
ATOM     45  C   UNL     1     -49.796  29.986  23.789  1.00  0.00    -0.032 C 
ATOM     46  C   UNL     1     -48.579  28.639  25.521  1.00  0.00    -0.032 C 
ATOM     47  C   UNL     1     -47.049  29.179  23.065  1.00  0.00    -0.039 C 
ATOM     48  H   UNL     1     -46.481  30.300  24.831  1.00  0.00     0.029 H 
ATOM     49  H   UNL     1     -47.308  31.253  23.605  1.00  0.00     0.029 H 
ATOM     50  C   UNL     1     -49.531  28.886  22.745  1.00  0.00    -0.039 C 
ATOM     51  H   UNL     1     -49.888  30.945  23.265  1.00  0.00     0.029 H 
ATOM     52  H   UNL     1     -50.760  29.793  24.278  1.00  0.00     0.029 H 
ATOM     53  C   UNL     1     -48.318  27.532  24.485  1.00  0.00    -0.039 C 
ATOM     54  H   UNL     1     -47.780  28.623  26.274  1.00  0.00     0.029 H 
ATOM     55  H   UNL     1     -49.516  28.424  26.054  1.00  0.00     0.029 H 
ATOM     56  C   UNL     1     -46.986  27.815  23.770  1.00  0.00    -0.047 C 
ATOM     57  C   UNL     1     -48.194  29.169  22.041  1.00  0.00    -0.047 C 
ATOM     58  H   UNL     1     -46.098  29.373  22.554  1.00  0.00     0.030 H 
ATOM     59  C   UNL     1     -49.456  27.524  23.454  1.00  0.00    -0.047 C 
ATOM     60  H   UNL     1     -50.342  28.874  22.009  1.00  0.00     0.030 H 
ATOM     61  H   UNL     1     -48.267  26.561  24.987  1.00  0.00     0.030 H 
ATOM     62  H   UNL     1     -46.778  27.024  23.039  1.00  0.00     0.027 H 
ATOM     63  H   UNL     1     -46.162  27.804  24.494  1.00  0.00     0.027 H 
ATOM     64  H   UNL     1     -48.007  28.404  21.276  1.00  0.00     0.027 H 
ATOM     65  H   UNL     1     -48.241  30.133  21.520  1.00  0.00     0.027 H 
ATOM     66  H   UNL     1     -49.289  26.728  22.717  1.00  0.00     0.027 H 
ATOM     67  H   UNL     1     -50.410  27.305  23.948  1.00  0.00     0.027 H 
ENDBRANCH  41  43
ENDBRANCH  38  41
ENDBRANCH   6  38
TORSDOF 6
ENDMDL
MODEL 6
REMARK VINA RESULT:     -10.5      1.902      3.292
REMARK SMILES O=C(NCc1ccc2cc(CN[C@]34C[C@H]5C[C@H](C[C@H](C5)C3)C4)[nH]c2c1)c1cc(=O)n2ccccc2n1
REMARK SMILES IDX 5 1 6 2 7 3 8 4 9 5 10 6 23 7 24 8 25 9 4 15 3 18 1 19 2 20
REMARK SMILES IDX 26 22 27 23 36 24 28 25 35 27 29 28 30 29 34 30 31 31 33 32
REMARK SMILES IDX 32 34 11 38 12 41 13 43 14 44 21 45 22 46 15 47 19 50 17 53
REMARK SMILES IDX 16 56 20 57 18 59
REMARK H PARENT 6 10 7 11 9 12 23 13 25 14 4 16 4 17 3 21 27 26 34 33 31 35
REMARK H PARENT 33 36 32 37 11 39 11 40 12 42 14 48 14 49 21 51 21 52 22 54
REMARK H PARENT 22 55 15 58 19 60 17 61 16 62 16 63 20 64 20 65 18 66 18 67
REMARK Flexibility Score: inf
ROOT
ATOM      1  C   UNL     1     -48.026  35.388  26.832  1.00  0.00    -0.027 A 
ATOM      2  C   UNL     1     -46.794  35.321  26.169  1.00  0.00    -0.057 A 
ATOM      3  C   UNL     1     -46.409  34.169  25.470  1.00  0.00    -0.052 A 
ATOM      4  C   UNL     1     -47.280  33.066  25.427  1.00  0.00    -0.000 A 
ATOM      5  C   UNL     1     -47.218  31.778  24.823  1.00  0.00    -0.032 A 
ATOM      6  C   UNL     1     -48.392  31.113  25.115  1.00  0.00     0.030 A 
ATOM      7  N   UNL     1     -49.153  31.958  25.887  1.00  0.00    -0.357 N 
ATOM      8  C   UNL     1     -48.504  33.153  26.086  1.00  0.00     0.046 A 
ATOM      9  C   UNL     1     -48.908  34.294  26.788  1.00  0.00    -0.033 A 
ATOM     10  H   UNL     1     -46.118  36.173  26.188  1.00  0.00     0.063 H 
ATOM     11  H   UNL     1     -45.449  34.133  24.963  1.00  0.00     0.063 H 
ATOM     12  H   UNL     1     -46.400  31.386  24.233  1.00  0.00     0.065 H 
ATOM     13  H   UNL     1     -50.081  31.723  26.215  1.00  0.00     0.166 HD
ATOM     14  H   UNL     1     -49.875  34.334  27.282  1.00  0.00     0.065 H 
ENDROOT
BRANCH   1  15
ATOM     15  C   UNL     1     -48.434  36.650  27.545  1.00  0.00     0.043 C 
ATOM     16  H   UNL     1     -48.684  36.446  28.594  1.00  0.00     0.054 H 
ATOM     17  H   UNL     1     -49.330  37.084  27.086  1.00  0.00     0.054 H 
BRANCH  15  18
ATOM     18  N   UNL     1     -47.375  37.623  27.508  1.00  0.00    -0.347 N 
ATOM     19  O   UNL     1     -46.470  37.076  29.544  1.00  0.00    -0.268 OA
ATOM     20  C   UNL     1     -46.463  37.751  28.522  1.00  0.00     0.270 C 
ATOM     21  H   UNL     1     -47.262  38.226  26.699  1.00  0.00     0.164 HD
BRANCH  20  22
ATOM     22  C   UNL     1     -45.437  38.823  28.244  1.00  0.00     0.136 A 
ATOM     23  C   UNL     1     -45.561  39.479  27.089  1.00  0.00     0.035 A 
ATOM     24  N   UNL     1     -44.453  39.056  29.178  1.00  0.00    -0.225 NA
ATOM     25  C   UNL     1     -44.582  40.530  26.778  1.00  0.00     0.258 A 
ATOM     26  H   UNL     1     -46.339  39.288  26.362  1.00  0.00     0.071 H 
ATOM     27  C   UNL     1     -43.591  39.985  28.900  1.00  0.00     0.140 A 
ATOM     28  O   UNL     1     -44.688  41.141  25.715  1.00  0.00    -0.269 OA
ATOM     29  N   UNL     1     -43.602  40.745  27.736  1.00  0.00    -0.268 N 
ATOM     30  C   UNL     1     -42.507  40.270  29.883  1.00  0.00    -0.019 A 
ATOM     31  C   UNL     1     -42.639  41.723  27.512  1.00  0.00     0.014 A 
ATOM     32  C   UNL     1     -41.603  41.222  29.623  1.00  0.00    -0.057 A 
ATOM     33  H   UNL     1     -42.491  39.683  30.792  1.00  0.00     0.066 H 
ATOM     34  C   UNL     1     -41.669  41.974  28.398  1.00  0.00    -0.045 A 
ATOM     35  H   UNL     1     -42.708  42.280  26.580  1.00  0.00     0.082 H 
ATOM     36  H   UNL     1     -40.807  41.445  30.326  1.00  0.00     0.062 H 
ATOM     37  H   UNL     1     -40.922  42.741  28.214  1.00  0.00     0.064 H 
ENDBRANCH  20  22
ENDBRANCH  15  18
ENDBRANCH   1  15
BRANCH   6  38
ATOM     38  C   UNL     1     -48.863  29.748  24.749  1.00  0.00     0.036 C 
ATOM     39  H   UNL     1     -49.960  29.784  24.723  1.00  0.00     0.049 H 
ATOM     40  H   UNL     1     -48.603  29.020  25.522  1.00  0.00     0.049 H 
BRANCH  38  41
ATOM     41  N   UNL     1     -48.395  29.358  23.418  1.00  0.00    -0.306 NA
ATOM     42  H   UNL     1     -47.552  29.896  23.214  1.00  0.00     0.123 HD
BRANCH  41  43
ATOM     43  C   UNL     1     -49.345  29.556  22.305  1.00  0.00     0.019 C 
ATOM     44  C   UNL     1     -49.188  28.453  21.224  1.00  0.00    -0.032 C 
ATOM     45  C   UNL     1     -49.257  30.946  21.624  1.00  0.00    -0.032 C 
ATOM     46  C   UNL     1     -50.766  29.416  22.921  1.00  0.00    -0.032 C 
ATOM     47  C   UNL     1     -50.268  28.602  20.137  1.00  0.00    -0.039 C 
ATOM     48  H   UNL     1     -49.265  27.457  21.678  1.00  0.00     0.029 H 
ATOM     49  H   UNL     1     -48.200  28.506  20.751  1.00  0.00     0.029 H 
ATOM     50  C   UNL     1     -50.337  31.089  20.536  1.00  0.00    -0.039 C 
ATOM     51  H   UNL     1     -48.276  31.093  21.158  1.00  0.00     0.029 H 
ATOM     52  H   UNL     1     -49.387  31.745  22.365  1.00  0.00     0.029 H 
ATOM     53  C   UNL     1     -51.852  29.562  21.841  1.00  0.00    -0.039 C 
ATOM     54  H   UNL     1     -50.877  28.441  23.414  1.00  0.00     0.029 H 
ATOM     55  H   UNL     1     -50.920  30.180  23.696  1.00  0.00     0.029 H 
ATOM     56  C   UNL     1     -51.657  28.467  20.779  1.00  0.00    -0.047 C 
ATOM     57  C   UNL     1     -50.143  29.987  19.482  1.00  0.00    -0.047 C 
ATOM     58  H   UNL     1     -50.136  27.822  19.377  1.00  0.00     0.030 H 
ATOM     59  C   UNL     1     -51.726  30.941  21.178  1.00  0.00    -0.047 C 
ATOM     60  H   UNL     1     -50.253  32.073  20.062  1.00  0.00     0.030 H 
ATOM     61  H   UNL     1     -52.842  29.461  22.297  1.00  0.00     0.030 H 
ATOM     62  H   UNL     1     -52.435  28.549  20.010  1.00  0.00     0.027 H 
ATOM     63  H   UNL     1     -51.764  27.477  21.237  1.00  0.00     0.027 H 
ATOM     64  H   UNL     1     -50.892  30.095  18.687  1.00  0.00     0.027 H 
ATOM     65  H   UNL     1     -49.160  30.091  19.007  1.00  0.00     0.027 H 
ATOM     66  H   UNL     1     -52.505  31.064  20.416  1.00  0.00     0.027 H 
ATOM     67  H   UNL     1     -51.881  31.732  21.922  1.00  0.00     0.027 H 
ENDBRANCH  41  43
ENDBRANCH  38  41
ENDBRANCH   6  38
TORSDOF 6
ENDMDL
