MODEL 1
REMARK VINA RESULT:     -11.1      0.000      0.000
REMARK SMILES O=C(NCc1ccc2cc(CN3C[C@@H]4CC[C@H]3C4)[nH]c2c1)c1cc(=O)n2ccccc2n1
REMARK SMILES IDX 5 1 6 2 7 3 8 4 9 5 10 6 19 7 20 8 21 9 4 15 3 18 1 19 2 20
REMARK SMILES IDX 22 22 23 23 32 24 24 25 31 27 25 28 26 29 30 30 27 31 29 32
REMARK SMILES IDX 28 34 11 38 12 41 13 42 17 43 14 44 16 47 18 48 15 50
REMARK H PARENT 6 10 7 11 9 12 19 13 21 14 4 16 4 17 3 21 23 26 30 33 27 35
REMARK H PARENT 29 36 28 37 11 39 11 40 13 45 13 46 17 49 14 51 16 52 16 53
REMARK H PARENT 18 54 18 55 15 56 15 57
REMARK Flexibility Score: inf
ROOT
ATOM      1  C   UNL     1     -48.028  35.034  26.598  1.00  0.00    -0.027 A 
ATOM      2  C   UNL     1     -46.782  34.996  25.961  1.00  0.00    -0.057 A 
ATOM      3  C   UNL     1     -46.355  33.856  25.269  1.00  0.00    -0.052 A 
ATOM      4  C   UNL     1     -47.193  32.726  25.220  1.00  0.00    -0.000 A 
ATOM      5  C   UNL     1     -47.082  31.436  24.629  1.00  0.00    -0.032 A 
ATOM      6  C   UNL     1     -48.232  30.732  24.921  1.00  0.00     0.030 A 
ATOM      7  N   UNL     1     -49.035  31.562  25.668  1.00  0.00    -0.357 N 
ATOM      8  C   UNL     1     -48.426  32.778  25.866  1.00  0.00     0.046 A 
ATOM      9  C   UNL     1     -48.868  33.908  26.565  1.00  0.00    -0.033 A 
ATOM     10  H   UNL     1     -46.123  35.862  26.000  1.00  0.00     0.063 H 
ATOM     11  H   UNL     1     -45.388  33.844  24.778  1.00  0.00     0.063 H 
ATOM     12  H   UNL     1     -46.245  31.066  24.050  1.00  0.00     0.065 H 
ATOM     13  H   UNL     1     -49.934  31.283  26.040  1.00  0.00     0.166 HD
ATOM     14  H   UNL     1     -49.831  33.912  27.066  1.00  0.00     0.065 H 
ENDROOT
BRANCH   1  15
ATOM     15  C   UNL     1     -48.451  36.260  27.364  1.00  0.00     0.043 C 
ATOM     16  H   UNL     1     -48.762  35.996  28.382  1.00  0.00     0.054 H 
ATOM     17  H   UNL     1     -49.312  36.742  26.886  1.00  0.00     0.054 H 
BRANCH  15  18
ATOM     18  N   UNL     1     -47.376  37.213  27.437  1.00  0.00    -0.347 N 
ATOM     19  O   UNL     1     -46.697  36.649  29.555  1.00  0.00    -0.268 OA
ATOM     20  C   UNL     1     -46.588  37.342  28.551  1.00  0.00     0.270 C 
ATOM     21  H   UNL     1     -47.217  37.865  26.675  1.00  0.00     0.164 HD
BRANCH  20  22
ATOM     22  C   UNL     1     -45.563  38.442  28.410  1.00  0.00     0.136 A 
ATOM     23  C   UNL     1     -44.685  38.569  29.407  1.00  0.00     0.035 A 
ATOM     24  N   UNL     1     -45.595  39.235  27.285  1.00  0.00    -0.225 NA
ATOM     25  C   UNL     1     -43.672  39.626  29.310  1.00  0.00     0.258 A 
ATOM     26  H   UNL     1     -44.671  37.939  30.286  1.00  0.00     0.071 H 
ATOM     27  C   UNL     1     -44.697  40.169  27.203  1.00  0.00     0.140 A 
ATOM     28  O   UNL     1     -42.857  39.750  30.223  1.00  0.00    -0.269 OA
ATOM     29  N   UNL     1     -43.724  40.411  28.167  1.00  0.00    -0.268 N 
ATOM     30  C   UNL     1     -44.694  41.052  26.003  1.00  0.00    -0.019 A 
ATOM     31  C   UNL     1     -42.795  41.434  28.004  1.00  0.00     0.014 A 
ATOM     32  C   UNL     1     -43.779  42.023  25.890  1.00  0.00    -0.057 A 
ATOM     33  H   UNL     1     -45.448  40.871  25.247  1.00  0.00     0.066 H 
ATOM     34  C   UNL     1     -42.797  42.223  26.923  1.00  0.00    -0.045 A 
ATOM     35  H   UNL     1     -42.064  41.567  28.797  1.00  0.00     0.082 H 
ATOM     36  H   UNL     1     -43.760  42.676  25.023  1.00  0.00     0.062 H 
ATOM     37  H   UNL     1     -42.069  43.019  26.806  1.00  0.00     0.064 H 
ENDBRANCH  20  22
ENDBRANCH  15  18
ENDBRANCH   1  15
BRANCH   6  38
ATOM     38  C   UNL     1     -48.665  29.352  24.552  1.00  0.00     0.039 C 
ATOM     39  H   UNL     1     -48.521  29.194  23.477  1.00  0.00     0.050 H 
ATOM     40  H   UNL     1     -49.743  29.285  24.747  1.00  0.00     0.050 H 
BRANCH  38  41
ATOM     41  N   UNL     1     -47.961  28.354  25.353  1.00  0.00    -0.294 NA
ATOM     42  C   UNL     1     -47.502  27.182  24.573  1.00  0.00     0.002 C 
ATOM     43  C   UNL     1     -48.750  27.795  26.472  1.00  0.00     0.010 C 
ATOM     44  C   UNL     1     -47.938  26.006  25.459  1.00  0.00    -0.027 C 
ATOM     45  H   UNL     1     -46.412  27.218  24.488  1.00  0.00     0.043 H 
ATOM     46  H   UNL     1     -47.932  27.112  23.568  1.00  0.00     0.043 H 
ATOM     47  C   UNL     1     -50.021  27.058  26.005  1.00  0.00    -0.037 C 
ATOM     48  C   UNL     1     -47.847  26.622  26.850  1.00  0.00    -0.033 C 
ATOM     49  H   UNL     1     -48.919  28.511  27.279  1.00  0.00     0.047 H 
ATOM     50  C   UNL     1     -49.457  25.817  25.299  1.00  0.00    -0.048 C 
ATOM     51  H   UNL     1     -47.360  25.092  25.305  1.00  0.00     0.032 H 
ATOM     52  H   UNL     1     -50.623  26.753  26.869  1.00  0.00     0.028 H 
ATOM     53  H   UNL     1     -50.663  27.656  25.353  1.00  0.00     0.028 H 
ATOM     54  H   UNL     1     -46.829  26.919  27.129  1.00  0.00     0.029 H 
ATOM     55  H   UNL     1     -48.267  25.984  27.636  1.00  0.00     0.029 H 
ATOM     56  H   UNL     1     -49.796  24.906  25.805  1.00  0.00     0.027 H 
ATOM     57  H   UNL     1     -49.768  25.763  24.250  1.00  0.00     0.027 H 
ENDBRANCH  38  41
ENDBRANCH   6  38
TORSDOF 5
ENDMDL
MODEL 2
REMARK VINA RESULT:     -10.7      2.246      3.499
REMARK SMILES O=C(NCc1ccc2cc(CN3C[C@@H]4CC[C@H]3C4)[nH]c2c1)c1cc(=O)n2ccccc2n1
REMARK SMILES IDX 5 1 6 2 7 3 8 4 9 5 10 6 19 7 20 8 21 9 4 15 3 18 1 19 2 20
REMARK SMILES IDX 22 22 23 23 32 24 24 25 31 27 25 28 26 29 30 30 27 31 29 32
REMARK SMILES IDX 28 34 11 38 12 41 13 42 17 43 14 44 16 47 18 48 15 50
REMARK H PARENT 6 10 7 11 9 12 19 13 21 14 4 16 4 17 3 21 23 26 30 33 27 35
REMARK H PARENT 29 36 28 37 11 39 11 40 13 45 13 46 17 49 14 51 16 52 16 53
REMARK H PARENT 18 54 18 55 15 56 15 57
REMARK Flexibility Score: inf
ROOT
ATOM      1  C   UNL     1     -46.605  36.731  28.568  1.00  0.00    -0.027 A 
ATOM      2  C   UNL     1     -47.966  36.706  28.240  1.00  0.00    -0.057 A 
ATOM      3  C   UNL     1     -48.472  35.789  27.309  1.00  0.00    -0.052 A 
ATOM      4  C   UNL     1     -47.593  34.882  26.688  1.00  0.00    -0.000 A 
ATOM      5  C   UNL     1     -47.755  33.849  25.724  1.00  0.00    -0.032 A 
ATOM      6  C   UNL     1     -46.517  33.289  25.485  1.00  0.00     0.030 A 
ATOM      7  N   UNL     1     -45.613  33.951  26.282  1.00  0.00    -0.357 N 
ATOM      8  C   UNL     1     -46.241  34.926  27.021  1.00  0.00     0.046 A 
ATOM      9  C   UNL     1     -45.717  35.837  27.946  1.00  0.00    -0.033 A 
ATOM     10  H   UNL     1     -48.653  37.409  28.709  1.00  0.00     0.063 H 
ATOM     11  H   UNL     1     -49.530  35.781  27.069  1.00  0.00     0.063 H 
ATOM     12  H   UNL     1     -48.685  33.550  25.256  1.00  0.00     0.065 H 
ATOM     13  H   UNL     1     -44.621  33.756  26.283  1.00  0.00     0.166 HD
ATOM     14  H   UNL     1     -44.655  35.852  28.175  1.00  0.00     0.065 H 
ENDROOT
BRANCH   1  15
ATOM     15  C   UNL     1     -46.080  37.748  29.546  1.00  0.00     0.043 C 
ATOM     16  H   UNL     1     -45.488  37.265  30.333  1.00  0.00     0.054 H 
ATOM     17  H   UNL     1     -46.904  38.270  30.048  1.00  0.00     0.054 H 
BRANCH  15  18
ATOM     18  N   UNL     1     -45.261  38.724  28.880  1.00  0.00    -0.347 N 
ATOM     19  O   UNL     1     -46.992  39.844  27.871  1.00  0.00    -0.268 OA
ATOM     20  C   UNL     1     -45.792  39.695  28.070  1.00  0.00     0.270 C 
ATOM     21  H   UNL     1     -44.248  38.674  28.945  1.00  0.00     0.164 HD
BRANCH  20  22
ATOM     22  C   UNL     1     -44.732  40.568  27.442  1.00  0.00     0.136 A 
ATOM     23  C   UNL     1     -43.582  40.682  28.111  1.00  0.00     0.035 A 
ATOM     24  N   UNL     1     -45.008  41.183  26.243  1.00  0.00    -0.225 NA
ATOM     25  C   UNL     1     -42.525  41.521  27.536  1.00  0.00     0.258 A 
ATOM     26  H   UNL     1     -43.379  40.192  29.054  1.00  0.00     0.071 H 
ATOM     27  C   UNL     1     -44.069  41.924  25.737  1.00  0.00     0.140 A 
ATOM     28  O   UNL     1     -41.461  41.632  28.144  1.00  0.00    -0.269 OA
ATOM     29  N   UNL     1     -42.826  42.130  26.327  1.00  0.00    -0.268 N 
ATOM     30  C   UNL     1     -44.324  42.611  24.439  1.00  0.00    -0.019 A 
ATOM     31  C   UNL     1     -41.873  42.941  25.719  1.00  0.00     0.014 A 
ATOM     32  C   UNL     1     -43.375  43.381  23.894  1.00  0.00    -0.057 A 
ATOM     33  H   UNL     1     -45.289  42.456  23.973  1.00  0.00     0.066 H 
ATOM     34  C   UNL     1     -42.108  43.554  24.553  1.00  0.00    -0.045 A 
ATOM     35  H   UNL     1     -40.924  43.058  26.236  1.00  0.00     0.082 H 
ATOM     36  H   UNL     1     -43.541  43.889  22.949  1.00  0.00     0.062 H 
ATOM     37  H   UNL     1     -41.357  44.186  24.089  1.00  0.00     0.064 H 
ENDBRANCH  20  22
ENDBRANCH  15  18
ENDBRANCH   1  15
BRANCH   6  38
ATOM     38  C   UNL     1     -46.095  32.172  24.589  1.00  0.00     0.039 C 
ATOM     39  H   UNL     1     -45.597  31.393  25.180  1.00  0.00     0.050 H 
ATOM     40  H   UNL     1     -45.349  32.576  23.893  1.00  0.00     0.050 H 
BRANCH  38  41
ATOM     41  N   UNL     1     -47.233  31.648  23.838  1.00  0.00    -0.294 NA
ATOM     42  C   UNL     1     -48.012  30.628  24.574  1.00  0.00     0.002 C 
ATOM     43  C   UNL     1     -46.880  31.017  22.548  1.00  0.00     0.010 C 
ATOM     44  C   UNL     1     -48.194  29.528  23.518  1.00  0.00    -0.027 C 
ATOM     45  H   UNL     1     -48.979  31.055  24.857  1.00  0.00     0.043 H 
ATOM     46  H   UNL     1     -47.520  30.246  25.475  1.00  0.00     0.043 H 
ATOM     47  C   UNL     1     -45.955  29.796  22.708  1.00  0.00    -0.037 C 
ATOM     48  C   UNL     1     -48.213  30.343  22.230  1.00  0.00    -0.033 C 
ATOM     49  H   UNL     1     -46.547  31.735  21.795  1.00  0.00     0.047 H 
ATOM     50  C   UNL     1     -46.866  28.761  23.384  1.00  0.00    -0.048 C 
ATOM     51  H   UNL     1     -49.062  28.886  23.686  1.00  0.00     0.032 H 
ATOM     52  H   UNL     1     -45.639  29.426  21.725  1.00  0.00     0.028 H 
ATOM     53  H   UNL     1     -45.050  29.999  23.287  1.00  0.00     0.028 H 
ATOM     54  H   UNL     1     -49.058  31.040  22.167  1.00  0.00     0.029 H 
ATOM     55  H   UNL     1     -48.184  29.726  21.325  1.00  0.00     0.029 H 
ATOM     56  H   UNL     1     -46.983  27.881  22.741  1.00  0.00     0.027 H 
ATOM     57  H   UNL     1     -46.470  28.432  24.350  1.00  0.00     0.027 H 
ENDBRANCH  38  41
ENDBRANCH   6  38
TORSDOF 5
ENDMDL
MODEL 3
REMARK VINA RESULT:     -10.6      1.777      2.447
REMARK SMILES O=C(NCc1ccc2cc(CN3C[C@@H]4CC[C@H]3C4)[nH]c2c1)c1cc(=O)n2ccccc2n1
REMARK SMILES IDX 5 1 6 2 7 3 8 4 9 5 10 6 19 7 20 8 21 9 4 15 3 18 1 19 2 20
REMARK SMILES IDX 22 22 23 23 32 24 24 25 31 27 25 28 26 29 30 30 27 31 29 32
REMARK SMILES IDX 28 34 11 38 12 41 13 42 17 43 14 44 16 47 18 48 15 50
REMARK H PARENT 6 10 7 11 9 12 19 13 21 14 4 16 4 17 3 21 23 26 30 33 27 35
REMARK H PARENT 29 36 28 37 11 39 11 40 13 45 13 46 17 49 14 51 16 52 16 53
REMARK H PARENT 18 54 18 55 15 56 15 57
REMARK Flexibility Score: inf
ROOT
ATOM      1  C   UNL     1     -47.915  36.170  27.156  1.00  0.00    -0.027 A 
ATOM      2  C   UNL     1     -46.627  35.886  26.684  1.00  0.00    -0.057 A 
ATOM      3  C   UNL     1     -46.345  34.683  26.024  1.00  0.00    -0.052 A 
ATOM      4  C   UNL     1     -47.373  33.740  25.839  1.00  0.00    -0.000 A 
ATOM      5  C   UNL     1     -47.440  32.454  25.235  1.00  0.00    -0.032 A 
ATOM      6  C   UNL     1     -48.734  31.991  25.359  1.00  0.00     0.030 A 
ATOM      7  N   UNL     1     -49.450  32.963  26.016  1.00  0.00    -0.357 N 
ATOM      8  C   UNL     1     -48.646  34.035  26.322  1.00  0.00     0.046 A 
ATOM      9  C   UNL     1     -48.947  35.231  26.986  1.00  0.00    -0.033 A 
ATOM     10  H   UNL     1     -45.823  36.605  26.829  1.00  0.00     0.063 H 
ATOM     11  H   UNL     1     -45.342  34.481  25.662  1.00  0.00     0.063 H 
ATOM     12  H   UNL     1     -46.623  31.926  24.760  1.00  0.00     0.065 H 
ATOM     13  H   UNL     1     -50.427  32.867  26.263  1.00  0.00     0.166 HD
ATOM     14  H   UNL     1     -49.948  35.425  27.359  1.00  0.00     0.065 H 
ENDROOT
BRANCH   1  15
ATOM     15  C   UNL     1     -48.186  37.455  27.891  1.00  0.00     0.043 C 
ATOM     16  H   UNL     1     -48.499  37.256  28.923  1.00  0.00     0.054 H 
ATOM     17  H   UNL     1     -49.003  38.013  27.416  1.00  0.00     0.054 H 
BRANCH  15  18
ATOM     18  N   UNL     1     -47.015  38.290  27.912  1.00  0.00    -0.347 N 
ATOM     19  O   UNL     1     -47.718  39.732  26.270  1.00  0.00    -0.268 OA
ATOM     20  C   UNL     1     -46.869  39.365  27.074  1.00  0.00     0.270 C 
ATOM     21  H   UNL     1     -46.231  38.058  28.515  1.00  0.00     0.164 HD
BRANCH  20  22
ATOM     22  C   UNL     1     -45.536  40.054  27.246  1.00  0.00     0.136 A 
ATOM     23  C   UNL     1     -45.166  40.884  26.268  1.00  0.00     0.035 A 
ATOM     24  N   UNL     1     -44.796  39.791  28.376  1.00  0.00    -0.225 NA
ATOM     25  C   UNL     1     -43.877  41.574  26.394  1.00  0.00     0.258 A 
ATOM     26  H   UNL     1     -45.757  41.082  25.384  1.00  0.00     0.071 H 
ATOM     27  C   UNL     1     -43.657  40.404  28.484  1.00  0.00     0.140 A 
ATOM     28  O   UNL     1     -43.527  42.342  25.499  1.00  0.00    -0.269 OA
ATOM     29  N   UNL     1     -43.150  41.293  27.542  1.00  0.00    -0.268 N 
ATOM     30  C   UNL     1     -42.822  40.149  29.691  1.00  0.00    -0.019 A 
ATOM     31  C   UNL     1     -41.918  41.910  27.733  1.00  0.00     0.014 A 
ATOM     32  C   UNL     1     -41.643  40.767  29.831  1.00  0.00    -0.057 A 
ATOM     33  H   UNL     1     -43.209  39.458  30.430  1.00  0.00     0.066 H 
ATOM     34  C   UNL     1     -41.173  41.678  28.820  1.00  0.00    -0.045 A 
ATOM     35  H   UNL     1     -41.583  42.593  26.957  1.00  0.00     0.082 H 
ATOM     36  H   UNL     1     -41.020  40.595  30.703  1.00  0.00     0.062 H 
ATOM     37  H   UNL     1     -40.212  42.164  28.958  1.00  0.00     0.064 H 
ENDBRANCH  20  22
ENDBRANCH  15  18
ENDBRANCH   1  15
BRANCH   6  38
ATOM     38  C   UNL     1     -49.376  30.723  24.903  1.00  0.00     0.039 C 
ATOM     39  H   UNL     1     -49.871  30.886  23.938  1.00  0.00     0.050 H 
ATOM     40  H   UNL     1     -50.160  30.474  25.630  1.00  0.00     0.050 H 
BRANCH  38  41
ATOM     41  N   UNL     1     -48.401  29.636  24.844  1.00  0.00    -0.294 NA
ATOM     42  C   UNL     1     -48.009  29.264  23.467  1.00  0.00     0.002 C 
ATOM     43  C   UNL     1     -48.844  28.377  25.480  1.00  0.00     0.010 C 
ATOM     44  C   UNL     1     -48.098  27.732  23.502  1.00  0.00    -0.027 C 
ATOM     45  H   UNL     1     -46.979  29.588  23.291  1.00  0.00     0.043 H 
ATOM     46  H   UNL     1     -48.649  29.688  22.684  1.00  0.00     0.043 H 
ATOM     47  C   UNL     1     -50.100  27.777  24.817  1.00  0.00    -0.037 C 
ATOM     48  C   UNL     1     -47.756  27.441  24.959  1.00  0.00    -0.033 C 
ATOM     49  H   UNL     1     -48.901  28.441  26.569  1.00  0.00     0.047 H 
ATOM     50  C   UNL     1     -49.583  27.331  23.442  1.00  0.00    -0.048 C 
ATOM     51  H   UNL     1     -47.473  27.231  22.758  1.00  0.00     0.032 H 
ATOM     52  H   UNL     1     -50.450  26.905  25.383  1.00  0.00     0.028 H 
ATOM     53  H   UNL     1     -50.938  28.476  24.743  1.00  0.00     0.028 H 
ATOM     54  H   UNL     1     -46.740  27.745  25.237  1.00  0.00     0.029 H 
ATOM     55  H   UNL     1     -47.911  26.393  25.240  1.00  0.00     0.029 H 
ATOM     56  H   UNL     1     -49.693  26.247  23.329  1.00  0.00     0.027 H 
ATOM     57  H   UNL     1     -50.118  27.819  22.622  1.00  0.00     0.027 H 
ENDBRANCH  38  41
ENDBRANCH   6  38
TORSDOF 5
ENDMDL
MODEL 4
REMARK VINA RESULT:     -10.4      2.233      3.361
REMARK SMILES O=C(NCc1ccc2cc(CN3C[C@@H]4CC[C@H]3C4)[nH]c2c1)c1cc(=O)n2ccccc2n1
REMARK SMILES IDX 5 1 6 2 7 3 8 4 9 5 10 6 19 7 20 8 21 9 4 15 3 18 1 19 2 20
REMARK SMILES IDX 22 22 23 23 32 24 24 25 31 27 25 28 26 29 30 30 27 31 29 32
REMARK SMILES IDX 28 34 11 38 12 41 13 42 17 43 14 44 16 47 18 48 15 50
REMARK H PARENT 6 10 7 11 9 12 19 13 21 14 4 16 4 17 3 21 23 26 30 33 27 35
REMARK H PARENT 29 36 28 37 11 39 11 40 13 45 13 46 17 49 14 51 16 52 16 53
REMARK H PARENT 18 54 18 55 15 56 15 57
REMARK Flexibility Score: inf
ROOT
ATOM      1  C   UNL     1     -47.803  34.843  26.780  1.00  0.00    -0.027 A 
ATOM      2  C   UNL     1     -46.502  34.712  26.279  1.00  0.00    -0.057 A 
ATOM      3  C   UNL     1     -46.158  33.664  25.416  1.00  0.00    -0.052 A 
ATOM      4  C   UNL     1     -47.137  32.721  25.053  1.00  0.00    -0.000 A 
ATOM      5  C   UNL     1     -47.139  31.563  24.226  1.00  0.00    -0.032 A 
ATOM      6  C   UNL     1     -48.407  31.022  24.250  1.00  0.00     0.030 A 
ATOM      7  N   UNL     1     -49.173  31.823  25.064  1.00  0.00    -0.357 N 
ATOM      8  C   UNL     1     -48.425  32.861  25.566  1.00  0.00     0.046 A 
ATOM      9  C   UNL     1     -48.786  33.900  26.432  1.00  0.00    -0.033 A 
ATOM     10  H   UNL     1     -45.736  35.432  26.561  1.00  0.00     0.063 H 
ATOM     11  H   UNL     1     -45.146  33.580  25.034  1.00  0.00     0.063 H 
ATOM     12  H   UNL     1     -46.295  31.171  23.672  1.00  0.00     0.065 H 
ATOM     13  H   UNL     1     -50.144  31.636  25.278  1.00  0.00     0.166 HD
ATOM     14  H   UNL     1     -49.797  33.975  26.823  1.00  0.00     0.065 H 
ENDROOT
BRANCH   1  15
ATOM     15  C   UNL     1     -48.141  35.959  27.732  1.00  0.00     0.043 C 
ATOM     16  H   UNL     1     -48.198  35.590  28.763  1.00  0.00     0.054 H 
ATOM     17  H   UNL     1     -49.122  36.390  27.498  1.00  0.00     0.054 H 
BRANCH  15  18
ATOM     18  N   UNL     1     -47.155  37.004  27.665  1.00  0.00    -0.347 N 
ATOM     19  O   UNL     1     -46.385  36.749  29.812  1.00  0.00    -0.268 OA
ATOM     20  C   UNL     1     -46.359  37.329  28.733  1.00  0.00     0.270 C 
ATOM     21  H   UNL     1     -47.070  37.576  26.830  1.00  0.00     0.164 HD
BRANCH  20  22
ATOM     22  C   UNL     1     -45.441  38.490  28.438  1.00  0.00     0.136 A 
ATOM     23  C   UNL     1     -45.686  39.172  27.316  1.00  0.00     0.035 A 
ATOM     24  N   UNL     1     -44.425  38.771  29.322  1.00  0.00    -0.225 NA
ATOM     25  C   UNL     1     -44.817  40.309  26.991  1.00  0.00     0.258 A 
ATOM     26  H   UNL     1     -46.488  38.940  26.629  1.00  0.00     0.071 H 
ATOM     27  C   UNL     1     -43.659  39.778  29.031  1.00  0.00     0.140 A 
ATOM     28  O   UNL     1     -45.035  40.944  25.961  1.00  0.00    -0.269 OA
ATOM     29  N   UNL     1     -43.801  40.573  27.898  1.00  0.00    -0.268 N 
ATOM     30  C   UNL     1     -42.545  40.119  29.961  1.00  0.00    -0.019 A 
ATOM     31  C   UNL     1     -42.935  41.635  27.658  1.00  0.00     0.014 A 
ATOM     32  C   UNL     1     -41.738  41.151  29.687  1.00  0.00    -0.057 A 
ATOM     33  H   UNL     1     -42.427  39.505  30.846  1.00  0.00     0.066 H 
ATOM     34  C   UNL     1     -41.938  41.936  28.497  1.00  0.00    -0.045 A 
ATOM     35  H   UNL     1     -43.105  42.214  26.754  1.00  0.00     0.082 H 
ATOM     36  H   UNL     1     -40.922  41.415  30.352  1.00  0.00     0.062 H 
ATOM     37  H   UNL     1     -41.268  42.767  28.299  1.00  0.00     0.064 H 
ENDBRANCH  20  22
ENDBRANCH  15  18
ENDBRANCH   1  15
BRANCH   6  38
ATOM     38  C   UNL     1     -48.985  29.827  23.566  1.00  0.00     0.039 C 
ATOM     39  H   UNL     1     -49.249  29.067  24.310  1.00  0.00     0.050 H 
ATOM     40  H   UNL     1     -48.195  29.400  22.934  1.00  0.00     0.050 H 
BRANCH  38  41
ATOM     41  N   UNL     1     -50.126  30.203  22.735  1.00  0.00    -0.294 NA
ATOM     42  C   UNL     1     -50.809  29.050  22.107  1.00  0.00     0.002 C 
ATOM     43  C   UNL     1     -49.801  31.120  21.622  1.00  0.00     0.010 C 
ATOM     44  C   UNL     1     -50.978  29.519  20.654  1.00  0.00    -0.027 C 
ATOM     45  H   UNL     1     -51.784  28.912  22.584  1.00  0.00     0.043 H 
ATOM     46  H   UNL     1     -50.252  28.108  22.165  1.00  0.00     0.043 H 
ATOM     47  C   UNL     1     -48.800  30.517  20.617  1.00  0.00    -0.037 C 
ATOM     48  C   UNL     1     -51.107  31.027  20.836  1.00  0.00    -0.033 C 
ATOM     49  H   UNL     1     -49.546  32.129  21.955  1.00  0.00     0.047 H 
ATOM     50  C   UNL     1     -49.617  29.403  19.946  1.00  0.00    -0.048 C 
ATOM     51  H   UNL     1     -51.798  29.033  20.121  1.00  0.00     0.032 H 
ATOM     52  H   UNL     1     -48.511  31.266  19.870  1.00  0.00     0.028 H 
ATOM     53  H   UNL     1     -47.881  30.143  21.077  1.00  0.00     0.028 H 
ATOM     54  H   UNL     1     -51.992  31.324  21.411  1.00  0.00     0.029 H 
ATOM     55  H   UNL     1     -51.086  31.581  19.890  1.00  0.00     0.029 H 
ATOM     56  H   UNL     1     -49.714  29.598  18.873  1.00  0.00     0.027 H 
ATOM     57  H   UNL     1     -49.156  28.418  20.077  1.00  0.00     0.027 H 
ENDBRANCH  38  41
ENDBRANCH   6  38
TORSDOF 5
ENDMDL
MODEL 5
REMARK VINA RESULT:     -10.4      2.395      3.045
REMARK SMILES O=C(NCc1ccc2cc(CN3C[C@@H]4CC[C@H]3C4)[nH]c2c1)c1cc(=O)n2ccccc2n1
REMARK SMILES IDX 5 1 6 2 7 3 8 4 9 5 10 6 19 7 20 8 21 9 4 15 3 18 1 19 2 20
REMARK SMILES IDX 22 22 23 23 32 24 24 25 31 27 25 28 26 29 30 30 27 31 29 32
REMARK SMILES IDX 28 34 11 38 12 41 13 42 17 43 14 44 16 47 18 48 15 50
REMARK H PARENT 6 10 7 11 9 12 19 13 21 14 4 16 4 17 3 21 23 26 30 33 27 35
REMARK H PARENT 29 36 28 37 11 39 11 40 13 45 13 46 17 49 14 51 16 52 16 53
REMARK H PARENT 18 54 18 55 15 56 15 57
REMARK Flexibility Score: inf
ROOT
ATOM      1  C   UNL     1     -47.385  35.373  27.469  1.00  0.00    -0.027 A 
ATOM      2  C   UNL     1     -46.092  35.029  27.056  1.00  0.00    -0.057 A 
ATOM      3  C   UNL     1     -45.876  34.000  26.130  1.00  0.00    -0.052 A 
ATOM      4  C   UNL     1     -46.978  33.295  25.613  1.00  0.00    -0.000 A 
ATOM      5  C   UNL     1     -47.123  32.224  24.688  1.00  0.00    -0.032 A 
ATOM      6  C   UNL     1     -48.468  31.940  24.570  1.00  0.00     0.030 A 
ATOM      7  N   UNL     1     -49.139  32.813  25.394  1.00  0.00    -0.357 N 
ATOM      8  C   UNL     1     -48.257  33.645  26.041  1.00  0.00     0.046 A 
ATOM      9  C   UNL     1     -48.493  34.668  26.968  1.00  0.00    -0.033 A 
ATOM     10  H   UNL     1     -45.233  35.563  27.457  1.00  0.00     0.063 H 
ATOM     11  H   UNL     1     -44.867  33.749  25.818  1.00  0.00     0.063 H 
ATOM     12  H   UNL     1     -46.322  31.717  24.165  1.00  0.00     0.065 H 
ATOM     13  H   UNL     1     -50.143  32.803  25.519  1.00  0.00     0.166 HD
ATOM     14  H   UNL     1     -49.502  34.909  27.288  1.00  0.00     0.065 H 
ENDROOT
BRANCH   1  15
ATOM     15  C   UNL     1     -47.591  36.460  28.491  1.00  0.00     0.043 C 
ATOM     16  H   UNL     1     -47.559  36.052  29.508  1.00  0.00     0.054 H 
ATOM     17  H   UNL     1     -48.575  36.929  28.370  1.00  0.00     0.054 H 
BRANCH  15  18
ATOM     18  N   UNL     1     -46.582  37.478  28.364  1.00  0.00    -0.347 N 
ATOM     19  O   UNL     1     -45.497  36.987  30.326  1.00  0.00    -0.268 OA
ATOM     20  C   UNL     1     -45.615  37.671  29.316  1.00  0.00     0.270 C 
ATOM     21  H   UNL     1     -46.604  38.127  27.583  1.00  0.00     0.164 HD
BRANCH  20  22
ATOM     22  C   UNL     1     -44.703  38.829  28.988  1.00  0.00     0.136 A 
ATOM     23  C   UNL     1     -43.755  39.112  29.884  1.00  0.00     0.035 A 
ATOM     24  N   UNL     1     -44.899  39.511  27.809  1.00  0.00    -0.225 NA
ATOM     25  C   UNL     1     -42.847  40.231  29.604  1.00  0.00     0.258 A 
ATOM     26  H   UNL     1     -43.612  38.568  30.808  1.00  0.00     0.071 H 
ATOM     27  C   UNL     1     -44.094  40.499  27.565  1.00  0.00     0.140 A 
ATOM     28  O   UNL     1     -41.970  40.500  30.423  1.00  0.00    -0.269 OA
ATOM     29  N   UNL     1     -43.065  40.902  28.409  1.00  0.00    -0.268 N 
ATOM     30  C   UNL     1     -44.269  41.267  26.299  1.00  0.00    -0.019 A 
ATOM     31  C   UNL     1     -42.244  41.974  28.074  1.00  0.00     0.014 A 
ATOM     32  C   UNL     1     -43.453  42.291  26.021  1.00  0.00    -0.057 A 
ATOM     33  H   UNL     1     -45.068  40.960  25.635  1.00  0.00     0.066 H 
ATOM     34  C   UNL     1     -42.406  42.658  26.936  1.00  0.00    -0.045 A 
ATOM     35  H   UNL     1     -41.460  42.234  28.781  1.00  0.00     0.082 H 
ATOM     36  H   UNL     1     -43.565  42.861  25.104  1.00  0.00     0.062 H 
ATOM     37  H   UNL     1     -41.760  43.494  26.685  1.00  0.00     0.064 H 
ENDBRANCH  20  22
ENDBRANCH  15  18
ENDBRANCH   1  15
BRANCH   6  38
ATOM     38  C   UNL     1     -49.196  30.934  23.741  1.00  0.00     0.039 C 
ATOM     39  H   UNL     1     -50.194  30.763  24.160  1.00  0.00     0.050 H 
ATOM     40  H   UNL     1     -48.646  29.988  23.819  1.00  0.00     0.050 H 
BRANCH  38  41
ATOM     41  N   UNL     1     -49.251  31.353  22.343  1.00  0.00    -0.294 NA
ATOM     42  C   UNL     1     -50.619  31.364  21.779  1.00  0.00     0.002 C 
ATOM     43  C   UNL     1     -48.453  30.519  21.419  1.00  0.00     0.010 C 
ATOM     44  C   UNL     1     -50.426  30.654  20.431  1.00  0.00    -0.027 C 
ATOM     45  H   UNL     1     -50.933  32.402  21.628  1.00  0.00     0.043 H 
ATOM     46  H   UNL     1     -51.368  30.858  22.399  1.00  0.00     0.043 H 
ATOM     47  C   UNL     1     -48.919  29.050  21.379  1.00  0.00    -0.037 C 
ATOM     48  C   UNL     1     -48.992  31.040  20.088  1.00  0.00    -0.033 C 
ATOM     49  H   UNL     1     -47.375  30.643  21.548  1.00  0.00     0.047 H 
ATOM     50  C   UNL     1     -50.290  29.144  20.695  1.00  0.00    -0.048 C 
ATOM     51  H   UNL     1     -51.179  30.907  19.681  1.00  0.00     0.032 H 
ATOM     52  H   UNL     1     -48.237  28.451  20.762  1.00  0.00     0.028 H 
ATOM     53  H   UNL     1     -48.972  28.576  22.362  1.00  0.00     0.028 H 
ATOM     54  H   UNL     1     -48.852  32.118  19.945  1.00  0.00     0.029 H 
ATOM     55  H   UNL     1     -48.595  30.505  19.218  1.00  0.00     0.029 H 
ATOM     56  H   UNL     1     -50.285  28.580  19.756  1.00  0.00     0.027 H 
ATOM     57  H   UNL     1     -51.094  28.752  21.328  1.00  0.00     0.027 H 
ENDBRANCH  38  41
ENDBRANCH   6  38
TORSDOF 5
ENDMDL
