MODEL 1
REMARK VINA RESULT:     -10.8      0.000      0.000
REMARK SMILES Nc1ccc2ccc(CC[C@H]3C[C@@H](n4cc([C@@H]5CCOC5)c5c(N)ncnc54)[C@H](O)[C@@H]3O)cc2n1
REMARK SMILES IDX 10 1 9 4 8 7 2 8 3 9 35 10 4 11 34 13 5 14 33 16 6 17 7 19
REMARK SMILES IDX 1 22 11 25 12 26 31 27 13 29 29 32 32 36 14 38 15 39 28 40
REMARK SMILES IDX 16 41 22 43 27 44 23 45 26 46 25 47 17 49 18 50 21 51 19 53
REMARK SMILES IDX 20 56 24 61 30 64
REMARK H PARENT 10 2 10 3 9 5 9 6 3 12 4 15 33 18 6 20 7 21 1 23 1 24 11 28
REMARK H PARENT 12 30 12 31 31 33 13 34 29 35 32 37 15 42 26 48 17 52 18 54
REMARK H PARENT 18 55 21 57 21 58 19 59 19 60 24 62 24 63 30 65
REMARK Flexibility Score: inf
ROOT
ATOM      1  C   UNL     1     -46.688  35.809  26.641  1.00  0.00    -0.044 C 
ATOM      2  H   UNL     1     -45.808  35.309  26.218  1.00  0.00     0.027 H 
ATOM      3  H   UNL     1     -46.861  36.699  26.024  1.00  0.00     0.027 H 
ENDROOT
BRANCH   1   4
ATOM      4  C   UNL     1     -47.911  34.892  26.505  1.00  0.00    -0.027 C 
ATOM      5  H   UNL     1     -48.702  35.439  25.975  1.00  0.00     0.032 H 
ATOM      6  H   UNL     1     -48.332  34.658  27.489  1.00  0.00     0.032 H 
BRANCH   4   7
ATOM      7  C   UNL     1     -47.632  33.624  25.733  1.00  0.00    -0.046 A 
ATOM      8  C   UNL     1     -49.078  29.319  24.312  1.00  0.00     0.124 A 
ATOM      9  C   UNL     1     -47.899  29.076  23.628  1.00  0.00    -0.019 A 
ATOM     10  N   UNL     1     -49.313  30.454  24.989  1.00  0.00    -0.231 NA
ATOM     11  C   UNL     1     -46.916  30.058  23.629  1.00  0.00    -0.049 A 
ATOM     12  H   UNL     1     -47.741  28.136  23.113  1.00  0.00     0.066 H 
ATOM     13  C   UNL     1     -48.362  31.408  24.995  1.00  0.00     0.073 A 
ATOM     14  C   UNL     1     -47.135  31.254  24.321  1.00  0.00     0.000 A 
ATOM     15  H   UNL     1     -45.984  29.883  23.099  1.00  0.00     0.063 H 
ATOM     16  C   UNL     1     -48.583  32.592  25.688  1.00  0.00    -0.033 A 
ATOM     17  C   UNL     1     -46.173  32.276  24.354  1.00  0.00    -0.053 A 
ATOM     18  H   UNL     1     -49.528  32.706  26.215  1.00  0.00     0.065 H 
ATOM     19  C   UNL     1     -46.422  33.455  25.057  1.00  0.00    -0.058 A 
ATOM     20  H   UNL     1     -45.225  32.160  23.835  1.00  0.00     0.063 H 
ATOM     21  H   UNL     1     -45.667  34.237  25.071  1.00  0.00     0.063 H 
BRANCH   8  22
ATOM     22  N   UNL     1     -50.083  28.355  24.350  1.00  0.00    -0.384 N 
ATOM     23  H   UNL     1     -50.995  28.775  24.474  1.00  0.00     0.158 HD
ATOM     24  H   UNL     1     -49.850  27.724  25.113  1.00  0.00     0.158 HD
ENDBRANCH   8  22
ENDBRANCH   4   7
ENDBRANCH   1   4
BRANCH   1  25
ATOM     25  C   UNL     1     -46.367  36.251  28.078  1.00  0.00    -0.010 C 
ATOM     26  C   UNL     1     -44.899  36.713  28.227  1.00  0.00    -0.024 C 
ATOM     27  C   UNL     1     -47.199  37.444  28.570  1.00  0.00     0.085 C 
ATOM     28  H   UNL     1     -46.523  35.394  28.748  1.00  0.00     0.033 H 
ATOM     29  C   UNL     1     -44.920  38.016  29.057  1.00  0.00     0.064 C 
ATOM     30  H   UNL     1     -44.383  36.819  27.268  1.00  0.00     0.029 H 
ATOM     31  H   UNL     1     -44.352  35.940  28.782  1.00  0.00     0.029 H 
ATOM     32  C   UNL     1     -46.323  38.057  29.668  1.00  0.00     0.101 C 
ATOM     33  H   UNL     1     -47.386  38.159  27.761  1.00  0.00     0.063 H 
ATOM     34  H   UNL     1     -44.148  37.938  29.832  1.00  0.00     0.056 H 
ATOM     35  H   UNL     1     -46.667  39.056  29.954  1.00  0.00     0.065 H 
BRANCH  27  36
ATOM     36  O   UNL     1     -48.444  37.023  29.110  1.00  0.00    -0.390 OA
ATOM     37  H   UNL     1     -48.818  36.359  28.503  1.00  0.00     0.211 HD
ENDBRANCH  27  36
BRANCH  29  38
ATOM     38  N   UNL     1     -44.631  39.237  28.307  1.00  0.00    -0.326 N 
ATOM     39  C   UNL     1     -45.278  39.707  27.194  1.00  0.00     0.010 A 
ATOM     40  C   UNL     1     -43.657  40.136  28.673  1.00  0.00     0.146 A 
ATOM     41  C   UNL     1     -44.716  40.920  26.820  1.00  0.00    -0.012 A 
ATOM     42  H   UNL     1     -46.091  39.156  26.742  1.00  0.00     0.082 H 
ATOM     43  C   UNL     1     -43.659  41.183  27.760  1.00  0.00     0.065 A 
ATOM     44  N   UNL     1     -42.855  40.007  29.742  1.00  0.00    -0.218 NA
ATOM     45  C   UNL     1     -42.698  42.187  27.973  1.00  0.00     0.136 A 
ATOM     46  C   UNL     1     -41.998  41.031  29.849  1.00  0.00     0.120 A 
ATOM     47  N   UNL     1     -41.873  42.093  29.033  1.00  0.00    -0.219 NA
ATOM     48  H   UNL     1     -41.319  40.999  30.696  1.00  0.00     0.106 H 
BRANCH  41  49
ATOM     49  C   UNL     1     -45.125  41.785  25.668  1.00  0.00     0.012 C 
ATOM     50  C   UNL     1     -44.028  42.170  24.694  1.00  0.00    -0.020 C 
ATOM     51  C   UNL     1     -45.652  43.154  26.076  1.00  0.00     0.054 C 
ATOM     52  H   UNL     1     -45.898  41.270  25.082  1.00  0.00     0.038 H 
ATOM     53  C   UNL     1     -44.653  43.353  23.984  1.00  0.00     0.047 C 
ATOM     54  H   UNL     1     -43.121  42.502  25.214  1.00  0.00     0.030 H 
ATOM     55  H   UNL     1     -43.747  41.366  24.009  1.00  0.00     0.030 H 
ATOM     56  O   UNL     1     -45.472  44.027  24.949  1.00  0.00    -0.381 OA
ATOM     57  H   UNL     1     -46.713  43.129  26.347  1.00  0.00     0.057 H 
ATOM     58  H   UNL     1     -45.097  43.582  26.919  1.00  0.00     0.057 H 
ATOM     59  H   UNL     1     -45.301  43.026  23.164  1.00  0.00     0.057 H 
ATOM     60  H   UNL     1     -43.906  44.046  23.585  1.00  0.00     0.057 H 
ENDBRANCH  41  49
BRANCH  45  61
ATOM     61  N   UNL     1     -42.508  43.288  27.146  1.00  0.00    -0.383 N 
ATOM     62  H   UNL     1     -43.261  43.445  26.491  1.00  0.00     0.158 HD
ATOM     63  H   UNL     1     -41.586  43.231  26.725  1.00  0.00     0.158 HD
ENDBRANCH  45  61
ENDBRANCH  29  38
BRANCH  32  64
ATOM     64  O   UNL     1     -46.372  37.235  30.843  1.00  0.00    -0.388 OA
ATOM     65  H   UNL     1     -45.467  36.885  30.975  1.00  0.00     0.211 HD
ENDBRANCH  32  64
ENDBRANCH   1  25
TORSDOF 9
ENDMDL
MODEL 2
REMARK VINA RESULT:      -9.5      1.457      1.997
REMARK SMILES Nc1ccc2ccc(CC[C@H]3C[C@@H](n4cc([C@@H]5CCOC5)c5c(N)ncnc54)[C@H](O)[C@@H]3O)cc2n1
REMARK SMILES IDX 10 1 9 4 8 7 2 8 3 9 35 10 4 11 34 13 5 14 33 16 6 17 7 19
REMARK SMILES IDX 1 22 11 25 12 26 31 27 13 29 29 32 32 36 14 38 15 39 28 40
REMARK SMILES IDX 16 41 22 43 27 44 23 45 26 46 25 47 17 49 18 50 21 51 19 53
REMARK SMILES IDX 20 56 24 61 30 64
REMARK H PARENT 10 2 10 3 9 5 9 6 3 12 4 15 33 18 6 20 7 21 1 23 1 24 11 28
REMARK H PARENT 12 30 12 31 31 33 13 34 29 35 32 37 15 42 26 48 17 52 18 54
REMARK H PARENT 18 55 21 57 21 58 19 59 19 60 24 62 24 63 30 65
REMARK Flexibility Score: inf
ROOT
ATOM      1  C   UNL     1     -47.464  36.668  28.312  1.00  0.00    -0.044 C 
ATOM      2  H   UNL     1     -48.081  37.556  28.500  1.00  0.00     0.027 H 
ATOM      3  H   UNL     1     -48.034  35.813  28.696  1.00  0.00     0.027 H 
ENDROOT
BRANCH   1   4
ATOM      4  C   UNL     1     -47.287  36.479  26.800  1.00  0.00    -0.027 C 
ATOM      5  H   UNL     1     -46.240  36.684  26.541  1.00  0.00     0.032 H 
ATOM      6  H   UNL     1     -47.871  37.223  26.245  1.00  0.00     0.032 H 
BRANCH   4   7
ATOM      7  C   UNL     1     -47.615  35.085  26.323  1.00  0.00    -0.046 A 
ATOM      8  C   UNL     1     -46.364  31.237  23.817  1.00  0.00     0.124 A 
ATOM      9  C   UNL     1     -47.538  30.574  24.125  1.00  0.00    -0.019 A 
ATOM     10  N   UNL     1     -46.084  32.477  24.253  1.00  0.00    -0.231 NA
ATOM     11  C   UNL     1     -48.470  31.212  24.936  1.00  0.00    -0.049 A 
ATOM     12  H   UNL     1     -47.734  29.583  23.733  1.00  0.00     0.066 H 
ATOM     13  C   UNL     1     -46.985  33.100  25.037  1.00  0.00     0.073 A 
ATOM     14  C   UNL     1     -48.203  32.501  25.411  1.00  0.00     0.000 A 
ATOM     15  H   UNL     1     -49.398  30.705  25.185  1.00  0.00     0.063 H 
ATOM     16  C   UNL     1     -46.717  34.382  25.502  1.00  0.00    -0.033 A 
ATOM     17  C   UNL     1     -49.112  33.188  26.231  1.00  0.00    -0.053 A 
ATOM     18  H   UNL     1     -45.779  34.847  25.207  1.00  0.00     0.065 H 
ATOM     19  C   UNL     1     -48.818  34.474  26.685  1.00  0.00    -0.058 A 
ATOM     20  H   UNL     1     -50.053  32.728  26.520  1.00  0.00     0.063 H 
ATOM     21  H   UNL     1     -49.531  34.992  27.320  1.00  0.00     0.063 H 
BRANCH   8  22
ATOM     22  N   UNL     1     -45.411  30.641  22.994  1.00  0.00    -0.384 N 
ATOM     23  H   UNL     1     -44.713  31.308  22.691  1.00  0.00     0.158 HD
ATOM     24  H   UNL     1     -45.918  30.241  22.208  1.00  0.00     0.158 HD
ENDBRANCH   8  22
ENDBRANCH   4   7
ENDBRANCH   1   4
BRANCH   1  25
ATOM     25  C   UNL     1     -46.154  36.795  29.107  1.00  0.00    -0.010 C 
ATOM     26  C   UNL     1     -44.937  37.030  28.181  1.00  0.00    -0.024 C 
ATOM     27  C   UNL     1     -46.124  37.976  30.088  1.00  0.00     0.085 C 
ATOM     28  H   UNL     1     -45.988  35.858  29.654  1.00  0.00     0.033 H 
ATOM     29  C   UNL     1     -44.092  38.151  28.826  1.00  0.00     0.064 C 
ATOM     30  H   UNL     1     -45.220  37.242  27.145  1.00  0.00     0.029 H 
ATOM     31  H   UNL     1     -44.347  36.104  28.151  1.00  0.00     0.029 H 
ATOM     32  C   UNL     1     -44.628  38.259  30.256  1.00  0.00     0.101 C 
ATOM     33  H   UNL     1     -46.654  38.844  29.682  1.00  0.00     0.063 H 
ATOM     34  H   UNL     1     -43.042  37.834  28.816  1.00  0.00     0.056 H 
ATOM     35  H   UNL     1     -44.448  39.225  30.739  1.00  0.00     0.065 H 
BRANCH  27  36
ATOM     36  O   UNL     1     -46.703  37.626  31.339  1.00  0.00    -0.390 OA
ATOM     37  H   UNL     1     -46.522  38.356  31.959  1.00  0.00     0.211 HD
ENDBRANCH  27  36
BRANCH  29  38
ATOM     38  N   UNL     1     -44.141  39.441  28.141  1.00  0.00    -0.326 N 
ATOM     39  C   UNL     1     -44.927  39.791  27.073  1.00  0.00     0.010 A 
ATOM     40  C   UNL     1     -43.403  40.533  28.532  1.00  0.00     0.146 A 
ATOM     41  C   UNL     1     -44.694  41.121  26.755  1.00  0.00    -0.012 A 
ATOM     42  H   UNL     1     -45.597  39.079  26.612  1.00  0.00     0.082 H 
ATOM     43  C   UNL     1     -43.698  41.591  27.680  1.00  0.00     0.065 A 
ATOM     44  N   UNL     1     -42.552  40.554  29.570  1.00  0.00    -0.218 NA
ATOM     45  C   UNL     1     -43.004  42.790  27.925  1.00  0.00     0.136 A 
ATOM     46  C   UNL     1     -41.969  41.751  29.713  1.00  0.00     0.120 A 
ATOM     47  N   UNL     1     -42.140  42.850  28.957  1.00  0.00    -0.219 NA
ATOM     48  H   UNL     1     -41.270  41.846  30.539  1.00  0.00     0.106 H 
BRANCH  41  49
ATOM     49  C   UNL     1     -45.348  41.914  25.666  1.00  0.00     0.012 C 
ATOM     50  C   UNL     1     -44.417  42.626  24.701  1.00  0.00    -0.020 C 
ATOM     51  C   UNL     1     -46.197  43.074  26.166  1.00  0.00     0.054 C 
ATOM     52  H   UNL     1     -45.979  41.251  25.060  1.00  0.00     0.038 H 
ATOM     53  C   UNL     1     -45.348  43.643  24.076  1.00  0.00     0.047 C 
ATOM     54  H   UNL     1     -43.612  43.151  25.227  1.00  0.00     0.030 H 
ATOM     55  H   UNL     1     -43.959  41.961  23.963  1.00  0.00     0.030 H 
ATOM     56  O   UNL     1     -46.283  44.027  25.093  1.00  0.00    -0.381 OA
ATOM     57  H   UNL     1     -47.206  42.760  26.451  1.00  0.00     0.057 H 
ATOM     58  H   UNL     1     -45.746  43.584  27.026  1.00  0.00     0.057 H 
ATOM     59  H   UNL     1     -45.915  43.207  23.246  1.00  0.00     0.057 H 
ATOM     60  H   UNL     1     -44.818  44.528  23.709  1.00  0.00     0.057 H 
ENDBRANCH  41  49
BRANCH  45  61
ATOM     61  N   UNL     1     -43.123  43.942  27.158  1.00  0.00    -0.383 N 
ATOM     62  H   UNL     1     -44.068  44.146  26.866  1.00  0.00     0.158 HD
ATOM     63  H   UNL     1     -42.444  43.909  26.404  1.00  0.00     0.158 HD
ENDBRANCH  45  61
ENDBRANCH  29  38
BRANCH  32  64
ATOM     64  O   UNL     1     -44.032  37.250  31.083  1.00  0.00    -0.388 OA
ATOM     65  H   UNL     1     -44.632  37.128  31.848  1.00  0.00     0.211 HD
ENDBRANCH  32  64
ENDBRANCH   1  25
TORSDOF 9
ENDMDL
MODEL 3
REMARK VINA RESULT:      -9.4      2.905      4.460
REMARK SMILES Nc1ccc2ccc(CC[C@H]3C[C@@H](n4cc([C@@H]5CCOC5)c5c(N)ncnc54)[C@H](O)[C@@H]3O)cc2n1
REMARK SMILES IDX 10 1 9 4 8 7 2 8 3 9 35 10 4 11 34 13 5 14 33 16 6 17 7 19
REMARK SMILES IDX 1 22 11 25 12 26 31 27 13 29 29 32 32 36 14 38 15 39 28 40
REMARK SMILES IDX 16 41 22 43 27 44 23 45 26 46 25 47 17 49 18 50 21 51 19 53
REMARK SMILES IDX 20 56 24 61 30 64
REMARK H PARENT 10 2 10 3 9 5 9 6 3 12 4 15 33 18 6 20 7 21 1 23 1 24 11 28
REMARK H PARENT 12 30 12 31 31 33 13 34 29 35 32 37 15 42 26 48 17 52 18 54
REMARK H PARENT 18 55 21 57 21 58 19 59 19 60 24 62 24 63 30 65
REMARK Flexibility Score: inf
ROOT
ATOM      1  C   UNL     1     -46.278  35.286  26.516  1.00  0.00    -0.044 C 
ATOM      2  H   UNL     1     -45.582  34.500  26.198  1.00  0.00     0.027 H 
ATOM      3  H   UNL     1     -46.354  35.986  25.674  1.00  0.00     0.027 H 
ENDROOT
BRANCH   1   4
ATOM      4  C   UNL     1     -47.667  34.674  26.749  1.00  0.00    -0.027 C 
ATOM      5  H   UNL     1     -48.428  35.417  26.478  1.00  0.00     0.032 H 
ATOM      6  H   UNL     1     -47.827  34.473  27.815  1.00  0.00     0.032 H 
BRANCH   4   7
ATOM      7  C   UNL     1     -47.924  33.432  25.931  1.00  0.00    -0.046 A 
ATOM      8  C   UNL     1     -46.258  30.052  23.023  1.00  0.00     0.124 A 
ATOM      9  C   UNL     1     -47.497  29.444  22.914  1.00  0.00    -0.019 A 
ATOM     10  N   UNL     1     -46.045  31.155  23.760  1.00  0.00    -0.231 NA
ATOM     11  C   UNL     1     -48.569  29.989  23.610  1.00  0.00    -0.049 A 
ATOM     12  H   UNL     1     -47.631  28.568  22.290  1.00  0.00     0.066 H 
ATOM     13  C   UNL     1     -47.081  31.688  24.434  1.00  0.00     0.073 A 
ATOM     14  C   UNL     1     -48.375  31.134  24.391  1.00  0.00     0.000 A 
ATOM     15  H   UNL     1     -49.548  29.525  23.534  1.00  0.00     0.063 H 
ATOM     16  C   UNL     1     -46.884  32.828  25.205  1.00  0.00    -0.033 A 
ATOM     17  C   UNL     1     -49.426  31.723  25.111  1.00  0.00    -0.053 A 
ATOM     18  H   UNL     1     -45.886  33.260  25.231  1.00  0.00     0.065 H 
ATOM     19  C   UNL     1     -49.200  32.866  25.877  1.00  0.00    -0.058 A 
ATOM     20  H   UNL     1     -50.426  31.297  25.079  1.00  0.00     0.063 H 
ATOM     21  H   UNL     1     -50.024  33.310  26.431  1.00  0.00     0.063 H 
BRANCH   8  22
ATOM     22  N   UNL     1     -45.161  29.548  22.329  1.00  0.00    -0.384 N 
ATOM     23  H   UNL     1     -45.007  30.051  21.464  1.00  0.00     0.158 HD
ATOM     24  H   UNL     1     -45.351  28.563  22.165  1.00  0.00     0.158 HD
ENDBRANCH   8  22
ENDBRANCH   4   7
ENDBRANCH   1   4
BRANCH   1  25
ATOM     25  C   UNL     1     -45.683  36.021  27.727  1.00  0.00    -0.010 C 
ATOM     26  C   UNL     1     -45.305  37.482  27.388  1.00  0.00    -0.024 C 
ATOM     27  C   UNL     1     -46.638  36.139  28.924  1.00  0.00     0.085 C 
ATOM     28  H   UNL     1     -44.769  35.496  28.037  1.00  0.00     0.033 H 
ATOM     29  C   UNL     1     -45.807  38.359  28.557  1.00  0.00     0.064 C 
ATOM     30  H   UNL     1     -45.677  37.807  26.412  1.00  0.00     0.029 H 
ATOM     31  H   UNL     1     -44.210  37.547  27.332  1.00  0.00     0.029 H 
ATOM     32  C   UNL     1     -46.110  37.363  29.679  1.00  0.00     0.101 C 
ATOM     33  H   UNL     1     -47.672  36.286  28.595  1.00  0.00     0.063 H 
ATOM     34  H   UNL     1     -44.998  39.046  28.838  1.00  0.00     0.056 H 
ATOM     35  H   UNL     1     -46.825  37.721  30.426  1.00  0.00     0.065 H 
BRANCH  27  36
ATOM     36  O   UNL     1     -46.578  34.985  29.752  1.00  0.00    -0.390 OA
ATOM     37  H   UNL     1     -46.513  34.208  29.168  1.00  0.00     0.211 HD
ENDBRANCH  27  36
BRANCH  29  38
ATOM     38  N   UNL     1     -46.970  39.192  28.256  1.00  0.00    -0.326 N 
ATOM     39  C   UNL     1     -48.256  39.020  28.698  1.00  0.00     0.010 A 
ATOM     40  C   UNL     1     -46.905  40.335  27.496  1.00  0.00     0.146 A 
ATOM     41  C   UNL     1     -49.044  40.055  28.213  1.00  0.00    -0.012 A 
ATOM     42  H   UNL     1     -48.528  38.183  29.325  1.00  0.00     0.082 H 
ATOM     43  C   UNL     1     -48.178  40.887  27.422  1.00  0.00     0.065 A 
ATOM     44  N   UNL     1     -45.787  40.821  26.933  1.00  0.00    -0.218 NA
ATOM     45  C   UNL     1     -48.297  42.059  26.653  1.00  0.00     0.136 A 
ATOM     46  C   UNL     1     -46.024  41.946  26.245  1.00  0.00     0.120 A 
ATOM     47  N   UNL     1     -47.198  42.577  26.071  1.00  0.00    -0.219 NA
ATOM     48  H   UNL     1     -45.162  42.402  25.765  1.00  0.00     0.106 H 
BRANCH  41  49
ATOM     49  C   UNL     1     -50.505  40.266  28.462  1.00  0.00     0.012 C 
ATOM     50  C   UNL     1     -50.864  41.207  29.598  1.00  0.00    -0.020 C 
ATOM     51  C   UNL     1     -51.253  39.006  28.876  1.00  0.00     0.054 C 
ATOM     52  H   UNL     1     -50.975  40.674  27.557  1.00  0.00     0.038 H 
ATOM     53  C   UNL     1     -52.309  40.834  29.857  1.00  0.00     0.047 C 
ATOM     54  H   UNL     1     -50.273  41.002  30.498  1.00  0.00     0.030 H 
ATOM     55  H   UNL     1     -50.739  42.264  29.347  1.00  0.00     0.030 H 
ATOM     56  O   UNL     1     -52.424  39.429  29.594  1.00  0.00    -0.381 OA
ATOM     57  H   UNL     1     -51.556  38.400  28.016  1.00  0.00     0.057 H 
ATOM     58  H   UNL     1     -50.665  38.371  29.548  1.00  0.00     0.057 H 
ATOM     59  H   UNL     1     -52.984  41.359  29.174  1.00  0.00     0.057 H 
ATOM     60  H   UNL     1     -52.619  41.044  30.885  1.00  0.00     0.057 H 
ENDBRANCH  41  49
BRANCH  45  61
ATOM     61  N   UNL     1     -49.490  42.732  26.419  1.00  0.00    -0.383 N 
ATOM     62  H   UNL     1     -49.481  43.697  26.714  1.00  0.00     0.158 HD
ATOM     63  H   UNL     1     -50.258  42.182  26.789  1.00  0.00     0.158 HD
ENDBRANCH  45  61
ENDBRANCH  29  38
BRANCH  32  64
ATOM     64  O   UNL     1     -44.901  37.021  30.374  1.00  0.00    -0.388 OA
ATOM     65  H   UNL     1     -45.050  37.246  31.315  1.00  0.00     0.211 HD
ENDBRANCH  32  64
ENDBRANCH   1  25
TORSDOF 9
ENDMDL
MODEL 4
REMARK VINA RESULT:      -9.3      3.020      5.112
REMARK SMILES Nc1ccc2ccc(CC[C@H]3C[C@@H](n4cc([C@@H]5CCOC5)c5c(N)ncnc54)[C@H](O)[C@@H]3O)cc2n1
REMARK SMILES IDX 10 1 9 4 8 7 2 8 3 9 35 10 4 11 34 13 5 14 33 16 6 17 7 19
REMARK SMILES IDX 1 22 11 25 12 26 31 27 13 29 29 32 32 36 14 38 15 39 28 40
REMARK SMILES IDX 16 41 22 43 27 44 23 45 26 46 25 47 17 49 18 50 21 51 19 53
REMARK SMILES IDX 20 56 24 61 30 64
REMARK H PARENT 10 2 10 3 9 5 9 6 3 12 4 15 33 18 6 20 7 21 1 23 1 24 11 28
REMARK H PARENT 12 30 12 31 31 33 13 34 29 35 32 37 15 42 26 48 17 52 18 54
REMARK H PARENT 18 55 21 57 21 58 19 59 19 60 24 62 24 63 30 65
REMARK Flexibility Score: inf
ROOT
ATOM      1  C   UNL     1     -45.147  38.719  28.255  1.00  0.00    -0.044 C 
ATOM      2  H   UNL     1     -45.199  38.975  29.321  1.00  0.00     0.027 H 
ATOM      3  H   UNL     1     -44.812  37.676  28.207  1.00  0.00     0.027 H 
ENDROOT
BRANCH   1   4
ATOM      4  C   UNL     1     -46.553  38.794  27.643  1.00  0.00    -0.027 C 
ATOM      5  H   UNL     1     -46.497  39.362  26.704  1.00  0.00     0.032 H 
ATOM      6  H   UNL     1     -47.226  39.371  28.288  1.00  0.00     0.032 H 
BRANCH   4   7
ATOM      7  C   UNL     1     -47.148  37.443  27.329  1.00  0.00    -0.046 A 
ATOM      8  C   UNL     1     -46.582  33.048  25.591  1.00  0.00     0.124 A 
ATOM      9  C   UNL     1     -47.905  32.714  25.826  1.00  0.00    -0.019 A 
ATOM     10  N   UNL     1     -46.067  34.254  25.881  1.00  0.00    -0.231 NA
ATOM     11  C   UNL     1     -48.738  33.666  26.402  1.00  0.00    -0.049 A 
ATOM     12  H   UNL     1     -48.286  31.737  25.556  1.00  0.00     0.066 H 
ATOM     13  C   UNL     1     -46.872  35.180  26.437  1.00  0.00     0.073 A 
ATOM     14  C   UNL     1     -48.228  34.929  26.721  1.00  0.00     0.000 A 
ATOM     15  H   UNL     1     -49.780  33.420  26.592  1.00  0.00     0.063 H 
ATOM     16  C   UNL     1     -46.361  36.435  26.748  1.00  0.00    -0.033 A 
ATOM     17  C   UNL     1     -49.029  35.924  27.303  1.00  0.00    -0.053 A 
ATOM     18  H   UNL     1     -45.315  36.630  26.520  1.00  0.00     0.065 H 
ATOM     19  C   UNL     1     -48.490  37.174  27.605  1.00  0.00    -0.058 A 
ATOM     20  H   UNL     1     -50.076  35.732  27.523  1.00  0.00     0.063 H 
ATOM     21  H   UNL     1     -49.124  37.934  28.057  1.00  0.00     0.063 H 
BRANCH   8  22
ATOM     22  N   UNL     1     -45.717  32.130  25.000  1.00  0.00    -0.384 N 
ATOM     23  H   UNL     1     -45.742  31.238  25.477  1.00  0.00     0.158 HD
ATOM     24  H   UNL     1     -44.790  32.548  25.028  1.00  0.00     0.158 HD
ENDBRANCH   8  22
ENDBRANCH   4   7
ENDBRANCH   1   4
BRANCH   1  25
ATOM     25  C   UNL     1     -44.097  39.615  27.578  1.00  0.00    -0.010 C 
ATOM     26  C   UNL     1     -44.562  40.095  26.183  1.00  0.00    -0.024 C 
ATOM     27  C   UNL     1     -43.783  40.907  28.345  1.00  0.00     0.085 C 
ATOM     28  H   UNL     1     -43.176  39.032  27.447  1.00  0.00     0.033 H 
ATOM     29  C   UNL     1     -44.226  41.601  26.092  1.00  0.00     0.064 C 
ATOM     30  H   UNL     1     -45.613  39.873  25.979  1.00  0.00     0.029 H 
ATOM     31  H   UNL     1     -43.983  39.550  25.424  1.00  0.00     0.029 H 
ATOM     32  C   UNL     1     -43.262  41.848  27.255  1.00  0.00     0.101 C 
ATOM     33  H   UNL     1     -44.679  41.311  28.828  1.00  0.00     0.063 H 
ATOM     34  H   UNL     1     -43.742  41.784  25.124  1.00  0.00     0.056 H 
ATOM     35  H   UNL     1     -43.219  42.887  27.599  1.00  0.00     0.065 H 
BRANCH  27  36
ATOM     36  O   UNL     1     -42.783  40.695  29.333  1.00  0.00    -0.390 OA
ATOM     37  H   UNL     1     -43.126  41.042  30.177  1.00  0.00     0.211 HD
ENDBRANCH  27  36
BRANCH  29  38
ATOM     38  N   UNL     1     -45.377  42.500  26.155  1.00  0.00    -0.326 N 
ATOM     39  C   UNL     1     -46.701  42.158  26.242  1.00  0.00     0.010 A 
ATOM     40  C   UNL     1     -45.264  43.870  26.185  1.00  0.00     0.146 A 
ATOM     41  C   UNL     1     -47.464  43.314  26.319  1.00  0.00    -0.012 A 
ATOM     42  H   UNL     1     -47.015  41.123  26.245  1.00  0.00     0.082 H 
ATOM     43  C   UNL     1     -46.540  44.414  26.260  1.00  0.00     0.065 A 
ATOM     44  N   UNL     1     -44.105  44.547  26.153  1.00  0.00    -0.218 NA
ATOM     45  C   UNL     1     -46.610  45.819  26.273  1.00  0.00     0.136 A 
ATOM     46  C   UNL     1     -44.300  45.872  26.190  1.00  0.00     0.120 A 
ATOM     47  N   UNL     1     -45.470  46.534  26.241  1.00  0.00    -0.219 NA
ATOM     48  H   UNL     1     -43.405  46.487  26.174  1.00  0.00     0.106 H 
BRANCH  41  49
ATOM     49  C   UNL     1     -48.955  43.402  26.439  1.00  0.00     0.012 C 
ATOM     50  C   UNL     1     -49.681  42.107  26.748  1.00  0.00    -0.020 C 
ATOM     51  C   UNL     1     -49.657  43.837  25.160  1.00  0.00     0.054 C 
ATOM     52  H   UNL     1     -49.215  44.106  27.241  1.00  0.00     0.038 H 
ATOM     53  C   UNL     1     -51.101  42.451  26.348  1.00  0.00     0.047 C 
ATOM     54  H   UNL     1     -49.323  41.280  26.124  1.00  0.00     0.030 H 
ATOM     55  H   UNL     1     -49.600  41.797  27.794  1.00  0.00     0.030 H 
ATOM     56  O   UNL     1     -51.008  43.352  25.236  1.00  0.00    -0.381 OA
ATOM     57  H   UNL     1     -49.670  44.925  25.041  1.00  0.00     0.057 H 
ATOM     58  H   UNL     1     -49.200  43.402  24.263  1.00  0.00     0.057 H 
ATOM     59  H   UNL     1     -51.628  42.969  27.157  1.00  0.00     0.057 H 
ATOM     60  H   UNL     1     -51.682  41.569  26.061  1.00  0.00     0.057 H 
ENDBRANCH  41  49
BRANCH  45  61
ATOM     61  N   UNL     1     -47.792  46.551  26.296  1.00  0.00    -0.383 N 
ATOM     62  H   UNL     1     -47.752  47.411  25.769  1.00  0.00     0.158 HD
ATOM     63  H   UNL     1     -48.096  46.658  27.259  1.00  0.00     0.158 HD
ENDBRANCH  45  61
ENDBRANCH  29  38
BRANCH  32  64
ATOM     64  O   UNL     1     -41.930  41.467  26.880  1.00  0.00    -0.388 OA
ATOM     65  H   UNL     1     -41.392  41.499  27.697  1.00  0.00     0.211 HD
ENDBRANCH  32  64
ENDBRANCH   1  25
TORSDOF 9
ENDMDL
MODEL 5
REMARK VINA RESULT:      -9.1      3.438      5.226
REMARK SMILES Nc1ccc2ccc(CC[C@H]3C[C@@H](n4cc([C@@H]5CCOC5)c5c(N)ncnc54)[C@H](O)[C@@H]3O)cc2n1
REMARK SMILES IDX 10 1 9 4 8 7 2 8 3 9 35 10 4 11 34 13 5 14 33 16 6 17 7 19
REMARK SMILES IDX 1 22 11 25 12 26 31 27 13 29 29 32 32 36 14 38 15 39 28 40
REMARK SMILES IDX 16 41 22 43 27 44 23 45 26 46 25 47 17 49 18 50 21 51 19 53
REMARK SMILES IDX 20 56 24 61 30 64
REMARK H PARENT 10 2 10 3 9 5 9 6 3 12 4 15 33 18 6 20 7 21 1 23 1 24 11 28
REMARK H PARENT 12 30 12 31 31 33 13 34 29 35 32 37 15 42 26 48 17 52 18 54
REMARK H PARENT 18 55 21 57 21 58 19 59 19 60 24 62 24 63 30 65
REMARK Flexibility Score: inf
ROOT
ATOM      1  C   UNL     1     -46.143  36.665  27.843  1.00  0.00    -0.044 C 
ATOM      2  H   UNL     1     -46.195  36.618  28.938  1.00  0.00     0.027 H 
ATOM      3  H   UNL     1     -45.568  35.786  27.526  1.00  0.00     0.027 H 
ENDROOT
BRANCH   1   4
ATOM      4  C   UNL     1     -47.557  36.541  27.259  1.00  0.00    -0.027 C 
ATOM      5  H   UNL     1     -47.682  37.303  26.479  1.00  0.00     0.032 H 
ATOM      6  H   UNL     1     -48.312  36.780  28.018  1.00  0.00     0.032 H 
BRANCH   4   7
ATOM      7  C   UNL     1     -47.838  35.195  26.637  1.00  0.00    -0.046 A 
ATOM      8  C   UNL     1     -46.336  31.543  23.981  1.00  0.00     0.124 A 
ATOM      9  C   UNL     1     -47.541  30.874  24.101  1.00  0.00    -0.019 A 
ATOM     10  N   UNL     1     -46.100  32.739  24.545  1.00  0.00    -0.231 NA
ATOM     11  C   UNL     1     -48.554  31.459  24.852  1.00  0.00    -0.049 A 
ATOM     12  H   UNL     1     -47.698  29.921  23.610  1.00  0.00     0.066 H 
ATOM     13  C   UNL     1     -47.079  33.310  25.272  1.00  0.00     0.073 A 
ATOM     14  C   UNL     1     -48.335  32.701  25.458  1.00  0.00     0.000 A 
ATOM     15  H   UNL     1     -49.507  30.948  24.955  1.00  0.00     0.063 H 
ATOM     16  C   UNL     1     -46.858  34.547  25.867  1.00  0.00    -0.033 A 
ATOM     17  C   UNL     1     -49.326  33.334  26.225  1.00  0.00    -0.053 A 
ATOM     18  H   UNL     1     -45.890  35.020  25.716  1.00  0.00     0.065 H 
ATOM     19  C   UNL     1     -49.077  34.574  26.811  1.00  0.00    -0.058 A 
ATOM     20  H   UNL     1     -50.296  32.866  26.369  1.00  0.00     0.063 H 
ATOM     21  H   UNL     1     -49.854  35.050  27.404  1.00  0.00     0.063 H 
BRANCH   8  22
ATOM     22  N   UNL     1     -45.300  31.000  23.223  1.00  0.00    -0.384 N 
ATOM     23  H   UNL     1     -44.837  31.708  22.667  1.00  0.00     0.158 HD
ATOM     24  H   UNL     1     -45.716  30.276  22.642  1.00  0.00     0.158 HD
ENDBRANCH   8  22
ENDBRANCH   4   7
ENDBRANCH   1   4
BRANCH   1  25
ATOM     25  C   UNL     1     -45.382  37.937  27.433  1.00  0.00    -0.010 C 
ATOM     26  C   UNL     1     -46.051  38.649  26.234  1.00  0.00    -0.024 C 
ATOM     27  C   UNL     1     -45.315  39.010  28.529  1.00  0.00     0.085 C 
ATOM     28  H   UNL     1     -44.365  37.651  27.135  1.00  0.00     0.033 H 
ATOM     29  C   UNL     1     -46.078  40.157  26.566  1.00  0.00     0.064 C 
ATOM     30  H   UNL     1     -47.036  38.242  25.987  1.00  0.00     0.029 H 
ATOM     31  H   UNL     1     -45.423  38.485  25.347  1.00  0.00     0.029 H 
ATOM     32  C   UNL     1     -45.109  40.308  27.742  1.00  0.00     0.101 C 
ATOM     33  H   UNL     1     -46.239  39.039  29.115  1.00  0.00     0.063 H 
ATOM     34  H   UNL     1     -45.725  40.706  25.684  1.00  0.00     0.056 H 
ATOM     35  H   UNL     1     -45.279  41.193  28.363  1.00  0.00     0.065 H 
BRANCH  27  36
ATOM     36  O   UNL     1     -44.219  38.788  29.408  1.00  0.00    -0.390 OA
ATOM     37  H   UNL     1     -43.409  38.768  28.866  1.00  0.00     0.211 HD
ENDBRANCH  27  36
BRANCH  29  38
ATOM     38  N   UNL     1     -47.396  40.701  26.890  1.00  0.00    -0.326 N 
ATOM     39  C   UNL     1     -48.419  40.072  27.552  1.00  0.00     0.010 A 
ATOM     40  C   UNL     1     -47.774  41.989  26.600  1.00  0.00     0.146 A 
ATOM     41  C   UNL     1     -49.481  40.954  27.688  1.00  0.00    -0.012 A 
ATOM     42  H   UNL     1     -48.327  39.047  27.884  1.00  0.00     0.082 H 
ATOM     43  C   UNL     1     -49.073  42.180  27.055  1.00  0.00     0.065 A 
ATOM     44  N   UNL     1     -47.000  42.898  25.985  1.00  0.00    -0.218 NA
ATOM     45  C   UNL     1     -49.630  43.449  26.814  1.00  0.00     0.136 A 
ATOM     46  C   UNL     1     -47.632  44.069  25.830  1.00  0.00     0.120 A 
ATOM     47  N   UNL     1     -48.886  44.387  26.199  1.00  0.00    -0.219 NA
ATOM     48  H   UNL     1     -47.064  44.857  25.344  1.00  0.00     0.106 H 
BRANCH  41  49
ATOM     49  C   UNL     1     -50.793  40.687  28.358  1.00  0.00     0.012 C 
ATOM     50  C   UNL     1     -50.924  41.163  29.793  1.00  0.00    -0.020 C 
ATOM     51  C   UNL     1     -51.124  39.208  28.507  1.00  0.00     0.054 C 
ATOM     52  H   UNL     1     -51.598  41.173  27.792  1.00  0.00     0.038 H 
ATOM     53  C   UNL     1     -52.111  40.357  30.275  1.00  0.00     0.047 C 
ATOM     54  H   UNL     1     -50.044  40.899  30.391  1.00  0.00     0.030 H 
ATOM     55  H   UNL     1     -51.080  42.242  29.884  1.00  0.00     0.030 H 
ATOM     56  O   UNL     1     -52.051  39.093  29.600  1.00  0.00    -0.381 OA
ATOM     57  H   UNL     1     -51.578  38.790  27.603  1.00  0.00     0.057 H 
ATOM     58  H   UNL     1     -50.244  38.604  28.756  1.00  0.00     0.057 H 
ATOM     59  H   UNL     1     -53.056  40.838  30.002  1.00  0.00     0.057 H 
ATOM     60  H   UNL     1     -52.100  40.198  31.357  1.00  0.00     0.057 H 
ENDBRANCH  41  49
BRANCH  45  61
ATOM     61  N   UNL     1     -50.928  43.819  27.149  1.00  0.00    -0.383 N 
ATOM     62  H   UNL     1     -51.429  44.276  26.402  1.00  0.00     0.158 HD
ATOM     63  H   UNL     1     -50.910  44.332  28.025  1.00  0.00     0.158 HD
ENDBRANCH  45  61
ENDBRANCH  29  38
BRANCH  32  64
ATOM     64  O   UNL     1     -43.759  40.375  27.261  1.00  0.00    -0.388 OA
ATOM     65  H   UNL     1     -43.425  41.266  27.495  1.00  0.00     0.211 HD
ENDBRANCH  32  64
ENDBRANCH   1  25
TORSDOF 9
ENDMDL
MODEL 6
REMARK VINA RESULT:      -9.1      3.228      5.714
REMARK SMILES Nc1ccc2ccc(CC[C@H]3C[C@@H](n4cc([C@@H]5CCOC5)c5c(N)ncnc54)[C@H](O)[C@@H]3O)cc2n1
REMARK SMILES IDX 10 1 9 4 8 7 2 8 3 9 35 10 4 11 34 13 5 14 33 16 6 17 7 19
REMARK SMILES IDX 1 22 11 25 12 26 31 27 13 29 29 32 32 36 14 38 15 39 28 40
REMARK SMILES IDX 16 41 22 43 27 44 23 45 26 46 25 47 17 49 18 50 21 51 19 53
REMARK SMILES IDX 20 56 24 61 30 64
REMARK H PARENT 10 2 10 3 9 5 9 6 3 12 4 15 33 18 6 20 7 21 1 23 1 24 11 28
REMARK H PARENT 12 30 12 31 31 33 13 34 29 35 32 37 15 42 26 48 17 52 18 54
REMARK H PARENT 18 55 21 57 21 58 19 59 19 60 24 62 24 63 30 65
REMARK Flexibility Score: inf
ROOT
ATOM      1  C   UNL     1     -44.555  39.957  28.575  1.00  0.00    -0.044 C 
ATOM      2  H   UNL     1     -45.203  40.018  27.692  1.00  0.00     0.027 H 
ATOM      3  H   UNL     1     -44.980  40.647  29.315  1.00  0.00     0.027 H 
ENDROOT
BRANCH   1   4
ATOM      4  C   UNL     1     -44.618  38.539  29.158  1.00  0.00    -0.027 C 
ATOM      5  H   UNL     1     -45.086  38.588  30.150  1.00  0.00     0.032 H 
ATOM      6  H   UNL     1     -43.609  38.148  29.335  1.00  0.00     0.032 H 
BRANCH   4   7
ATOM      7  C   UNL     1     -45.420  37.576  28.317  1.00  0.00    -0.046 A 
ATOM      8  C   UNL     1     -46.626  33.086  27.297  1.00  0.00     0.124 A 
ATOM      9  C   UNL     1     -47.468  33.476  26.270  1.00  0.00    -0.019 A 
ATOM     10  N   UNL     1     -45.922  33.956  28.040  1.00  0.00    -0.231 NA
ATOM     11  C   UNL     1     -47.604  34.833  26.001  1.00  0.00    -0.049 A 
ATOM     12  H   UNL     1     -48.000  32.740  25.680  1.00  0.00     0.066 H 
ATOM     13  C   UNL     1     -46.049  35.272  27.781  1.00  0.00     0.073 A 
ATOM     14  C   UNL     1     -46.888  35.763  26.762  1.00  0.00     0.000 A 
ATOM     15  H   UNL     1     -48.259  35.156  25.197  1.00  0.00     0.063 H 
ATOM     16  C   UNL     1     -45.332  36.191  28.537  1.00  0.00    -0.033 A 
ATOM     17  C   UNL     1     -46.990  37.144  26.529  1.00  0.00    -0.053 A 
ATOM     18  H   UNL     1     -44.678  35.810  29.319  1.00  0.00     0.065 H 
ATOM     19  C   UNL     1     -46.260  38.045  27.304  1.00  0.00    -0.058 A 
ATOM     20  H   UNL     1     -47.637  37.525  25.743  1.00  0.00     0.063 H 
ATOM     21  H   UNL     1     -46.351  39.111  27.111  1.00  0.00     0.063 H 
BRANCH   8  22
ATOM     22  N   UNL     1     -46.448  31.736  27.589  1.00  0.00    -0.384 N 
ATOM     23  H   UNL     1     -47.305  31.213  27.462  1.00  0.00     0.158 HD
ATOM     24  H   UNL     1     -46.117  31.689  28.550  1.00  0.00     0.158 HD
ENDBRANCH   8  22
ENDBRANCH   4   7
ENDBRANCH   1   4
BRANCH   1  25
ATOM     25  C   UNL     1     -43.145  40.439  28.193  1.00  0.00    -0.010 C 
ATOM     26  C   UNL     1     -43.096  40.993  26.750  1.00  0.00    -0.024 C 
ATOM     27  C   UNL     1     -42.615  41.586  29.065  1.00  0.00     0.085 C 
ATOM     28  H   UNL     1     -42.459  39.584  28.253  1.00  0.00     0.033 H 
ATOM     29  C   UNL     1     -42.280  42.304  26.801  1.00  0.00     0.064 C 
ATOM     30  H   UNL     1     -44.086  41.116  26.303  1.00  0.00     0.029 H 
ATOM     31  H   UNL     1     -42.568  40.263  26.123  1.00  0.00     0.029 H 
ATOM     32  C   UNL     1     -41.581  42.267  28.163  1.00  0.00     0.101 C 
ATOM     33  H   UNL     1     -43.417  42.276  29.347  1.00  0.00     0.063 H 
ATOM     34  H   UNL     1     -41.553  42.285  25.978  1.00  0.00     0.056 H 
ATOM     35  H   UNL     1     -41.284  43.247  28.550  1.00  0.00     0.065 H 
BRANCH  27  36
ATOM     36  O   UNL     1     -41.992  41.097  30.246  1.00  0.00    -0.390 OA
ATOM     37  H   UNL     1     -41.788  40.155  30.100  1.00  0.00     0.211 HD
ENDBRANCH  27  36
BRANCH  29  38
ATOM     38  N   UNL     1     -43.058  43.530  26.636  1.00  0.00    -0.326 N 
ATOM     39  C   UNL     1     -43.682  44.262  27.614  1.00  0.00     0.010 A 
ATOM     40  C   UNL     1     -43.230  44.159  25.426  1.00  0.00     0.146 A 
ATOM     41  C   UNL     1     -44.276  45.375  27.037  1.00  0.00    -0.012 A 
ATOM     42  H   UNL     1     -43.662  43.949  28.649  1.00  0.00     0.082 H 
ATOM     43  C   UNL     1     -44.003  45.296  25.628  1.00  0.00     0.065 A 
ATOM     44  N   UNL     1     -42.721  43.733  24.260  1.00  0.00    -0.218 NA
ATOM     45  C   UNL     1     -44.298  46.051  24.478  1.00  0.00     0.136 A 
ATOM     46  C   UNL     1     -43.053  44.543  23.245  1.00  0.00     0.120 A 
ATOM     47  N   UNL     1     -43.807  45.656  23.288  1.00  0.00    -0.219 NA
ATOM     48  H   UNL     1     -42.671  44.264  22.267  1.00  0.00     0.106 H 
BRANCH  41  49
ATOM     49  C   UNL     1     -45.049  46.448  27.741  1.00  0.00     0.012 C 
ATOM     50  C   UNL     1     -44.820  46.570  29.236  1.00  0.00    -0.020 C 
ATOM     51  C   UNL     1     -46.559  46.262  27.687  1.00  0.00     0.054 C 
ATOM     52  H   UNL     1     -44.798  47.424  27.304  1.00  0.00     0.038 H 
ATOM     53  C   UNL     1     -46.032  47.371  29.664  1.00  0.00     0.047 C 
ATOM     54  H   UNL     1     -44.842  45.593  29.732  1.00  0.00     0.030 H 
ATOM     55  H   UNL     1     -43.877  47.058  29.497  1.00  0.00     0.030 H 
ATOM     56  O   UNL     1     -47.111  46.977  28.806  1.00  0.00    -0.381 OA
ATOM     57  H   UNL     1     -46.994  46.650  26.761  1.00  0.00     0.057 H 
ATOM     58  H   UNL     1     -46.856  45.211  27.788  1.00  0.00     0.057 H 
ATOM     59  H   UNL     1     -45.868  48.445  29.526  1.00  0.00     0.057 H 
ATOM     60  H   UNL     1     -46.307  47.191  30.708  1.00  0.00     0.057 H 
ENDBRANCH  41  49
BRANCH  45  61
ATOM     61  N   UNL     1     -45.095  47.190  24.464  1.00  0.00    -0.383 N 
ATOM     62  H   UNL     1     -44.946  47.805  25.251  1.00  0.00     0.158 HD
ATOM     63  H   UNL     1     -46.061  46.916  24.316  1.00  0.00     0.158 HD
ENDBRANCH  45  61
ENDBRANCH  29  38
BRANCH  32  64
ATOM     64  O   UNL     1     -40.396  41.460  28.087  1.00  0.00    -0.388 OA
ATOM     65  H   UNL     1     -40.588  40.639  28.584  1.00  0.00     0.211 HD
ENDBRANCH  32  64
ENDBRANCH   1  25
TORSDOF 9
ENDMDL
MODEL 7
REMARK VINA RESULT:      -9.1      4.509      8.617
REMARK SMILES Nc1ccc2ccc(CC[C@H]3C[C@@H](n4cc([C@@H]5CCOC5)c5c(N)ncnc54)[C@H](O)[C@@H]3O)cc2n1
REMARK SMILES IDX 10 1 9 4 8 7 2 8 3 9 35 10 4 11 34 13 5 14 33 16 6 17 7 19
REMARK SMILES IDX 1 22 11 25 12 26 31 27 13 29 29 32 32 36 14 38 15 39 28 40
REMARK SMILES IDX 16 41 22 43 27 44 23 45 26 46 25 47 17 49 18 50 21 51 19 53
REMARK SMILES IDX 20 56 24 61 30 64
REMARK H PARENT 10 2 10 3 9 5 9 6 3 12 4 15 33 18 6 20 7 21 1 23 1 24 11 28
REMARK H PARENT 12 30 12 31 31 33 13 34 29 35 32 37 15 42 26 48 17 52 18 54
REMARK H PARENT 18 55 21 57 21 58 19 59 19 60 24 62 24 63 30 65
REMARK Flexibility Score: inf
ROOT
ATOM      1  C   UNL     1     -46.671  44.267  24.764  1.00  0.00    -0.044 C 
ATOM      2  H   UNL     1     -47.015  43.248  24.980  1.00  0.00     0.027 H 
ATOM      3  H   UNL     1     -46.983  44.483  23.734  1.00  0.00     0.027 H 
ENDROOT
BRANCH   1   4
ATOM      4  C   UNL     1     -47.389  45.255  25.693  1.00  0.00    -0.027 C 
ATOM      5  H   UNL     1     -48.078  45.864  25.094  1.00  0.00     0.032 H 
ATOM      6  H   UNL     1     -46.677  45.968  26.125  1.00  0.00     0.032 H 
BRANCH   4   7
ATOM      7  C   UNL     1     -48.193  44.585  26.781  1.00  0.00    -0.046 A 
ATOM      8  C   UNL     1     -49.983  40.591  28.649  1.00  0.00     0.124 A 
ATOM      9  C   UNL     1     -50.591  41.272  29.690  1.00  0.00    -0.019 A 
ATOM     10  N   UNL     1     -49.266  41.201  27.692  1.00  0.00    -0.231 NA
ATOM     11  C   UNL     1     -50.442  42.652  29.758  1.00  0.00    -0.049 A 
ATOM     12  H   UNL     1     -51.180  40.742  30.430  1.00  0.00     0.066 H 
ATOM     13  C   UNL     1     -49.121  42.539  27.753  1.00  0.00     0.073 A 
ATOM     14  C   UNL     1     -49.694  43.315  28.779  1.00  0.00     0.000 A 
ATOM     15  H   UNL     1     -50.913  43.202  30.568  1.00  0.00     0.063 H 
ATOM     16  C   UNL     1     -48.382  43.193  26.774  1.00  0.00    -0.033 A 
ATOM     17  C   UNL     1     -49.516  44.707  28.802  1.00  0.00    -0.053 A 
ATOM     18  H   UNL     1     -47.946  42.593  25.978  1.00  0.00     0.065 H 
ATOM     19  C   UNL     1     -48.768  45.338  27.808  1.00  0.00    -0.058 A 
ATOM     20  H   UNL     1     -49.958  45.308  29.593  1.00  0.00     0.063 H 
ATOM     21  H   UNL     1     -48.638  46.416  27.841  1.00  0.00     0.063 H 
BRANCH   8  22
ATOM     22  N   UNL     1     -50.121  39.209  28.534  1.00  0.00    -0.384 N 
ATOM     23  H   UNL     1     -50.881  38.963  27.912  1.00  0.00     0.158 HD
ATOM     24  H   UNL     1     -50.274  38.855  29.475  1.00  0.00     0.158 HD
ENDBRANCH   8  22
ENDBRANCH   4   7
ENDBRANCH   1   4
BRANCH   1  25
ATOM     25  C   UNL     1     -45.136  44.303  24.841  1.00  0.00    -0.010 C 
ATOM     26  C   UNL     1     -44.632  44.302  26.303  1.00  0.00    -0.024 C 
ATOM     27  C   UNL     1     -44.445  43.095  24.194  1.00  0.00     0.085 C 
ATOM     28  H   UNL     1     -44.786  45.227  24.361  1.00  0.00     0.033 H 
ATOM     29  C   UNL     1     -43.464  43.293  26.374  1.00  0.00     0.064 C 
ATOM     30  H   UNL     1     -45.423  44.100  27.031  1.00  0.00     0.029 H 
ATOM     31  H   UNL     1     -44.255  45.307  26.535  1.00  0.00     0.029 H 
ATOM     32  C   UNL     1     -43.092  43.034  24.911  1.00  0.00     0.101 C 
ATOM     33  H   UNL     1     -45.022  42.177  24.349  1.00  0.00     0.063 H 
ATOM     34  H   UNL     1     -42.637  43.767  26.919  1.00  0.00     0.056 H 
ATOM     35  H   UNL     1     -42.578  42.085  24.732  1.00  0.00     0.065 H 
BRANCH  27  36
ATOM     36  O   UNL     1     -44.255  43.290  22.799  1.00  0.00    -0.390 OA
ATOM     37  H   UNL     1     -43.295  43.283  22.630  1.00  0.00     0.211 HD
ENDBRANCH  27  36
BRANCH  29  38
ATOM     38  N   UNL     1     -43.759  42.045  27.076  1.00  0.00    -0.326 N 
ATOM     39  C   UNL     1     -44.703  41.106  26.748  1.00  0.00     0.010 A 
ATOM     40  C   UNL     1     -43.060  41.614  28.178  1.00  0.00     0.146 A 
ATOM     41  C   UNL     1     -44.628  40.055  27.651  1.00  0.00    -0.012 A 
ATOM     42  H   UNL     1     -45.360  41.241  25.901  1.00  0.00     0.082 H 
ATOM     43  C   UNL     1     -43.586  40.393  28.583  1.00  0.00     0.065 A 
ATOM     44  N   UNL     1     -42.040  42.275  28.747  1.00  0.00    -0.218 NA
ATOM     45  C   UNL     1     -42.998  39.818  29.723  1.00  0.00     0.136 A 
ATOM     46  C   UNL     1     -41.552  41.620  29.809  1.00  0.00     0.120 A 
ATOM     47  N   UNL     1     -41.972  40.450  30.324  1.00  0.00    -0.219 NA
ATOM     48  H   UNL     1     -40.717  42.092  30.320  1.00  0.00     0.106 H 
BRANCH  41  49
ATOM     49  C   UNL     1     -45.464  38.812  27.657  1.00  0.00     0.012 C 
ATOM     50  C   UNL     1     -46.371  38.608  26.458  1.00  0.00    -0.020 C 
ATOM     51  C   UNL     1     -46.467  38.744  28.800  1.00  0.00     0.054 C 
ATOM     52  H   UNL     1     -44.810  37.932  27.709  1.00  0.00     0.038 H 
ATOM     53  C   UNL     1     -47.350  37.581  26.988  1.00  0.00     0.047 C 
ATOM     54  H   UNL     1     -46.916  39.523  26.199  1.00  0.00     0.030 H 
ATOM     55  H   UNL     1     -45.844  38.266  25.562  1.00  0.00     0.030 H 
ATOM     56  O   UNL     1     -47.519  37.857  28.385  1.00  0.00    -0.381 OA
ATOM     57  H   UNL     1     -46.020  38.366  29.725  1.00  0.00     0.057 H 
ATOM     58  H   UNL     1     -46.922  39.718  29.017  1.00  0.00     0.057 H 
ATOM     59  H   UNL     1     -46.952  36.565  26.892  1.00  0.00     0.057 H 
ATOM     60  H   UNL     1     -48.320  37.625  26.483  1.00  0.00     0.057 H 
ENDBRANCH  41  49
BRANCH  45  61
ATOM     61  N   UNL     1     -43.413  38.628  30.311  1.00  0.00    -0.383 N 
ATOM     62  H   UNL     1     -42.712  37.902  30.306  1.00  0.00     0.158 HD
ATOM     63  H   UNL     1     -44.307  38.358  29.914  1.00  0.00     0.158 HD
ENDBRANCH  45  61
ENDBRANCH  29  38
BRANCH  32  64
ATOM     64  O   UNL     1     -42.239  44.082  24.427  1.00  0.00    -0.388 OA
ATOM     65  H   UNL     1     -42.690  44.926  24.638  1.00  0.00     0.211 HD
ENDBRANCH  32  64
ENDBRANCH   1  25
TORSDOF 9
ENDMDL
