MODEL 1
REMARK VINA RESULT:      -9.7      0.000      0.000
REMARK SMILES CCCC(=O)c1cn(-c2cncc(COc3ccc4ccc(NC)nc4c3)c2)c2ncnc(N)c12
REMARK SMILES IDX 9 1 10 2 11 3 12 4 13 5 28 6 8 10 6 11 7 12 35 13 29 15
REMARK SMILES IDX 33 16 30 17 32 18 31 19 4 21 5 22 3 23 2 26 1 29 34 33 14 36
REMARK SMILES IDX 15 39 16 40 17 41 27 42 18 43 26 45 19 47 25 49 20 50 22 51
REMARK SMILES IDX 21 52 23 55 24 57
REMARK H PARENT 10 7 12 8 28 9 7 14 31 20 3 24 3 25 2 27 2 28 1 30 1 31 1 32
REMARK H PARENT 34 34 34 35 14 37 14 38 17 44 27 46 18 48 20 53 21 54 23 56
REMARK H PARENT 24 58 24 59 24 60
REMARK Flexibility Score: inf
ROOT
ATOM      1  C   UNL     1     -47.201  32.902  26.023  1.00  0.00     0.066 A 
ATOM      2  C   UNL     1     -46.586  32.452  27.186  1.00  0.00     0.051 A 
ATOM      3  N   UNL     1     -46.047  33.268  28.128  1.00  0.00    -0.262 NA
ATOM      4  C   UNL     1     -46.126  34.596  27.911  1.00  0.00     0.034 A 
ATOM      5  C   UNL     1     -46.726  35.164  26.796  1.00  0.00     0.010 A 
ATOM      6  C   UNL     1     -47.255  34.291  25.834  1.00  0.00    -0.028 A 
ATOM      7  H   UNL     1     -46.499  31.406  27.450  1.00  0.00     0.086 H 
ATOM      8  H   UNL     1     -45.678  35.209  28.690  1.00  0.00     0.084 H 
ATOM      9  H   UNL     1     -47.691  34.731  24.943  1.00  0.00     0.065 H 
ENDROOT
BRANCH   1  10
ATOM     10  N   UNL     1     -47.763  32.002  25.061  1.00  0.00    -0.299 N 
ATOM     11  C   UNL     1     -49.207  30.528  24.108  1.00  0.00     0.049 A 
ATOM     12  C   UNL     1     -48.982  31.361  25.190  1.00  0.00     0.023 A 
ATOM     13  C   UNL     1     -48.118  30.727  23.215  1.00  0.00     0.072 A 
ATOM     14  H   UNL     1     -49.604  31.490  26.066  1.00  0.00     0.083 H 
ATOM     15  C   UNL     1     -47.221  31.593  23.841  1.00  0.00     0.150 A 
ATOM     16  C   UNL     1     -47.770  30.290  21.925  1.00  0.00     0.137 A 
ATOM     17  N   UNL     1     -46.041  31.985  23.322  1.00  0.00    -0.218 NA
ATOM     18  N   UNL     1     -46.588  30.651  21.400  1.00  0.00    -0.219 NA
ATOM     19  C   UNL     1     -45.795  31.458  22.117  1.00  0.00     0.120 A 
ATOM     20  H   UNL     1     -44.846  31.726  21.661  1.00  0.00     0.106 H 
BRANCH  11  21
ATOM     21  C   UNL     1     -50.376  29.654  24.014  1.00  0.00     0.165 C 
ATOM     22  O   UNL     1     -51.485  30.138  23.795  1.00  0.00    -0.294 OA
BRANCH  21  23
ATOM     23  C   UNL     1     -50.199  28.159  24.235  1.00  0.00     0.011 C 
ATOM     24  H   UNL     1     -50.300  27.649  23.270  1.00  0.00     0.035 H 
ATOM     25  H   UNL     1     -50.993  27.803  24.897  1.00  0.00     0.035 H 
BRANCH  23  26
ATOM     26  C   UNL     1     -48.821  27.810  24.798  1.00  0.00    -0.049 C 
ATOM     27  H   UNL     1     -48.091  28.588  24.545  1.00  0.00     0.027 H 
ATOM     28  H   UNL     1     -48.477  26.882  24.327  1.00  0.00     0.027 H 
BRANCH  26  29
ATOM     29  C   UNL     1     -48.830  27.592  26.305  1.00  0.00    -0.065 C 
ATOM     30  H   UNL     1     -49.547  26.807  26.566  1.00  0.00     0.023 H 
ATOM     31  H   UNL     1     -49.125  28.506  26.831  1.00  0.00     0.023 H 
ATOM     32  H   UNL     1     -47.849  27.285  26.676  1.00  0.00     0.023 H 
ENDBRANCH  26  29
ENDBRANCH  23  26
ENDBRANCH  21  23
ENDBRANCH  11  21
BRANCH  16  33
ATOM     33  N   UNL     1     -48.596  29.532  21.102  1.00  0.00    -0.383 N 
ATOM     34  H   UNL     1     -48.099  29.122  20.321  1.00  0.00     0.158 HD
ATOM     35  H   UNL     1     -49.064  28.837  21.680  1.00  0.00     0.158 HD
ENDBRANCH  16  33
ENDBRANCH   1  10
BRANCH   5  36
ATOM     36  C   UNL     1     -46.734  36.661  26.626  1.00  0.00     0.115 C 
ATOM     37  H   UNL     1     -47.619  36.919  26.033  1.00  0.00     0.076 H 
ATOM     38  H   UNL     1     -45.869  37.019  26.053  1.00  0.00     0.076 H 
BRANCH  36  39
ATOM     39  O   UNL     1     -46.857  37.372  27.862  1.00  0.00    -0.489 OA
BRANCH  39  40
ATOM     40  C   UNL     1     -45.810  38.141  28.285  1.00  0.00     0.122 A 
ATOM     41  C   UNL     1     -45.256  37.746  29.502  1.00  0.00    -0.019 A 
ATOM     42  C   UNL     1     -45.260  39.233  27.609  1.00  0.00     0.007 A 
ATOM     43  C   UNL     1     -44.176  38.440  30.042  1.00  0.00    -0.049 A 
ATOM     44  H   UNL     1     -45.671  36.893  30.034  1.00  0.00     0.066 H 
ATOM     45  C   UNL     1     -44.181  39.943  28.125  1.00  0.00     0.076 A 
ATOM     46  H   UNL     1     -45.645  39.562  26.649  1.00  0.00     0.069 H 
ATOM     47  C   UNL     1     -43.637  39.539  29.358  1.00  0.00     0.001 A 
ATOM     48  H   UNL     1     -43.761  38.118  30.994  1.00  0.00     0.063 H 
ATOM     49  N   UNL     1     -43.695  40.988  27.431  1.00  0.00    -0.231 NA
ATOM     50  C   UNL     1     -42.558  40.266  29.863  1.00  0.00    -0.049 A 
ATOM     51  C   UNL     1     -42.644  41.677  27.921  1.00  0.00     0.126 A 
ATOM     52  C   UNL     1     -42.063  41.346  29.141  1.00  0.00    -0.019 A 
ATOM     53  H   UNL     1     -42.104  40.007  30.816  1.00  0.00     0.063 H 
ATOM     54  H   UNL     1     -41.237  41.932  29.532  1.00  0.00     0.066 H 
BRANCH  51  55
ATOM     55  N   UNL     1     -42.133  42.791  27.229  1.00  0.00    -0.373 N 
ATOM     56  H   UNL     1     -41.151  42.627  27.024  1.00  0.00     0.161 HD
BRANCH  55  57
ATOM     57  C   UNL     1     -42.881  43.143  26.034  1.00  0.00     0.005 C 
ATOM     58  H   UNL     1     -43.961  43.037  26.187  1.00  0.00     0.045 H 
ATOM     59  H   UNL     1     -42.595  42.464  25.223  1.00  0.00     0.045 H 
ATOM     60  H   UNL     1     -42.653  44.161  25.700  1.00  0.00     0.045 H 
ENDBRANCH  55  57
ENDBRANCH  51  55
ENDBRANCH  39  40
ENDBRANCH  36  39
ENDBRANCH   5  36
TORSDOF 11
ENDMDL
MODEL 2
REMARK VINA RESULT:      -9.6      1.892      3.088
REMARK SMILES CCCC(=O)c1cn(-c2cncc(COc3ccc4ccc(NC)nc4c3)c2)c2ncnc(N)c12
REMARK SMILES IDX 9 1 10 2 11 3 12 4 13 5 28 6 8 10 6 11 7 12 35 13 29 15
REMARK SMILES IDX 33 16 30 17 32 18 31 19 4 21 5 22 3 23 2 26 1 29 34 33 14 36
REMARK SMILES IDX 15 39 16 40 17 41 27 42 18 43 26 45 19 47 25 49 20 50 22 51
REMARK SMILES IDX 21 52 23 55 24 57
REMARK H PARENT 10 7 12 8 28 9 7 14 31 20 3 24 3 25 2 27 2 28 1 30 1 31 1 32
REMARK H PARENT 34 34 34 35 14 37 14 38 17 44 27 46 18 48 20 53 21 54 23 56
REMARK H PARENT 24 58 24 59 24 60
REMARK Flexibility Score: inf
ROOT
ATOM      1  C   UNL     1     -48.154  31.493  24.950  1.00  0.00     0.066 A 
ATOM      2  C   UNL     1     -46.978  31.757  24.257  1.00  0.00     0.051 A 
ATOM      3  N   UNL     1     -46.246  32.892  24.400  1.00  0.00    -0.262 NA
ATOM      4  C   UNL     1     -46.698  33.809  25.279  1.00  0.00     0.034 A 
ATOM      5  C   UNL     1     -47.849  33.654  26.037  1.00  0.00     0.010 A 
ATOM      6  C   UNL     1     -48.591  32.478  25.849  1.00  0.00    -0.028 A 
ATOM      7  H   UNL     1     -46.533  31.068  23.550  1.00  0.00     0.086 H 
ATOM      8  H   UNL     1     -46.081  34.701  25.357  1.00  0.00     0.084 H 
ATOM      9  H   UNL     1     -49.512  32.370  26.412  1.00  0.00     0.065 H 
ENDROOT
BRANCH   1  10
ATOM     10  N   UNL     1     -48.888  30.277  24.770  1.00  0.00    -0.299 N 
ATOM     11  C   UNL     1     -49.559  28.126  25.071  1.00  0.00     0.049 A 
ATOM     12  C   UNL     1     -48.732  29.134  25.535  1.00  0.00     0.023 A 
ATOM     13  C   UNL     1     -50.337  28.694  24.025  1.00  0.00     0.072 A 
ATOM     14  H   UNL     1     -48.006  29.078  26.335  1.00  0.00     0.083 H 
ATOM     15  C   UNL     1     -49.874  29.994  23.823  1.00  0.00     0.150 A 
ATOM     16  C   UNL     1     -51.405  28.276  23.212  1.00  0.00     0.137 A 
ATOM     17  N   UNL     1     -50.338  30.838  22.880  1.00  0.00    -0.218 NA
ATOM     18  N   UNL     1     -51.865  29.093  22.251  1.00  0.00    -0.219 NA
ATOM     19  C   UNL     1     -51.311  30.307  22.132  1.00  0.00     0.120 A 
ATOM     20  H   UNL     1     -51.708  30.939  21.342  1.00  0.00     0.106 H 
BRANCH  11  21
ATOM     21  C   UNL     1     -49.545  26.774  25.630  1.00  0.00     0.165 C 
ATOM     22  O   UNL     1     -50.453  25.991  25.358  1.00  0.00    -0.294 OA
BRANCH  21  23
ATOM     23  C   UNL     1     -48.424  26.380  26.579  1.00  0.00     0.011 C 
ATOM     24  H   UNL     1     -48.853  25.804  27.407  1.00  0.00     0.035 H 
ATOM     25  H   UNL     1     -47.971  27.286  26.989  1.00  0.00     0.035 H 
BRANCH  23  26
ATOM     26  C   UNL     1     -47.370  25.499  25.905  1.00  0.00    -0.049 C 
ATOM     27  H   UNL     1     -47.843  24.782  25.225  1.00  0.00     0.027 H 
ATOM     28  H   UNL     1     -46.856  24.917  26.679  1.00  0.00     0.027 H 
BRANCH  26  29
ATOM     29  C   UNL     1     -46.318  26.301  25.150  1.00  0.00    -0.065 C 
ATOM     30  H   UNL     1     -45.324  25.882  25.334  1.00  0.00     0.023 H 
ATOM     31  H   UNL     1     -46.311  27.345  25.479  1.00  0.00     0.023 H 
ATOM     32  H   UNL     1     -46.493  26.283  24.071  1.00  0.00     0.023 H 
ENDBRANCH  26  29
ENDBRANCH  23  26
ENDBRANCH  21  23
ENDBRANCH  11  21
BRANCH  16  33
ATOM     33  N   UNL     1     -52.077  27.067  23.357  1.00  0.00    -0.383 N 
ATOM     34  H   UNL     1     -52.126  26.541  22.493  1.00  0.00     0.158 HD
ATOM     35  H   UNL     1     -51.631  26.547  24.110  1.00  0.00     0.158 HD
ENDBRANCH  16  33
ENDBRANCH   1  10
BRANCH   5  36
ATOM     36  C   UNL     1     -48.291  34.752  26.968  1.00  0.00     0.115 C 
ATOM     37  H   UNL     1     -47.868  34.535  27.956  1.00  0.00     0.076 H 
ATOM     38  H   UNL     1     -49.380  34.771  27.101  1.00  0.00     0.076 H 
BRANCH  36  39
ATOM     39  O   UNL     1     -47.799  36.043  26.596  1.00  0.00    -0.489 OA
BRANCH  39  40
ATOM     40  C   UNL     1     -46.905  36.668  27.419  1.00  0.00     0.122 A 
ATOM     41  C   UNL     1     -46.703  36.031  28.643  1.00  0.00    -0.019 A 
ATOM     42  C   UNL     1     -46.192  37.834  27.133  1.00  0.00     0.007 A 
ATOM     43  C   UNL     1     -45.810  36.558  29.572  1.00  0.00    -0.049 A 
ATOM     44  H   UNL     1     -47.248  35.118  28.875  1.00  0.00     0.066 H 
ATOM     45  C   UNL     1     -45.293  38.382  28.042  1.00  0.00     0.076 A 
ATOM     46  H   UNL     1     -46.301  38.352  26.185  1.00  0.00     0.069 H 
ATOM     47  C   UNL     1     -45.105  37.734  29.276  1.00  0.00     0.001 A 
ATOM     48  H   UNL     1     -45.670  36.049  30.522  1.00  0.00     0.063 H 
ATOM     49  N   UNL     1     -44.636  39.509  27.712  1.00  0.00    -0.231 NA
ATOM     50  C   UNL     1     -44.203  38.301  30.179  1.00  0.00    -0.049 A 
ATOM     51  C   UNL     1     -43.758  40.043  28.586  1.00  0.00     0.126 A 
ATOM     52  C   UNL     1     -43.530  39.467  29.831  1.00  0.00    -0.019 A 
ATOM     53  H   UNL     1     -44.025  37.850  31.151  1.00  0.00     0.063 H 
ATOM     54  H   UNL     1     -42.840  39.928  30.532  1.00  0.00     0.066 H 
BRANCH  51  55
ATOM     55  N   UNL     1     -43.077  41.235  28.278  1.00  0.00    -0.373 N 
ATOM     56  H   UNL     1     -42.108  41.145  28.570  1.00  0.00     0.161 HD
BRANCH  55  57
ATOM     57  C   UNL     1     -43.184  41.638  26.886  1.00  0.00     0.005 C 
ATOM     58  H   UNL     1     -42.608  42.549  26.683  1.00  0.00     0.045 H 
ATOM     59  H   UNL     1     -44.233  41.854  26.659  1.00  0.00     0.045 H 
ATOM     60  H   UNL     1     -42.863  40.839  26.208  1.00  0.00     0.045 H 
ENDBRANCH  55  57
ENDBRANCH  51  55
ENDBRANCH  39  40
ENDBRANCH  36  39
ENDBRANCH   5  36
TORSDOF 11
ENDMDL
MODEL 3
REMARK VINA RESULT:      -9.5      2.145     11.198
REMARK SMILES CCCC(=O)c1cn(-c2cncc(COc3ccc4ccc(NC)nc4c3)c2)c2ncnc(N)c12
REMARK SMILES IDX 9 1 10 2 11 3 12 4 13 5 28 6 8 10 6 11 7 12 35 13 29 15
REMARK SMILES IDX 33 16 30 17 32 18 31 19 4 21 5 22 3 23 2 26 1 29 34 33 14 36
REMARK SMILES IDX 15 39 16 40 17 41 27 42 18 43 26 45 19 47 25 49 20 50 22 51
REMARK SMILES IDX 21 52 23 55 24 57
REMARK H PARENT 10 7 12 8 28 9 7 14 31 20 3 24 3 25 2 27 2 28 1 30 1 31 1 32
REMARK H PARENT 34 34 34 35 14 37 14 38 17 44 27 46 18 48 20 53 21 54 23 56
REMARK H PARENT 24 58 24 59 24 60
REMARK Flexibility Score: inf
ROOT
ATOM      1  C   UNL     1     -45.287  38.241  28.675  1.00  0.00     0.066 A 
ATOM      2  C   UNL     1     -45.625  38.114  30.017  1.00  0.00     0.051 A 
ATOM      3  N   UNL     1     -46.063  36.961  30.588  1.00  0.00    -0.262 NA
ATOM      4  C   UNL     1     -46.164  35.879  29.790  1.00  0.00     0.034 A 
ATOM      5  C   UNL     1     -45.844  35.879  28.441  1.00  0.00     0.010 A 
ATOM      6  C   UNL     1     -45.415  37.092  27.880  1.00  0.00    -0.028 A 
ATOM      7  H   UNL     1     -45.553  38.924  30.732  1.00  0.00     0.086 H 
ATOM      8  H   UNL     1     -46.521  34.982  30.290  1.00  0.00     0.084 H 
ATOM      9  H   UNL     1     -45.200  37.105  26.816  1.00  0.00     0.065 H 
ENDROOT
BRANCH   1  10
ATOM     10  N   UNL     1     -44.824  39.477  28.120  1.00  0.00    -0.299 N 
ATOM     11  C   UNL     1     -44.674  41.265  26.725  1.00  0.00     0.049 A 
ATOM     12  C   UNL     1     -45.387  40.119  27.032  1.00  0.00     0.023 A 
ATOM     13  C   UNL     1     -43.672  41.395  27.725  1.00  0.00     0.072 A 
ATOM     14  H   UNL     1     -46.234  39.705  26.500  1.00  0.00     0.083 H 
ATOM     15  C   UNL     1     -43.749  40.263  28.538  1.00  0.00     0.150 A 
ATOM     16  C   UNL     1     -42.696  42.347  28.068  1.00  0.00     0.137 A 
ATOM     17  N   UNL     1     -42.928  40.003  29.575  1.00  0.00    -0.218 NA
ATOM     18  N   UNL     1     -41.854  42.096  29.083  1.00  0.00    -0.219 NA
ATOM     19  C   UNL     1     -42.005  40.953  29.766  1.00  0.00     0.120 A 
ATOM     20  H   UNL     1     -41.303  40.784  30.578  1.00  0.00     0.106 H 
BRANCH  11  21
ATOM     21  C   UNL     1     -44.985  42.102  25.566  1.00  0.00     0.165 C 
ATOM     22  O   UNL     1     -46.006  42.786  25.561  1.00  0.00    -0.294 OA
BRANCH  21  23
ATOM     23  C   UNL     1     -44.053  42.071  24.364  1.00  0.00     0.011 C 
ATOM     24  H   UNL     1     -44.552  41.536  23.548  1.00  0.00     0.035 H 
ATOM     25  H   UNL     1     -43.146  41.521  24.631  1.00  0.00     0.035 H 
BRANCH  23  26
ATOM     26  C   UNL     1     -43.710  43.472  23.853  1.00  0.00    -0.049 C 
ATOM     27  H   UNL     1     -44.139  44.238  24.509  1.00  0.00     0.027 H 
ATOM     28  H   UNL     1     -44.166  43.604  22.865  1.00  0.00     0.027 H 
BRANCH  26  29
ATOM     29  C   UNL     1     -42.212  43.704  23.710  1.00  0.00    -0.065 C 
ATOM     30  H   UNL     1     -41.834  43.177  22.829  1.00  0.00     0.023 H 
ATOM     31  H   UNL     1     -41.673  43.329  24.585  1.00  0.00     0.023 H 
ATOM     32  H   UNL     1     -41.976  44.765  23.591  1.00  0.00     0.023 H 
ENDBRANCH  26  29
ENDBRANCH  23  26
ENDBRANCH  21  23
ENDBRANCH  11  21
BRANCH  16  33
ATOM     33  N   UNL     1     -42.559  43.588  27.455  1.00  0.00    -0.383 N 
ATOM     34  H   UNL     1     -43.379  43.853  26.922  1.00  0.00     0.158 HD
ATOM     35  H   UNL     1     -42.318  44.268  28.172  1.00  0.00     0.158 HD
ENDBRANCH  16  33
ENDBRANCH   1  10
BRANCH   5  36
ATOM     36  C   UNL     1     -46.024  34.626  27.624  1.00  0.00     0.115 C 
ATOM     37  H   UNL     1     -46.271  33.815  28.319  1.00  0.00     0.076 H 
ATOM     38  H   UNL     1     -45.098  34.323  27.119  1.00  0.00     0.076 H 
BRANCH  36  39
ATOM     39  O   UNL     1     -47.110  34.705  26.696  1.00  0.00    -0.489 OA
BRANCH  39  40
ATOM     40  C   UNL     1     -47.391  33.616  25.919  1.00  0.00     0.122 A 
ATOM     41  C   UNL     1     -48.687  33.124  26.061  1.00  0.00    -0.019 A 
ATOM     42  C   UNL     1     -46.523  32.999  25.016  1.00  0.00     0.007 A 
ATOM     43  C   UNL     1     -49.106  32.022  25.320  1.00  0.00    -0.049 A 
ATOM     44  H   UNL     1     -49.375  33.601  26.756  1.00  0.00     0.066 H 
ATOM     45  C   UNL     1     -46.915  31.898  24.262  1.00  0.00     0.076 A 
ATOM     46  H   UNL     1     -45.512  33.361  24.857  1.00  0.00     0.069 H 
ATOM     47  C   UNL     1     -48.223  31.405  24.421  1.00  0.00     0.001 A 
ATOM     48  H   UNL     1     -50.120  31.651  25.447  1.00  0.00     0.063 H 
ATOM     49  N   UNL     1     -46.035  31.342  23.410  1.00  0.00    -0.231 NA
ATOM     50  C   UNL     1     -48.599  30.296  23.661  1.00  0.00    -0.049 A 
ATOM     51  C   UNL     1     -46.411  30.278  22.671  1.00  0.00     0.126 A 
ATOM     52  C   UNL     1     -47.682  29.727  22.784  1.00  0.00    -0.019 A 
ATOM     53  H   UNL     1     -49.593  29.866  23.749  1.00  0.00     0.063 H 
ATOM     54  H   UNL     1     -47.956  28.852  22.201  1.00  0.00     0.066 H 
BRANCH  51  55
ATOM     55  N   UNL     1     -45.502  29.661  21.791  1.00  0.00    -0.373 N 
ATOM     56  H   UNL     1     -44.993  30.381  21.287  1.00  0.00     0.161 HD
BRANCH  55  57
ATOM     57  C   UNL     1     -44.603  28.715  22.432  1.00  0.00     0.005 C 
ATOM     58  H   UNL     1     -43.560  29.048  22.378  1.00  0.00     0.045 H 
ATOM     59  H   UNL     1     -44.671  27.754  21.912  1.00  0.00     0.045 H 
ATOM     60  H   UNL     1     -44.882  28.539  23.476  1.00  0.00     0.045 H 
ENDBRANCH  55  57
ENDBRANCH  51  55
ENDBRANCH  39  40
ENDBRANCH  36  39
ENDBRANCH   5  36
TORSDOF 11
ENDMDL
MODEL 4
REMARK VINA RESULT:      -9.2      2.211     11.413
REMARK SMILES CCCC(=O)c1cn(-c2cncc(COc3ccc4ccc(NC)nc4c3)c2)c2ncnc(N)c12
REMARK SMILES IDX 9 1 10 2 11 3 12 4 13 5 28 6 8 10 6 11 7 12 35 13 29 15
REMARK SMILES IDX 33 16 30 17 32 18 31 19 4 21 5 22 3 23 2 26 1 29 34 33 14 36
REMARK SMILES IDX 15 39 16 40 17 41 27 42 18 43 26 45 19 47 25 49 20 50 22 51
REMARK SMILES IDX 21 52 23 55 24 57
REMARK H PARENT 10 7 12 8 28 9 7 14 31 20 3 24 3 25 2 27 2 28 1 30 1 31 1 32
REMARK H PARENT 34 34 34 35 14 37 14 38 17 44 27 46 18 48 20 53 21 54 23 56
REMARK H PARENT 24 58 24 59 24 60
REMARK Flexibility Score: inf
ROOT
ATOM      1  C   UNL     1     -45.860  38.228  28.135  1.00  0.00     0.066 A 
ATOM      2  C   UNL     1     -45.722  37.736  29.428  1.00  0.00     0.051 A 
ATOM      3  N   UNL     1     -46.300  36.591  29.874  1.00  0.00    -0.262 NA
ATOM      4  C   UNL     1     -47.049  35.895  28.995  1.00  0.00     0.034 A 
ATOM      5  C   UNL     1     -47.250  36.278  27.677  1.00  0.00     0.010 A 
ATOM      6  C   UNL     1     -46.654  37.476  27.255  1.00  0.00    -0.028 A 
ATOM      7  H   UNL     1     -45.123  38.217  30.191  1.00  0.00     0.086 H 
ATOM      8  H   UNL     1     -47.494  34.989  29.398  1.00  0.00     0.084 H 
ATOM      9  H   UNL     1     -46.840  37.799  26.236  1.00  0.00     0.065 H 
ENDROOT
BRANCH   1  10
ATOM     10  N   UNL     1     -45.224  39.438  27.709  1.00  0.00    -0.299 N 
ATOM     11  C   UNL     1     -44.766  41.280  26.459  1.00  0.00     0.049 A 
ATOM     12  C   UNL     1     -45.617  40.202  26.624  1.00  0.00     0.023 A 
ATOM     13  C   UNL     1     -43.851  41.240  27.547  1.00  0.00     0.072 A 
ATOM     14  H   UNL     1     -46.449  39.914  25.995  1.00  0.00     0.083 H 
ATOM     15  C   UNL     1     -44.117  40.076  28.269  1.00  0.00     0.150 A 
ATOM     16  C   UNL     1     -42.818  42.059  28.036  1.00  0.00     0.137 A 
ATOM     17  N   UNL     1     -43.425  39.667  29.351  1.00  0.00    -0.218 NA
ATOM     18  N   UNL     1     -42.102  41.657  29.099  1.00  0.00    -0.219 NA
ATOM     19  C   UNL     1     -42.431  40.499  29.685  1.00  0.00     0.120 A 
ATOM     20  H   UNL     1     -41.827  40.206  30.540  1.00  0.00     0.106 H 
BRANCH  11  21
ATOM     21  C   UNL     1     -44.881  42.214  25.339  1.00  0.00     0.165 C 
ATOM     22  O   UNL     1     -44.113  42.122  24.383  1.00  0.00    -0.294 OA
BRANCH  21  23
ATOM     23  C   UNL     1     -45.928  43.316  25.403  1.00  0.00     0.011 C 
ATOM     24  H   UNL     1     -46.616  43.097  26.229  1.00  0.00     0.035 H 
ATOM     25  H   UNL     1     -46.501  43.316  24.472  1.00  0.00     0.035 H 
BRANCH  23  26
ATOM     26  C   UNL     1     -45.314  44.691  25.668  1.00  0.00    -0.049 C 
ATOM     27  H   UNL     1     -45.632  45.410  24.904  1.00  0.00     0.027 H 
ATOM     28  H   UNL     1     -44.224  44.606  25.595  1.00  0.00     0.027 H 
BRANCH  26  29
ATOM     29  C   UNL     1     -45.647  45.237  27.050  1.00  0.00    -0.065 C 
ATOM     30  H   UNL     1     -46.720  45.443  27.124  1.00  0.00     0.023 H 
ATOM     31  H   UNL     1     -45.111  46.172  27.241  1.00  0.00     0.023 H 
ATOM     32  H   UNL     1     -45.389  44.526  27.839  1.00  0.00     0.023 H 
ENDBRANCH  26  29
ENDBRANCH  23  26
ENDBRANCH  21  23
ENDBRANCH  11  21
BRANCH  16  33
ATOM     33  N   UNL     1     -42.499  43.312  27.525  1.00  0.00    -0.383 N 
ATOM     34  H   UNL     1     -42.302  43.991  28.250  1.00  0.00     0.158 HD
ATOM     35  H   UNL     1     -41.729  43.198  26.870  1.00  0.00     0.158 HD
ENDBRANCH  16  33
ENDBRANCH   1  10
BRANCH   5  36
ATOM     36  C   UNL     1     -48.133  35.451  26.779  1.00  0.00     0.115 C 
ATOM     37  H   UNL     1     -47.713  35.504  25.767  1.00  0.00     0.076 H 
ATOM     38  H   UNL     1     -49.150  35.857  26.708  1.00  0.00     0.076 H 
BRANCH  36  39
ATOM     39  O   UNL     1     -48.159  34.064  27.131  1.00  0.00    -0.489 OA
BRANCH  39  40
ATOM     40  C   UNL     1     -47.785  33.142  26.193  1.00  0.00     0.122 A 
ATOM     41  C   UNL     1     -46.725  33.540  25.381  1.00  0.00    -0.019 A 
ATOM     42  C   UNL     1     -48.346  31.876  26.010  1.00  0.00     0.007 A 
ATOM     43  C   UNL     1     -46.239  32.690  24.391  1.00  0.00    -0.049 A 
ATOM     44  H   UNL     1     -46.275  34.521  25.519  1.00  0.00     0.066 H 
ATOM     45  C   UNL     1     -47.880  31.006  25.029  1.00  0.00     0.076 A 
ATOM     46  H   UNL     1     -49.158  31.516  26.633  1.00  0.00     0.069 H 
ATOM     47  C   UNL     1     -46.815  31.424  24.210  1.00  0.00     0.001 A 
ATOM     48  H   UNL     1     -45.414  33.020  23.765  1.00  0.00     0.063 H 
ATOM     49  N   UNL     1     -48.461  29.800  24.897  1.00  0.00    -0.231 NA
ATOM     50  C   UNL     1     -46.364  30.541  23.228  1.00  0.00    -0.049 A 
ATOM     51  C   UNL     1     -48.010  28.949  23.953  1.00  0.00     0.126 A 
ATOM     52  C   UNL     1     -46.971  29.297  23.096  1.00  0.00    -0.019 A 
ATOM     53  H   UNL     1     -45.551  30.812  22.560  1.00  0.00     0.063 H 
ATOM     54  H   UNL     1     -46.642  28.608  22.324  1.00  0.00     0.066 H 
BRANCH  51  55
ATOM     55  N   UNL     1     -48.617  27.691  23.774  1.00  0.00    -0.373 N 
ATOM     56  H   UNL     1     -48.168  27.218  22.996  1.00  0.00     0.161 HD
BRANCH  55  57
ATOM     57  C   UNL     1     -48.635  26.865  24.970  1.00  0.00     0.005 C 
ATOM     58  H   UNL     1     -47.675  26.896  25.498  1.00  0.00     0.045 H 
ATOM     59  H   UNL     1     -48.820  25.826  24.680  1.00  0.00     0.045 H 
ATOM     60  H   UNL     1     -49.441  27.160  25.651  1.00  0.00     0.045 H 
ENDBRANCH  55  57
ENDBRANCH  51  55
ENDBRANCH  39  40
ENDBRANCH  36  39
ENDBRANCH   5  36
TORSDOF 11
ENDMDL
MODEL 5
REMARK VINA RESULT:      -9.2      1.602      2.364
REMARK SMILES CCCC(=O)c1cn(-c2cncc(COc3ccc4ccc(NC)nc4c3)c2)c2ncnc(N)c12
REMARK SMILES IDX 9 1 10 2 11 3 12 4 13 5 28 6 8 10 6 11 7 12 35 13 29 15
REMARK SMILES IDX 33 16 30 17 32 18 31 19 4 21 5 22 3 23 2 26 1 29 34 33 14 36
REMARK SMILES IDX 15 39 16 40 17 41 27 42 18 43 26 45 19 47 25 49 20 50 22 51
REMARK SMILES IDX 21 52 23 55 24 57
REMARK H PARENT 10 7 12 8 28 9 7 14 31 20 3 24 3 25 2 27 2 28 1 30 1 31 1 32
REMARK H PARENT 34 34 34 35 14 37 14 38 17 44 27 46 18 48 20 53 21 54 23 56
REMARK H PARENT 24 58 24 59 24 60
REMARK Flexibility Score: inf
ROOT
ATOM      1  C   UNL     1     -48.248  32.648  25.930  1.00  0.00     0.066 A 
ATOM      2  C   UNL     1     -49.470  33.275  26.149  1.00  0.00     0.051 A 
ATOM      3  N   UNL     1     -49.608  34.493  26.733  1.00  0.00    -0.262 NA
ATOM      4  C   UNL     1     -48.480  35.125  27.114  1.00  0.00     0.034 A 
ATOM      5  C   UNL     1     -47.206  34.608  26.938  1.00  0.00     0.010 A 
ATOM      6  C   UNL     1     -47.101  33.338  26.350  1.00  0.00    -0.028 A 
ATOM      7  H   UNL     1     -50.422  32.850  25.855  1.00  0.00     0.086 H 
ATOM      8  H   UNL     1     -48.641  36.095  27.580  1.00  0.00     0.084 H 
ATOM      9  H   UNL     1     -46.108  32.913  26.244  1.00  0.00     0.065 H 
ENDROOT
BRANCH   1  10
ATOM     10  N   UNL     1     -48.152  31.364  25.304  1.00  0.00    -0.299 N 
ATOM     11  C   UNL     1     -48.449  29.140  24.943  1.00  0.00     0.049 A 
ATOM     12  C   UNL     1     -48.786  30.216  25.745  1.00  0.00     0.023 A 
ATOM     13  C   UNL     1     -47.640  29.658  23.895  1.00  0.00     0.072 A 
ATOM     14  H   UNL     1     -49.402  30.210  26.635  1.00  0.00     0.083 H 
ATOM     15  C   UNL     1     -47.428  31.010  24.164  1.00  0.00     0.150 A 
ATOM     16  C   UNL     1     -47.055  29.154  22.720  1.00  0.00     0.137 A 
ATOM     17  N   UNL     1     -46.669  31.835  23.415  1.00  0.00    -0.218 NA
ATOM     18  N   UNL     1     -46.276  29.954  21.972  1.00  0.00    -0.219 NA
ATOM     19  C   UNL     1     -46.120  31.227  22.357  1.00  0.00     0.120 A 
ATOM     20  H   UNL     1     -45.480  31.842  21.730  1.00  0.00     0.106 H 
BRANCH  11  21
ATOM     21  C   UNL     1     -48.899  27.776  25.221  1.00  0.00     0.165 C 
ATOM     22  O   UNL     1     -49.427  27.112  24.331  1.00  0.00    -0.294 OA
BRANCH  21  23
ATOM     23  C   UNL     1     -48.744  27.221  26.629  1.00  0.00     0.011 C 
ATOM     24  H   UNL     1     -49.653  27.450  27.197  1.00  0.00     0.035 H 
ATOM     25  H   UNL     1     -47.900  27.719  27.116  1.00  0.00     0.035 H 
BRANCH  23  26
ATOM     26  C   UNL     1     -48.563  25.702  26.643  1.00  0.00    -0.049 C 
ATOM     27  H   UNL     1     -49.179  25.233  25.867  1.00  0.00     0.027 H 
ATOM     28  H   UNL     1     -48.915  25.318  27.608  1.00  0.00     0.027 H 
BRANCH  26  29
ATOM     29  C   UNL     1     -47.112  25.272  26.471  1.00  0.00    -0.065 C 
ATOM     30  H   UNL     1     -46.918  25.019  25.424  1.00  0.00     0.023 H 
ATOM     31  H   UNL     1     -46.892  24.388  27.078  1.00  0.00     0.023 H 
ATOM     32  H   UNL     1     -46.418  26.067  26.757  1.00  0.00     0.023 H 
ENDBRANCH  26  29
ENDBRANCH  23  26
ENDBRANCH  21  23
ENDBRANCH  11  21
BRANCH  16  33
ATOM     33  N   UNL     1     -47.263  27.871  22.226  1.00  0.00    -0.383 N 
ATOM     34  H   UNL     1     -46.762  27.164  22.752  1.00  0.00     0.158 HD
ATOM     35  H   UNL     1     -48.266  27.704  22.196  1.00  0.00     0.158 HD
ENDBRANCH  16  33
ENDBRANCH   1  10
BRANCH   5  36
ATOM     36  C   UNL     1     -46.006  35.376  27.430  1.00  0.00     0.115 C 
ATOM     37  H   UNL     1     -45.475  35.753  26.548  1.00  0.00     0.076 H 
ATOM     38  H   UNL     1     -45.293  34.735  27.964  1.00  0.00     0.076 H 
BRANCH  36  39
ATOM     39  O   UNL     1     -46.350  36.522  28.214  1.00  0.00    -0.489 OA
BRANCH  39  40
ATOM     40  C   UNL     1     -45.968  37.758  27.772  1.00  0.00     0.122 A 
ATOM     41  C   UNL     1     -46.755  38.273  26.743  1.00  0.00    -0.019 A 
ATOM     42  C   UNL     1     -44.908  38.522  28.267  1.00  0.00     0.007 A 
ATOM     43  C   UNL     1     -46.479  39.529  26.208  1.00  0.00    -0.049 A 
ATOM     44  H   UNL     1     -47.588  37.691  26.355  1.00  0.00     0.066 H 
ATOM     45  C   UNL     1     -44.611  39.779  27.751  1.00  0.00     0.076 A 
ATOM     46  H   UNL     1     -44.282  38.170  29.081  1.00  0.00     0.069 H 
ATOM     47  C   UNL     1     -45.407  40.283  26.707  1.00  0.00     0.001 A 
ATOM     48  H   UNL     1     -47.102  39.912  25.403  1.00  0.00     0.063 H 
ATOM     49  N   UNL     1     -43.575  40.467  28.265  1.00  0.00    -0.231 NA
ATOM     50  C   UNL     1     -45.092  41.544  26.198  1.00  0.00    -0.049 A 
ATOM     51  C   UNL     1     -43.286  41.690  27.775  1.00  0.00     0.126 A 
ATOM     52  C   UNL     1     -44.019  42.249  26.734  1.00  0.00    -0.019 A 
ATOM     53  H   UNL     1     -45.666  41.981  25.385  1.00  0.00     0.063 H 
ATOM     54  H   UNL     1     -43.752  43.222  26.334  1.00  0.00     0.066 H 
BRANCH  51  55
ATOM     55  N   UNL     1     -42.192  42.421  28.276  1.00  0.00    -0.373 N 
ATOM     56  H   UNL     1     -42.542  43.227  28.786  1.00  0.00     0.161 HD
BRANCH  55  57
ATOM     57  C   UNL     1     -41.269  41.635  29.077  1.00  0.00     0.005 C 
ATOM     58  H   UNL     1     -40.293  41.535  28.588  1.00  0.00     0.045 H 
ATOM     59  H   UNL     1     -41.679  40.628  29.205  1.00  0.00     0.045 H 
ATOM     60  H   UNL     1     -41.138  42.062  30.077  1.00  0.00     0.045 H 
ENDBRANCH  55  57
ENDBRANCH  51  55
ENDBRANCH  39  40
ENDBRANCH  36  39
ENDBRANCH   5  36
TORSDOF 11
ENDMDL
MODEL 6
REMARK VINA RESULT:      -9.0      2.814     11.320
REMARK SMILES CCCC(=O)c1cn(-c2cncc(COc3ccc4ccc(NC)nc4c3)c2)c2ncnc(N)c12
REMARK SMILES IDX 9 1 10 2 11 3 12 4 13 5 28 6 8 10 6 11 7 12 35 13 29 15
REMARK SMILES IDX 33 16 30 17 32 18 31 19 4 21 5 22 3 23 2 26 1 29 34 33 14 36
REMARK SMILES IDX 15 39 16 40 17 41 27 42 18 43 26 45 19 47 25 49 20 50 22 51
REMARK SMILES IDX 21 52 23 55 24 57
REMARK H PARENT 10 7 12 8 28 9 7 14 31 20 3 24 3 25 2 27 2 28 1 30 1 31 1 32
REMARK H PARENT 34 34 34 35 14 37 14 38 17 44 27 46 18 48 20 53 21 54 23 56
REMARK H PARENT 24 58 24 59 24 60
REMARK Flexibility Score: inf
ROOT
ATOM      1  C   UNL     1     -46.748  35.505  27.231  1.00  0.00     0.066 A 
ATOM      2  C   UNL     1     -46.335  34.750  28.324  1.00  0.00     0.051 A 
ATOM      3  N   UNL     1     -46.145  33.406  28.294  1.00  0.00    -0.262 NA
ATOM      4  C   UNL     1     -46.369  32.778  27.122  1.00  0.00     0.034 A 
ATOM      5  C   UNL     1     -46.771  33.424  25.962  1.00  0.00     0.010 A 
ATOM      6  C   UNL     1     -46.977  34.810  26.034  1.00  0.00    -0.028 A 
ATOM      7  H   UNL     1     -46.111  35.175  29.294  1.00  0.00     0.086 H 
ATOM      8  H   UNL     1     -46.208  31.703  27.148  1.00  0.00     0.084 H 
ATOM      9  H   UNL     1     -47.328  35.313  25.139  1.00  0.00     0.065 H 
ENDROOT
BRANCH   1  10
ATOM     10  N   UNL     1     -46.928  36.924  27.310  1.00  0.00    -0.299 N 
ATOM     11  C   UNL     1     -46.440  39.142  27.239  1.00  0.00     0.049 A 
ATOM     12  C   UNL     1     -45.956  37.864  27.019  1.00  0.00     0.023 A 
ATOM     13  C   UNL     1     -47.809  38.998  27.597  1.00  0.00     0.072 A 
ATOM     14  H   UNL     1     -44.957  37.578  26.719  1.00  0.00     0.083 H 
ATOM     15  C   UNL     1     -48.072  37.630  27.685  1.00  0.00     0.150 A 
ATOM     16  C   UNL     1     -48.888  39.861  27.851  1.00  0.00     0.137 A 
ATOM     17  N   UNL     1     -49.256  37.096  28.045  1.00  0.00    -0.218 NA
ATOM     18  N   UNL     1     -50.070  39.349  28.234  1.00  0.00    -0.219 NA
ATOM     19  C   UNL     1     -50.187  38.017  28.318  1.00  0.00     0.120 A 
ATOM     20  H   UNL     1     -51.156  37.641  28.633  1.00  0.00     0.106 H 
BRANCH  11  21
ATOM     21  C   UNL     1     -45.607  40.336  27.100  1.00  0.00     0.165 C 
ATOM     22  O   UNL     1     -46.136  41.442  26.999  1.00  0.00    -0.294 OA
BRANCH  21  23
ATOM     23  C   UNL     1     -44.095  40.178  27.036  1.00  0.00     0.011 C 
ATOM     24  H   UNL     1     -43.727  40.700  26.145  1.00  0.00     0.035 H 
ATOM     25  H   UNL     1     -43.854  39.117  26.937  1.00  0.00     0.035 H 
BRANCH  23  26
ATOM     26  C   UNL     1     -43.392  40.788  28.250  1.00  0.00    -0.049 C 
ATOM     27  H   UNL     1     -42.887  40.011  28.835  1.00  0.00     0.027 H 
ATOM     28  H   UNL     1     -44.150  41.239  28.902  1.00  0.00     0.027 H 
BRANCH  26  29
ATOM     29  C   UNL     1     -42.392  41.874  27.876  1.00  0.00    -0.065 C 
ATOM     30  H   UNL     1     -42.590  42.781  28.456  1.00  0.00     0.023 H 
ATOM     31  H   UNL     1     -42.471  42.129  26.814  1.00  0.00     0.023 H 
ATOM     32  H   UNL     1     -41.364  41.566  28.080  1.00  0.00     0.023 H 
ENDBRANCH  26  29
ENDBRANCH  23  26
ENDBRANCH  21  23
ENDBRANCH  11  21
BRANCH  16  33
ATOM     33  N   UNL     1     -48.847  41.241  27.686  1.00  0.00    -0.383 N 
ATOM     34  H   UNL     1     -47.941  41.634  27.911  1.00  0.00     0.158 HD
ATOM     35  H   UNL     1     -49.145  41.454  26.737  1.00  0.00     0.158 HD
ENDBRANCH  16  33
ENDBRANCH   1  10
BRANCH   5  36
ATOM     36  C   UNL     1     -47.031  32.629  24.709  1.00  0.00     0.115 C 
ATOM     37  H   UNL     1     -46.560  31.648  24.840  1.00  0.00     0.076 H 
ATOM     38  H   UNL     1     -46.558  33.079  23.826  1.00  0.00     0.076 H 
BRANCH  36  39
ATOM     39  O   UNL     1     -48.420  32.380  24.473  1.00  0.00    -0.489 OA
BRANCH  39  40
ATOM     40  C   UNL     1     -48.860  31.085  24.449  1.00  0.00     0.122 A 
ATOM     41  C   UNL     1     -49.722  30.788  23.395  1.00  0.00    -0.019 A 
ATOM     42  C   UNL     1     -48.508  30.076  25.347  1.00  0.00     0.007 A 
ATOM     43  C   UNL     1     -50.237  29.502  23.248  1.00  0.00    -0.049 A 
ATOM     44  H   UNL     1     -49.998  31.564  22.684  1.00  0.00     0.066 H 
ATOM     45  C   UNL     1     -49.006  28.783  25.224  1.00  0.00     0.076 A 
ATOM     46  H   UNL     1     -47.823  30.257  26.169  1.00  0.00     0.069 H 
ATOM     47  C   UNL     1     -49.883  28.498  24.162  1.00  0.00     0.001 A 
ATOM     48  H   UNL     1     -50.911  29.291  22.422  1.00  0.00     0.063 H 
ATOM     49  N   UNL     1     -48.635  27.852  26.122  1.00  0.00    -0.231 NA
ATOM     50  C   UNL     1     -50.377  27.197  24.056  1.00  0.00    -0.049 A 
ATOM     51  C   UNL     1     -49.108  26.594  26.004  1.00  0.00     0.126 A 
ATOM     52  C   UNL     1     -49.990  26.240  24.988  1.00  0.00    -0.019 A 
ATOM     53  H   UNL     1     -51.065  26.921  23.262  1.00  0.00     0.063 H 
ATOM     54  H   UNL     1     -50.382  25.230  24.929  1.00  0.00     0.066 H 
BRANCH  51  55
ATOM     55  N   UNL     1     -48.757  25.607  26.944  1.00  0.00    -0.373 N 
ATOM     56  H   UNL     1     -49.523  24.944  27.024  1.00  0.00     0.161 HD
BRANCH  55  57
ATOM     57  C   UNL     1     -47.495  24.942  26.665  1.00  0.00     0.005 C 
ATOM     58  H   UNL     1     -47.353  24.779  25.591  1.00  0.00     0.045 H 
ATOM     59  H   UNL     1     -47.497  23.961  27.151  1.00  0.00     0.045 H 
ATOM     60  H   UNL     1     -46.646  25.503  27.070  1.00  0.00     0.045 H 
ENDBRANCH  55  57
ENDBRANCH  51  55
ENDBRANCH  39  40
ENDBRANCH  36  39
ENDBRANCH   5  36
TORSDOF 11
ENDMDL
MODEL 7
REMARK VINA RESULT:      -9.0      1.475      2.510
REMARK SMILES CCCC(=O)c1cn(-c2cncc(COc3ccc4ccc(NC)nc4c3)c2)c2ncnc(N)c12
REMARK SMILES IDX 9 1 10 2 11 3 12 4 13 5 28 6 8 10 6 11 7 12 35 13 29 15
REMARK SMILES IDX 33 16 30 17 32 18 31 19 4 21 5 22 3 23 2 26 1 29 34 33 14 36
REMARK SMILES IDX 15 39 16 40 17 41 27 42 18 43 26 45 19 47 25 49 20 50 22 51
REMARK SMILES IDX 21 52 23 55 24 57
REMARK H PARENT 10 7 12 8 28 9 7 14 31 20 3 24 3 25 2 27 2 28 1 30 1 31 1 32
REMARK H PARENT 34 34 34 35 14 37 14 38 17 44 27 46 18 48 20 53 21 54 23 56
REMARK H PARENT 24 58 24 59 24 60
REMARK Flexibility Score: inf
ROOT
ATOM      1  C   UNL     1     -47.650  32.929  25.973  1.00  0.00     0.066 A 
ATOM      2  C   UNL     1     -46.617  32.508  26.803  1.00  0.00     0.051 A 
ATOM      3  N   UNL     1     -46.079  33.264  27.795  1.00  0.00    -0.262 NA
ATOM      4  C   UNL     1     -46.595  34.496  27.979  1.00  0.00     0.034 A 
ATOM      5  C   UNL     1     -47.634  35.021  27.224  1.00  0.00     0.010 A 
ATOM      6  C   UNL     1     -48.151  34.221  26.195  1.00  0.00    -0.028 A 
ATOM      7  H   UNL     1     -46.160  31.529  26.740  1.00  0.00     0.086 H 
ATOM      8  H   UNL     1     -46.131  35.065  28.781  1.00  0.00     0.084 H 
ATOM      9  H   UNL     1     -48.939  34.643  25.578  1.00  0.00     0.065 H 
ENDROOT
BRANCH   1  10
ATOM     10  N   UNL     1     -48.189  32.093  24.943  1.00  0.00    -0.299 N 
ATOM     11  C   UNL     1     -49.711  30.932  23.718  1.00  0.00     0.049 A 
ATOM     12  C   UNL     1     -49.532  31.804  24.777  1.00  0.00     0.023 A 
ATOM     13  C   UNL     1     -48.428  30.738  23.136  1.00  0.00     0.072 A 
ATOM     14  H   UNL     1     -50.287  32.191  25.449  1.00  0.00     0.083 H 
ATOM     15  C   UNL     1     -47.505  31.415  23.933  1.00  0.00     0.150 A 
ATOM     16  C   UNL     1     -47.914  30.075  22.008  1.00  0.00     0.137 A 
ATOM     17  N   UNL     1     -46.173  31.429  23.726  1.00  0.00    -0.218 NA
ATOM     18  N   UNL     1     -46.587  30.057  21.797  1.00  0.00    -0.219 NA
ATOM     19  C   UNL     1     -45.799  30.716  22.658  1.00  0.00     0.120 A 
ATOM     20  H   UNL     1     -44.732  30.676  22.456  1.00  0.00     0.106 H 
BRANCH  11  21
ATOM     21  C   UNL     1     -51.017  30.379  23.361  1.00  0.00     0.165 C 
ATOM     22  O   UNL     1     -51.206  29.166  23.421  1.00  0.00    -0.294 OA
BRANCH  21  23
ATOM     23  C   UNL     1     -52.108  31.322  22.875  1.00  0.00     0.011 C 
ATOM     24  H   UNL     1     -52.239  32.118  23.617  1.00  0.00     0.035 H 
ATOM     25  H   UNL     1     -53.048  30.768  22.797  1.00  0.00     0.035 H 
BRANCH  23  26
ATOM     26  C   UNL     1     -51.756  31.988  21.544  1.00  0.00    -0.049 C 
ATOM     27  H   UNL     1     -50.729  32.370  21.563  1.00  0.00     0.027 H 
ATOM     28  H   UNL     1     -52.417  32.851  21.400  1.00  0.00     0.027 H 
BRANCH  26  29
ATOM     29  C   UNL     1     -51.932  31.061  20.348  1.00  0.00    -0.065 C 
ATOM     30  H   UNL     1     -51.171  30.275  20.368  1.00  0.00     0.023 H 
ATOM     31  H   UNL     1     -51.825  31.611  19.408  1.00  0.00     0.023 H 
ATOM     32  H   UNL     1     -52.912  30.577  20.352  1.00  0.00     0.023 H 
ENDBRANCH  26  29
ENDBRANCH  23  26
ENDBRANCH  21  23
ENDBRANCH  11  21
BRANCH  16  33
ATOM     33  N   UNL     1     -48.693  29.459  21.035  1.00  0.00    -0.383 N 
ATOM     34  H   UNL     1     -48.783  28.460  21.181  1.00  0.00     0.158 HD
ATOM     35  H   UNL     1     -49.592  29.935  21.003  1.00  0.00     0.158 HD
ENDBRANCH  16  33
ENDBRANCH   1  10
BRANCH   5  36
ATOM     36  C   UNL     1     -48.119  36.424  27.484  1.00  0.00     0.115 C 
ATOM     37  H   UNL     1     -49.096  36.347  27.976  1.00  0.00     0.076 H 
ATOM     38  H   UNL     1     -48.289  36.983  26.555  1.00  0.00     0.076 H 
BRANCH  36  39
ATOM     39  O   UNL     1     -47.276  37.159  28.377  1.00  0.00    -0.489 OA
BRANCH  39  40
ATOM     40  C   UNL     1     -46.616  38.257  27.901  1.00  0.00     0.122 A 
ATOM     41  C   UNL     1     -47.279  38.933  26.878  1.00  0.00    -0.019 A 
ATOM     42  C   UNL     1     -45.390  38.747  28.358  1.00  0.00     0.007 A 
ATOM     43  C   UNL     1     -46.720  40.075  26.311  1.00  0.00    -0.049 A 
ATOM     44  H   UNL     1     -48.238  38.565  26.519  1.00  0.00     0.066 H 
ATOM     45  C   UNL     1     -44.808  39.885  27.810  1.00  0.00     0.076 A 
ATOM     46  H   UNL     1     -44.849  38.266  29.166  1.00  0.00     0.069 H 
ATOM     47  C   UNL     1     -45.484  40.553  26.772  1.00  0.00     0.001 A 
ATOM     48  H   UNL     1     -47.251  40.585  25.511  1.00  0.00     0.063 H 
ATOM     49  N   UNL     1     -43.624  40.309  28.287  1.00  0.00    -0.231 NA
ATOM     50  C   UNL     1     -44.884  41.690  26.230  1.00  0.00    -0.049 A 
ATOM     51  C   UNL     1     -43.058  41.416  27.766  1.00  0.00     0.126 A 
ATOM     52  C   UNL     1     -43.659  42.121  26.728  1.00  0.00    -0.019 A 
ATOM     53  H   UNL     1     -45.355  42.241  25.420  1.00  0.00     0.063 H 
ATOM     54  H   UNL     1     -43.173  42.993  26.302  1.00  0.00     0.066 H 
BRANCH  51  55
ATOM     55  N   UNL     1     -41.808  41.866  28.229  1.00  0.00    -0.373 N 
ATOM     56  H   UNL     1     -41.783  42.880  28.173  1.00  0.00     0.161 HD
BRANCH  55  57
ATOM     57  C   UNL     1     -41.459  41.391  29.557  1.00  0.00     0.005 C 
ATOM     58  H   UNL     1     -40.384  41.486  29.751  1.00  0.00     0.045 H 
ATOM     59  H   UNL     1     -41.715  40.329  29.632  1.00  0.00     0.045 H 
ATOM     60  H   UNL     1     -42.023  41.916  30.335  1.00  0.00     0.045 H 
ENDBRANCH  55  57
ENDBRANCH  51  55
ENDBRANCH  39  40
ENDBRANCH  36  39
ENDBRANCH   5  36
TORSDOF 11
ENDMDL
