MODEL 1
REMARK VINA RESULT:     -10.7      0.000      0.000
REMARK SMILES Nc1ncnc2c1c([C@@H]1CCCO1)cn2-c1cncc(COc2cnc3ccc(N4CCC4)nc3c2)c1
REMARK SMILES IDX 21 1 20 4 16 5 17 6 37 7 18 8 19 11 15 13 2 14 3 15 7 16
REMARK SMILES IDX 4 17 6 18 8 19 5 20 14 22 1 24 9 27 10 28 13 29 11 31 12 34
REMARK SMILES IDX 22 39 23 40 24 41 36 42 25 43 35 45 26 47 34 48 27 49 29 50
REMARK SMILES IDX 28 51 30 54 31 55 33 56 32 57
REMARK H PARENT 21 2 21 3 17 9 37 10 19 12 4 21 14 23 1 25 1 26 9 30 10 32
REMARK H PARENT 10 33 11 35 11 36 12 37 12 38 24 44 36 46 27 52 28 53 31 58
REMARK H PARENT 31 59 33 60 33 61 32 62 32 63
REMARK Flexibility Score: inf
ROOT
ATOM      1  C   UNL     1     -46.746  34.747  26.053  1.00  0.00     0.115 C 
ATOM      2  H   UNL     1     -45.996  34.228  26.662  1.00  0.00     0.076 H 
ATOM      3  H   UNL     1     -46.297  34.877  25.060  1.00  0.00     0.076 H 
ENDROOT
BRANCH   1   4
ATOM      4  C   UNL     1     -47.030  36.068  26.722  1.00  0.00     0.010 A 
ATOM      5  C   UNL     1     -46.430  38.339  27.356  1.00  0.00     0.066 A 
ATOM      6  C   UNL     1     -47.700  38.439  27.919  1.00  0.00     0.051 A 
ATOM      7  C   UNL     1     -46.111  37.127  26.735  1.00  0.00    -0.028 A 
ATOM      8  N   UNL     1     -48.625  37.448  27.903  1.00  0.00    -0.262 NA
ATOM      9  H   UNL     1     -48.048  39.323  28.443  1.00  0.00     0.086 H 
ATOM     10  H   UNL     1     -45.158  36.981  26.237  1.00  0.00     0.065 H 
ATOM     11  C   UNL     1     -48.269  36.291  27.309  1.00  0.00     0.034 A 
ATOM     12  H   UNL     1     -49.038  35.523  27.320  1.00  0.00     0.084 H 
BRANCH   5  13
ATOM     13  N   UNL     1     -45.510  39.434  27.414  1.00  0.00    -0.299 N 
ATOM     14  C   UNL     1     -42.759  41.205  28.843  1.00  0.00     0.136 A 
ATOM     15  N   UNL     1     -42.429  40.429  29.890  1.00  0.00    -0.219 NA
ATOM     16  C   UNL     1     -43.828  40.825  28.013  1.00  0.00     0.067 A 
ATOM     17  C   UNL     1     -43.151  39.320  30.108  1.00  0.00     0.120 A 
ATOM     18  C   UNL     1     -44.483  39.638  28.334  1.00  0.00     0.150 A 
ATOM     19  C   UNL     1     -44.467  41.380  26.859  1.00  0.00     0.012 A 
ATOM     20  N   UNL     1     -44.177  38.852  29.386  1.00  0.00    -0.218 NA
ATOM     21  H   UNL     1     -42.868  38.730  30.973  1.00  0.00     0.106 H 
ATOM     22  C   UNL     1     -45.499  40.513  26.542  1.00  0.00     0.018 A 
ATOM     23  H   UNL     1     -46.209  40.580  25.730  1.00  0.00     0.083 H 
BRANCH  14  24
ATOM     24  N   UNL     1     -41.995  42.348  28.639  1.00  0.00    -0.383 N 
ATOM     25  H   UNL     1     -42.571  43.181  28.511  1.00  0.00     0.158 HD
ATOM     26  H   UNL     1     -41.303  42.182  27.919  1.00  0.00     0.158 HD
ENDBRANCH  14  24
BRANCH  19  27
ATOM     27  C   UNL     1     -44.100  42.665  26.179  1.00  0.00     0.085 C 
ATOM     28  C   UNL     1     -44.782  42.922  24.840  1.00  0.00    -0.020 C 
ATOM     29  O   UNL     1     -42.678  42.738  25.909  1.00  0.00    -0.373 OA
ATOM     30  H   UNL     1     -44.327  43.494  26.864  1.00  0.00     0.066 H 
ATOM     31  C   UNL     1     -43.816  43.864  24.170  1.00  0.00    -0.027 C 
ATOM     32  H   UNL     1     -45.788  43.338  24.949  1.00  0.00     0.030 H 
ATOM     33  H   UNL     1     -44.857  42.005  24.243  1.00  0.00     0.030 H 
ATOM     34  C   UNL     1     -42.486  43.285  24.598  1.00  0.00     0.048 C 
ATOM     35  H   UNL     1     -43.930  43.915  23.084  1.00  0.00     0.029 H 
ATOM     36  H   UNL     1     -43.936  44.875  24.578  1.00  0.00     0.029 H 
ATOM     37  H   UNL     1     -42.177  42.469  23.936  1.00  0.00     0.057 H 
ATOM     38  H   UNL     1     -41.690  44.034  24.623  1.00  0.00     0.057 H 
ENDBRANCH  19  27
ENDBRANCH   5  13
ENDBRANCH   1   4
BRANCH   1  39
ATOM     39  O   UNL     1     -47.877  33.873  25.986  1.00  0.00    -0.487 OA
BRANCH  39  40
ATOM     40  C   UNL     1     -47.727  32.648  25.402  1.00  0.00     0.140 A 
ATOM     41  C   UNL     1     -46.766  32.568  24.404  1.00  0.00     0.070 A 
ATOM     42  C   UNL     1     -48.418  31.482  25.712  1.00  0.00     0.010 A 
ATOM     43  N   UNL     1     -46.470  31.440  23.718  1.00  0.00    -0.251 NA
ATOM     44  H   UNL     1     -46.188  33.443  24.121  1.00  0.00     0.088 H 
ATOM     45  C   UNL     1     -48.155  30.296  25.041  1.00  0.00     0.095 A 
ATOM     46  H   UNL     1     -49.174  31.450  26.490  1.00  0.00     0.069 H 
ATOM     47  C   UNL     1     -47.160  30.332  24.045  1.00  0.00     0.089 A 
ATOM     48  N   UNL     1     -48.850  29.185  25.363  1.00  0.00    -0.229 NA
ATOM     49  C   UNL     1     -46.905  29.142  23.389  1.00  0.00    -0.031 A 
ATOM     50  C   UNL     1     -48.586  28.035  24.704  1.00  0.00     0.129 A 
ATOM     51  C   UNL     1     -47.611  27.985  23.714  1.00  0.00    -0.017 A 
ATOM     52  H   UNL     1     -46.141  29.113  22.618  1.00  0.00     0.065 H 
ATOM     53  H   UNL     1     -47.387  27.057  23.202  1.00  0.00     0.066 H 
BRANCH  50  54
ATOM     54  N   UNL     1     -49.297  26.876  25.054  1.00  0.00    -0.356 N 
ATOM     55  C   UNL     1     -48.777  25.820  25.877  1.00  0.00     0.021 C 
ATOM     56  C   UNL     1     -50.588  26.818  25.677  1.00  0.00     0.021 C 
ATOM     57  C   UNL     1     -50.232  25.382  26.078  1.00  0.00    -0.018 C 
ATOM     58  H   UNL     1     -48.138  25.120  25.334  1.00  0.00     0.049 H 
ATOM     59  H   UNL     1     -48.277  26.186  26.780  1.00  0.00     0.049 H 
ATOM     60  H   UNL     1     -50.691  27.520  26.513  1.00  0.00     0.049 H 
ATOM     61  H   UNL     1     -51.418  26.922  24.977  1.00  0.00     0.049 H 
ATOM     62  H   UNL     1     -50.505  25.089  27.095  1.00  0.00     0.030 H 
ATOM     63  H   UNL     1     -50.576  24.618  25.372  1.00  0.00     0.030 H 
ENDBRANCH  50  54
ENDBRANCH  39  40
ENDBRANCH   1  39
TORSDOF 7
ENDMDL
MODEL 2
REMARK VINA RESULT:     -10.2      2.327     12.420
REMARK SMILES Nc1ncnc2c1c([C@@H]1CCCO1)cn2-c1cncc(COc2cnc3ccc(N4CCC4)nc3c2)c1
REMARK SMILES IDX 21 1 20 4 16 5 17 6 37 7 18 8 19 11 15 13 2 14 3 15 7 16
REMARK SMILES IDX 4 17 6 18 8 19 5 20 14 22 1 24 9 27 10 28 13 29 11 31 12 34
REMARK SMILES IDX 22 39 23 40 24 41 36 42 25 43 35 45 26 47 34 48 27 49 29 50
REMARK SMILES IDX 28 51 30 54 31 55 33 56 32 57
REMARK H PARENT 21 2 21 3 17 9 37 10 19 12 4 21 14 23 1 25 1 26 9 30 10 32
REMARK H PARENT 10 33 11 35 11 36 12 37 12 38 24 44 36 46 27 52 28 53 31 58
REMARK H PARENT 31 59 33 60 33 61 32 62 32 63
REMARK Flexibility Score: inf
ROOT
ATOM      1  C   UNL     1     -48.716  35.554  27.333  1.00  0.00     0.115 C 
ATOM      2  H   UNL     1     -49.734  35.222  27.564  1.00  0.00     0.076 H 
ATOM      3  H   UNL     1     -48.820  36.480  26.753  1.00  0.00     0.076 H 
ENDROOT
BRANCH   1   4
ATOM      4  C   UNL     1     -48.055  34.458  26.536  1.00  0.00     0.010 A 
ATOM      5  C   UNL     1     -48.065  32.298  25.418  1.00  0.00     0.066 A 
ATOM      6  C   UNL     1     -46.757  32.574  25.029  1.00  0.00     0.051 A 
ATOM      7  C   UNL     1     -48.718  33.277  26.173  1.00  0.00    -0.028 A 
ATOM      8  N   UNL     1     -46.092  33.715  25.336  1.00  0.00    -0.262 NA
ATOM      9  H   UNL     1     -46.148  31.880  24.460  1.00  0.00     0.086 H 
ATOM     10  H   UNL     1     -49.751  33.157  26.482  1.00  0.00     0.065 H 
ATOM     11  C   UNL     1     -46.754  34.625  26.081  1.00  0.00     0.034 A 
ATOM     12  H   UNL     1     -46.184  35.524  26.306  1.00  0.00     0.084 H 
BRANCH   5  13
ATOM     13  N   UNL     1     -48.697  31.068  25.050  1.00  0.00    -0.299 N 
ATOM     14  C   UNL     1     -51.309  29.161  23.536  1.00  0.00     0.136 A 
ATOM     15  N   UNL     1     -52.144  30.117  23.092  1.00  0.00    -0.219 NA
ATOM     16  C   UNL     1     -50.130  29.532  24.207  1.00  0.00     0.067 A 
ATOM     17  C   UNL     1     -51.818  31.397  23.321  1.00  0.00     0.120 A 
ATOM     18  C   UNL     1     -49.897  30.896  24.360  1.00  0.00     0.150 A 
ATOM     19  C   UNL     1     -49.045  28.829  24.821  1.00  0.00     0.012 A 
ATOM     20  N   UNL     1     -50.725  31.871  23.934  1.00  0.00    -0.218 NA
ATOM     21  H   UNL     1     -52.525  32.140  22.965  1.00  0.00     0.106 H 
ATOM     22  C   UNL     1     -48.208  29.802  25.341  1.00  0.00     0.018 A 
ATOM     23  H   UNL     1     -47.278  29.673  25.874  1.00  0.00     0.083 H 
BRANCH  14  24
ATOM     24  N   UNL     1     -51.670  27.842  23.285  1.00  0.00    -0.383 N 
ATOM     25  H   UNL     1     -51.956  27.697  22.316  1.00  0.00     0.158 HD
ATOM     26  H   UNL     1     -52.325  27.520  23.986  1.00  0.00     0.158 HD
ENDBRANCH  14  24
BRANCH  19  27
ATOM     27  C   UNL     1     -48.895  27.340  24.907  1.00  0.00     0.085 C 
ATOM     28  C   UNL     1     -49.458  26.692  26.168  1.00  0.00    -0.020 C 
ATOM     29  O   UNL     1     -47.503  26.940  24.855  1.00  0.00    -0.373 OA
ATOM     30  H   UNL     1     -49.378  26.892  24.027  1.00  0.00     0.066 H 
ATOM     31  C   UNL     1     -48.653  25.422  26.256  1.00  0.00    -0.027 C 
ATOM     32  H   UNL     1     -50.537  26.519  26.111  1.00  0.00     0.030 H 
ATOM     33  H   UNL     1     -49.259  27.302  27.058  1.00  0.00     0.030 H 
ATOM     34  C   UNL     1     -47.287  25.900  25.819  1.00  0.00     0.048 C 
ATOM     35  H   UNL     1     -48.650  24.969  27.250  1.00  0.00     0.029 H 
ATOM     36  H   UNL     1     -49.041  24.685  25.542  1.00  0.00     0.029 H 
ATOM     37  H   UNL     1     -46.731  26.331  26.658  1.00  0.00     0.057 H 
ATOM     38  H   UNL     1     -46.685  25.103  25.374  1.00  0.00     0.057 H 
ENDBRANCH  19  27
ENDBRANCH   5  13
ENDBRANCH   1   4
BRANCH   1  39
ATOM     39  O   UNL     1     -48.090  35.816  28.593  1.00  0.00    -0.487 OA
BRANCH  39  40
ATOM     40  C   UNL     1     -47.095  36.748  28.652  1.00  0.00     0.140 A 
ATOM     41  C   UNL     1     -46.119  36.530  29.613  1.00  0.00     0.070 A 
ATOM     42  C   UNL     1     -46.951  37.873  27.847  1.00  0.00     0.010 A 
ATOM     43  N   UNL     1     -45.053  37.338  29.817  1.00  0.00    -0.251 NA
ATOM     44  H   UNL     1     -46.171  35.665  30.269  1.00  0.00     0.088 H 
ATOM     45  C   UNL     1     -45.877  38.737  28.010  1.00  0.00     0.095 A 
ATOM     46  H   UNL     1     -47.659  38.111  27.059  1.00  0.00     0.069 H 
ATOM     47  C   UNL     1     -44.948  38.417  29.019  1.00  0.00     0.089 A 
ATOM     48  N   UNL     1     -45.774  39.822  27.216  1.00  0.00    -0.229 NA
ATOM     49  C   UNL     1     -43.880  39.282  29.167  1.00  0.00    -0.031 A 
ATOM     50  C   UNL     1     -44.723  40.656  27.383  1.00  0.00     0.129 A 
ATOM     51  C   UNL     1     -43.757  40.405  28.350  1.00  0.00    -0.017 A 
ATOM     52  H   UNL     1     -43.130  39.077  29.925  1.00  0.00     0.065 H 
ATOM     53  H   UNL     1     -42.905  41.065  28.468  1.00  0.00     0.066 H 
BRANCH  50  54
ATOM     54  N   UNL     1     -44.608  41.775  26.542  1.00  0.00    -0.356 N 
ATOM     55  C   UNL     1     -43.766  42.907  26.808  1.00  0.00     0.021 C 
ATOM     56  C   UNL     1     -44.275  41.768  25.147  1.00  0.00     0.021 C 
ATOM     57  C   UNL     1     -43.904  43.245  25.319  1.00  0.00    -0.018 C 
ATOM     58  H   UNL     1     -44.206  43.625  27.503  1.00  0.00     0.049 H 
ATOM     59  H   UNL     1     -42.755  42.627  27.125  1.00  0.00     0.049 H 
ATOM     60  H   UNL     1     -43.436  41.104  24.911  1.00  0.00     0.049 H 
ATOM     61  H   UNL     1     -45.126  41.567  24.495  1.00  0.00     0.049 H 
ATOM     62  H   UNL     1     -42.989  43.568  24.816  1.00  0.00     0.030 H 
ATOM     63  H   UNL     1     -44.716  43.945  25.088  1.00  0.00     0.030 H 
ENDBRANCH  50  54
ENDBRANCH  39  40
ENDBRANCH   1  39
TORSDOF 7
ENDMDL
MODEL 3
REMARK VINA RESULT:     -10.1      2.100     12.369
REMARK SMILES Nc1ncnc2c1c([C@@H]1CCCO1)cn2-c1cncc(COc2cnc3ccc(N4CCC4)nc3c2)c1
REMARK SMILES IDX 21 1 20 4 16 5 17 6 37 7 18 8 19 11 15 13 2 14 3 15 7 16
REMARK SMILES IDX 4 17 6 18 8 19 5 20 14 22 1 24 9 27 10 28 13 29 11 31 12 34
REMARK SMILES IDX 22 39 23 40 24 41 36 42 25 43 35 45 26 47 34 48 27 49 29 50
REMARK SMILES IDX 28 51 30 54 31 55 33 56 32 57
REMARK H PARENT 21 2 21 3 17 9 37 10 19 12 4 21 14 23 1 25 1 26 9 30 10 32
REMARK H PARENT 10 33 11 35 11 36 12 37 12 38 24 44 36 46 27 52 28 53 31 58
REMARK H PARENT 31 59 33 60 33 61 32 62 32 63
REMARK Flexibility Score: inf
ROOT
ATOM      1  C   UNL     1     -46.423  36.159  26.792  1.00  0.00     0.115 C 
ATOM      2  H   UNL     1     -46.549  36.938  26.031  1.00  0.00     0.076 H 
ATOM      3  H   UNL     1     -45.412  35.755  26.652  1.00  0.00     0.076 H 
ENDROOT
BRANCH   1   4
ATOM      4  C   UNL     1     -47.487  35.119  26.548  1.00  0.00     0.010 A 
ATOM      5  C   UNL     1     -48.232  32.934  25.781  1.00  0.00     0.066 A 
ATOM      6  C   UNL     1     -49.504  33.294  26.219  1.00  0.00     0.051 A 
ATOM      7  C   UNL     1     -47.212  33.871  25.971  1.00  0.00    -0.028 A 
ATOM      8  N   UNL     1     -49.804  34.480  26.806  1.00  0.00    -0.262 NA
ATOM      9  H   UNL     1     -50.374  32.657  26.105  1.00  0.00     0.086 H 
ATOM     10  H   UNL     1     -46.185  33.652  25.695  1.00  0.00     0.065 H 
ATOM     11  C   UNL     1     -48.793  35.361  26.954  1.00  0.00     0.034 A 
ATOM     12  H   UNL     1     -49.076  36.297  27.426  1.00  0.00     0.084 H 
BRANCH   5  13
ATOM     13  N   UNL     1     -47.998  31.660  25.172  1.00  0.00    -0.299 N 
ATOM     14  C   UNL     1     -46.522  29.532  22.714  1.00  0.00     0.136 A 
ATOM     15  N   UNL     1     -45.836  30.403  21.953  1.00  0.00    -0.219 NA
ATOM     16  C   UNL     1     -47.254  30.007  23.816  1.00  0.00     0.067 A 
ATOM     17  C   UNL     1     -45.892  31.704  22.274  1.00  0.00     0.120 A 
ATOM     18  C   UNL     1     -47.211  31.379  24.056  1.00  0.00     0.150 A 
ATOM     19  C   UNL     1     -48.094  29.414  24.811  1.00  0.00     0.012 A 
ATOM     20  N   UNL     1     -46.541  32.271  23.299  1.00  0.00    -0.218 NA
ATOM     21  H   UNL     1     -45.342  32.379  21.626  1.00  0.00     0.106 H 
ATOM     22  C   UNL     1     -48.543  30.458  25.602  1.00  0.00     0.018 A 
ATOM     23  H   UNL     1     -49.193  30.419  26.463  1.00  0.00     0.083 H 
BRANCH  14  24
ATOM     24  N   UNL     1     -46.447  28.190  22.360  1.00  0.00    -0.383 N 
ATOM     25  H   UNL     1     -45.673  27.711  22.821  1.00  0.00     0.158 HD
ATOM     26  H   UNL     1     -46.483  28.092  21.353  1.00  0.00     0.158 HD
ENDBRANCH  14  24
BRANCH  19  27
ATOM     27  C   UNL     1     -48.437  27.958  24.923  1.00  0.00     0.085 C 
ATOM     28  C   UNL     1     -49.137  27.543  26.212  1.00  0.00    -0.020 C 
ATOM     29  O   UNL     1     -47.254  27.124  24.839  1.00  0.00    -0.373 OA
ATOM     30  H   UNL     1     -49.068  27.686  24.066  1.00  0.00     0.066 H 
ATOM     31  C   UNL     1     -48.789  26.079  26.301  1.00  0.00    -0.027 C 
ATOM     32  H   UNL     1     -50.215  27.732  26.190  1.00  0.00     0.030 H 
ATOM     33  H   UNL     1     -48.719  28.061  27.083  1.00  0.00     0.030 H 
ATOM     34  C   UNL     1     -47.358  26.080  25.816  1.00  0.00     0.048 C 
ATOM     35  H   UNL     1     -48.900  25.660  27.304  1.00  0.00     0.029 H 
ATOM     36  H   UNL     1     -49.420  25.503  25.614  1.00  0.00     0.029 H 
ATOM     37  H   UNL     1     -46.663  26.313  26.630  1.00  0.00     0.057 H 
ATOM     38  H   UNL     1     -47.064  25.126  25.369  1.00  0.00     0.057 H 
ENDBRANCH  19  27
ENDBRANCH   5  13
ENDBRANCH   1   4
BRANCH   1  39
ATOM     39  O   UNL     1     -46.532  36.819  28.057  1.00  0.00    -0.487 OA
BRANCH  39  40
ATOM     40  C   UNL     1     -45.625  37.787  28.374  1.00  0.00     0.140 A 
ATOM     41  C   UNL     1     -44.917  37.590  29.551  1.00  0.00     0.070 A 
ATOM     42  C   UNL     1     -45.328  38.931  27.640  1.00  0.00     0.010 A 
ATOM     43  N   UNL     1     -43.973  38.435  30.024  1.00  0.00    -0.251 NA
ATOM     44  H   UNL     1     -45.098  36.712  30.165  1.00  0.00     0.088 H 
ATOM     45  C   UNL     1     -44.368  39.832  28.077  1.00  0.00     0.095 A 
ATOM     46  H   UNL     1     -45.822  39.155  26.700  1.00  0.00     0.069 H 
ATOM     47  C   UNL     1     -43.713  39.531  29.287  1.00  0.00     0.089 A 
ATOM     48  N   UNL     1     -44.112  40.934  27.343  1.00  0.00    -0.229 NA
ATOM     49  C   UNL     1     -42.755  40.434  29.708  1.00  0.00    -0.031 A 
ATOM     50  C   UNL     1     -43.174  41.805  27.779  1.00  0.00     0.129 A 
ATOM     51  C   UNL     1     -42.475  41.575  28.958  1.00  0.00    -0.017 A 
ATOM     52  H   UNL     1     -42.214  40.245  30.631  1.00  0.00     0.065 H 
ATOM     53  H   UNL     1     -41.710  42.265  29.294  1.00  0.00     0.066 H 
BRANCH  50  54
ATOM     54  N   UNL     1     -42.896  42.943  27.003  1.00  0.00    -0.356 N 
ATOM     55  C   UNL     1     -42.093  42.937  25.812  1.00  0.00     0.021 C 
ATOM     56  C   UNL     1     -43.852  43.849  26.436  1.00  0.00     0.021 C 
ATOM     57  C   UNL     1     -42.737  44.288  25.480  1.00  0.00    -0.018 C 
ATOM     58  H   UNL     1     -41.019  42.957  26.011  1.00  0.00     0.049 H 
ATOM     59  H   UNL     1     -42.348  42.123  25.125  1.00  0.00     0.049 H 
ATOM     60  H   UNL     1     -44.695  43.337  25.960  1.00  0.00     0.049 H 
ATOM     61  H   UNL     1     -44.203  44.609  27.135  1.00  0.00     0.049 H 
ATOM     62  H   UNL     1     -43.032  44.432  24.437  1.00  0.00     0.030 H 
ATOM     63  H   UNL     1     -42.165  45.158  25.822  1.00  0.00     0.030 H 
ENDBRANCH  50  54
ENDBRANCH  39  40
ENDBRANCH   1  39
TORSDOF 7
ENDMDL
MODEL 4
REMARK VINA RESULT:     -10.0      1.710      2.137
REMARK SMILES Nc1ncnc2c1c([C@@H]1CCCO1)cn2-c1cncc(COc2cnc3ccc(N4CCC4)nc3c2)c1
REMARK SMILES IDX 21 1 20 4 16 5 17 6 37 7 18 8 19 11 15 13 2 14 3 15 7 16
REMARK SMILES IDX 4 17 6 18 8 19 5 20 14 22 1 24 9 27 10 28 13 29 11 31 12 34
REMARK SMILES IDX 22 39 23 40 24 41 36 42 25 43 35 45 26 47 34 48 27 49 29 50
REMARK SMILES IDX 28 51 30 54 31 55 33 56 32 57
REMARK H PARENT 21 2 21 3 17 9 37 10 19 12 4 21 14 23 1 25 1 26 9 30 10 32
REMARK H PARENT 10 33 11 35 11 36 12 37 12 38 24 44 36 46 27 52 28 53 31 58
REMARK H PARENT 31 59 33 60 33 61 32 62 32 63
REMARK Flexibility Score: inf
ROOT
ATOM      1  C   UNL     1     -48.246  35.710  27.000  1.00  0.00     0.115 C 
ATOM      2  H   UNL     1     -48.005  35.805  25.935  1.00  0.00     0.076 H 
ATOM      3  H   UNL     1     -49.265  36.099  27.118  1.00  0.00     0.076 H 
ENDROOT
BRANCH   1   4
ATOM      4  C   UNL     1     -47.236  36.530  27.763  1.00  0.00     0.010 A 
ATOM      5  C   UNL     1     -45.778  38.459  28.023  1.00  0.00     0.066 A 
ATOM      6  C   UNL     1     -45.456  37.955  29.281  1.00  0.00     0.051 A 
ATOM      7  C   UNL     1     -46.700  37.728  27.268  1.00  0.00    -0.028 A 
ATOM      8  N   UNL     1     -45.974  36.816  29.805  1.00  0.00    -0.262 NA
ATOM      9  H   UNL     1     -44.739  38.427  29.944  1.00  0.00     0.086 H 
ATOM     10  H   UNL     1     -47.034  38.073  26.296  1.00  0.00     0.065 H 
ATOM     11  C   UNL     1     -46.847  36.133  29.035  1.00  0.00     0.034 A 
ATOM     12  H   UNL     1     -47.236  35.226  29.491  1.00  0.00     0.084 H 
BRANCH   5  13
ATOM     13  N   UNL     1     -45.188  39.672  27.544  1.00  0.00    -0.299 N 
ATOM     14  C   UNL     1     -42.757  42.286  27.649  1.00  0.00     0.136 A 
ATOM     15  N   UNL     1     -42.019  41.950  28.721  1.00  0.00    -0.219 NA
ATOM     16  C   UNL     1     -43.842  41.472  27.276  1.00  0.00     0.067 A 
ATOM     17  C   UNL     1     -42.361  40.848  29.404  1.00  0.00     0.120 A 
ATOM     18  C   UNL     1     -44.077  40.342  28.056  1.00  0.00     0.150 A 
ATOM     19  C   UNL     1     -44.836  41.510  26.247  1.00  0.00     0.012 A 
ATOM     20  N   UNL     1     -43.358  39.993  29.142  1.00  0.00    -0.218 NA
ATOM     21  H   UNL     1     -41.754  40.620  30.275  1.00  0.00     0.106 H 
ATOM     22  C   UNL     1     -45.647  40.409  26.462  1.00  0.00     0.018 A 
ATOM     23  H   UNL     1     -46.506  40.085  25.892  1.00  0.00     0.083 H 
BRANCH  14  24
ATOM     24  N   UNL     1     -42.382  43.432  26.958  1.00  0.00    -0.383 N 
ATOM     25  H   UNL     1     -41.387  43.436  26.727  1.00  0.00     0.158 HD
ATOM     26  H   UNL     1     -42.721  44.256  27.438  1.00  0.00     0.158 HD
ENDBRANCH  14  24
BRANCH  19  27
ATOM     27  C   UNL     1     -44.973  42.566  25.192  1.00  0.00     0.085 C 
ATOM     28  C   UNL     1     -43.880  42.581  24.128  1.00  0.00    -0.020 C 
ATOM     29  O   UNL     1     -44.973  43.897  25.766  1.00  0.00    -0.373 OA
ATOM     30  H   UNL     1     -45.949  42.441  24.703  1.00  0.00     0.066 H 
ATOM     31  C   UNL     1     -43.928  44.009  23.648  1.00  0.00    -0.027 C 
ATOM     32  H   UNL     1     -44.052  41.850  23.332  1.00  0.00     0.030 H 
ATOM     33  H   UNL     1     -42.893  42.385  24.561  1.00  0.00     0.030 H 
ATOM     34  C   UNL     1     -44.170  44.753  24.941  1.00  0.00     0.048 C 
ATOM     35  H   UNL     1     -43.021  44.332  23.132  1.00  0.00     0.029 H 
ATOM     36  H   UNL     1     -44.779  44.146  22.969  1.00  0.00     0.029 H 
ATOM     37  H   UNL     1     -43.231  44.944  25.471  1.00  0.00     0.057 H 
ATOM     38  H   UNL     1     -44.685  45.706  24.789  1.00  0.00     0.057 H 
ENDBRANCH  19  27
ENDBRANCH   5  13
ENDBRANCH   1   4
BRANCH   1  39
ATOM     39  O   UNL     1     -48.202  34.311  27.294  1.00  0.00    -0.487 OA
BRANCH  39  40
ATOM     40  C   UNL     1     -47.864  33.440  26.299  1.00  0.00     0.140 A 
ATOM     41  C   UNL     1     -46.557  33.526  25.839  1.00  0.00     0.070 A 
ATOM     42  C   UNL     1     -48.678  32.475  25.716  1.00  0.00     0.010 A 
ATOM     43  N   UNL     1     -46.037  32.744  24.866  1.00  0.00    -0.251 NA
ATOM     44  H   UNL     1     -45.869  34.255  26.259  1.00  0.00     0.088 H 
ATOM     45  C   UNL     1     -48.198  31.644  24.714  1.00  0.00     0.095 A 
ATOM     46  H   UNL     1     -49.708  32.328  26.026  1.00  0.00     0.069 H 
ATOM     47  C   UNL     1     -46.856  31.822  24.325  1.00  0.00     0.089 A 
ATOM     48  N   UNL     1     -49.019  30.725  24.166  1.00  0.00    -0.229 NA
ATOM     49  C   UNL     1     -46.389  30.984  23.330  1.00  0.00    -0.031 A 
ATOM     50  C   UNL     1     -48.540  29.920  23.191  1.00  0.00     0.129 A 
ATOM     51  C   UNL     1     -47.224  30.025  22.758  1.00  0.00    -0.017 A 
ATOM     52  H   UNL     1     -45.359  31.073  22.999  1.00  0.00     0.065 H 
ATOM     53  H   UNL     1     -46.837  29.365  21.990  1.00  0.00     0.066 H 
BRANCH  50  54
ATOM     54  N   UNL     1     -49.392  28.951  22.636  1.00  0.00    -0.356 N 
ATOM     55  C   UNL     1     -49.407  28.582  21.248  1.00  0.00     0.021 C 
ATOM     56  C   UNL     1     -49.541  27.591  23.069  1.00  0.00     0.021 C 
ATOM     57  C   UNL     1     -50.141  27.310  21.687  1.00  0.00    -0.018 C 
ATOM     58  H   UNL     1     -49.978  29.270  20.621  1.00  0.00     0.049 H 
ATOM     59  H   UNL     1     -48.406  28.418  20.836  1.00  0.00     0.049 H 
ATOM     60  H   UNL     1     -48.582  27.098  23.266  1.00  0.00     0.049 H 
ATOM     61  H   UNL     1     -50.221  27.473  23.914  1.00  0.00     0.049 H 
ATOM     62  H   UNL     1     -49.818  26.383  21.206  1.00  0.00     0.030 H 
ATOM     63  H   UNL     1     -51.234  27.382  21.646  1.00  0.00     0.030 H 
ENDBRANCH  50  54
ENDBRANCH  39  40
ENDBRANCH   1  39
TORSDOF 7
ENDMDL
MODEL 5
REMARK VINA RESULT:      -9.9      1.941      2.921
REMARK SMILES Nc1ncnc2c1c([C@@H]1CCCO1)cn2-c1cncc(COc2cnc3ccc(N4CCC4)nc3c2)c1
REMARK SMILES IDX 21 1 20 4 16 5 17 6 37 7 18 8 19 11 15 13 2 14 3 15 7 16
REMARK SMILES IDX 4 17 6 18 8 19 5 20 14 22 1 24 9 27 10 28 13 29 11 31 12 34
REMARK SMILES IDX 22 39 23 40 24 41 36 42 25 43 35 45 26 47 34 48 27 49 29 50
REMARK SMILES IDX 28 51 30 54 31 55 33 56 32 57
REMARK H PARENT 21 2 21 3 17 9 37 10 19 12 4 21 14 23 1 25 1 26 9 30 10 32
REMARK H PARENT 10 33 11 35 11 36 12 37 12 38 24 44 36 46 27 52 28 53 31 58
REMARK H PARENT 31 59 33 60 33 61 32 62 32 63
REMARK Flexibility Score: inf
ROOT
ATOM      1  C   UNL     1     -47.916  35.607  26.778  1.00  0.00     0.115 C 
ATOM      2  H   UNL     1     -47.890  35.588  25.683  1.00  0.00     0.076 H 
ATOM      3  H   UNL     1     -48.946  35.866  27.056  1.00  0.00     0.076 H 
ENDROOT
BRANCH   1   4
ATOM      4  C   UNL     1     -46.929  36.653  27.233  1.00  0.00     0.010 A 
ATOM      5  C   UNL     1     -45.999  38.900  27.201  1.00  0.00     0.066 A 
ATOM      6  C   UNL     1     -45.119  38.472  28.192  1.00  0.00     0.051 A 
ATOM      7  C   UNL     1     -46.926  37.963  26.734  1.00  0.00    -0.028 A 
ATOM      8  N   UNL     1     -45.108  37.222  28.718  1.00  0.00    -0.262 NA
ATOM      9  H   UNL     1     -44.346  39.105  28.612  1.00  0.00     0.086 H 
ATOM     10  H   UNL     1     -47.673  38.228  25.993  1.00  0.00     0.065 H 
ATOM     11  C   UNL     1     -46.008  36.345  28.226  1.00  0.00     0.034 A 
ATOM     12  H   UNL     1     -45.965  35.355  28.673  1.00  0.00     0.084 H 
BRANCH   5  13
ATOM     13  N   UNL     1     -45.946  40.239  26.700  1.00  0.00    -0.299 N 
ATOM     14  C   UNL     1     -47.420  43.377  25.845  1.00  0.00     0.136 A 
ATOM     15  N   UNL     1     -48.716  43.178  26.144  1.00  0.00    -0.219 NA
ATOM     16  C   UNL     1     -46.497  42.337  26.052  1.00  0.00     0.067 A 
ATOM     17  C   UNL     1     -49.078  41.978  26.620  1.00  0.00     0.120 A 
ATOM     18  C   UNL     1     -46.997  41.147  26.574  1.00  0.00     0.150 A 
ATOM     19  C   UNL     1     -45.091  42.168  25.844  1.00  0.00     0.012 A 
ATOM     20  N   UNL     1     -48.294  40.921  26.869  1.00  0.00    -0.218 NA
ATOM     21  H   UNL     1     -50.134  41.848  26.831  1.00  0.00     0.106 H 
ATOM     22  C   UNL     1     -44.803  40.870  26.229  1.00  0.00     0.018 A 
ATOM     23  H   UNL     1     -43.849  40.364  26.228  1.00  0.00     0.083 H 
BRANCH  14  24
ATOM     24  N   UNL     1     -47.071  44.630  25.353  1.00  0.00    -0.383 N 
ATOM     25  H   UNL     1     -47.167  45.362  26.058  1.00  0.00     0.158 HD
ATOM     26  H   UNL     1     -47.544  44.805  24.476  1.00  0.00     0.158 HD
ENDBRANCH  14  24
BRANCH  19  27
ATOM     27  C   UNL     1     -44.154  43.193  25.277  1.00  0.00     0.085 C 
ATOM     28  C   UNL     1     -43.728  42.968  23.831  1.00  0.00    -0.020 C 
ATOM     29  O   UNL     1     -42.922  43.266  26.037  1.00  0.00    -0.373 OA
ATOM     30  H   UNL     1     -44.629  44.180  25.363  1.00  0.00     0.066 H 
ATOM     31  C   UNL     1     -42.416  43.709  23.771  1.00  0.00    -0.027 C 
ATOM     32  H   UNL     1     -44.465  43.334  23.109  1.00  0.00     0.030 H 
ATOM     33  H   UNL     1     -43.547  41.907  23.623  1.00  0.00     0.030 H 
ATOM     34  C   UNL     1     -41.824  43.380  25.122  1.00  0.00     0.048 C 
ATOM     35  H   UNL     1     -41.776  43.406  22.938  1.00  0.00     0.029 H 
ATOM     36  H   UNL     1     -42.600  44.787  23.691  1.00  0.00     0.029 H 
ATOM     37  H   UNL     1     -41.302  42.418  25.103  1.00  0.00     0.057 H 
ATOM     38  H   UNL     1     -41.128  44.148  25.474  1.00  0.00     0.057 H 
ENDBRANCH  19  27
ENDBRANCH   5  13
ENDBRANCH   1   4
BRANCH   1  39
ATOM     39  O   UNL     1     -47.596  34.279  27.205  1.00  0.00    -0.487 OA
BRANCH  39  40
ATOM     40  C   UNL     1     -47.479  33.297  26.266  1.00  0.00     0.140 A 
ATOM     41  C   UNL     1     -46.608  33.564  25.219  1.00  0.00     0.070 A 
ATOM     42  C   UNL     1     -48.120  32.063  26.257  1.00  0.00     0.010 A 
ATOM     43  N   UNL     1     -46.355  32.711  24.200  1.00  0.00    -0.251 NA
ATOM     44  H   UNL     1     -46.071  34.507  25.172  1.00  0.00     0.088 H 
ATOM     45  C   UNL     1     -47.898  31.149  25.238  1.00  0.00     0.095 A 
ATOM     46  H   UNL     1     -48.804  31.765  27.045  1.00  0.00     0.069 H 
ATOM     47  C   UNL     1     -46.995  31.527  24.225  1.00  0.00     0.089 A 
ATOM     48  N   UNL     1     -48.544  29.964  25.258  1.00  0.00    -0.229 NA
ATOM     49  C   UNL     1     -46.779  30.605  23.219  1.00  0.00    -0.031 A 
ATOM     50  C   UNL     1     -48.319  29.081  24.260  1.00  0.00     0.129 A 
ATOM     51  C   UNL     1     -47.434  29.374  23.229  1.00  0.00    -0.017 A 
ATOM     52  H   UNL     1     -46.085  30.843  22.418  1.00  0.00     0.065 H 
ATOM     53  H   UNL     1     -47.241  28.655  22.441  1.00  0.00     0.066 H 
BRANCH  50  54
ATOM     54  N   UNL     1     -48.979  27.841  24.294  1.00  0.00    -0.356 N 
ATOM     55  C   UNL     1     -49.532  27.247  25.478  1.00  0.00     0.021 C 
ATOM     56  C   UNL     1     -50.097  27.443  23.489  1.00  0.00     0.021 C 
ATOM     57  C   UNL     1     -50.353  26.356  24.538  1.00  0.00    -0.018 C 
ATOM     58  H   UNL     1     -48.791  26.734  26.096  1.00  0.00     0.049 H 
ATOM     59  H   UNL     1     -50.121  27.950  26.077  1.00  0.00     0.049 H 
ATOM     60  H   UNL     1     -50.872  28.214  23.423  1.00  0.00     0.049 H 
ATOM     61  H   UNL     1     -49.817  27.086  22.496  1.00  0.00     0.049 H 
ATOM     62  H   UNL     1     -51.398  26.201  24.820  1.00  0.00     0.030 H 
ATOM     63  H   UNL     1     -49.887  25.390  24.311  1.00  0.00     0.030 H 
ENDBRANCH  50  54
ENDBRANCH  39  40
ENDBRANCH   1  39
TORSDOF 7
ENDMDL
MODEL 6
REMARK VINA RESULT:      -9.8      2.333     12.350
REMARK SMILES Nc1ncnc2c1c([C@@H]1CCCO1)cn2-c1cncc(COc2cnc3ccc(N4CCC4)nc3c2)c1
REMARK SMILES IDX 21 1 20 4 16 5 17 6 37 7 18 8 19 11 15 13 2 14 3 15 7 16
REMARK SMILES IDX 4 17 6 18 8 19 5 20 14 22 1 24 9 27 10 28 13 29 11 31 12 34
REMARK SMILES IDX 22 39 23 40 24 41 36 42 25 43 35 45 26 47 34 48 27 49 29 50
REMARK SMILES IDX 28 51 30 54 31 55 33 56 32 57
REMARK H PARENT 21 2 21 3 17 9 37 10 19 12 4 21 14 23 1 25 1 26 9 30 10 32
REMARK H PARENT 10 33 11 35 11 36 12 37 12 38 24 44 36 46 27 52 28 53 31 58
REMARK H PARENT 31 59 33 60 33 61 32 62 32 63
REMARK Flexibility Score: inf
ROOT
ATOM      1  C   UNL     1     -47.041  36.665  26.622  1.00  0.00     0.115 C 
ATOM      2  H   UNL     1     -48.070  36.863  26.303  1.00  0.00     0.076 H 
ATOM      3  H   UNL     1     -46.393  37.044  25.821  1.00  0.00     0.076 H 
ENDROOT
BRANCH   1   4
ATOM      4  C   UNL     1     -46.906  35.174  26.800  1.00  0.00     0.010 A 
ATOM      5  C   UNL     1     -47.230  32.876  26.071  1.00  0.00     0.066 A 
ATOM      6  C   UNL     1     -46.536  32.491  27.215  1.00  0.00     0.051 A 
ATOM      7  C   UNL     1     -47.396  34.249  25.866  1.00  0.00    -0.028 A 
ATOM      8  N   UNL     1     -46.024  33.355  28.127  1.00  0.00    -0.262 NA
ATOM      9  H   UNL     1     -46.366  31.455  27.485  1.00  0.00     0.086 H 
ATOM     10  H   UNL     1     -47.889  34.633  24.980  1.00  0.00     0.065 H 
ATOM     11  C   UNL     1     -46.222  34.670  27.899  1.00  0.00     0.034 A 
ATOM     12  H   UNL     1     -45.797  35.327  28.653  1.00  0.00     0.084 H 
BRANCH   5  13
ATOM     13  N   UNL     1     -47.739  31.900  25.156  1.00  0.00    -0.299 N 
ATOM     14  C   UNL     1     -47.650  30.050  22.103  1.00  0.00     0.136 A 
ATOM     15  N   UNL     1     -46.570  30.560  21.488  1.00  0.00    -0.219 NA
ATOM     16  C   UNL     1     -48.020  30.540  23.368  1.00  0.00     0.067 A 
ATOM     17  C   UNL     1     -45.890  31.534  22.109  1.00  0.00     0.120 A 
ATOM     18  C   UNL     1     -47.215  31.537  23.915  1.00  0.00     0.150 A 
ATOM     19  C   UNL     1     -49.078  30.273  24.294  1.00  0.00     0.012 A 
ATOM     20  N   UNL     1     -46.135  32.072  23.311  1.00  0.00    -0.218 NA
ATOM     21  H   UNL     1     -45.035  31.935  21.573  1.00  0.00     0.106 H 
ATOM     22  C   UNL     1     -48.881  31.138  25.356  1.00  0.00     0.018 A 
ATOM     23  H   UNL     1     -49.466  31.238  26.259  1.00  0.00     0.083 H 
BRANCH  14  24
ATOM     24  N   UNL     1     -48.337  29.041  21.438  1.00  0.00    -0.383 N 
ATOM     25  H   UNL     1     -48.217  29.093  20.425  1.00  0.00     0.158 HD
ATOM     26  H   UNL     1     -49.296  28.999  21.762  1.00  0.00     0.158 HD
ENDBRANCH  14  24
BRANCH  19  27
ATOM     27  C   UNL     1     -50.187  29.281  24.103  1.00  0.00     0.085 C 
ATOM     28  C   UNL     1     -49.768  27.815  24.103  1.00  0.00    -0.020 C 
ATOM     29  O   UNL     1     -50.876  29.487  22.845  1.00  0.00    -0.373 OA
ATOM     30  H   UNL     1     -50.933  29.442  24.894  1.00  0.00     0.066 H 
ATOM     31  C   UNL     1     -50.879  27.171  23.315  1.00  0.00    -0.027 C 
ATOM     32  H   UNL     1     -49.657  27.404  25.111  1.00  0.00     0.030 H 
ATOM     33  H   UNL     1     -48.822  27.666  23.570  1.00  0.00     0.030 H 
ATOM     34  C   UNL     1     -51.132  28.209  22.247  1.00  0.00     0.048 C 
ATOM     35  H   UNL     1     -50.620  26.191  22.906  1.00  0.00     0.029 H 
ATOM     36  H   UNL     1     -51.768  27.057  23.948  1.00  0.00     0.029 H 
ATOM     37  H   UNL     1     -50.442  28.090  21.405  1.00  0.00     0.057 H 
ATOM     38  H   UNL     1     -52.157  28.180  21.865  1.00  0.00     0.057 H 
ENDBRANCH  19  27
ENDBRANCH   5  13
ENDBRANCH   1   4
BRANCH   1  39
ATOM     39  O   UNL     1     -46.848  37.415  27.825  1.00  0.00    -0.487 OA
BRANCH  39  40
ATOM     40  C   UNL     1     -45.907  38.403  27.840  1.00  0.00     0.140 A 
ATOM     41  C   UNL     1     -45.099  38.451  28.967  1.00  0.00     0.070 A 
ATOM     42  C   UNL     1     -45.666  39.347  26.847  1.00  0.00     0.010 A 
ATOM     43  N   UNL     1     -44.108  39.352  29.158  1.00  0.00    -0.251 NA
ATOM     44  H   UNL     1     -45.232  37.737  29.775  1.00  0.00     0.088 H 
ATOM     45  C   UNL     1     -44.663  40.295  26.989  1.00  0.00     0.095 A 
ATOM     46  H   UNL     1     -46.240  39.371  25.926  1.00  0.00     0.069 H 
ATOM     47  C   UNL     1     -43.905  40.250  28.176  1.00  0.00     0.089 A 
ATOM     48  N   UNL     1     -44.462  41.199  26.009  1.00  0.00    -0.229 NA
ATOM     49  C   UNL     1     -42.905  41.196  28.302  1.00  0.00    -0.031 A 
ATOM     50  C   UNL     1     -43.482  42.117  26.158  1.00  0.00     0.129 A 
ATOM     51  C   UNL     1     -42.683  42.134  27.295  1.00  0.00    -0.017 A 
ATOM     52  H   UNL     1     -42.286  41.200  29.194  1.00  0.00     0.065 H 
ATOM     53  H   UNL     1     -41.884  42.858  27.402  1.00  0.00     0.066 H 
BRANCH  50  54
ATOM     54  N   UNL     1     -43.263  43.046  25.127  1.00  0.00    -0.356 N 
ATOM     55  C   UNL     1     -43.894  42.994  23.839  1.00  0.00     0.021 C 
ATOM     56  C   UNL     1     -43.403  44.471  25.214  1.00  0.00     0.021 C 
ATOM     57  C   UNL     1     -43.496  44.466  23.684  1.00  0.00    -0.018 C 
ATOM     58  H   UNL     1     -43.417  42.295  23.147  1.00  0.00     0.049 H 
ATOM     59  H   UNL     1     -44.973  42.812  23.895  1.00  0.00     0.049 H 
ATOM     60  H   UNL     1     -44.317  44.780  25.732  1.00  0.00     0.049 H 
ATOM     61  H   UNL     1     -42.529  44.972  25.633  1.00  0.00     0.049 H 
ATOM     62  H   UNL     1     -44.255  45.122  23.250  1.00  0.00     0.030 H 
ATOM     63  H   UNL     1     -42.539  44.624  23.172  1.00  0.00     0.030 H 
ENDBRANCH  50  54
ENDBRANCH  39  40
ENDBRANCH   1  39
TORSDOF 7
ENDMDL
MODEL 7
REMARK VINA RESULT:      -9.6      2.278      3.368
REMARK SMILES Nc1ncnc2c1c([C@@H]1CCCO1)cn2-c1cncc(COc2cnc3ccc(N4CCC4)nc3c2)c1
REMARK SMILES IDX 21 1 20 4 16 5 17 6 37 7 18 8 19 11 15 13 2 14 3 15 7 16
REMARK SMILES IDX 4 17 6 18 8 19 5 20 14 22 1 24 9 27 10 28 13 29 11 31 12 34
REMARK SMILES IDX 22 39 23 40 24 41 36 42 25 43 35 45 26 47 34 48 27 49 29 50
REMARK SMILES IDX 28 51 30 54 31 55 33 56 32 57
REMARK H PARENT 21 2 21 3 17 9 37 10 19 12 4 21 14 23 1 25 1 26 9 30 10 32
REMARK H PARENT 10 33 11 35 11 36 12 37 12 38 24 44 36 46 27 52 28 53 31 58
REMARK H PARENT 31 59 33 60 33 61 32 62 32 63
REMARK Flexibility Score: inf
ROOT
ATOM      1  C   UNL     1     -47.474  36.862  27.822  1.00  0.00     0.115 C 
ATOM      2  H   UNL     1     -48.510  36.511  27.759  1.00  0.00     0.076 H 
ATOM      3  H   UNL     1     -47.109  36.563  28.813  1.00  0.00     0.076 H 
ENDROOT
BRANCH   1   4
ATOM      4  C   UNL     1     -47.497  38.360  27.657  1.00  0.00     0.010 A 
ATOM      5  C   UNL     1     -46.496  40.473  26.986  1.00  0.00     0.066 A 
ATOM      6  C   UNL     1     -47.697  41.075  27.352  1.00  0.00     0.051 A 
ATOM      7  C   UNL     1     -46.417  39.085  27.134  1.00  0.00    -0.028 A 
ATOM      8  N   UNL     1     -48.773  40.407  27.836  1.00  0.00    -0.262 NA
ATOM      9  H   UNL     1     -47.863  42.146  27.300  1.00  0.00     0.086 H 
ATOM     10  H   UNL     1     -45.531  38.534  26.834  1.00  0.00     0.065 H 
ATOM     11  C   UNL     1     -48.647  39.071  27.978  1.00  0.00     0.034 A 
ATOM     12  H   UNL     1     -49.531  38.574  28.370  1.00  0.00     0.084 H 
BRANCH   5  13
ATOM     13  N   UNL     1     -45.406  41.251  26.481  1.00  0.00    -0.299 N 
ATOM     14  C   UNL     1     -42.046  42.456  26.571  1.00  0.00     0.136 A 
ATOM     15  N   UNL     1     -41.561  41.875  27.682  1.00  0.00    -0.219 NA
ATOM     16  C   UNL     1     -43.378  42.215  26.192  1.00  0.00     0.067 A 
ATOM     17  C   UNL     1     -42.382  41.090  28.395  1.00  0.00     0.120 A 
ATOM     18  C   UNL     1     -44.119  41.361  27.006  1.00  0.00     0.150 A 
ATOM     19  C   UNL     1     -44.228  42.652  25.127  1.00  0.00     0.012 A 
ATOM     20  N   UNL     1     -43.657  40.778  28.130  1.00  0.00    -0.218 NA
ATOM     21  H   UNL     1     -41.961  40.654  29.295  1.00  0.00     0.106 H 
ATOM     22  C   UNL     1     -45.459  42.060  25.355  1.00  0.00     0.018 A 
ATOM     23  H   UNL     1     -46.362  42.139  24.768  1.00  0.00     0.083 H 
BRANCH  14  24
ATOM     24  N   UNL     1     -41.175  43.264  25.850  1.00  0.00    -0.383 N 
ATOM     25  H   UNL     1     -41.580  43.578  24.966  1.00  0.00     0.158 HD
ATOM     26  H   UNL     1     -40.266  42.824  25.781  1.00  0.00     0.158 HD
ENDBRANCH  14  24
BRANCH  19  27
ATOM     27  C   UNL     1     -43.848  43.597  24.026  1.00  0.00     0.085 C 
ATOM     28  C   UNL     1     -44.002  45.080  24.348  1.00  0.00    -0.020 C 
ATOM     29  O   UNL     1     -44.641  43.375  22.834  1.00  0.00    -0.373 OA
ATOM     30  H   UNL     1     -42.805  43.397  23.745  1.00  0.00     0.066 H 
ATOM     31  C   UNL     1     -44.158  45.685  22.976  1.00  0.00    -0.027 C 
ATOM     32  H   UNL     1     -43.152  45.485  24.906  1.00  0.00     0.030 H 
ATOM     33  H   UNL     1     -44.912  45.274  24.928  1.00  0.00     0.030 H 
ATOM     34  C   UNL     1     -45.013  44.647  22.285  1.00  0.00     0.048 C 
ATOM     35  H   UNL     1     -44.613  46.678  22.981  1.00  0.00     0.029 H 
ATOM     36  H   UNL     1     -43.180  45.754  22.486  1.00  0.00     0.029 H 
ATOM     37  H   UNL     1     -46.076  44.804  22.495  1.00  0.00     0.057 H 
ATOM     38  H   UNL     1     -44.869  44.637  21.201  1.00  0.00     0.057 H 
ENDBRANCH  19  27
ENDBRANCH   5  13
ENDBRANCH   1   4
BRANCH   1  39
ATOM     39  O   UNL     1     -46.759  36.173  26.791  1.00  0.00    -0.487 OA
BRANCH  39  40
ATOM     40  C   UNL     1     -47.213  34.955  26.378  1.00  0.00     0.140 A 
ATOM     41  C   UNL     1     -48.437  34.558  26.898  1.00  0.00     0.070 A 
ATOM     42  C   UNL     1     -46.592  34.087  25.486  1.00  0.00     0.010 A 
ATOM     43  N   UNL     1     -49.050  33.389  26.600  1.00  0.00    -0.251 NA
ATOM     44  H   UNL     1     -48.975  35.195  27.594  1.00  0.00     0.088 H 
ATOM     45  C   UNL     1     -47.175  32.875  25.143  1.00  0.00     0.095 A 
ATOM     46  H   UNL     1     -45.642  34.325  25.019  1.00  0.00     0.069 H 
ATOM     47  C   UNL     1     -48.418  32.575  25.734  1.00  0.00     0.089 A 
ATOM     48  N   UNL     1     -46.540  32.055  24.281  1.00  0.00    -0.229 NA
ATOM     49  C   UNL     1     -48.991  31.368  25.380  1.00  0.00    -0.031 A 
ATOM     50  C   UNL     1     -47.118  30.878  23.954  1.00  0.00     0.129 A 
ATOM     51  C   UNL     1     -48.349  30.512  24.486  1.00  0.00    -0.017 A 
ATOM     52  H   UNL     1     -49.953  31.091  25.800  1.00  0.00     0.065 H 
ATOM     53  H   UNL     1     -48.820  29.576  24.206  1.00  0.00     0.066 H 
BRANCH  50  54
ATOM     54  N   UNL     1     -46.464  30.034  23.041  1.00  0.00    -0.356 N 
ATOM     55  C   UNL     1     -45.208  30.334  22.414  1.00  0.00     0.021 C 
ATOM     56  C   UNL     1     -46.111  28.659  23.247  1.00  0.00     0.021 C 
ATOM     57  C   UNL     1     -45.110  28.836  22.100  1.00  0.00    -0.018 C 
ATOM     58  H   UNL     1     -45.299  30.997  21.551  1.00  0.00     0.049 H 
ATOM     59  H   UNL     1     -44.455  30.707  23.117  1.00  0.00     0.049 H 
ATOM     60  H   UNL     1     -45.662  28.475  24.229  1.00  0.00     0.049 H 
ATOM     61  H   UNL     1     -46.930  27.963  23.057  1.00  0.00     0.049 H 
ATOM     62  H   UNL     1     -44.127  28.381  22.250  1.00  0.00     0.030 H 
ATOM     63  H   UNL     1     -45.497  28.555  21.114  1.00  0.00     0.030 H 
ENDBRANCH  50  54
ENDBRANCH  39  40
ENDBRANCH   1  39
TORSDOF 7
ENDMDL
