MODEL 1
REMARK VINA RESULT:     -10.9      0.000      0.000
REMARK SMILES O=C(NCc1ccc2cc(CNCC3(O)CCCC3)[nH]c2c1)c1cc(=O)n2ccccc2n1
REMARK SMILES IDX 11 1 10 4 5 5 6 6 22 7 7 8 21 10 8 12 20 14 9 15 4 18 3 21
REMARK SMILES IDX 1 22 2 23 23 25 24 26 33 27 25 28 32 30 26 31 27 32 31 33
REMARK SMILES IDX 28 34 30 35 29 37 12 41 13 43 14 46 16 47 19 48 17 49 18 52
REMARK SMILES IDX 15 59
REMARK H PARENT 11 2 11 3 6 9 22 11 7 13 20 16 9 17 4 19 4 20 3 24 24 29 31 36
REMARK H PARENT 28 38 30 39 29 40 12 42 13 44 13 45 16 50 16 51 19 53 19 54
REMARK H PARENT 17 55 17 56 18 57 18 58 15 60
REMARK Flexibility Score: inf
ROOT
ATOM      1  C   UNL     1     -48.970  30.086  24.520  1.00  0.00     0.036 C 
ATOM      2  H   UNL     1     -49.968  29.907  24.936  1.00  0.00     0.049 H 
ATOM      3  H   UNL     1     -49.055  30.108  23.427  1.00  0.00     0.049 H 
ENDROOT
BRANCH   1   4
ATOM      4  C   UNL     1     -48.460  31.402  24.989  1.00  0.00     0.030 A 
ATOM      5  C   UNL     1     -48.019  35.565  26.949  1.00  0.00    -0.027 A 
ATOM      6  C   UNL     1     -46.736  35.453  26.400  1.00  0.00    -0.057 A 
ATOM      7  C   UNL     1     -48.954  34.531  26.765  1.00  0.00    -0.033 A 
ATOM      8  C   UNL     1     -46.352  34.315  25.679  1.00  0.00    -0.052 A 
ATOM      9  H   UNL     1     -46.014  36.259  26.527  1.00  0.00     0.063 H 
ATOM     10  C   UNL     1     -48.551  33.401  26.044  1.00  0.00     0.046 A 
ATOM     11  H   UNL     1     -49.959  34.608  27.169  1.00  0.00     0.065 H 
ATOM     12  C   UNL     1     -47.276  33.270  25.498  1.00  0.00    -0.000 A 
ATOM     13  H   UNL     1     -45.351  34.243  25.263  1.00  0.00     0.063 H 
ATOM     14  N   UNL     1     -49.246  32.258  25.723  1.00  0.00    -0.357 N 
ATOM     15  C   UNL     1     -47.229  32.010  24.838  1.00  0.00    -0.032 A 
ATOM     16  H   UNL     1     -50.211  32.075  25.962  1.00  0.00     0.166 HD
ATOM     17  H   UNL     1     -46.380  31.596  24.310  1.00  0.00     0.065 H 
BRANCH   5  18
ATOM     18  C   UNL     1     -48.420  36.813  27.692  1.00  0.00     0.043 C 
ATOM     19  H   UNL     1     -49.342  37.235  27.273  1.00  0.00     0.054 H 
ATOM     20  H   UNL     1     -48.626  36.593  28.746  1.00  0.00     0.054 H 
BRANCH  18  21
ATOM     21  N   UNL     1     -47.379  37.802  27.630  1.00  0.00    -0.347 N 
ATOM     22  O   UNL     1     -46.446  37.296  29.665  1.00  0.00    -0.268 OA
ATOM     23  C   UNL     1     -46.444  37.940  28.623  1.00  0.00     0.270 C 
ATOM     24  H   UNL     1     -47.238  38.345  26.783  1.00  0.00     0.164 HD
BRANCH  23  25
ATOM     25  C   UNL     1     -45.396  38.975  28.290  1.00  0.00     0.136 A 
ATOM     26  C   UNL     1     -45.528  39.599  27.117  1.00  0.00     0.035 A 
ATOM     27  N   UNL     1     -44.388  39.212  29.198  1.00  0.00    -0.225 NA
ATOM     28  C   UNL     1     -44.530  40.612  26.754  1.00  0.00     0.258 A 
ATOM     29  H   UNL     1     -46.326  39.405  26.413  1.00  0.00     0.071 H 
ATOM     30  C   UNL     1     -43.508  40.108  28.872  1.00  0.00     0.140 A 
ATOM     31  O   UNL     1     -44.643  41.193  25.674  1.00  0.00    -0.269 OA
ATOM     32  N   UNL     1     -43.523  40.831  27.684  1.00  0.00    -0.268 N 
ATOM     33  C   UNL     1     -42.397  40.395  29.822  1.00  0.00    -0.019 A 
ATOM     34  C   UNL     1     -42.541  41.776  27.409  1.00  0.00     0.014 A 
ATOM     35  C   UNL     1     -41.475  41.315  29.514  1.00  0.00    -0.057 A 
ATOM     36  H   UNL     1     -42.376  39.837  30.750  1.00  0.00     0.066 H 
ATOM     37  C   UNL     1     -41.546  42.030  28.268  1.00  0.00    -0.045 A 
ATOM     38  H   UNL     1     -42.615  42.304  26.462  1.00  0.00     0.082 H 
ATOM     39  H   UNL     1     -40.658  41.538  30.193  1.00  0.00     0.062 H 
ATOM     40  H   UNL     1     -40.785  42.770  28.043  1.00  0.00     0.064 H 
ENDBRANCH  23  25
ENDBRANCH  18  21
ENDBRANCH   5  18
ENDBRANCH   1   4
BRANCH   1  41
ATOM     41  N   UNL     1     -48.040  29.039  24.941  1.00  0.00    -0.308 NA
ATOM     42  H   UNL     1     -47.356  29.483  25.560  1.00  0.00     0.123 HD
BRANCH  41  43
ATOM     43  C   UNL     1     -48.747  28.008  25.724  1.00  0.00     0.024 C 
ATOM     44  H   UNL     1     -48.385  28.051  26.758  1.00  0.00     0.046 H 
ATOM     45  H   UNL     1     -49.823  28.216  25.734  1.00  0.00     0.046 H 
BRANCH  43  46
ATOM     46  C   UNL     1     -48.482  26.592  25.152  1.00  0.00     0.077 C 
ATOM     47  C   UNL     1     -49.031  25.463  26.030  1.00  0.00    -0.023 C 
ATOM     48  C   UNL     1     -46.990  26.259  25.113  1.00  0.00    -0.023 C 
ATOM     49  C   UNL     1     -47.974  25.261  27.112  1.00  0.00    -0.050 C 
ATOM     50  H   UNL     1     -50.016  25.680  26.454  1.00  0.00     0.030 H 
ATOM     51  H   UNL     1     -49.141  24.543  25.440  1.00  0.00     0.030 H 
ATOM     52  C   UNL     1     -46.661  25.776  26.522  1.00  0.00    -0.050 C 
ATOM     53  H   UNL     1     -46.797  25.458  24.388  1.00  0.00     0.030 H 
ATOM     54  H   UNL     1     -46.370  27.108  24.812  1.00  0.00     0.030 H 
ATOM     55  H   UNL     1     -47.903  24.209  27.406  1.00  0.00     0.027 H 
ATOM     56  H   UNL     1     -48.230  25.835  28.010  1.00  0.00     0.027 H 
ATOM     57  H   UNL     1     -45.891  24.999  26.505  1.00  0.00     0.027 H 
ATOM     58  H   UNL     1     -46.277  26.603  27.131  1.00  0.00     0.027 H 
BRANCH  46  59
ATOM     59  O   UNL     1     -49.028  26.505  23.837  1.00  0.00    -0.389 OA
ATOM     60  H   UNL     1     -49.213  25.561  23.690  1.00  0.00     0.211 HD
ENDBRANCH  46  59
ENDBRANCH  43  46
ENDBRANCH  41  43
ENDBRANCH   1  41
TORSDOF 8
ENDMDL
MODEL 2
REMARK VINA RESULT:     -10.1      1.602      2.297
REMARK SMILES O=C(NCc1ccc2cc(CNCC3(O)CCCC3)[nH]c2c1)c1cc(=O)n2ccccc2n1
REMARK SMILES IDX 11 1 10 4 5 5 6 6 22 7 7 8 21 10 8 12 20 14 9 15 4 18 3 21
REMARK SMILES IDX 1 22 2 23 23 25 24 26 33 27 25 28 32 30 26 31 27 32 31 33
REMARK SMILES IDX 28 34 30 35 29 37 12 41 13 43 14 46 16 47 19 48 17 49 18 52
REMARK SMILES IDX 15 59
REMARK H PARENT 11 2 11 3 6 9 22 11 7 13 20 16 9 17 4 19 4 20 3 24 24 29 31 36
REMARK H PARENT 28 38 30 39 29 40 12 42 13 44 13 45 16 50 16 51 19 53 19 54
REMARK H PARENT 17 55 17 56 18 57 18 58 15 60
REMARK Flexibility Score: inf
ROOT
ATOM      1  C   UNL     1     -48.776  30.571  25.153  1.00  0.00     0.036 C 
ATOM      2  H   UNL     1     -49.853  30.640  24.963  1.00  0.00     0.049 H 
ATOM      3  H   UNL     1     -48.286  30.250  24.226  1.00  0.00     0.049 H 
ENDROOT
BRANCH   1   4
ATOM      4  C   UNL     1     -48.247  31.907  25.540  1.00  0.00     0.030 A 
ATOM      5  C   UNL     1     -47.786  36.224  27.125  1.00  0.00    -0.027 A 
ATOM      6  C   UNL     1     -46.465  36.008  26.712  1.00  0.00    -0.057 A 
ATOM      7  C   UNL     1     -48.749  35.214  26.954  1.00  0.00    -0.033 A 
ATOM      8  C   UNL     1     -46.073  34.789  26.143  1.00  0.00    -0.052 A 
ATOM      9  H   UNL     1     -45.720  36.794  26.828  1.00  0.00     0.063 H 
ATOM     10  C   UNL     1     -48.337  34.002  26.385  1.00  0.00     0.046 A 
ATOM     11  H   UNL     1     -49.781  35.370  27.253  1.00  0.00     0.065 H 
ATOM     12  C   UNL     1     -47.026  33.768  25.976  1.00  0.00    -0.000 A 
ATOM     13  H   UNL     1     -45.044  34.638  25.831  1.00  0.00     0.063 H 
ATOM     14  N   UNL     1     -49.055  32.861  26.111  1.00  0.00    -0.357 N 
ATOM     15  C   UNL     1     -46.981  32.448  25.448  1.00  0.00    -0.032 A 
ATOM     16  H   UNL     1     -50.045  32.740  26.276  1.00  0.00     0.166 HD
ATOM     17  H   UNL     1     -46.109  31.951  25.043  1.00  0.00     0.065 H 
BRANCH   5  18
ATOM     18  C   UNL     1     -48.192  37.554  27.704  1.00  0.00     0.043 C 
ATOM     19  H   UNL     1     -49.120  37.912  27.242  1.00  0.00     0.054 H 
ATOM     20  H   UNL     1     -48.387  37.471  28.779  1.00  0.00     0.054 H 
BRANCH  18  21
ATOM     21  N   UNL     1     -47.159  38.535  27.505  1.00  0.00    -0.347 N 
ATOM     22  O   UNL     1     -46.156  38.244  29.549  1.00  0.00    -0.268 OA
ATOM     23  C   UNL     1     -46.193  38.777  28.446  1.00  0.00     0.270 C 
ATOM     24  H   UNL     1     -47.051  38.988  26.602  1.00  0.00     0.164 HD
BRANCH  23  25
ATOM     25  C   UNL     1     -45.163  39.775  27.973  1.00  0.00     0.136 A 
ATOM     26  C   UNL     1     -44.067  39.901  28.725  1.00  0.00     0.035 A 
ATOM     27  N   UNL     1     -45.408  40.481  26.817  1.00  0.00    -0.225 NA
ATOM     28  C   UNL     1     -43.040  40.860  28.301  1.00  0.00     0.258 A 
ATOM     29  H   UNL     1     -43.885  39.339  29.631  1.00  0.00     0.071 H 
ATOM     30  C   UNL     1     -44.498  41.329  26.447  1.00  0.00     0.140 A 
ATOM     31  O   UNL     1     -42.026  40.983  28.988  1.00  0.00    -0.269 OA
ATOM     32  N   UNL     1     -43.312  41.561  27.135  1.00  0.00    -0.268 N 
ATOM     33  C   UNL     1     -44.722  42.119  25.203  1.00  0.00    -0.019 A 
ATOM     34  C   UNL     1     -42.385  42.489  26.671  1.00  0.00     0.014 A 
ATOM     35  C   UNL     1     -43.801  43.000  24.795  1.00  0.00    -0.057 A 
ATOM     36  H   UNL     1     -45.643  41.946  24.661  1.00  0.00     0.066 H 
ATOM     37  C   UNL     1     -42.593  43.194  25.552  1.00  0.00    -0.045 A 
ATOM     38  H   UNL     1     -41.480  42.619  27.258  1.00  0.00     0.082 H 
ATOM     39  H   UNL     1     -43.946  43.584  23.893  1.00  0.00     0.062 H 
ATOM     40  H   UNL     1     -41.863  43.916  25.199  1.00  0.00     0.064 H 
ENDBRANCH  23  25
ENDBRANCH  18  21
ENDBRANCH   5  18
ENDBRANCH   1   4
BRANCH   1  41
ATOM     41  N   UNL     1     -48.503  29.622  26.232  1.00  0.00    -0.308 NA
ATOM     42  H   UNL     1     -49.318  29.635  26.850  1.00  0.00     0.123 HD
BRANCH  41  43
ATOM     43  C   UNL     1     -48.373  28.256  25.694  1.00  0.00     0.024 C 
ATOM     44  H   UNL     1     -49.338  27.960  25.264  1.00  0.00     0.046 H 
ATOM     45  H   UNL     1     -47.626  28.237  24.891  1.00  0.00     0.046 H 
BRANCH  43  46
ATOM     46  C   UNL     1     -47.984  27.249  26.807  1.00  0.00     0.077 C 
ATOM     47  C   UNL     1     -46.675  26.505  26.532  1.00  0.00    -0.023 C 
ATOM     48  C   UNL     1     -48.983  26.095  26.911  1.00  0.00    -0.023 C 
ATOM     49  C   UNL     1     -47.062  25.367  25.592  1.00  0.00    -0.050 C 
ATOM     50  H   UNL     1     -45.892  27.141  26.107  1.00  0.00     0.030 H 
ATOM     51  H   UNL     1     -46.268  26.095  27.466  1.00  0.00     0.030 H 
ATOM     52  C   UNL     1     -48.549  25.106  25.835  1.00  0.00    -0.050 C 
ATOM     53  H   UNL     1     -48.919  25.625  27.900  1.00  0.00     0.030 H 
ATOM     54  H   UNL     1     -50.021  26.416  26.784  1.00  0.00     0.030 H 
ATOM     55  H   UNL     1     -46.456  24.475  25.779  1.00  0.00     0.027 H 
ATOM     56  H   UNL     1     -46.900  25.660  24.548  1.00  0.00     0.027 H 
ATOM     57  H   UNL     1     -48.734  24.074  26.147  1.00  0.00     0.027 H 
ATOM     58  H   UNL     1     -49.113  25.273  24.910  1.00  0.00     0.027 H 
BRANCH  46  59
ATOM     59  O   UNL     1     -47.911  27.935  28.056  1.00  0.00    -0.389 OA
ATOM     60  H   UNL     1     -46.962  28.076  28.224  1.00  0.00     0.211 HD
ENDBRANCH  46  59
ENDBRANCH  43  46
ENDBRANCH  41  43
ENDBRANCH   1  41
TORSDOF 8
ENDMDL
MODEL 3
REMARK VINA RESULT:     -10.0      1.694      2.410
REMARK SMILES O=C(NCc1ccc2cc(CNCC3(O)CCCC3)[nH]c2c1)c1cc(=O)n2ccccc2n1
REMARK SMILES IDX 11 1 10 4 5 5 6 6 22 7 7 8 21 10 8 12 20 14 9 15 4 18 3 21
REMARK SMILES IDX 1 22 2 23 23 25 24 26 33 27 25 28 32 30 26 31 27 32 31 33
REMARK SMILES IDX 28 34 30 35 29 37 12 41 13 43 14 46 16 47 19 48 17 49 18 52
REMARK SMILES IDX 15 59
REMARK H PARENT 11 2 11 3 6 9 22 11 7 13 20 16 9 17 4 19 4 20 3 24 24 29 31 36
REMARK H PARENT 28 38 30 39 29 40 12 42 13 44 13 45 16 50 16 51 19 53 19 54
REMARK H PARENT 17 55 17 56 18 57 18 58 15 60
REMARK Flexibility Score: inf
ROOT
ATOM      1  C   UNL     1     -46.682  30.889  23.922  1.00  0.00     0.036 C 
ATOM      2  H   UNL     1     -46.743  31.208  22.875  1.00  0.00     0.049 H 
ATOM      3  H   UNL     1     -45.675  30.491  24.099  1.00  0.00     0.049 H 
ENDROOT
BRANCH   1   4
ATOM      4  C   UNL     1     -46.902  32.056  24.817  1.00  0.00     0.030 A 
ATOM      5  C   UNL     1     -46.338  35.635  27.688  1.00  0.00    -0.027 A 
ATOM      6  C   UNL     1     -47.731  35.688  27.555  1.00  0.00    -0.057 A 
ATOM      7  C   UNL     1     -45.606  34.640  27.016  1.00  0.00    -0.033 A 
ATOM      8  C   UNL     1     -48.418  34.774  26.745  1.00  0.00    -0.052 A 
ATOM      9  H   UNL     1     -48.303  36.447  28.087  1.00  0.00     0.063 H 
ATOM     10  C   UNL     1     -46.310  33.737  26.209  1.00  0.00     0.046 A 
ATOM     11  H   UNL     1     -44.527  34.573  27.121  1.00  0.00     0.065 H 
ATOM     12  C   UNL     1     -47.695  33.781  26.060  1.00  0.00    -0.000 A 
ATOM     13  H   UNL     1     -49.498  34.832  26.651  1.00  0.00     0.063 H 
ATOM     14  N   UNL     1     -45.855  32.687  25.447  1.00  0.00    -0.357 N 
ATOM     15  C   UNL     1     -48.056  32.721  25.182  1.00  0.00    -0.032 A 
ATOM     16  H   UNL     1     -44.891  32.391  25.376  1.00  0.00     0.166 HD
ATOM     17  H   UNL     1     -49.057  32.475  24.855  1.00  0.00     0.065 H 
BRANCH   5  18
ATOM     18  C   UNL     1     -45.625  36.607  28.591  1.00  0.00     0.043 C 
ATOM     19  H   UNL     1     -46.175  36.740  29.531  1.00  0.00     0.054 H 
ATOM     20  H   UNL     1     -44.629  36.235  28.859  1.00  0.00     0.054 H 
BRANCH  18  21
ATOM     21  N   UNL     1     -45.474  37.884  27.949  1.00  0.00    -0.347 N 
ATOM     22  O   UNL     1     -44.222  38.844  29.616  1.00  0.00    -0.268 OA
ATOM     23  C   UNL     1     -44.746  38.901  28.510  1.00  0.00     0.270 C 
ATOM     24  H   UNL     1     -45.806  38.022  26.999  1.00  0.00     0.164 HD
BRANCH  23  25
ATOM     25  C   UNL     1     -44.648  40.108  27.608  1.00  0.00     0.136 A 
ATOM     26  C   UNL     1     -45.789  40.538  27.063  1.00  0.00     0.035 A 
ATOM     27  N   UNL     1     -43.415  40.685  27.406  1.00  0.00    -0.225 NA
ATOM     28  C   UNL     1     -45.739  41.708  26.180  1.00  0.00     0.258 A 
ATOM     29  H   UNL     1     -46.753  40.076  27.231  1.00  0.00     0.071 H 
ATOM     30  C   UNL     1     -43.376  41.720  26.623  1.00  0.00     0.140 A 
ATOM     31  O   UNL     1     -46.786  42.111  25.673  1.00  0.00    -0.269 OA
ATOM     32  N   UNL     1     -44.485  42.270  25.990  1.00  0.00    -0.268 N 
ATOM     33  C   UNL     1     -42.061  42.376  26.372  1.00  0.00    -0.019 A 
ATOM     34  C   UNL     1     -44.358  43.383  25.165  1.00  0.00     0.014 A 
ATOM     35  C   UNL     1     -41.989  43.445  25.571  1.00  0.00    -0.057 A 
ATOM     36  H   UNL     1     -41.191  41.954  26.861  1.00  0.00     0.066 H 
ATOM     37  C   UNL     1     -43.174  43.967  24.944  1.00  0.00    -0.045 A 
ATOM     38  H   UNL     1     -45.267  43.760  24.702  1.00  0.00     0.082 H 
ATOM     39  H   UNL     1     -41.041  43.935  25.376  1.00  0.00     0.062 H 
ATOM     40  H   UNL     1     -43.087  44.835  24.299  1.00  0.00     0.064 H 
ENDBRANCH  23  25
ENDBRANCH  18  21
ENDBRANCH   5  18
ENDBRANCH   1   4
BRANCH   1  41
ATOM     41  N   UNL     1     -47.692  29.871  24.211  1.00  0.00    -0.308 NA
ATOM     42  H   UNL     1     -48.379  29.915  23.455  1.00  0.00     0.123 HD
BRANCH  41  43
ATOM     43  C   UNL     1     -47.087  28.526  24.188  1.00  0.00     0.024 C 
ATOM     44  H   UNL     1     -46.697  28.340  23.180  1.00  0.00     0.046 H 
ATOM     45  H   UNL     1     -46.245  28.479  24.889  1.00  0.00     0.046 H 
BRANCH  43  46
ATOM     46  C   UNL     1     -48.133  27.436  24.536  1.00  0.00     0.077 C 
ATOM     47  C   UNL     1     -49.098  27.846  25.653  1.00  0.00    -0.023 C 
ATOM     48  C   UNL     1     -47.482  26.186  25.130  1.00  0.00    -0.023 C 
ATOM     49  C   UNL     1     -48.335  27.575  26.947  1.00  0.00    -0.050 C 
ATOM     50  H   UNL     1     -49.430  28.886  25.582  1.00  0.00     0.030 H 
ATOM     51  H   UNL     1     -50.003  27.225  25.618  1.00  0.00     0.030 H 
ATOM     52  C   UNL     1     -47.293  26.508  26.608  1.00  0.00    -0.050 C 
ATOM     53  H   UNL     1     -48.148  25.321  25.017  1.00  0.00     0.030 H 
ATOM     54  H   UNL     1     -46.540  25.921  24.641  1.00  0.00     0.030 H 
ATOM     55  H   UNL     1     -49.009  27.247  27.744  1.00  0.00     0.027 H 
ATOM     56  H   UNL     1     -47.835  28.487  27.296  1.00  0.00     0.027 H 
ATOM     57  H   UNL     1     -47.412  25.614  27.228  1.00  0.00     0.027 H 
ATOM     58  H   UNL     1     -46.286  26.900  26.790  1.00  0.00     0.027 H 
BRANCH  46  59
ATOM     59  O   UNL     1     -48.859  27.088  23.359  1.00  0.00    -0.389 OA
ATOM     60  H   UNL     1     -49.316  26.253  23.568  1.00  0.00     0.211 HD
ENDBRANCH  46  59
ENDBRANCH  43  46
ENDBRANCH  41  43
ENDBRANCH   1  41
TORSDOF 8
ENDMDL
MODEL 4
REMARK VINA RESULT:      -9.6      2.888      3.905
REMARK SMILES O=C(NCc1ccc2cc(CNCC3(O)CCCC3)[nH]c2c1)c1cc(=O)n2ccccc2n1
REMARK SMILES IDX 11 1 10 4 5 5 6 6 22 7 7 8 21 10 8 12 20 14 9 15 4 18 3 21
REMARK SMILES IDX 1 22 2 23 23 25 24 26 33 27 25 28 32 30 26 31 27 32 31 33
REMARK SMILES IDX 28 34 30 35 29 37 12 41 13 43 14 46 16 47 19 48 17 49 18 52
REMARK SMILES IDX 15 59
REMARK H PARENT 11 2 11 3 6 9 22 11 7 13 20 16 9 17 4 19 4 20 3 24 24 29 31 36
REMARK H PARENT 28 38 30 39 29 40 12 42 13 44 13 45 16 50 16 51 19 53 19 54
REMARK H PARENT 17 55 17 56 18 57 18 58 15 60
REMARK Flexibility Score: inf
ROOT
ATOM      1  C   UNL     1     -46.659  31.289  24.297  1.00  0.00     0.036 C 
ATOM      2  H   UNL     1     -45.979  31.627  23.506  1.00  0.00     0.049 H 
ATOM      3  H   UNL     1     -46.160  30.490  24.857  1.00  0.00     0.049 H 
ENDROOT
BRANCH   1   4
ATOM      4  C   UNL     1     -46.953  32.415  25.223  1.00  0.00     0.030 A 
ATOM      5  C   UNL     1     -46.681  35.708  28.455  1.00  0.00    -0.027 A 
ATOM      6  C   UNL     1     -47.994  35.939  28.029  1.00  0.00    -0.057 A 
ATOM      7  C   UNL     1     -45.924  34.677  27.871  1.00  0.00    -0.033 A 
ATOM      8  C   UNL     1     -48.572  35.169  27.010  1.00  0.00    -0.052 A 
ATOM      9  H   UNL     1     -48.588  36.727  28.490  1.00  0.00     0.063 H 
ATOM     10  C   UNL     1     -46.518  33.919  26.854  1.00  0.00     0.046 A 
ATOM     11  H   UNL     1     -44.909  34.473  28.201  1.00  0.00     0.065 H 
ATOM     12  C   UNL     1     -47.821  34.141  26.413  1.00  0.00    -0.000 A 
ATOM     13  H   UNL     1     -49.591  35.364  26.690  1.00  0.00     0.063 H 
ATOM     14  N   UNL     1     -46.015  32.872  26.118  1.00  0.00    -0.357 N 
ATOM     15  C   UNL     1     -48.083  33.191  25.387  1.00  0.00    -0.032 A 
ATOM     16  H   UNL     1     -45.096  32.467  26.232  1.00  0.00     0.166 HD
ATOM     17  H   UNL     1     -49.005  33.090  24.829  1.00  0.00     0.065 H 
BRANCH   5  18
ATOM     18  C   UNL     1     -46.091  36.527  29.574  1.00  0.00     0.043 C 
ATOM     19  H   UNL     1     -46.865  36.805  30.301  1.00  0.00     0.054 H 
ATOM     20  H   UNL     1     -45.335  35.954  30.123  1.00  0.00     0.054 H 
BRANCH  18  21
ATOM     21  N   UNL     1     -45.474  37.721  29.064  1.00  0.00    -0.347 N 
ATOM     22  O   UNL     1     -44.170  38.123  30.909  1.00  0.00    -0.268 OA
ATOM     23  C   UNL     1     -44.526  38.411  29.772  1.00  0.00     0.270 C 
ATOM     24  H   UNL     1     -45.641  38.014  28.105  1.00  0.00     0.164 HD
BRANCH  23  25
ATOM     25  C   UNL     1     -43.953  39.571  28.993  1.00  0.00     0.136 A 
ATOM     26  C   UNL     1     -42.892  40.180  29.527  1.00  0.00     0.035 A 
ATOM     27  N   UNL     1     -44.544  39.924  27.801  1.00  0.00    -0.225 NA
ATOM     28  C   UNL     1     -42.303  41.313  28.802  1.00  0.00     0.258 A 
ATOM     29  H   UNL     1     -42.434  39.892  30.464  1.00  0.00     0.071 H 
ATOM     30  C   UNL     1     -44.022  40.927  27.164  1.00  0.00     0.140 A 
ATOM     31  O   UNL     1     -41.325  41.881  29.287  1.00  0.00    -0.269 OA
ATOM     32  N   UNL     1     -42.919  41.651  27.605  1.00  0.00    -0.268 N 
ATOM     33  C   UNL     1     -44.631  41.347  25.871  1.00  0.00    -0.019 A 
ATOM     34  C   UNL     1     -42.418  42.714  26.862  1.00  0.00     0.014 A 
ATOM     35  C   UNL     1     -44.113  42.376  25.191  1.00  0.00    -0.057 A 
ATOM     36  H   UNL     1     -45.491  40.790  25.520  1.00  0.00     0.066 H 
ATOM     37  C   UNL     1     -42.971  43.086  25.701  1.00  0.00    -0.045 A 
ATOM     38  H   UNL     1     -41.554  43.236  27.267  1.00  0.00     0.082 H 
ATOM     39  H   UNL     1     -44.543  42.697  24.248  1.00  0.00     0.062 H 
ATOM     40  H   UNL     1     -42.571  43.917  25.129  1.00  0.00     0.064 H 
ENDBRANCH  23  25
ENDBRANCH  18  21
ENDBRANCH   5  18
ENDBRANCH   1   4
BRANCH   1  41
ATOM     41  N   UNL     1     -47.916  30.805  23.724  1.00  0.00    -0.308 NA
ATOM     42  H   UNL     1     -48.591  31.569  23.808  1.00  0.00     0.123 HD
BRANCH  41  43
ATOM     43  C   UNL     1     -47.747  30.515  22.288  1.00  0.00     0.024 C 
ATOM     44  H   UNL     1     -47.694  31.468  21.746  1.00  0.00     0.046 H 
ATOM     45  H   UNL     1     -46.805  29.979  22.119  1.00  0.00     0.046 H 
BRANCH  43  46
ATOM     46  C   UNL     1     -48.938  29.687  21.740  1.00  0.00     0.077 C 
ATOM     47  C   UNL     1     -49.069  29.734  20.215  1.00  0.00    -0.023 C 
ATOM     48  C   UNL     1     -50.285  30.256  22.187  1.00  0.00    -0.023 C 
ATOM     49  C   UNL     1     -49.801  31.041  19.926  1.00  0.00    -0.050 C 
ATOM     50  H   UNL     1     -48.108  29.677  19.693  1.00  0.00     0.030 H 
ATOM     51  H   UNL     1     -49.668  28.885  19.860  1.00  0.00     0.030 H 
ATOM     52  C   UNL     1     -50.582  31.378  21.197  1.00  0.00    -0.050 C 
ATOM     53  H   UNL     1     -51.064  29.485  22.123  1.00  0.00     0.030 H 
ATOM     54  H   UNL     1     -50.279  30.609  23.222  1.00  0.00     0.030 H 
ATOM     55  H   UNL     1     -50.460  30.943  19.058  1.00  0.00     0.027 H 
ATOM     56  H   UNL     1     -49.085  31.842  19.705  1.00  0.00     0.027 H 
ATOM     57  H   UNL     1     -51.656  31.462  21.003  1.00  0.00     0.027 H 
ATOM     58  H   UNL     1     -50.246  32.341  21.597  1.00  0.00     0.027 H 
BRANCH  46  59
ATOM     59  O   UNL     1     -48.815  28.337  22.185  1.00  0.00    -0.389 OA
ATOM     60  H   UNL     1     -48.104  28.341  22.850  1.00  0.00     0.211 HD
ENDBRANCH  46  59
ENDBRANCH  43  46
ENDBRANCH  41  43
ENDBRANCH   1  41
TORSDOF 8
ENDMDL
MODEL 5
REMARK VINA RESULT:      -9.4      3.252     12.049
REMARK SMILES O=C(NCc1ccc2cc(CNCC3(O)CCCC3)[nH]c2c1)c1cc(=O)n2ccccc2n1
REMARK SMILES IDX 11 1 10 4 5 5 6 6 22 7 7 8 21 10 8 12 20 14 9 15 4 18 3 21
REMARK SMILES IDX 1 22 2 23 23 25 24 26 33 27 25 28 32 30 26 31 27 32 31 33
REMARK SMILES IDX 28 34 30 35 29 37 12 41 13 43 14 46 16 47 19 48 17 49 18 52
REMARK SMILES IDX 15 59
REMARK H PARENT 11 2 11 3 6 9 22 11 7 13 20 16 9 17 4 19 4 20 3 24 24 29 31 36
REMARK H PARENT 28 38 30 39 29 40 12 42 13 44 13 45 16 50 16 51 19 53 19 54
REMARK H PARENT 17 55 17 56 18 57 18 58 15 60
REMARK Flexibility Score: inf
ROOT
ATOM      1  C   UNL     1     -43.060  41.963  27.984  1.00  0.00     0.036 C 
ATOM      2  H   UNL     1     -43.458  42.587  28.792  1.00  0.00     0.049 H 
ATOM      3  H   UNL     1     -42.094  41.558  28.310  1.00  0.00     0.049 H 
ENDROOT
BRANCH   1   4
ATOM      4  C   UNL     1     -43.990  40.835  27.714  1.00  0.00     0.030 A 
ATOM      5  C   UNL     1     -46.286  36.826  27.862  1.00  0.00    -0.027 A 
ATOM      6  C   UNL     1     -46.954  37.412  26.781  1.00  0.00    -0.057 A 
ATOM      7  C   UNL     1     -45.242  37.518  28.502  1.00  0.00    -0.033 A 
ATOM      8  C   UNL     1     -46.616  38.694  26.328  1.00  0.00    -0.052 A 
ATOM      9  H   UNL     1     -47.752  36.872  26.273  1.00  0.00     0.063 H 
ATOM     10  C   UNL     1     -44.920  38.798  28.036  1.00  0.00     0.046 A 
ATOM     11  H   UNL     1     -44.701  37.071  29.331  1.00  0.00     0.065 H 
ATOM     12  C   UNL     1     -45.580  39.399  26.966  1.00  0.00    -0.000 A 
ATOM     13  H   UNL     1     -47.147  39.135  25.490  1.00  0.00     0.063 H 
ATOM     14  N   UNL     1     -43.964  39.687  28.471  1.00  0.00    -0.357 N 
ATOM     15  C   UNL     1     -44.988  40.679  26.774  1.00  0.00    -0.032 A 
ATOM     16  H   UNL     1     -43.309  39.518  29.221  1.00  0.00     0.166 HD
ATOM     17  H   UNL     1     -45.268  41.407  26.024  1.00  0.00     0.065 H 
BRANCH   5  18
ATOM     18  C   UNL     1     -46.644  35.433  28.311  1.00  0.00     0.043 C 
ATOM     19  H   UNL     1     -45.817  34.980  28.872  1.00  0.00     0.054 H 
ATOM     20  H   UNL     1     -47.510  35.448  28.984  1.00  0.00     0.054 H 
BRANCH  18  21
ATOM     21  N   UNL     1     -46.961  34.598  27.184  1.00  0.00    -0.347 N 
ATOM     22  O   UNL     1     -46.105  32.663  28.071  1.00  0.00    -0.268 OA
ATOM     23  C   UNL     1     -46.690  33.255  27.172  1.00  0.00     0.270 C 
ATOM     24  H   UNL     1     -47.509  34.968  26.412  1.00  0.00     0.164 HD
BRANCH  23  25
ATOM     25  C   UNL     1     -47.201  32.573  25.926  1.00  0.00     0.136 A 
ATOM     26  C   UNL     1     -48.527  32.472  25.804  1.00  0.00     0.035 A 
ATOM     27  N   UNL     1     -46.290  32.108  25.004  1.00  0.00    -0.225 NA
ATOM     28  C   UNL     1     -49.067  31.816  24.608  1.00  0.00     0.258 A 
ATOM     29  H   UNL     1     -49.234  32.843  26.535  1.00  0.00     0.071 H 
ATOM     30  C   UNL     1     -46.772  31.528  23.948  1.00  0.00     0.140 A 
ATOM     31  O   UNL     1     -50.288  31.717  24.487  1.00  0.00    -0.269 OA
ATOM     32  N   UNL     1     -48.129  31.353  23.696  1.00  0.00    -0.268 N 
ATOM     33  C   UNL     1     -45.823  31.006  22.925  1.00  0.00    -0.019 A 
ATOM     34  C   UNL     1     -48.565  30.720  22.537  1.00  0.00     0.014 A 
ATOM     35  C   UNL     1     -46.290  30.404  21.825  1.00  0.00    -0.057 A 
ATOM     36  H   UNL     1     -44.764  31.136  23.113  1.00  0.00     0.066 H 
ATOM     37  C   UNL     1     -47.706  30.253  21.622  1.00  0.00    -0.045 A 
ATOM     38  H   UNL     1     -49.639  30.618  22.405  1.00  0.00     0.082 H 
ATOM     39  H   UNL     1     -45.615  30.016  21.069  1.00  0.00     0.062 H 
ATOM     40  H   UNL     1     -48.058  29.761  20.721  1.00  0.00     0.064 H 
ENDBRANCH  23  25
ENDBRANCH  18  21
ENDBRANCH   5  18
ENDBRANCH   1   4
BRANCH   1  41
ATOM     41  N   UNL     1     -42.898  42.747  26.759  1.00  0.00    -0.308 NA
ATOM     42  H   UNL     1     -43.117  42.124  25.979  1.00  0.00     0.123 HD
BRANCH  41  43
ATOM     43  C   UNL     1     -43.867  43.858  26.729  1.00  0.00     0.024 C 
ATOM     44  H   UNL     1     -44.876  43.435  26.654  1.00  0.00     0.046 H 
ATOM     45  H   UNL     1     -43.811  44.433  27.661  1.00  0.00     0.046 H 
BRANCH  43  46
ATOM     46  C   UNL     1     -43.616  44.787  25.513  1.00  0.00     0.077 C 
ATOM     47  C   UNL     1     -44.900  45.252  24.820  1.00  0.00    -0.023 C 
ATOM     48  C   UNL     1     -42.893  44.062  24.377  1.00  0.00    -0.023 C 
ATOM     49  C   UNL     1     -45.287  44.097  23.901  1.00  0.00    -0.050 C 
ATOM     50  H   UNL     1     -45.703  45.509  25.517  1.00  0.00     0.030 H 
ATOM     51  H   UNL     1     -44.704  46.153  24.223  1.00  0.00     0.030 H 
ATOM     52  C   UNL     1     -43.994  43.330  23.618  1.00  0.00    -0.050 C 
ATOM     53  H   UNL     1     -42.400  44.786  23.716  1.00  0.00     0.030 H 
ATOM     54  H   UNL     1     -42.113  43.381  24.732  1.00  0.00     0.030 H 
ATOM     55  H   UNL     1     -45.753  44.462  22.980  1.00  0.00     0.027 H 
ATOM     56  H   UNL     1     -46.011  43.438  24.395  1.00  0.00     0.027 H 
ATOM     57  H   UNL     1     -43.776  43.284  22.547  1.00  0.00     0.027 H 
ATOM     58  H   UNL     1     -44.087  42.298  23.977  1.00  0.00     0.027 H 
BRANCH  46  59
ATOM     59  O   UNL     1     -42.845  45.912  25.932  1.00  0.00    -0.389 OA
ATOM     60  H   UNL     1     -43.377  46.696  25.705  1.00  0.00     0.211 HD
ENDBRANCH  46  59
ENDBRANCH  43  46
ENDBRANCH  41  43
ENDBRANCH   1  41
TORSDOF 8
ENDMDL
MODEL 6
REMARK VINA RESULT:      -9.3      1.755      2.599
REMARK SMILES O=C(NCc1ccc2cc(CNCC3(O)CCCC3)[nH]c2c1)c1cc(=O)n2ccccc2n1
REMARK SMILES IDX 11 1 10 4 5 5 6 6 22 7 7 8 21 10 8 12 20 14 9 15 4 18 3 21
REMARK SMILES IDX 1 22 2 23 23 25 24 26 33 27 25 28 32 30 26 31 27 32 31 33
REMARK SMILES IDX 28 34 30 35 29 37 12 41 13 43 14 46 16 47 19 48 17 49 18 52
REMARK SMILES IDX 15 59
REMARK H PARENT 11 2 11 3 6 9 22 11 7 13 20 16 9 17 4 19 4 20 3 24 24 29 31 36
REMARK H PARENT 28 38 30 39 29 40 12 42 13 44 13 45 16 50 16 51 19 53 19 54
REMARK H PARENT 17 55 17 56 18 57 18 58 15 60
REMARK Flexibility Score: inf
ROOT
ATOM      1  C   UNL     1     -48.146  30.249  24.376  1.00  0.00     0.036 C 
ATOM      2  H   UNL     1     -48.580  30.440  23.387  1.00  0.00     0.049 H 
ATOM      3  H   UNL     1     -47.144  29.829  24.232  1.00  0.00     0.049 H 
ENDROOT
BRANCH   1   4
ATOM      4  C   UNL     1     -48.029  31.527  25.128  1.00  0.00     0.030 A 
ATOM      5  C   UNL     1     -46.474  35.117  27.589  1.00  0.00    -0.027 A 
ATOM      6  C   UNL     1     -47.800  35.535  27.420  1.00  0.00    -0.057 A 
ATOM      7  C   UNL     1     -46.051  33.890  27.050  1.00  0.00    -0.033 A 
ATOM      8  C   UNL     1     -48.719  34.759  26.703  1.00  0.00    -0.052 A 
ATOM      9  H   UNL     1     -48.135  36.478  27.851  1.00  0.00     0.063 H 
ATOM     10  C   UNL     1     -46.984  33.129  26.335  1.00  0.00     0.046 A 
ATOM     11  H   UNL     1     -45.031  33.542  27.187  1.00  0.00     0.065 H 
ATOM     12  C   UNL     1     -48.304  33.533  26.151  1.00  0.00    -0.000 A 
ATOM     13  H   UNL     1     -49.743  35.100  26.578  1.00  0.00     0.063 H 
ATOM     14  N   UNL     1     -46.842  31.913  25.707  1.00  0.00    -0.357 N 
ATOM     15  C   UNL     1     -48.951  32.520  25.390  1.00  0.00    -0.032 A 
ATOM     16  H   UNL     1     -45.998  31.358  25.691  1.00  0.00     0.166 HD
ATOM     17  H   UNL     1     -49.985  32.522  25.070  1.00  0.00     0.065 H 
BRANCH   5  18
ATOM     18  C   UNL     1     -45.512  35.953  28.393  1.00  0.00     0.043 C 
ATOM     19  H   UNL     1     -45.835  36.019  29.439  1.00  0.00     0.054 H 
ATOM     20  H   UNL     1     -44.512  35.502  28.400  1.00  0.00     0.054 H 
BRANCH  18  21
ATOM     21  N   UNL     1     -45.408  37.279  27.848  1.00  0.00    -0.347 N 
ATOM     22  O   UNL     1     -46.334  38.353  29.652  1.00  0.00    -0.268 OA
ATOM     23  C   UNL     1     -45.804  38.389  28.548  1.00  0.00     0.270 C 
ATOM     24  H   UNL     1     -44.921  37.435  26.970  1.00  0.00     0.164 HD
BRANCH  23  25
ATOM     25  C   UNL     1     -45.507  39.673  27.813  1.00  0.00     0.136 A 
ATOM     26  C   UNL     1     -44.219  39.956  27.606  1.00  0.00     0.035 A 
ATOM     27  N   UNL     1     -46.560  40.460  27.403  1.00  0.00    -0.225 NA
ATOM     28  C   UNL     1     -43.885  41.195  26.894  1.00  0.00     0.258 A 
ATOM     29  H   UNL     1     -43.400  39.328  27.931  1.00  0.00     0.071 H 
ATOM     30  C   UNL     1     -46.260  41.556  26.775  1.00  0.00     0.140 A 
ATOM     31  O   UNL     1     -42.700  41.465  26.699  1.00  0.00    -0.269 OA
ATOM     32  N   UNL     1     -44.963  41.973  26.494  1.00  0.00    -0.268 N 
ATOM     33  C   UNL     1     -47.368  42.441  26.316  1.00  0.00    -0.019 A 
ATOM     34  C   UNL     1     -44.726  43.162  25.815  1.00  0.00     0.014 A 
ATOM     35  C   UNL     1     -47.090  43.576  25.665  1.00  0.00    -0.057 A 
ATOM     36  H   UNL     1     -48.381  42.125  26.531  1.00  0.00     0.066 H 
ATOM     37  C   UNL     1     -45.726  43.953  25.405  1.00  0.00    -0.045 A 
ATOM     38  H   UNL     1     -43.688  43.426  25.629  1.00  0.00     0.082 H 
ATOM     39  H   UNL     1     -47.882  44.234  25.324  1.00  0.00     0.062 H 
ATOM     40  H   UNL     1     -45.529  44.879  24.876  1.00  0.00     0.064 H 
ENDBRANCH  23  25
ENDBRANCH  18  21
ENDBRANCH   5  18
ENDBRANCH   1   4
BRANCH   1  41
ATOM     41  N   UNL     1     -48.985  29.325  25.138  1.00  0.00    -0.308 NA
ATOM     42  H   UNL     1     -49.547  28.807  24.458  1.00  0.00     0.123 HD
BRANCH  41  43
ATOM     43  C   UNL     1     -48.148  28.348  25.860  1.00  0.00     0.024 C 
ATOM     44  H   UNL     1     -47.138  28.764  25.957  1.00  0.00     0.046 H 
ATOM     45  H   UNL     1     -48.545  28.186  26.870  1.00  0.00     0.046 H 
BRANCH  43  46
ATOM     46  C   UNL     1     -48.071  27.002  25.094  1.00  0.00     0.077 C 
ATOM     47  C   UNL     1     -49.048  25.944  25.614  1.00  0.00    -0.023 C 
ATOM     48  C   UNL     1     -46.724  26.307  25.292  1.00  0.00    -0.023 C 
ATOM     49  C   UNL     1     -48.353  25.333  26.827  1.00  0.00    -0.050 C 
ATOM     50  H   UNL     1     -50.034  26.346  25.866  1.00  0.00     0.030 H 
ATOM     51  H   UNL     1     -49.212  25.172  24.851  1.00  0.00     0.030 H 
ATOM     52  C   UNL     1     -46.856  25.569  26.620  1.00  0.00    -0.050 C 
ATOM     53  H   UNL     1     -46.543  25.589  24.482  1.00  0.00     0.030 H 
ATOM     54  H   UNL     1     -45.879  27.002  25.288  1.00  0.00     0.030 H 
ATOM     55  H   UNL     1     -48.587  24.268  26.924  1.00  0.00     0.027 H 
ATOM     56  H   UNL     1     -48.684  25.826  27.749  1.00  0.00     0.027 H 
ATOM     57  H   UNL     1     -46.295  24.630  26.610  1.00  0.00     0.027 H 
ATOM     58  H   UNL     1     -46.458  26.179  27.440  1.00  0.00     0.027 H 
BRANCH  46  59
ATOM     59  O   UNL     1     -48.291  27.238  23.705  1.00  0.00    -0.389 OA
ATOM     60  H   UNL     1     -48.199  26.371  23.272  1.00  0.00     0.211 HD
ENDBRANCH  46  59
ENDBRANCH  43  46
ENDBRANCH  41  43
ENDBRANCH   1  41
TORSDOF 8
ENDMDL
MODEL 7
REMARK VINA RESULT:      -9.3      2.413     11.794
REMARK SMILES O=C(NCc1ccc2cc(CNCC3(O)CCCC3)[nH]c2c1)c1cc(=O)n2ccccc2n1
REMARK SMILES IDX 11 1 10 4 5 5 6 6 22 7 7 8 21 10 8 12 20 14 9 15 4 18 3 21
REMARK SMILES IDX 1 22 2 23 23 25 24 26 33 27 25 28 32 30 26 31 27 32 31 33
REMARK SMILES IDX 28 34 30 35 29 37 12 41 13 43 14 46 16 47 19 48 17 49 18 52
REMARK SMILES IDX 15 59
REMARK H PARENT 11 2 11 3 6 9 22 11 7 13 20 16 9 17 4 19 4 20 3 24 24 29 31 36
REMARK H PARENT 28 38 30 39 29 40 12 42 13 44 13 45 16 50 16 51 19 53 19 54
REMARK H PARENT 17 55 17 56 18 57 18 58 15 60
REMARK Flexibility Score: inf
ROOT
ATOM      1  C   UNL     1     -43.274  40.831  28.440  1.00  0.00     0.036 C 
ATOM      2  H   UNL     1     -43.710  41.690  28.963  1.00  0.00     0.049 H 
ATOM      3  H   UNL     1     -42.319  40.588  28.921  1.00  0.00     0.049 H 
ENDROOT
BRANCH   1   4
ATOM      4  C   UNL     1     -44.182  39.659  28.555  1.00  0.00     0.030 A 
ATOM      5  C   UNL     1     -47.455  36.475  27.836  1.00  0.00    -0.027 A 
ATOM      6  C   UNL     1     -46.920  35.964  29.025  1.00  0.00    -0.057 A 
ATOM      7  C   UNL     1     -46.929  37.655  27.280  1.00  0.00    -0.033 A 
ATOM      8  C   UNL     1     -45.849  36.596  29.670  1.00  0.00    -0.052 A 
ATOM      9  H   UNL     1     -47.336  35.059  29.467  1.00  0.00     0.063 H 
ATOM     10  C   UNL     1     -45.858  38.272  27.938  1.00  0.00     0.046 A 
ATOM     11  H   UNL     1     -47.343  38.075  26.368  1.00  0.00     0.065 H 
ATOM     12  C   UNL     1     -45.309  37.771  29.117  1.00  0.00    -0.000 A 
ATOM     13  H   UNL     1     -45.445  36.183  30.589  1.00  0.00     0.063 H 
ATOM     14  N   UNL     1     -45.158  39.412  27.619  1.00  0.00    -0.357 N 
ATOM     15  C   UNL     1     -44.255  38.650  29.495  1.00  0.00    -0.032 A 
ATOM     16  H   UNL     1     -45.346  40.010  26.826  1.00  0.00     0.166 HD
ATOM     17  H   UNL     1     -43.620  38.550  30.365  1.00  0.00     0.065 H 
BRANCH   5  18
ATOM     18  C   UNL     1     -48.628  35.797  27.178  1.00  0.00     0.043 C 
ATOM     19  H   UNL     1     -49.413  35.578  27.913  1.00  0.00     0.054 H 
ATOM     20  H   UNL     1     -49.080  36.444  26.418  1.00  0.00     0.054 H 
BRANCH  18  21
ATOM     21  N   UNL     1     -48.221  34.571  26.546  1.00  0.00    -0.347 N 
ATOM     22  O   UNL     1     -50.256  33.525  26.719  1.00  0.00    -0.268 OA
ATOM     23  C   UNL     1     -49.092  33.534  26.337  1.00  0.00     0.270 C 
ATOM     24  H   UNL     1     -47.298  34.493  26.128  1.00  0.00     0.164 HD
BRANCH  23  25
ATOM     25  C   UNL     1     -48.462  32.396  25.570  1.00  0.00     0.136 A 
ATOM     26  C   UNL     1     -47.473  32.718  24.733  1.00  0.00     0.035 A 
ATOM     27  N   UNL     1     -48.933  31.119  25.776  1.00  0.00    -0.225 NA
ATOM     28  C   UNL     1     -46.832  31.642  23.968  1.00  0.00     0.258 A 
ATOM     29  H   UNL     1     -47.110  33.726  24.581  1.00  0.00     0.071 H 
ATOM     30  C   UNL     1     -48.364  30.170  25.096  1.00  0.00     0.140 A 
ATOM     31  O   UNL     1     -45.920  31.929  23.194  1.00  0.00    -0.269 OA
ATOM     32  N   UNL     1     -47.326  30.364  24.191  1.00  0.00    -0.268 N 
ATOM     33  C   UNL     1     -48.843  28.772  25.284  1.00  0.00    -0.019 A 
ATOM     34  C   UNL     1     -46.770  29.293  23.501  1.00  0.00     0.014 A 
ATOM     35  C   UNL     1     -48.276  27.773  24.598  1.00  0.00    -0.057 A 
ATOM     36  H   UNL     1     -49.652  28.611  25.986  1.00  0.00     0.066 H 
ATOM     37  C   UNL     1     -47.205  28.039  23.675  1.00  0.00    -0.045 A 
ATOM     38  H   UNL     1     -45.962  29.517  22.809  1.00  0.00     0.082 H 
ATOM     39  H   UNL     1     -48.611  26.748  24.720  1.00  0.00     0.062 H 
ATOM     40  H   UNL     1     -46.763  27.210  23.131  1.00  0.00     0.064 H 
ENDBRANCH  23  25
ENDBRANCH  18  21
ENDBRANCH   5  18
ENDBRANCH   1   4
BRANCH   1  41
ATOM     41  N   UNL     1     -43.071  41.137  27.024  1.00  0.00    -0.308 NA
ATOM     42  H   UNL     1     -43.986  41.066  26.573  1.00  0.00     0.123 HD
BRANCH  41  43
ATOM     43  C   UNL     1     -42.599  42.525  26.861  1.00  0.00     0.024 C 
ATOM     44  H   UNL     1     -42.273  42.896  27.841  1.00  0.00     0.046 H 
ATOM     45  H   UNL     1     -41.736  42.553  26.186  1.00  0.00     0.046 H 
BRANCH  43  46
ATOM     46  C   UNL     1     -43.729  43.440  26.323  1.00  0.00     0.077 C 
ATOM     47  C   UNL     1     -44.698  42.727  25.376  1.00  0.00    -0.023 C 
ATOM     48  C   UNL     1     -43.185  44.556  25.430  1.00  0.00    -0.023 C 
ATOM     49  C   UNL     1     -43.997  42.736  24.020  1.00  0.00    -0.050 C 
ATOM     50  H   UNL     1     -44.955  41.713  25.698  1.00  0.00     0.030 H 
ATOM     51  H   UNL     1     -45.643  43.282  25.311  1.00  0.00     0.030 H 
ATOM     52  C   UNL     1     -43.022  43.913  24.057  1.00  0.00    -0.050 C 
ATOM     53  H   UNL     1     -43.905  45.383  25.373  1.00  0.00     0.030 H 
ATOM     54  H   UNL     1     -42.248  44.983  25.800  1.00  0.00     0.030 H 
ATOM     55  H   UNL     1     -44.718  42.830  23.202  1.00  0.00     0.027 H 
ATOM     56  H   UNL     1     -43.447  41.800  23.866  1.00  0.00     0.027 H 
ATOM     57  H   UNL     1     -43.222  44.631  23.256  1.00  0.00     0.027 H 
ATOM     58  H   UNL     1     -41.996  43.551  23.922  1.00  0.00     0.027 H 
BRANCH  46  59
ATOM     59  O   UNL     1     -44.439  44.007  27.422  1.00  0.00    -0.389 OA
ATOM     60  H   UNL     1     -43.759  44.370  28.017  1.00  0.00     0.211 HD
ENDBRANCH  46  59
ENDBRANCH  43  46
ENDBRANCH  41  43
ENDBRANCH   1  41
TORSDOF 8
ENDMDL
