MODEL 1
REMARK VINA RESULT:     -11.1      0.000      0.000
REMARK SMILES Cn1ccc(-c2cn(-c3cncc(COc4ccc5ccc(N6CC(F)C6)nc5c4)c3)c3ncnc(N)c23)n1
REMARK SMILES IDX 9 1 10 2 11 3 12 4 13 5 31 6 8 10 6 11 7 12 38 13 32 15
REMARK SMILES IDX 36 16 33 17 35 18 34 19 5 21 2 22 3 23 39 24 4 25 1 28 37 32
REMARK SMILES IDX 14 35 15 38 16 39 17 40 30 41 18 42 29 44 19 46 28 48 20 49
REMARK SMILES IDX 22 50 21 51 23 54 24 55 27 56 25 57 26 62
REMARK H PARENT 10 7 12 8 31 9 7 14 34 20 3 26 4 27 1 29 1 30 1 31 37 33 37 34
REMARK H PARENT 14 36 14 37 17 43 30 45 18 47 20 52 21 53 24 58 24 59 27 60
REMARK H PARENT 27 61 25 63
REMARK Flexibility Score: inf
ROOT
ATOM      1  C   UNL     1     -47.121  37.872  27.440  1.00  0.00     0.066 A 
ATOM      2  C   UNL     1     -48.390  38.093  27.969  1.00  0.00     0.051 A 
ATOM      3  N   UNL     1     -49.389  37.175  27.979  1.00  0.00    -0.262 NA
ATOM      4  C   UNL     1     -49.113  35.968  27.446  1.00  0.00     0.034 A 
ATOM      5  C   UNL     1     -47.882  35.624  26.903  1.00  0.00     0.010 A 
ATOM      6  C   UNL     1     -46.882  36.608  26.892  1.00  0.00    -0.028 A 
ATOM      7  H   UNL     1     -48.695  39.040  28.402  1.00  0.00     0.086 H 
ATOM      8  H   UNL     1     -49.940  35.264  27.472  1.00  0.00     0.084 H 
ATOM      9  H   UNL     1     -45.918  36.339  26.471  1.00  0.00     0.065 H 
ENDROOT
BRANCH   1  10
ATOM     10  N   UNL     1     -46.124  38.900  27.469  1.00  0.00    -0.299 N 
ATOM     11  C   UNL     1     -44.967  40.747  26.886  1.00  0.00     0.033 A 
ATOM     12  C   UNL     1     -46.005  39.912  26.533  1.00  0.00     0.021 A 
ATOM     13  C   UNL     1     -44.357  40.213  28.048  1.00  0.00     0.071 A 
ATOM     14  H   UNL     1     -46.682  40.012  25.697  1.00  0.00     0.083 H 
ATOM     15  C   UNL     1     -45.105  39.089  28.407  1.00  0.00     0.150 A 
ATOM     16  C   UNL     1     -43.246  40.515  28.857  1.00  0.00     0.137 A 
ATOM     17  N   UNL     1     -44.848  38.304  29.473  1.00  0.00    -0.218 NA
ATOM     18  N   UNL     1     -42.985  39.753  29.932  1.00  0.00    -0.219 NA
ATOM     19  C   UNL     1     -43.790  38.711  30.182  1.00  0.00     0.120 A 
ATOM     20  H   UNL     1     -43.549  38.122  31.062  1.00  0.00     0.106 H 
BRANCH  11  21
ATOM     21  C   UNL     1     -44.586  41.954  26.159  1.00  0.00     0.095 A 
ATOM     22  N   UNL     1     -44.088  43.967  25.764  1.00  0.00    -0.275 N 
ATOM     23  C   UNL     1     -43.900  43.329  24.573  1.00  0.00     0.025 A 
ATOM     24  N   UNL     1     -44.500  43.150  26.751  1.00  0.00    -0.173 NA
ATOM     25  C   UNL     1     -44.205  42.007  24.802  1.00  0.00    -0.016 A 
ATOM     26  H   UNL     1     -43.562  43.849  23.687  1.00  0.00     0.084 H 
ATOM     27  H   UNL     1     -44.152  41.196  24.089  1.00  0.00     0.066 H 
BRANCH  22  28
ATOM     28  C   UNL     1     -43.882  45.368  26.042  1.00  0.00     0.030 C 
ATOM     29  H   UNL     1     -44.323  45.949  25.227  1.00  0.00     0.048 H 
ATOM     30  H   UNL     1     -42.811  45.571  26.109  1.00  0.00     0.048 H 
ATOM     31  H   UNL     1     -44.368  45.605  26.991  1.00  0.00     0.048 H 
ENDBRANCH  22  28
ENDBRANCH  11  21
BRANCH  16  32
ATOM     32  N   UNL     1     -42.341  41.539  28.606  1.00  0.00    -0.383 N 
ATOM     33  H   UNL     1     -41.868  41.792  29.467  1.00  0.00     0.158 HD
ATOM     34  H   UNL     1     -41.729  41.360  27.818  1.00  0.00     0.158 HD
ENDBRANCH  16  32
ENDBRANCH   1  10
BRANCH   5  35
ATOM     35  C   UNL     1     -47.675  34.259  26.302  1.00  0.00     0.115 C 
ATOM     36  H   UNL     1     -47.549  34.293  25.213  1.00  0.00     0.076 H 
ATOM     37  H   UNL     1     -46.732  33.865  26.701  1.00  0.00     0.076 H 
BRANCH  35  38
ATOM     38  O   UNL     1     -48.690  33.319  26.670  1.00  0.00    -0.489 OA
BRANCH  38  39
ATOM     39  C   UNL     1     -48.873  32.208  25.893  1.00  0.00     0.122 A 
ATOM     40  C   UNL     1     -49.500  32.457  24.673  1.00  0.00    -0.019 A 
ATOM     41  C   UNL     1     -48.487  30.904  26.208  1.00  0.00     0.007 A 
ATOM     42  C   UNL     1     -49.745  31.414  23.783  1.00  0.00    -0.049 A 
ATOM     43  H   UNL     1     -49.798  33.470  24.415  1.00  0.00     0.066 H 
ATOM     44  C   UNL     1     -48.722  29.843  25.340  1.00  0.00     0.076 A 
ATOM     45  H   UNL     1     -47.980  30.667  27.137  1.00  0.00     0.069 H 
ATOM     46  C   UNL     1     -49.359  30.106  24.113  1.00  0.00     0.001 A 
ATOM     47  H   UNL     1     -50.234  31.628  22.836  1.00  0.00     0.063 H 
ATOM     48  N   UNL     1     -48.335  28.606  25.697  1.00  0.00    -0.231 NA
ATOM     49  C   UNL     1     -49.583  29.032  23.250  1.00  0.00    -0.049 A 
ATOM     50  C   UNL     1     -48.562  27.570  24.859  1.00  0.00     0.129 A 
ATOM     51  C   UNL     1     -49.178  27.755  23.626  1.00  0.00    -0.019 A 
ATOM     52  H   UNL     1     -50.064  29.178  22.287  1.00  0.00     0.063 H 
ATOM     53  H   UNL     1     -49.336  26.919  22.954  1.00  0.00     0.066 H 
BRANCH  50  54
ATOM     54  N   UNL     1     -48.134  26.287  25.249  1.00  0.00    -0.351 N 
ATOM     55  C   UNL     1     -48.698  25.478  26.288  1.00  0.00     0.052 C 
ATOM     56  C   UNL     1     -46.790  25.975  25.649  1.00  0.00     0.052 C 
ATOM     57  C   UNL     1     -47.365  24.710  26.307  1.00  0.00     0.135 C 
ATOM     58  H   UNL     1     -48.917  26.040  27.202  1.00  0.00     0.052 H 
ATOM     59  H   UNL     1     -49.569  24.903  25.970  1.00  0.00     0.052 H 
ATOM     60  H   UNL     1     -46.114  25.807  24.806  1.00  0.00     0.052 H 
ATOM     61  H   UNL     1     -46.365  26.702  26.348  1.00  0.00     0.052 H 
ATOM     62  F   UNL     1     -46.875  24.379  27.526  1.00  0.00    -0.244 F 
ATOM     63  H   UNL     1     -47.366  23.845  25.629  1.00  0.00     0.070 H 
ENDBRANCH  50  54
ENDBRANCH  38  39
ENDBRANCH  35  38
ENDBRANCH   5  35
TORSDOF 8
ENDMDL
MODEL 2
REMARK VINA RESULT:     -11.0      1.700      2.327
REMARK SMILES Cn1ccc(-c2cn(-c3cncc(COc4ccc5ccc(N6CC(F)C6)nc5c4)c3)c3ncnc(N)c23)n1
REMARK SMILES IDX 9 1 10 2 11 3 12 4 13 5 31 6 8 10 6 11 7 12 38 13 32 15
REMARK SMILES IDX 36 16 33 17 35 18 34 19 5 21 2 22 3 23 39 24 4 25 1 28 37 32
REMARK SMILES IDX 14 35 15 38 16 39 17 40 30 41 18 42 29 44 19 46 28 48 20 49
REMARK SMILES IDX 22 50 21 51 23 54 24 55 27 56 25 57 26 62
REMARK H PARENT 10 7 12 8 31 9 7 14 34 20 3 26 4 27 1 29 1 30 1 31 37 33 37 34
REMARK H PARENT 14 36 14 37 17 43 30 45 18 47 20 52 21 53 24 58 24 59 27 60
REMARK H PARENT 27 61 25 63
REMARK Flexibility Score: inf
ROOT
ATOM      1  C   UNL     1     -45.676  38.508  27.966  1.00  0.00     0.066 A 
ATOM      2  C   UNL     1     -45.423  38.035  29.252  1.00  0.00     0.051 A 
ATOM      3  N   UNL     1     -45.970  36.910  29.777  1.00  0.00    -0.262 NA
ATOM      4  C   UNL     1     -46.803  36.208  28.983  1.00  0.00     0.034 A 
ATOM      5  C   UNL     1     -47.120  36.570  27.680  1.00  0.00     0.010 A 
ATOM      6  C   UNL     1     -46.551  37.752  27.180  1.00  0.00    -0.028 A 
ATOM      7  H   UNL     1     -44.777  38.548  29.956  1.00  0.00     0.086 H 
ATOM      8  H   UNL     1     -47.221  35.317  29.442  1.00  0.00     0.084 H 
ATOM      9  H   UNL     1     -46.795  38.034  26.161  1.00  0.00     0.065 H 
ENDROOT
BRANCH   1  10
ATOM     10  N   UNL     1     -45.056  39.709  27.491  1.00  0.00    -0.299 N 
ATOM     11  C   UNL     1     -44.655  41.525  26.215  1.00  0.00     0.033 A 
ATOM     12  C   UNL     1     -45.435  40.397  26.354  1.00  0.00     0.021 A 
ATOM     13  C   UNL     1     -43.698  41.521  27.260  1.00  0.00     0.071 A 
ATOM     14  H   UNL     1     -46.259  40.080  25.732  1.00  0.00     0.083 H 
ATOM     15  C   UNL     1     -43.982  40.406  28.052  1.00  0.00     0.150 A 
ATOM     16  C   UNL     1     -42.598  42.308  27.649  1.00  0.00     0.137 A 
ATOM     17  N   UNL     1     -43.295  40.056  29.159  1.00  0.00    -0.218 NA
ATOM     18  N   UNL     1     -41.913  41.982  28.759  1.00  0.00    -0.219 NA
ATOM     19  C   UNL     1     -42.296  40.897  29.446  1.00  0.00     0.120 A 
ATOM     20  H   UNL     1     -41.721  40.670  30.338  1.00  0.00     0.106 H 
BRANCH  11  21
ATOM     21  C   UNL     1     -44.811  42.520  25.159  1.00  0.00     0.095 A 
ATOM     22  N   UNL     1     -45.506  44.208  24.099  1.00  0.00    -0.275 N 
ATOM     23  C   UNL     1     -44.496  43.714  23.327  1.00  0.00     0.025 A 
ATOM     24  N   UNL     1     -45.715  43.503  25.226  1.00  0.00    -0.173 NA
ATOM     25  C   UNL     1     -44.011  42.616  24.000  1.00  0.00    -0.016 A 
ATOM     26  H   UNL     1     -44.203  44.177  22.396  1.00  0.00     0.084 H 
ATOM     27  H   UNL     1     -43.190  41.980  23.698  1.00  0.00     0.066 H 
BRANCH  22  28
ATOM     28  C   UNL     1     -46.320  45.369  23.829  1.00  0.00     0.030 C 
ATOM     29  H   UNL     1     -47.236  45.293  24.420  1.00  0.00     0.048 H 
ATOM     30  H   UNL     1     -46.563  45.401  22.764  1.00  0.00     0.048 H 
ATOM     31  H   UNL     1     -45.753  46.259  24.110  1.00  0.00     0.048 H 
ENDBRANCH  22  28
ENDBRANCH  11  21
BRANCH  16  32
ATOM     32  N   UNL     1     -42.117  43.400  26.939  1.00  0.00    -0.383 N 
ATOM     33  H   UNL     1     -41.635  43.078  26.106  1.00  0.00     0.158 HD
ATOM     34  H   UNL     1     -42.811  44.121  26.779  1.00  0.00     0.158 HD
ENDBRANCH  16  32
ENDBRANCH   1  10
BRANCH   5  35
ATOM     35  C   UNL     1     -48.086  35.740  26.877  1.00  0.00     0.115 C 
ATOM     36  H   UNL     1     -49.087  36.186  26.832  1.00  0.00     0.076 H 
ATOM     37  H   UNL     1     -47.719  35.719  25.844  1.00  0.00     0.076 H 
BRANCH  35  38
ATOM     38  O   UNL     1     -48.153  34.377  27.308  1.00  0.00    -0.489 OA
BRANCH  38  39
ATOM     39  C   UNL     1     -47.855  33.387  26.412  1.00  0.00     0.122 A 
ATOM     40  C   UNL     1     -46.827  33.704  25.526  1.00  0.00    -0.019 A 
ATOM     41  C   UNL     1     -48.465  32.134  26.329  1.00  0.00     0.007 A 
ATOM     42  C   UNL     1     -46.419  32.783  24.564  1.00  0.00    -0.049 A 
ATOM     43  H   UNL     1     -46.340  34.674  25.587  1.00  0.00     0.066 H 
ATOM     44  C   UNL     1     -48.080  31.196  25.376  1.00  0.00     0.076 A 
ATOM     45  H   UNL     1     -49.256  31.837  27.009  1.00  0.00     0.069 H 
ATOM     46  C   UNL     1     -47.043  31.529  24.485  1.00  0.00     0.001 A 
ATOM     47  H   UNL     1     -45.615  33.049  23.883  1.00  0.00     0.063 H 
ATOM     48  N   UNL     1     -48.707  30.007  25.336  1.00  0.00    -0.231 NA
ATOM     49  C   UNL     1     -46.666  30.577  23.538  1.00  0.00    -0.049 A 
ATOM     50  C   UNL     1     -48.339  29.092  24.412  1.00  0.00     0.129 A 
ATOM     51  C   UNL     1     -47.317  29.347  23.504  1.00  0.00    -0.019 A 
ATOM     52  H   UNL     1     -45.866  30.777  22.829  1.00  0.00     0.063 H 
ATOM     53  H   UNL     1     -47.018  28.598  22.780  1.00  0.00     0.066 H 
BRANCH  50  54
ATOM     54  N   UNL     1     -49.000  27.849  24.400  1.00  0.00    -0.351 N 
ATOM     55  C   UNL     1     -50.339  27.589  24.840  1.00  0.00     0.052 C 
ATOM     56  C   UNL     1     -48.494  26.664  25.037  1.00  0.00     0.052 C 
ATOM     57  C   UNL     1     -49.927  26.112  24.966  1.00  0.00     0.135 C 
ATOM     58  H   UNL     1     -50.585  28.081  25.787  1.00  0.00     0.052 H 
ATOM     59  H   UNL     1     -51.096  27.805  24.083  1.00  0.00     0.052 H 
ATOM     60  H   UNL     1     -47.750  26.133  24.436  1.00  0.00     0.052 H 
ATOM     61  H   UNL     1     -48.121  26.842  26.050  1.00  0.00     0.052 H 
ATOM     62  F   UNL     1     -50.381  25.451  26.058  1.00  0.00    -0.244 F 
ATOM     63  H   UNL     1     -50.115  25.541  24.047  1.00  0.00     0.070 H 
ENDBRANCH  50  54
ENDBRANCH  38  39
ENDBRANCH  35  38
ENDBRANCH   5  35
TORSDOF 8
ENDMDL
MODEL 3
REMARK VINA RESULT:     -10.5      3.867     12.892
REMARK SMILES Cn1ccc(-c2cn(-c3cncc(COc4ccc5ccc(N6CC(F)C6)nc5c4)c3)c3ncnc(N)c23)n1
REMARK SMILES IDX 9 1 10 2 11 3 12 4 13 5 31 6 8 10 6 11 7 12 38 13 32 15
REMARK SMILES IDX 36 16 33 17 35 18 34 19 5 21 2 22 3 23 39 24 4 25 1 28 37 32
REMARK SMILES IDX 14 35 15 38 16 39 17 40 30 41 18 42 29 44 19 46 28 48 20 49
REMARK SMILES IDX 22 50 21 51 23 54 24 55 27 56 25 57 26 62
REMARK H PARENT 10 7 12 8 31 9 7 14 34 20 3 26 4 27 1 29 1 30 1 31 37 33 37 34
REMARK H PARENT 14 36 14 37 17 43 30 45 18 47 20 52 21 53 24 58 24 59 27 60
REMARK H PARENT 27 61 25 63
REMARK Flexibility Score: inf
ROOT
ATOM      1  C   UNL     1     -48.008  33.095  26.135  1.00  0.00     0.066 A 
ATOM      2  C   UNL     1     -49.238  33.712  26.351  1.00  0.00     0.051 A 
ATOM      3  N   UNL     1     -49.395  34.936  26.913  1.00  0.00    -0.262 NA
ATOM      4  C   UNL     1     -48.272  35.591  27.271  1.00  0.00     0.034 A 
ATOM      5  C   UNL     1     -46.990  35.087  27.092  1.00  0.00     0.010 A 
ATOM      6  C   UNL     1     -46.871  33.808  26.527  1.00  0.00    -0.028 A 
ATOM      7  H   UNL     1     -50.186  33.246  26.104  1.00  0.00     0.086 H 
ATOM      8  H   UNL     1     -48.441  36.566  27.719  1.00  0.00     0.084 H 
ATOM      9  H   UNL     1     -45.870  33.414  26.384  1.00  0.00     0.065 H 
ENDROOT
BRANCH   1  10
ATOM     10  N   UNL     1     -47.934  31.796  25.535  1.00  0.00    -0.299 N 
ATOM     11  C   UNL     1     -48.283  29.592  25.205  1.00  0.00     0.033 A 
ATOM     12  C   UNL     1     -48.518  30.653  26.052  1.00  0.00     0.021 A 
ATOM     13  C   UNL     1     -47.463  30.055  24.146  1.00  0.00     0.071 A 
ATOM     14  H   UNL     1     -49.101  30.660  26.961  1.00  0.00     0.083 H 
ATOM     15  C   UNL     1     -47.283  31.425  24.355  1.00  0.00     0.150 A 
ATOM     16  C   UNL     1     -46.818  29.499  23.026  1.00  0.00     0.137 A 
ATOM     17  N   UNL     1     -46.564  32.236  23.553  1.00  0.00    -0.218 NA
ATOM     18  N   UNL     1     -46.111  30.296  22.207  1.00  0.00    -0.219 NA
ATOM     19  C   UNL     1     -46.029  31.600  22.505  1.00  0.00     0.120 A 
ATOM     20  H   UNL     1     -45.453  32.211  21.817  1.00  0.00     0.106 H 
BRANCH  11  21
ATOM     21  C   UNL     1     -48.797  28.240  25.402  1.00  0.00     0.095 A 
ATOM     22  N   UNL     1     -48.879  26.197  25.927  1.00  0.00    -0.275 N 
ATOM     23  C   UNL     1     -50.155  26.505  25.558  1.00  0.00     0.025 A 
ATOM     24  N   UNL     1     -48.030  27.239  25.848  1.00  0.00    -0.173 NA
ATOM     25  C   UNL     1     -50.137  27.839  25.221  1.00  0.00    -0.016 A 
ATOM     26  H   UNL     1     -50.952  25.776  25.576  1.00  0.00     0.084 H 
ATOM     27  H   UNL     1     -50.978  28.438  24.897  1.00  0.00     0.066 H 
BRANCH  22  28
ATOM     28  C   UNL     1     -48.390  24.918  26.382  1.00  0.00     0.030 C 
ATOM     29  H   UNL     1     -48.608  24.826  27.450  1.00  0.00     0.048 H 
ATOM     30  H   UNL     1     -47.311  24.860  26.214  1.00  0.00     0.048 H 
ATOM     31  H   UNL     1     -48.898  24.134  25.817  1.00  0.00     0.048 H 
ENDBRANCH  22  28
ENDBRANCH  11  21
BRANCH  16  32
ATOM     32  N   UNL     1     -46.813  28.146  22.708  1.00  0.00    -0.383 N 
ATOM     33  H   UNL     1     -46.364  27.624  23.453  1.00  0.00     0.158 HD
ATOM     34  H   UNL     1     -47.718  27.791  22.422  1.00  0.00     0.158 HD
ENDBRANCH  16  32
ENDBRANCH   1  10
BRANCH   5  35
ATOM     35  C   UNL     1     -45.794  35.878  27.551  1.00  0.00     0.115 C 
ATOM     36  H   UNL     1     -45.014  35.245  27.991  1.00  0.00     0.076 H 
ATOM     37  H   UNL     1     -45.344  36.336  26.662  1.00  0.00     0.076 H 
BRANCH  35  38
ATOM     38  O   UNL     1     -46.133  36.955  28.431  1.00  0.00    -0.489 OA
BRANCH  38  39
ATOM     39  C   UNL     1     -45.286  38.025  28.522  1.00  0.00     0.122 A 
ATOM     40  C   UNL     1     -44.554  38.079  29.707  1.00  0.00    -0.019 A 
ATOM     41  C   UNL     1     -45.096  39.016  27.558  1.00  0.00     0.007 A 
ATOM     42  C   UNL     1     -43.649  39.115  29.928  1.00  0.00    -0.049 A 
ATOM     43  H   UNL     1     -44.688  37.308  30.461  1.00  0.00     0.066 H 
ATOM     44  C   UNL     1     -44.203  40.064  27.753  1.00  0.00     0.076 A 
ATOM     45  H   UNL     1     -45.630  39.004  26.614  1.00  0.00     0.069 H 
ATOM     46  C   UNL     1     -43.472  40.110  28.955  1.00  0.00     0.001 A 
ATOM     47  H   UNL     1     -43.087  39.139  30.858  1.00  0.00     0.063 H 
ATOM     48  N   UNL     1     -44.065  40.995  26.793  1.00  0.00    -0.231 NA
ATOM     49  C   UNL     1     -42.576  41.164  29.134  1.00  0.00    -0.049 A 
ATOM     50  C   UNL     1     -43.199  42.017  26.977  1.00  0.00     0.129 A 
ATOM     51  C   UNL     1     -42.437  42.124  28.135  1.00  0.00    -0.019 A 
ATOM     52  H   UNL     1     -41.980  41.246  30.039  1.00  0.00     0.063 H 
ATOM     53  H   UNL     1     -41.732  42.937  28.263  1.00  0.00     0.066 H 
BRANCH  50  54
ATOM     54  N   UNL     1     -43.062  42.971  25.952  1.00  0.00    -0.351 N 
ATOM     55  C   UNL     1     -43.711  42.952  24.674  1.00  0.00     0.052 C 
ATOM     56  C   UNL     1     -41.803  43.357  25.376  1.00  0.00     0.052 C 
ATOM     57  C   UNL     1     -42.606  43.905  24.186  1.00  0.00     0.135 C 
ATOM     58  H   UNL     1     -43.706  41.963  24.203  1.00  0.00     0.052 H 
ATOM     59  H   UNL     1     -44.720  43.368  24.691  1.00  0.00     0.052 H 
ATOM     60  H   UNL     1     -41.265  44.101  25.970  1.00  0.00     0.052 H 
ATOM     61  H   UNL     1     -41.155  42.507  25.139  1.00  0.00     0.052 H 
ATOM     62  F   UNL     1     -42.106  43.666  22.950  1.00  0.00    -0.244 F 
ATOM     63  H   UNL     1     -42.876  44.963  24.310  1.00  0.00     0.070 H 
ENDBRANCH  50  54
ENDBRANCH  38  39
ENDBRANCH  35  38
ENDBRANCH   5  35
TORSDOF 8
ENDMDL
MODEL 4
REMARK VINA RESULT:     -10.5      3.840     12.853
REMARK SMILES Cn1ccc(-c2cn(-c3cncc(COc4ccc5ccc(N6CC(F)C6)nc5c4)c3)c3ncnc(N)c23)n1
REMARK SMILES IDX 9 1 10 2 11 3 12 4 13 5 31 6 8 10 6 11 7 12 38 13 32 15
REMARK SMILES IDX 36 16 33 17 35 18 34 19 5 21 2 22 3 23 39 24 4 25 1 28 37 32
REMARK SMILES IDX 14 35 15 38 16 39 17 40 30 41 18 42 29 44 19 46 28 48 20 49
REMARK SMILES IDX 22 50 21 51 23 54 24 55 27 56 25 57 26 62
REMARK H PARENT 10 7 12 8 31 9 7 14 34 20 3 26 4 27 1 29 1 30 1 31 37 33 37 34
REMARK H PARENT 14 36 14 37 17 43 30 45 18 47 20 52 21 53 24 58 24 59 27 60
REMARK H PARENT 27 61 25 63
REMARK Flexibility Score: inf
ROOT
ATOM      1  C   UNL     1     -47.958  32.427  25.429  1.00  0.00     0.066 A 
ATOM      2  C   UNL     1     -46.656  32.774  25.074  1.00  0.00     0.051 A 
ATOM      3  N   UNL     1     -46.059  33.948  25.399  1.00  0.00    -0.262 NA
ATOM      4  C   UNL     1     -46.785  34.823  26.122  1.00  0.00     0.034 A 
ATOM      5  C   UNL     1     -48.086  34.584  26.547  1.00  0.00     0.010 A 
ATOM      6  C   UNL     1     -48.676  33.367  26.173  1.00  0.00    -0.028 A 
ATOM      7  H   UNL     1     -46.012  32.133  24.482  1.00  0.00     0.086 H 
ATOM      8  H   UNL     1     -46.272  35.750  26.358  1.00  0.00     0.084 H 
ATOM      9  H   UNL     1     -49.691  33.178  26.508  1.00  0.00     0.065 H 
ENDROOT
BRANCH   1  10
ATOM     10  N   UNL     1     -48.511  31.164  25.042  1.00  0.00    -0.299 N 
ATOM     11  C   UNL     1     -49.000  28.962  25.084  1.00  0.00     0.033 A 
ATOM     12  C   UNL     1     -48.285  29.968  25.698  1.00  0.00     0.021 A 
ATOM     13  C   UNL     1     -49.652  29.520  23.957  1.00  0.00     0.071 A 
ATOM     14  H   UNL     1     -47.669  29.899  26.583  1.00  0.00     0.083 H 
ATOM     15  C   UNL     1     -49.359  30.886  23.966  1.00  0.00     0.150 A 
ATOM     16  C   UNL     1     -50.450  29.053  22.896  1.00  0.00     0.137 A 
ATOM     17  N   UNL     1     -49.805  31.772  23.053  1.00  0.00    -0.218 NA
ATOM     18  N   UNL     1     -50.916  29.926  21.987  1.00  0.00    -0.219 NA
ATOM     19  C   UNL     1     -50.581  31.217  22.116  1.00  0.00     0.120 A 
ATOM     20  H   UNL     1     -50.980  31.891  21.364  1.00  0.00     0.106 H 
BRANCH  11  21
ATOM     21  C   UNL     1     -49.046  27.576  25.540  1.00  0.00     0.095 A 
ATOM     22  N   UNL     1     -48.411  25.678  26.209  1.00  0.00    -0.275 N 
ATOM     23  C   UNL     1     -49.772  25.622  26.268  1.00  0.00     0.025 A 
ATOM     24  N   UNL     1     -47.940  26.861  25.774  1.00  0.00    -0.173 NA
ATOM     25  C   UNL     1     -50.218  26.854  25.849  1.00  0.00    -0.016 A 
ATOM     26  H   UNL     1     -50.299  24.740  26.606  1.00  0.00     0.084 H 
ATOM     27  H   UNL     1     -51.245  27.185  25.784  1.00  0.00     0.066 H 
BRANCH  22  28
ATOM     28  C   UNL     1     -47.481  24.633  26.565  1.00  0.00     0.030 C 
ATOM     29  H   UNL     1     -46.479  25.067  26.617  1.00  0.00     0.048 H 
ATOM     30  H   UNL     1     -47.509  23.847  25.806  1.00  0.00     0.048 H 
ATOM     31  H   UNL     1     -47.775  24.226  27.535  1.00  0.00     0.048 H 
ENDBRANCH  22  28
ENDBRANCH  11  21
BRANCH  16  32
ATOM     32  N   UNL     1     -50.772  27.719  22.676  1.00  0.00    -0.383 N 
ATOM     33  H   UNL     1     -51.539  27.451  23.283  1.00  0.00     0.158 HD
ATOM     34  H   UNL     1     -50.898  27.486  21.698  1.00  0.00     0.158 HD
ENDBRANCH  16  32
ENDBRANCH   1  10
BRANCH   5  35
ATOM     35  C   UNL     1     -48.832  35.634  27.327  1.00  0.00     0.115 C 
ATOM     36  H   UNL     1     -49.002  36.549  26.747  1.00  0.00     0.076 H 
ATOM     37  H   UNL     1     -49.827  35.230  27.550  1.00  0.00     0.076 H 
BRANCH  35  38
ATOM     38  O   UNL     1     -48.228  35.936  28.589  1.00  0.00    -0.489 OA
BRANCH  38  39
ATOM     39  C   UNL     1     -47.202  36.838  28.631  1.00  0.00     0.122 A 
ATOM     40  C   UNL     1     -46.320  36.657  29.695  1.00  0.00    -0.019 A 
ATOM     41  C   UNL     1     -46.971  37.874  27.724  1.00  0.00     0.007 A 
ATOM     42  C   UNL     1     -45.226  37.504  29.855  1.00  0.00    -0.049 A 
ATOM     43  H   UNL     1     -46.486  35.849  30.403  1.00  0.00     0.066 H 
ATOM     44  C   UNL     1     -45.889  38.737  27.860  1.00  0.00     0.076 A 
ATOM     45  H   UNL     1     -47.619  38.041  26.871  1.00  0.00     0.069 H 
ATOM     46  C   UNL     1     -45.007  38.545  28.941  1.00  0.00     0.001 A 
ATOM     47  H   UNL     1     -44.549  37.345  30.690  1.00  0.00     0.063 H 
ATOM     48  N   UNL     1     -45.718  39.722  26.960  1.00  0.00    -0.231 NA
ATOM     49  C   UNL     1     -43.924  39.416  29.062  1.00  0.00    -0.049 A 
ATOM     50  C   UNL     1     -44.669  40.565  27.088  1.00  0.00     0.129 A 
ATOM     51  C   UNL     1     -43.753  40.432  28.125  1.00  0.00    -0.019 A 
ATOM     52  H   UNL     1     -43.207  39.311  29.872  1.00  0.00     0.063 H 
ATOM     53  H   UNL     1     -42.905  41.102  28.206  1.00  0.00     0.066 H 
BRANCH  50  54
ATOM     54  N   UNL     1     -44.504  41.578  26.125  1.00  0.00    -0.351 N 
ATOM     55  C   UNL     1     -43.534  42.634  26.154  1.00  0.00     0.052 C 
ATOM     56  C   UNL     1     -45.551  42.467  25.704  1.00  0.00     0.052 C 
ATOM     57  C   UNL     1     -44.444  43.390  25.170  1.00  0.00     0.135 C 
ATOM     58  H   UNL     1     -43.434  43.101  27.140  1.00  0.00     0.052 H 
ATOM     59  H   UNL     1     -42.558  42.340  25.764  1.00  0.00     0.052 H 
ATOM     60  H   UNL     1     -46.212  42.032  24.950  1.00  0.00     0.052 H 
ATOM     61  H   UNL     1     -46.130  42.880  26.537  1.00  0.00     0.052 H 
ATOM     62  F   UNL     1     -44.598  44.718  25.390  1.00  0.00    -0.244 F 
ATOM     63  H   UNL     1     -44.194  43.185  24.121  1.00  0.00     0.070 H 
ENDBRANCH  50  54
ENDBRANCH  38  39
ENDBRANCH  35  38
ENDBRANCH   5  35
TORSDOF 8
ENDMDL
MODEL 5
REMARK VINA RESULT:     -10.0      2.772      3.821
REMARK SMILES Cn1ccc(-c2cn(-c3cncc(COc4ccc5ccc(N6CC(F)C6)nc5c4)c3)c3ncnc(N)c23)n1
REMARK SMILES IDX 9 1 10 2 11 3 12 4 13 5 31 6 8 10 6 11 7 12 38 13 32 15
REMARK SMILES IDX 36 16 33 17 35 18 34 19 5 21 2 22 3 23 39 24 4 25 1 28 37 32
REMARK SMILES IDX 14 35 15 38 16 39 17 40 30 41 18 42 29 44 19 46 28 48 20 49
REMARK SMILES IDX 22 50 21 51 23 54 24 55 27 56 25 57 26 62
REMARK H PARENT 10 7 12 8 31 9 7 14 34 20 3 26 4 27 1 29 1 30 1 31 37 33 37 34
REMARK H PARENT 14 36 14 37 17 43 30 45 18 47 20 52 21 53 24 58 24 59 27 60
REMARK H PARENT 27 61 25 63
REMARK Flexibility Score: inf
ROOT
ATOM      1  C   UNL     1     -46.300  38.417  27.445  1.00  0.00     0.066 A 
ATOM      2  C   UNL     1     -45.538  37.927  28.503  1.00  0.00     0.051 A 
ATOM      3  N   UNL     1     -45.693  36.698  29.057  1.00  0.00    -0.262 NA
ATOM      4  C   UNL     1     -46.648  35.907  28.529  1.00  0.00     0.034 A 
ATOM      5  C   UNL     1     -47.460  36.278  27.465  1.00  0.00     0.010 A 
ATOM      6  C   UNL     1     -47.283  37.565  26.933  1.00  0.00    -0.028 A 
ATOM      7  H   UNL     1     -44.760  38.505  28.992  1.00  0.00     0.086 H 
ATOM      8  H   UNL     1     -46.741  34.934  29.002  1.00  0.00     0.084 H 
ATOM      9  H   UNL     1     -47.915  37.854  26.100  1.00  0.00     0.065 H 
ENDROOT
BRANCH   1  10
ATOM     10  N   UNL     1     -46.070  39.730  26.922  1.00  0.00    -0.299 N 
ATOM     11  C   UNL     1     -44.986  41.494  26.026  1.00  0.00     0.033 A 
ATOM     12  C   UNL     1     -44.841  40.212  26.509  1.00  0.00     0.021 A 
ATOM     13  C   UNL     1     -46.341  41.872  26.199  1.00  0.00     0.071 A 
ATOM     14  H   UNL     1     -43.943  39.611  26.538  1.00  0.00     0.083 H 
ATOM     15  C   UNL     1     -46.997  40.757  26.728  1.00  0.00     0.150 A 
ATOM     16  C   UNL     1     -47.120  43.026  25.998  1.00  0.00     0.137 A 
ATOM     17  N   UNL     1     -48.311  40.713  27.028  1.00  0.00    -0.218 NA
ATOM     18  N   UNL     1     -48.434  42.992  26.277  1.00  0.00    -0.219 NA
ATOM     19  C   UNL     1     -48.952  41.855  26.762  1.00  0.00     0.120 A 
ATOM     20  H   UNL     1     -50.017  41.867  26.970  1.00  0.00     0.106 H 
BRANCH  11  21
ATOM     21  C   UNL     1     -43.909  42.295  25.454  1.00  0.00     0.095 A 
ATOM     22  N   UNL     1     -42.812  43.473  24.087  1.00  0.00    -0.275 N 
ATOM     23  C   UNL     1     -42.054  43.471  25.221  1.00  0.00     0.025 A 
ATOM     24  N   UNL     1     -43.953  42.769  24.204  1.00  0.00    -0.173 NA
ATOM     25  C   UNL     1     -42.751  42.719  26.139  1.00  0.00    -0.016 A 
ATOM     26  H   UNL     1     -41.113  43.999  25.286  1.00  0.00     0.084 H 
ATOM     27  H   UNL     1     -42.464  42.514  27.161  1.00  0.00     0.066 H 
BRANCH  22  28
ATOM     28  C   UNL     1     -42.515  44.141  22.843  1.00  0.00     0.030 C 
ATOM     29  H   UNL     1     -42.056  45.106  23.071  1.00  0.00     0.048 H 
ATOM     30  H   UNL     1     -43.440  44.290  22.281  1.00  0.00     0.048 H 
ATOM     31  H   UNL     1     -41.828  43.513  22.271  1.00  0.00     0.048 H 
ENDBRANCH  22  28
ENDBRANCH  11  21
BRANCH  16  32
ATOM     32  N   UNL     1     -46.624  44.248  25.563  1.00  0.00    -0.383 N 
ATOM     33  H   UNL     1     -45.610  44.231  25.585  1.00  0.00     0.158 HD
ATOM     34  H   UNL     1     -47.027  44.565  24.688  1.00  0.00     0.158 HD
ENDBRANCH  16  32
ENDBRANCH   1  10
BRANCH   5  35
ATOM     35  C   UNL     1     -48.523  35.338  26.960  1.00  0.00     0.115 C 
ATOM     36  H   UNL     1     -49.522  35.589  27.339  1.00  0.00     0.076 H 
ATOM     37  H   UNL     1     -48.576  35.459  25.871  1.00  0.00     0.076 H 
BRANCH  35  38
ATOM     38  O   UNL     1     -48.218  33.960  27.197  1.00  0.00    -0.489 OA
BRANCH  38  39
ATOM     39  C   UNL     1     -47.827  33.180  26.144  1.00  0.00     0.122 A 
ATOM     40  C   UNL     1     -46.488  33.325  25.788  1.00  0.00    -0.019 A 
ATOM     41  C   UNL     1     -48.627  32.279  25.438  1.00  0.00     0.007 A 
ATOM     42  C   UNL     1     -45.956  32.586  24.733  1.00  0.00    -0.049 A 
ATOM     43  H   UNL     1     -45.854  34.018  26.336  1.00  0.00     0.066 H 
ATOM     44  C   UNL     1     -48.124  31.531  24.380  1.00  0.00     0.076 A 
ATOM     45  H   UNL     1     -49.669  32.120  25.693  1.00  0.00     0.069 H 
ATOM     46  C   UNL     1     -46.771  31.689  24.026  1.00  0.00     0.001 A 
ATOM     47  H   UNL     1     -44.909  32.713  24.471  1.00  0.00     0.063 H 
ATOM     48  N   UNL     1     -48.941  30.683  23.730  1.00  0.00    -0.231 NA
ATOM     49  C   UNL     1     -46.280  30.927  22.965  1.00  0.00    -0.049 A 
ATOM     50  C   UNL     1     -48.459  29.954  22.699  1.00  0.00     0.129 A 
ATOM     51  C   UNL     1     -47.131  30.050  22.299  1.00  0.00    -0.019 A 
ATOM     52  H   UNL     1     -45.241  31.003  22.654  1.00  0.00     0.063 H 
ATOM     53  H   UNL     1     -46.751  29.446  21.483  1.00  0.00     0.066 H 
BRANCH  50  54
ATOM     54  N   UNL     1     -49.330  29.062  22.044  1.00  0.00    -0.351 N 
ATOM     55  C   UNL     1     -49.426  27.649  22.260  1.00  0.00     0.052 C 
ATOM     56  C   UNL     1     -49.404  28.912  20.617  1.00  0.00     0.052 C 
ATOM     57  C   UNL     1     -50.090  27.561  20.875  1.00  0.00     0.135 C 
ATOM     58  H   UNL     1     -48.450  27.157  22.334  1.00  0.00     0.052 H 
ATOM     59  H   UNL     1     -50.061  27.379  23.106  1.00  0.00     0.052 H 
ATOM     60  H   UNL     1     -50.021  29.674  20.133  1.00  0.00     0.052 H 
ATOM     61  H   UNL     1     -48.423  28.844  20.137  1.00  0.00     0.052 H 
ATOM     62  F   UNL     1     -49.712  26.525  20.089  1.00  0.00    -0.244 F 
ATOM     63  H   UNL     1     -51.184  27.646  20.925  1.00  0.00     0.070 H 
ENDBRANCH  50  54
ENDBRANCH  38  39
ENDBRANCH  35  38
ENDBRANCH   5  35
TORSDOF 8
ENDMDL
MODEL 6
REMARK VINA RESULT:     -10.0      1.672      2.503
REMARK SMILES Cn1ccc(-c2cn(-c3cncc(COc4ccc5ccc(N6CC(F)C6)nc5c4)c3)c3ncnc(N)c23)n1
REMARK SMILES IDX 9 1 10 2 11 3 12 4 13 5 31 6 8 10 6 11 7 12 38 13 32 15
REMARK SMILES IDX 36 16 33 17 35 18 34 19 5 21 2 22 3 23 39 24 4 25 1 28 37 32
REMARK SMILES IDX 14 35 15 38 16 39 17 40 30 41 18 42 29 44 19 46 28 48 20 49
REMARK SMILES IDX 22 50 21 51 23 54 24 55 27 56 25 57 26 62
REMARK H PARENT 10 7 12 8 31 9 7 14 34 20 3 26 4 27 1 29 1 30 1 31 37 33 37 34
REMARK H PARENT 14 36 14 37 17 43 30 45 18 47 20 52 21 53 24 58 24 59 27 60
REMARK H PARENT 27 61 25 63
REMARK Flexibility Score: inf
ROOT
ATOM      1  C   UNL     1     -46.316  37.473  27.598  1.00  0.00     0.066 A 
ATOM      2  C   UNL     1     -46.149  37.107  28.931  1.00  0.00     0.051 A 
ATOM      3  N   UNL     1     -46.279  35.842  29.403  1.00  0.00    -0.262 NA
ATOM      4  C   UNL     1     -46.581  34.884  28.504  1.00  0.00     0.034 A 
ATOM      5  C   UNL     1     -46.757  35.123  27.147  1.00  0.00     0.010 A 
ATOM      6  C   UNL     1     -46.635  36.448  26.702  1.00  0.00    -0.028 A 
ATOM      7  H   UNL     1     -45.919  37.819  29.717  1.00  0.00     0.086 H 
ATOM      8  H   UNL     1     -46.679  33.887  28.922  1.00  0.00     0.084 H 
ATOM      9  H   UNL     1     -46.769  36.636  25.641  1.00  0.00     0.065 H 
ENDROOT
BRANCH   1  10
ATOM     10  N   UNL     1     -46.161  38.836  27.186  1.00  0.00    -0.299 N 
ATOM     11  C   UNL     1     -45.174  40.738  26.480  1.00  0.00     0.033 A 
ATOM     12  C   UNL     1     -44.954  39.435  26.872  1.00  0.00     0.021 A 
ATOM     13  C   UNL     1     -46.559  41.003  26.614  1.00  0.00     0.071 A 
ATOM     14  H   UNL     1     -44.017  38.900  26.900  1.00  0.00     0.083 H 
ATOM     15  C   UNL     1     -47.153  39.807  27.024  1.00  0.00     0.150 A 
ATOM     16  C   UNL     1     -47.412  42.112  26.460  1.00  0.00     0.137 A 
ATOM     17  N   UNL     1     -48.472  39.646  27.255  1.00  0.00    -0.218 NA
ATOM     18  N   UNL     1     -48.732  41.963  26.671  1.00  0.00    -0.219 NA
ATOM     19  C   UNL     1     -49.184  40.758  27.043  1.00  0.00     0.120 A 
ATOM     20  H   UNL     1     -50.255  40.678  27.199  1.00  0.00     0.106 H 
BRANCH  11  21
ATOM     21  C   UNL     1     -44.135  41.655  26.023  1.00  0.00     0.095 A 
ATOM     22  N   UNL     1     -43.094  43.050  24.829  1.00  0.00    -0.275 N 
ATOM     23  C   UNL     1     -42.337  42.937  25.957  1.00  0.00     0.025 A 
ATOM     24  N   UNL     1     -44.201  42.285  24.845  1.00  0.00    -0.173 NA
ATOM     25  C   UNL     1     -42.998  42.041  26.765  1.00  0.00    -0.016 A 
ATOM     26  H   UNL     1     -41.422  43.496  26.097  1.00  0.00     0.084 H 
ATOM     27  H   UNL     1     -42.703  41.718  27.754  1.00  0.00     0.066 H 
BRANCH  22  28
ATOM     28  C   UNL     1     -42.828  43.887  23.683  1.00  0.00     0.030 C 
ATOM     29  H   UNL     1     -42.634  44.904  24.037  1.00  0.00     0.048 H 
ATOM     30  H   UNL     1     -43.696  43.882  23.020  1.00  0.00     0.048 H 
ATOM     31  H   UNL     1     -41.956  43.488  23.161  1.00  0.00     0.048 H 
ENDBRANCH  22  28
ENDBRANCH  11  21
BRANCH  16  32
ATOM     32  N   UNL     1     -46.990  43.397  26.144  1.00  0.00    -0.383 N 
ATOM     33  H   UNL     1     -47.176  43.583  25.164  1.00  0.00     0.158 HD
ATOM     34  H   UNL     1     -47.325  44.106  26.785  1.00  0.00     0.158 HD
ENDBRANCH  16  32
ENDBRANCH   1  10
BRANCH   5  35
ATOM     35  C   UNL     1     -47.123  33.994  26.220  1.00  0.00     0.115 C 
ATOM     36  H   UNL     1     -46.978  34.252  25.164  1.00  0.00     0.076 H 
ATOM     37  H   UNL     1     -46.434  33.166  26.425  1.00  0.00     0.076 H 
BRANCH  35  38
ATOM     38  O   UNL     1     -48.442  33.484  26.444  1.00  0.00    -0.489 OA
BRANCH  38  39
ATOM     39  C   UNL     1     -48.825  32.339  25.801  1.00  0.00     0.122 A 
ATOM     40  C   UNL     1     -49.758  32.537  24.785  1.00  0.00    -0.019 A 
ATOM     41  C   UNL     1     -48.365  31.048  26.063  1.00  0.00     0.007 A 
ATOM     42  C   UNL     1     -50.232  31.455  24.045  1.00  0.00    -0.049 A 
ATOM     43  H   UNL     1     -50.117  33.539  24.567  1.00  0.00     0.066 H 
ATOM     44  C   UNL     1     -48.823  29.950  25.343  1.00  0.00     0.076 A 
ATOM     45  H   UNL     1     -47.626  30.850  26.832  1.00  0.00     0.069 H 
ATOM     46  C   UNL     1     -49.768  30.161  24.322  1.00  0.00     0.001 A 
ATOM     47  H   UNL     1     -50.958  31.630  23.256  1.00  0.00     0.063 H 
ATOM     48  N   UNL     1     -48.351  28.726  25.643  1.00  0.00    -0.231 NA
ATOM     49  C   UNL     1     -50.214  29.049  23.605  1.00  0.00    -0.049 A 
ATOM     50  C   UNL     1     -48.793  27.654  24.948  1.00  0.00     0.129 A 
ATOM     51  C   UNL     1     -49.719  27.787  23.920  1.00  0.00    -0.019 A 
ATOM     52  H   UNL     1     -50.937  29.154  22.801  1.00  0.00     0.063 H 
ATOM     53  H   UNL     1     -50.051  26.922  23.357  1.00  0.00     0.066 H 
BRANCH  50  54
ATOM     54  N   UNL     1     -48.272  26.387  25.270  1.00  0.00    -0.351 N 
ATOM     55  C   UNL     1     -48.778  25.482  26.260  1.00  0.00     0.052 C 
ATOM     56  C   UNL     1     -46.910  26.152  25.663  1.00  0.00     0.052 C 
ATOM     57  C   UNL     1     -47.392  24.814  26.246  1.00  0.00     0.135 C 
ATOM     58  H   UNL     1     -49.041  25.976  27.202  1.00  0.00     0.052 H 
ATOM     59  H   UNL     1     -49.604  24.863  25.904  1.00  0.00     0.052 H 
ATOM     60  H   UNL     1     -46.221  26.082  24.816  1.00  0.00     0.052 H 
ATOM     61  H   UNL     1     -46.542  26.870  26.404  1.00  0.00     0.052 H 
ATOM     62  F   UNL     1     -46.883  24.454  27.448  1.00  0.00    -0.244 F 
ATOM     63  H   UNL     1     -47.328  23.991  25.522  1.00  0.00     0.070 H 
ENDBRANCH  50  54
ENDBRANCH  38  39
ENDBRANCH  35  38
ENDBRANCH   5  35
TORSDOF 8
ENDMDL
MODEL 7
REMARK VINA RESULT:      -9.4      4.448     13.041
REMARK SMILES Cn1ccc(-c2cn(-c3cncc(COc4ccc5ccc(N6CC(F)C6)nc5c4)c3)c3ncnc(N)c23)n1
REMARK SMILES IDX 9 1 10 2 11 3 12 4 13 5 31 6 8 10 6 11 7 12 38 13 32 15
REMARK SMILES IDX 36 16 33 17 35 18 34 19 5 21 2 22 3 23 39 24 4 25 1 28 37 32
REMARK SMILES IDX 14 35 15 38 16 39 17 40 30 41 18 42 29 44 19 46 28 48 20 49
REMARK SMILES IDX 22 50 21 51 23 54 24 55 27 56 25 57 26 62
REMARK H PARENT 10 7 12 8 31 9 7 14 34 20 3 26 4 27 1 29 1 30 1 31 37 33 37 34
REMARK H PARENT 14 36 14 37 17 43 30 45 18 47 20 52 21 53 24 58 24 59 27 60
REMARK H PARENT 27 61 25 63
REMARK Flexibility Score: inf
ROOT
ATOM      1  C   UNL     1     -47.082  33.079  26.237  1.00  0.00     0.066 A 
ATOM      2  C   UNL     1     -46.459  32.777  27.445  1.00  0.00     0.051 A 
ATOM      3  N   UNL     1     -46.040  33.702  28.345  1.00  0.00    -0.262 NA
ATOM      4  C   UNL     1     -46.261  34.996  28.038  1.00  0.00     0.034 A 
ATOM      5  C   UNL     1     -46.886  35.419  26.872  1.00  0.00     0.010 A 
ATOM      6  C   UNL     1     -47.284  34.434  25.957  1.00  0.00    -0.028 A 
ATOM      7  H   UNL     1     -46.233  31.764  27.760  1.00  0.00     0.086 H 
ATOM      8  H   UNL     1     -45.908  35.703  28.783  1.00  0.00     0.084 H 
ATOM      9  H   UNL     1     -47.776  34.763  25.047  1.00  0.00     0.065 H 
ENDROOT
BRANCH   1  10
ATOM     10  N   UNL     1     -47.491  32.038  25.342  1.00  0.00    -0.299 N 
ATOM     11  C   UNL     1     -48.616  30.255  24.537  1.00  0.00     0.033 A 
ATOM     12  C   UNL     1     -48.440  31.074  25.632  1.00  0.00     0.021 A 
ATOM     13  C   UNL     1     -47.700  30.666  23.537  1.00  0.00     0.071 A 
ATOM     14  H   UNL     1     -48.968  31.045  26.574  1.00  0.00     0.083 H 
ATOM     15  C   UNL     1     -47.035  31.785  24.045  1.00  0.00     0.150 A 
ATOM     16  C   UNL     1     -47.316  30.232  22.255  1.00  0.00     0.137 A 
ATOM     17  N   UNL     1     -46.084  32.477  23.386  1.00  0.00    -0.218 NA
ATOM     18  N   UNL     1     -46.381  30.921  21.578  1.00  0.00    -0.219 NA
ATOM     19  C   UNL     1     -45.830  31.991  22.166  1.00  0.00     0.120 A 
ATOM     20  H   UNL     1     -45.082  32.522  21.585  1.00  0.00     0.106 H 
BRANCH  11  21
ATOM     21  C   UNL     1     -49.580  29.163  24.462  1.00  0.00     0.095 A 
ATOM     22  N   UNL     1     -51.229  28.000  23.840  1.00  0.00    -0.275 N 
ATOM     23  C   UNL     1     -50.589  27.220  24.758  1.00  0.00     0.025 A 
ATOM     24  N   UNL     1     -50.631  29.188  23.635  1.00  0.00    -0.173 NA
ATOM     25  C   UNL     1     -49.498  27.947  25.175  1.00  0.00    -0.016 A 
ATOM     26  H   UNL     1     -50.944  26.234  25.024  1.00  0.00     0.084 H 
ATOM     27  H   UNL     1     -48.746  27.638  25.887  1.00  0.00     0.066 H 
BRANCH  22  28
ATOM     28  C   UNL     1     -52.424  27.671  23.102  1.00  0.00     0.030 C 
ATOM     29  H   UNL     1     -52.129  27.188  22.167  1.00  0.00     0.048 H 
ATOM     30  H   UNL     1     -52.983  28.586  22.889  1.00  0.00     0.048 H 
ATOM     31  H   UNL     1     -53.030  26.996  23.710  1.00  0.00     0.048 H 
ENDBRANCH  22  28
ENDBRANCH  11  21
BRANCH  16  32
ATOM     32  N   UNL     1     -47.804  29.093  21.627  1.00  0.00    -0.383 N 
ATOM     33  H   UNL     1     -48.530  28.675  22.198  1.00  0.00     0.158 HD
ATOM     34  H   UNL     1     -48.054  29.239  20.656  1.00  0.00     0.158 HD
ENDBRANCH  16  32
ENDBRANCH   1  10
BRANCH   5  35
ATOM     35  C   UNL     1     -47.062  36.890  26.599  1.00  0.00     0.115 C 
ATOM     36  H   UNL     1     -46.497  37.226  25.721  1.00  0.00     0.076 H 
ATOM     37  H   UNL     1     -48.119  37.053  26.357  1.00  0.00     0.076 H 
BRANCH  35  38
ATOM     38  O   UNL     1     -46.777  37.714  27.734  1.00  0.00    -0.489 OA
BRANCH  38  39
ATOM     39  C   UNL     1     -45.966  38.803  27.572  1.00  0.00     0.122 A 
ATOM     40  C   UNL     1     -44.876  38.841  28.440  1.00  0.00    -0.019 A 
ATOM     41  C   UNL     1     -46.131  39.828  26.639  1.00  0.00     0.007 A 
ATOM     42  C   UNL     1     -43.966  39.895  28.381  1.00  0.00    -0.049 A 
ATOM     43  H   UNL     1     -44.734  38.044  29.165  1.00  0.00     0.066 H 
ATOM     44  C   UNL     1     -45.241  40.893  26.560  1.00  0.00     0.076 A 
ATOM     45  H   UNL     1     -46.954  39.830  25.933  1.00  0.00     0.069 H 
ATOM     46  C   UNL     1     -44.146  40.923  27.443  1.00  0.00     0.001 A 
ATOM     47  H   UNL     1     -43.122  39.906  29.064  1.00  0.00     0.063 H 
ATOM     48  N   UNL     1     -45.452  41.857  25.646  1.00  0.00    -0.231 NA
ATOM     49  C   UNL     1     -43.258  41.996  27.348  1.00  0.00    -0.049 A 
ATOM     50  C   UNL     1     -44.591  42.897  25.564  1.00  0.00     0.129 A 
ATOM     51  C   UNL     1     -43.482  42.988  26.398  1.00  0.00    -0.019 A 
ATOM     52  H   UNL     1     -42.392  42.066  27.999  1.00  0.00     0.063 H 
ATOM     53  H   UNL     1     -42.789  43.817  26.310  1.00  0.00     0.066 H 
BRANCH  50  54
ATOM     54  N   UNL     1     -44.825  43.885  24.590  1.00  0.00    -0.351 N 
ATOM     55  C   UNL     1     -43.890  44.360  23.613  1.00  0.00     0.052 C 
ATOM     56  C   UNL     1     -45.286  45.213  24.885  1.00  0.00     0.052 C 
ATOM     57  C   UNL     1     -44.770  45.616  23.494  1.00  0.00     0.135 C 
ATOM     58  H   UNL     1     -42.890  44.536  24.024  1.00  0.00     0.052 H 
ATOM     59  H   UNL     1     -43.836  43.734  22.720  1.00  0.00     0.052 H 
ATOM     60  H   UNL     1     -46.368  45.275  25.028  1.00  0.00     0.052 H 
ATOM     61  H   UNL     1     -44.756  45.680  25.723  1.00  0.00     0.052 H 
ATOM     62  F   UNL     1     -44.122  46.801  23.403  1.00  0.00    -0.244 F 
ATOM     63  H   UNL     1     -45.539  45.520  22.716  1.00  0.00     0.070 H 
ENDBRANCH  50  54
ENDBRANCH  38  39
ENDBRANCH  35  38
ENDBRANCH   5  35
TORSDOF 8
ENDMDL
