MODEL 1
REMARK VINA RESULT:     -10.0      0.000      0.000
REMARK SMILES CNc1ccc2ccc(CC[C@H]3C[C@@H](n4cc(C)c5c(N)ncnc54)[C@H](O)[C@@H]3O)cc2n1
REMARK SMILES IDX 10 1 9 4 3 5 4 6 32 7 5 8 31 10 6 11 30 13 7 14 8 16 2 19
REMARK SMILES IDX 1 21 11 25 12 28 13 29 28 30 14 32 26 35 29 39 15 41 16 42
REMARK SMILES IDX 25 43 17 44 19 46 24 47 20 48 23 49 22 50 18 52 21 56 27 59
REMARK H PARENT 10 2 10 3 4 9 5 12 30 15 7 17 8 18 2 20 1 22 1 23 1 24 11 26
REMARK H PARENT 11 27 12 31 13 33 13 34 28 36 14 37 26 38 29 40 16 45 23 51
REMARK H PARENT 18 53 18 54 18 55 21 57 21 58 27 60
REMARK Flexibility Score: inf
ROOT
ATOM      1  C   UNL     1     -46.676  34.895  26.904  1.00  0.00    -0.027 C 
ATOM      2  H   UNL     1     -45.639  35.089  26.603  1.00  0.00     0.032 H 
ATOM      3  H   UNL     1     -46.636  34.603  27.961  1.00  0.00     0.032 H 
ENDROOT
BRANCH   1   4
ATOM      4  C   UNL     1     -47.215  33.748  26.084  1.00  0.00    -0.046 A 
ATOM      5  C   UNL     1     -46.457  30.441  22.730  1.00  0.00     0.126 A 
ATOM      6  C   UNL     1     -47.771  29.994  22.809  1.00  0.00    -0.019 A 
ATOM      7  N   UNL     1     -46.010  31.459  23.492  1.00  0.00    -0.231 NA
ATOM      8  C   UNL     1     -48.645  30.597  23.708  1.00  0.00    -0.049 A 
ATOM      9  H   UNL     1     -48.119  29.192  22.167  1.00  0.00     0.066 H 
ATOM     10  C   UNL     1     -46.850  32.047  24.364  1.00  0.00     0.073 A 
ATOM     11  C   UNL     1     -48.191  31.647  24.510  1.00  0.00     0.000 A 
ATOM     12  H   UNL     1     -49.673  30.250  23.769  1.00  0.00     0.063 H 
ATOM     13  C   UNL     1     -46.390  33.093  25.155  1.00  0.00    -0.033 A 
ATOM     14  C   UNL     1     -49.030  32.294  25.432  1.00  0.00    -0.053 A 
ATOM     15  H   UNL     1     -45.354  33.404  25.037  1.00  0.00     0.065 H 
ATOM     16  C   UNL     1     -48.544  33.341  26.213  1.00  0.00    -0.058 A 
ATOM     17  H   UNL     1     -50.068  31.987  25.544  1.00  0.00     0.063 H 
ATOM     18  H   UNL     1     -49.209  33.835  26.918  1.00  0.00     0.063 H 
BRANCH   5  19
ATOM     19  N   UNL     1     -45.610  29.824  21.791  1.00  0.00    -0.373 N 
ATOM     20  H   UNL     1     -46.179  29.416  21.056  1.00  0.00     0.161 HD
BRANCH  19  21
ATOM     21  C   UNL     1     -44.692  28.852  22.366  1.00  0.00     0.005 C 
ATOM     22  H   UNL     1     -45.211  28.150  23.029  1.00  0.00     0.045 H 
ATOM     23  H   UNL     1     -44.240  28.271  21.557  1.00  0.00     0.045 H 
ATOM     24  H   UNL     1     -43.878  29.341  22.911  1.00  0.00     0.045 H 
ENDBRANCH  19  21
ENDBRANCH   5  19
ENDBRANCH   1   4
BRANCH   1  25
ATOM     25  C   UNL     1     -47.534  36.153  26.737  1.00  0.00    -0.044 C 
ATOM     26  H   UNL     1     -47.462  36.516  25.704  1.00  0.00     0.027 H 
ATOM     27  H   UNL     1     -48.588  35.897  26.901  1.00  0.00     0.027 H 
BRANCH  25  28
ATOM     28  C   UNL     1     -47.135  37.269  27.709  1.00  0.00    -0.010 C 
ATOM     29  C   UNL     1     -45.701  37.775  27.525  1.00  0.00    -0.024 C 
ATOM     30  C   UNL     1     -47.960  38.543  27.514  1.00  0.00     0.085 C 
ATOM     31  H   UNL     1     -47.270  36.899  28.734  1.00  0.00     0.033 H 
ATOM     32  C   UNL     1     -45.689  39.185  28.149  1.00  0.00     0.064 C 
ATOM     33  H   UNL     1     -45.429  37.793  26.462  1.00  0.00     0.029 H 
ATOM     34  H   UNL     1     -44.980  37.121  28.027  1.00  0.00     0.029 H 
ATOM     35  C   UNL     1     -47.164  39.607  28.285  1.00  0.00     0.101 C 
ATOM     36  H   UNL     1     -48.043  38.810  26.455  1.00  0.00     0.063 H 
ATOM     37  H   UNL     1     -45.247  39.110  29.152  1.00  0.00     0.056 H 
ATOM     38  H   UNL     1     -47.386  40.619  27.932  1.00  0.00     0.065 H 
BRANCH  30  39
ATOM     39  O   UNL     1     -49.269  38.417  28.066  1.00  0.00    -0.390 OA
ATOM     40  H   UNL     1     -49.454  37.465  28.147  1.00  0.00     0.211 HD
ENDBRANCH  30  39
BRANCH  32  41
ATOM     41  N   UNL     1     -44.865  40.131  27.412  1.00  0.00    -0.326 N 
ATOM     42  C   UNL     1     -45.183  40.636  26.175  1.00  0.00     0.010 A 
ATOM     43  C   UNL     1     -43.673  40.668  27.830  1.00  0.00     0.146 A 
ATOM     44  C   UNL     1     -44.186  41.514  25.786  1.00  0.00    -0.020 A 
ATOM     45  H   UNL     1     -46.093  40.338  25.668  1.00  0.00     0.082 H 
ATOM     46  C   UNL     1     -43.215  41.529  26.840  1.00  0.00     0.064 A 
ATOM     47  N   UNL     1     -43.068  40.400  29.000  1.00  0.00    -0.218 NA
ATOM     48  C   UNL     1     -41.993  42.174  27.094  1.00  0.00     0.136 A 
ATOM     49  C   UNL     1     -41.917  41.081  29.128  1.00  0.00     0.120 A 
ATOM     50  N   UNL     1     -41.352  41.933  28.254  1.00  0.00    -0.219 NA
ATOM     51  H   UNL     1     -41.370  40.923  30.054  1.00  0.00     0.106 H 
BRANCH  44  52
ATOM     52  C   UNL     1     -44.150  42.290  24.521  1.00  0.00    -0.037 C 
ATOM     53  H   UNL     1     -44.187  43.365  24.725  1.00  0.00     0.028 H 
ATOM     54  H   UNL     1     -45.001  42.042  23.878  1.00  0.00     0.028 H 
ATOM     55  H   UNL     1     -43.233  42.071  23.965  1.00  0.00     0.028 H 
ENDBRANCH  44  52
BRANCH  48  56
ATOM     56  N   UNL     1     -41.370  43.046  26.209  1.00  0.00    -0.383 N 
ATOM     57  H   UNL     1     -41.455  42.693  25.263  1.00  0.00     0.158 HD
ATOM     58  H   UNL     1     -41.620  44.016  26.340  1.00  0.00     0.158 HD
ENDBRANCH  48  56
ENDBRANCH  32  41
BRANCH  35  59
ATOM     59  O   UNL     1     -47.544  39.559  29.672  1.00  0.00    -0.388 OA
ATOM     60  H   UNL     1     -46.914  40.168  30.116  1.00  0.00     0.211 HD
ENDBRANCH  35  59
ENDBRANCH  25  28
ENDBRANCH   1  25
TORSDOF 10
ENDMDL
MODEL 2
REMARK VINA RESULT:     -10.0      2.423     10.359
REMARK SMILES CNc1ccc2ccc(CC[C@H]3C[C@@H](n4cc(C)c5c(N)ncnc54)[C@H](O)[C@@H]3O)cc2n1
REMARK SMILES IDX 10 1 9 4 3 5 4 6 32 7 5 8 31 10 6 11 30 13 7 14 8 16 2 19
REMARK SMILES IDX 1 21 11 25 12 28 13 29 28 30 14 32 26 35 29 39 15 41 16 42
REMARK SMILES IDX 25 43 17 44 19 46 24 47 20 48 23 49 22 50 18 52 21 56 27 59
REMARK H PARENT 10 2 10 3 4 9 5 12 30 15 7 17 8 18 2 20 1 22 1 23 1 24 11 26
REMARK H PARENT 11 27 12 31 13 33 13 34 28 36 14 37 26 38 29 40 16 45 23 51
REMARK H PARENT 18 53 18 54 18 55 21 57 21 58 27 60
REMARK Flexibility Score: inf
ROOT
ATOM      1  C   UNL     1     -47.598  37.110  28.156  1.00  0.00    -0.027 C 
ATOM      2  H   UNL     1     -48.377  37.865  27.986  1.00  0.00     0.032 H 
ATOM      3  H   UNL     1     -47.992  36.435  28.926  1.00  0.00     0.032 H 
ENDROOT
BRANCH   1   4
ATOM      4  C   UNL     1     -46.358  37.798  28.673  1.00  0.00    -0.046 A 
ATOM      5  C   UNL     1     -43.101  41.244  28.144  1.00  0.00     0.126 A 
ATOM      6  C   UNL     1     -42.405  40.821  29.270  1.00  0.00    -0.019 A 
ATOM      7  N   UNL     1     -44.214  40.610  27.723  1.00  0.00    -0.231 NA
ATOM      8  C   UNL     1     -42.875  39.730  29.996  1.00  0.00    -0.049 A 
ATOM      9  H   UNL     1     -41.495  41.326  29.577  1.00  0.00     0.066 H 
ATOM     10  C   UNL     1     -44.674  39.555  28.420  1.00  0.00     0.073 A 
ATOM     11  C   UNL     1     -44.033  39.072  29.575  1.00  0.00     0.000 A 
ATOM     12  H   UNL     1     -42.331  39.398  30.875  1.00  0.00     0.063 H 
ATOM     13  C   UNL     1     -45.826  38.905  27.991  1.00  0.00    -0.033 A 
ATOM     14  C   UNL     1     -44.551  37.964  30.266  1.00  0.00    -0.053 A 
ATOM     15  H   UNL     1     -46.319  39.277  27.095  1.00  0.00     0.065 H 
ATOM     16  C   UNL     1     -45.706  37.330  29.815  1.00  0.00    -0.058 A 
ATOM     17  H   UNL     1     -44.054  37.589  31.159  1.00  0.00     0.063 H 
ATOM     18  H   UNL     1     -46.091  36.470  30.359  1.00  0.00     0.063 H 
BRANCH   5  19
ATOM     19  N   UNL     1     -42.581  42.333  27.422  1.00  0.00    -0.373 N 
ATOM     20  H   UNL     1     -41.730  42.651  27.876  1.00  0.00     0.161 HD
BRANCH  19  21
ATOM     21  C   UNL     1     -43.525  43.422  27.225  1.00  0.00     0.005 C 
ATOM     22  H   UNL     1     -43.082  44.241  26.647  1.00  0.00     0.045 H 
ATOM     23  H   UNL     1     -44.385  43.047  26.661  1.00  0.00     0.045 H 
ATOM     24  H   UNL     1     -43.903  43.805  28.179  1.00  0.00     0.045 H 
ENDBRANCH  19  21
ENDBRANCH   5  19
ENDBRANCH   1   4
BRANCH   1  25
ATOM     25  C   UNL     1     -47.310  36.330  26.870  1.00  0.00    -0.044 C 
ATOM     26  H   UNL     1     -48.067  36.571  26.113  1.00  0.00     0.027 H 
ATOM     27  H   UNL     1     -46.347  36.656  26.456  1.00  0.00     0.027 H 
BRANCH  25  28
ATOM     28  C   UNL     1     -47.267  34.815  27.098  1.00  0.00    -0.010 C 
ATOM     29  C   UNL     1     -48.132  34.012  26.123  1.00  0.00    -0.024 C 
ATOM     30  C   UNL     1     -45.875  34.223  26.867  1.00  0.00     0.085 C 
ATOM     31  H   UNL     1     -47.584  34.612  28.130  1.00  0.00     0.033 H 
ATOM     32  C   UNL     1     -47.539  32.588  26.138  1.00  0.00     0.064 C 
ATOM     33  H   UNL     1     -48.105  34.458  25.121  1.00  0.00     0.029 H 
ATOM     34  H   UNL     1     -49.182  33.999  26.437  1.00  0.00     0.029 H 
ATOM     35  C   UNL     1     -46.139  32.713  26.770  1.00  0.00     0.101 C 
ATOM     36  H   UNL     1     -45.426  34.601  25.942  1.00  0.00     0.063 H 
ATOM     37  H   UNL     1     -48.168  31.964  26.788  1.00  0.00     0.056 H 
ATOM     38  H   UNL     1     -45.343  32.193  26.228  1.00  0.00     0.065 H 
BRANCH  30  39
ATOM     39  O   UNL     1     -44.995  34.496  27.956  1.00  0.00    -0.390 OA
ATOM     40  H   UNL     1     -45.525  34.445  28.771  1.00  0.00     0.211 HD
ENDBRANCH  30  39
BRANCH  32  41
ATOM     41  N   UNL     1     -47.547  31.949  24.831  1.00  0.00    -0.326 N 
ATOM     42  C   UNL     1     -46.419  31.668  24.099  1.00  0.00     0.010 A 
ATOM     43  C   UNL     1     -48.655  31.523  24.143  1.00  0.00     0.146 A 
ATOM     44  C   UNL     1     -46.800  31.050  22.921  1.00  0.00    -0.020 A 
ATOM     45  H   UNL     1     -45.434  31.924  24.472  1.00  0.00     0.082 H 
ATOM     46  C   UNL     1     -48.231  30.964  22.943  1.00  0.00     0.064 A 
ATOM     47  N   UNL     1     -49.925  31.633  24.568  1.00  0.00    -0.218 NA
ATOM     48  C   UNL     1     -49.237  30.471  22.095  1.00  0.00     0.136 A 
ATOM     49  C   UNL     1     -50.791  31.120  23.678  1.00  0.00     0.120 A 
ATOM     50  N   UNL     1     -50.524  30.562  22.484  1.00  0.00    -0.219 NA
ATOM     51  H   UNL     1     -51.840  31.165  23.955  1.00  0.00     0.106 H 
BRANCH  44  52
ATOM     52  C   UNL     1     -45.888  30.565  21.854  1.00  0.00    -0.037 C 
ATOM     53  H   UNL     1     -44.975  30.145  22.288  1.00  0.00     0.028 H 
ATOM     54  H   UNL     1     -45.596  31.378  21.181  1.00  0.00     0.028 H 
ATOM     55  H   UNL     1     -46.379  29.792  21.254  1.00  0.00     0.028 H 
ENDBRANCH  44  52
BRANCH  48  56
ATOM     56  N   UNL     1     -49.002  29.905  20.849  1.00  0.00    -0.383 N 
ATOM     57  H   UNL     1     -48.085  30.178  20.515  1.00  0.00     0.158 HD
ATOM     58  H   UNL     1     -49.214  28.918  20.797  1.00  0.00     0.158 HD
ENDBRANCH  48  56
ENDBRANCH  32  41
BRANCH  35  59
ATOM     59  O   UNL     1     -46.168  32.158  28.098  1.00  0.00    -0.388 OA
ATOM     60  H   UNL     1     -45.864  32.893  28.673  1.00  0.00     0.211 HD
ENDBRANCH  35  59
ENDBRANCH  25  28
ENDBRANCH   1  25
TORSDOF 10
ENDMDL
MODEL 3
REMARK VINA RESULT:      -9.7      1.578      2.026
REMARK SMILES CNc1ccc2ccc(CC[C@H]3C[C@@H](n4cc(C)c5c(N)ncnc54)[C@H](O)[C@@H]3O)cc2n1
REMARK SMILES IDX 10 1 9 4 3 5 4 6 32 7 5 8 31 10 6 11 30 13 7 14 8 16 2 19
REMARK SMILES IDX 1 21 11 25 12 28 13 29 28 30 14 32 26 35 29 39 15 41 16 42
REMARK SMILES IDX 25 43 17 44 19 46 24 47 20 48 23 49 22 50 18 52 21 56 27 59
REMARK H PARENT 10 2 10 3 4 9 5 12 30 15 7 17 8 18 2 20 1 22 1 23 1 24 11 26
REMARK H PARENT 11 27 12 31 13 33 13 34 28 36 14 37 26 38 29 40 16 45 23 51
REMARK H PARENT 18 53 18 54 18 55 21 57 21 58 27 60
REMARK Flexibility Score: inf
ROOT
ATOM      1  C   UNL     1     -47.877  34.382  26.958  1.00  0.00    -0.027 C 
ATOM      2  H   UNL     1     -47.461  34.113  27.938  1.00  0.00     0.032 H 
ATOM      3  H   UNL     1     -48.957  34.503  27.110  1.00  0.00     0.032 H 
ENDROOT
BRANCH   1   4
ATOM      4  C   UNL     1     -47.625  33.249  25.995  1.00  0.00    -0.046 A 
ATOM      5  C   UNL     1     -48.822  28.903  24.430  1.00  0.00     0.126 A 
ATOM      6  C   UNL     1     -47.792  28.906  23.496  1.00  0.00    -0.019 A 
ATOM      7  N   UNL     1     -49.022  29.944  25.263  1.00  0.00    -0.231 NA
ATOM      8  C   UNL     1     -46.957  30.016  23.403  1.00  0.00    -0.049 A 
ATOM      9  H   UNL     1     -47.629  28.048  22.854  1.00  0.00     0.066 H 
ATOM     10  C   UNL     1     -48.219  31.020  25.178  1.00  0.00     0.073 A 
ATOM     11  C   UNL     1     -47.161  31.103  24.254  1.00  0.00     0.000 A 
ATOM     12  H   UNL     1     -46.151  30.018  22.675  1.00  0.00     0.063 H 
ATOM     13  C   UNL     1     -48.428  32.096  26.032  1.00  0.00    -0.033 A 
ATOM     14  C   UNL     1     -46.347  32.247  24.207  1.00  0.00    -0.053 A 
ATOM     15  H   UNL     1     -49.244  32.028  26.749  1.00  0.00     0.065 H 
ATOM     16  C   UNL     1     -46.578  33.313  25.074  1.00  0.00    -0.058 A 
ATOM     17  H   UNL     1     -45.528  32.312  23.493  1.00  0.00     0.063 H 
ATOM     18  H   UNL     1     -45.935  34.189  25.028  1.00  0.00     0.063 H 
BRANCH   5  19
ATOM     19  N   UNL     1     -49.629  27.754  24.512  1.00  0.00    -0.373 N 
ATOM     20  H   UNL     1     -49.128  27.039  25.030  1.00  0.00     0.161 HD
BRANCH  19  21
ATOM     21  C   UNL     1     -50.095  27.261  23.225  1.00  0.00     0.005 C 
ATOM     22  H   UNL     1     -49.274  26.839  22.633  1.00  0.00     0.045 H 
ATOM     23  H   UNL     1     -50.824  26.463  23.394  1.00  0.00     0.045 H 
ATOM     24  H   UNL     1     -50.598  28.046  22.651  1.00  0.00     0.045 H 
ENDBRANCH  19  21
ENDBRANCH   5  19
ENDBRANCH   1   4
BRANCH   1  25
ATOM     25  C   UNL     1     -47.267  35.693  26.452  1.00  0.00    -0.044 C 
ATOM     26  H   UNL     1     -46.474  35.475  25.725  1.00  0.00     0.027 H 
ATOM     27  H   UNL     1     -48.033  36.263  25.910  1.00  0.00     0.027 H 
BRANCH  25  28
ATOM     28  C   UNL     1     -46.709  36.559  27.586  1.00  0.00    -0.010 C 
ATOM     29  C   UNL     1     -45.406  37.283  27.236  1.00  0.00    -0.024 C 
ATOM     30  C   UNL     1     -47.639  37.716  27.957  1.00  0.00     0.085 C 
ATOM     31  H   UNL     1     -46.553  35.919  28.465  1.00  0.00     0.033 H 
ATOM     32  C   UNL     1     -45.329  38.470  28.219  1.00  0.00     0.064 C 
ATOM     33  H   UNL     1     -45.415  37.615  26.190  1.00  0.00     0.029 H 
ATOM     34  H   UNL     1     -44.539  36.624  27.353  1.00  0.00     0.029 H 
ATOM     35  C   UNL     1     -46.746  38.638  28.800  1.00  0.00     0.101 C 
ATOM     36  H   UNL     1     -48.007  38.237  27.066  1.00  0.00     0.063 H 
ATOM     37  H   UNL     1     -44.642  38.195  29.031  1.00  0.00     0.056 H 
ATOM     38  H   UNL     1     -47.117  39.668  28.812  1.00  0.00     0.065 H 
BRANCH  30  39
ATOM     39  O   UNL     1     -48.753  37.275  28.730  1.00  0.00    -0.390 OA
ATOM     40  H   UNL     1     -49.315  36.740  28.142  1.00  0.00     0.211 HD
ENDBRANCH  30  39
BRANCH  32  41
ATOM     41  N   UNL     1     -44.785  39.678  27.618  1.00  0.00    -0.326 N 
ATOM     42  C   UNL     1     -45.233  40.228  26.442  1.00  0.00     0.010 A 
ATOM     43  C   UNL     1     -43.769  40.450  28.124  1.00  0.00     0.146 A 
ATOM     44  C   UNL     1     -44.500  41.374  26.183  1.00  0.00    -0.020 A 
ATOM     45  H   UNL     1     -46.039  39.768  25.883  1.00  0.00     0.082 H 
ATOM     46  C   UNL     1     -43.558  41.513  27.254  1.00  0.00     0.064 A 
ATOM     47  N   UNL     1     -43.105  40.209  29.268  1.00  0.00    -0.218 NA
ATOM     48  C   UNL     1     -42.543  42.416  27.610  1.00  0.00     0.136 A 
ATOM     49  C   UNL     1     -42.169  41.144  29.503  1.00  0.00     0.120 A 
ATOM     50  N   UNL     1     -41.852  42.211  28.748  1.00  0.00    -0.219 NA
ATOM     51  H   UNL     1     -41.593  41.022  30.415  1.00  0.00     0.106 H 
BRANCH  44  52
ATOM     52  C   UNL     1     -44.677  42.279  25.019  1.00  0.00    -0.037 C 
ATOM     53  H   UNL     1     -44.682  43.325  25.341  1.00  0.00     0.028 H 
ATOM     54  H   UNL     1     -45.623  42.083  24.504  1.00  0.00     0.028 H 
ATOM     55  H   UNL     1     -43.866  42.137  24.299  1.00  0.00     0.028 H 
ENDBRANCH  44  52
BRANCH  48  56
ATOM     56  N   UNL     1     -42.175  43.518  26.849  1.00  0.00    -0.383 N 
ATOM     57  H   UNL     1     -41.357  43.295  26.294  1.00  0.00     0.158 HD
ATOM     58  H   UNL     1     -42.941  43.950  26.351  1.00  0.00     0.158 HD
ENDBRANCH  48  56
ENDBRANCH  32  41
BRANCH  35  59
ATOM     59  O   UNL     1     -46.756  38.178  30.164  1.00  0.00    -0.388 OA
ATOM     60  H   UNL     1     -47.442  37.475  30.176  1.00  0.00     0.211 HD
ENDBRANCH  35  59
ENDBRANCH  25  28
ENDBRANCH   1  25
TORSDOF 10
ENDMDL
MODEL 4
REMARK VINA RESULT:      -9.6      2.059     10.245
REMARK SMILES CNc1ccc2ccc(CC[C@H]3C[C@@H](n4cc(C)c5c(N)ncnc54)[C@H](O)[C@@H]3O)cc2n1
REMARK SMILES IDX 10 1 9 4 3 5 4 6 32 7 5 8 31 10 6 11 30 13 7 14 8 16 2 19
REMARK SMILES IDX 1 21 11 25 12 28 13 29 28 30 14 32 26 35 29 39 15 41 16 42
REMARK SMILES IDX 25 43 17 44 19 46 24 47 20 48 23 49 22 50 18 52 21 56 27 59
REMARK H PARENT 10 2 10 3 4 9 5 12 30 15 7 17 8 18 2 20 1 22 1 23 1 24 11 26
REMARK H PARENT 11 27 12 31 13 33 13 34 28 36 14 37 26 38 29 40 16 45 23 51
REMARK H PARENT 18 53 18 54 18 55 21 57 21 58 27 60
REMARK Flexibility Score: inf
ROOT
ATOM      1  C   UNL     1     -47.372  36.864  28.145  1.00  0.00    -0.027 C 
ATOM      2  H   UNL     1     -48.130  37.178  28.873  1.00  0.00     0.032 H 
ATOM      3  H   UNL     1     -46.686  36.200  28.687  1.00  0.00     0.032 H 
ENDROOT
BRANCH   1   4
ATOM      4  C   UNL     1     -46.622  38.083  27.666  1.00  0.00    -0.046 A 
ATOM      5  C   UNL     1     -43.039  41.165  28.317  1.00  0.00     0.126 A 
ATOM      6  C   UNL     1     -43.415  41.907  27.203  1.00  0.00    -0.019 A 
ATOM      7  N   UNL     1     -43.728  40.072  28.703  1.00  0.00    -0.231 NA
ATOM      8  C   UNL     1     -44.516  41.504  26.453  1.00  0.00    -0.049 A 
ATOM      9  H   UNL     1     -42.865  42.800  26.925  1.00  0.00     0.066 H 
ATOM     10  C   UNL     1     -44.793  39.678  27.982  1.00  0.00     0.073 A 
ATOM     11  C   UNL     1     -45.231  40.368  26.837  1.00  0.00     0.000 A 
ATOM     12  H   UNL     1     -44.811  42.084  25.583  1.00  0.00     0.063 H 
ATOM     13  C   UNL     1     -45.501  38.547  28.374  1.00  0.00    -0.033 A 
ATOM     14  C   UNL     1     -46.352  39.919  26.120  1.00  0.00    -0.053 A 
ATOM     15  H   UNL     1     -45.163  38.017  29.262  1.00  0.00     0.065 H 
ATOM     16  C   UNL     1     -47.045  38.782  26.535  1.00  0.00    -0.058 A 
ATOM     17  H   UNL     1     -46.693  40.453  25.236  1.00  0.00     0.063 H 
ATOM     18  H   UNL     1     -47.914  38.451  25.972  1.00  0.00     0.063 H 
BRANCH   5  19
ATOM     19  N   UNL     1     -41.936  41.618  29.064  1.00  0.00    -0.373 N 
ATOM     20  H   UNL     1     -41.150  41.757  28.437  1.00  0.00     0.161 HD
BRANCH  19  21
ATOM     21  C   UNL     1     -41.586  40.760  30.186  1.00  0.00     0.005 C 
ATOM     22  H   UNL     1     -41.216  39.785  29.849  1.00  0.00     0.045 H 
ATOM     23  H   UNL     1     -40.786  41.237  30.760  1.00  0.00     0.045 H 
ATOM     24  H   UNL     1     -42.434  40.618  30.865  1.00  0.00     0.045 H 
ENDBRANCH  19  21
ENDBRANCH   5  19
ENDBRANCH   1   4
BRANCH   1  25
ATOM     25  C   UNL     1     -48.019  36.112  26.978  1.00  0.00    -0.044 C 
ATOM     26  H   UNL     1     -49.096  36.321  26.955  1.00  0.00     0.027 H 
ATOM     27  H   UNL     1     -47.612  36.491  26.032  1.00  0.00     0.027 H 
BRANCH  25  28
ATOM     28  C   UNL     1     -47.786  34.599  27.051  1.00  0.00    -0.010 C 
ATOM     29  C   UNL     1     -48.865  33.765  26.354  1.00  0.00    -0.024 C 
ATOM     30  C   UNL     1     -46.512  34.163  26.322  1.00  0.00     0.085 C 
ATOM     31  H   UNL     1     -47.718  34.311  28.109  1.00  0.00     0.033 H 
ATOM     32  C   UNL     1     -48.193  32.410  26.052  1.00  0.00     0.064 C 
ATOM     33  H   UNL     1     -49.212  34.265  25.442  1.00  0.00     0.029 H 
ATOM     34  H   UNL     1     -49.742  33.630  26.997  1.00  0.00     0.029 H 
ATOM     35  C   UNL     1     -46.677  32.642  26.191  1.00  0.00     0.101 C 
ATOM     36  H   UNL     1     -46.433  34.633  25.336  1.00  0.00     0.063 H 
ATOM     37  H   UNL     1     -48.515  31.692  26.819  1.00  0.00     0.056 H 
ATOM     38  H   UNL     1     -46.073  32.234  25.375  1.00  0.00     0.065 H 
BRANCH  30  39
ATOM     39  O   UNL     1     -45.340  34.465  27.076  1.00  0.00    -0.390 OA
ATOM     40  H   UNL     1     -45.412  33.988  27.921  1.00  0.00     0.211 HD
ENDBRANCH  30  39
BRANCH  32  41
ATOM     41  N   UNL     1     -48.594  31.844  24.773  1.00  0.00    -0.326 N 
ATOM     42  C   UNL     1     -49.890  31.789  24.322  1.00  0.00     0.010 A 
ATOM     43  C   UNL     1     -47.759  31.300  23.829  1.00  0.00     0.146 A 
ATOM     44  C   UNL     1     -49.897  31.204  23.068  1.00  0.00    -0.020 A 
ATOM     45  H   UNL     1     -50.706  32.174  24.923  1.00  0.00     0.082 H 
ATOM     46  C   UNL     1     -48.535  30.882  22.755  1.00  0.00     0.064 A 
ATOM     47  N   UNL     1     -46.424  31.197  23.938  1.00  0.00    -0.218 NA
ATOM     48  C   UNL     1     -47.847  30.289  21.683  1.00  0.00     0.136 A 
ATOM     49  C   UNL     1     -45.881  30.624  22.850  1.00  0.00     0.120 A 
ATOM     50  N   UNL     1     -46.507  30.167  21.752  1.00  0.00    -0.219 NA
ATOM     51  H   UNL     1     -44.801  30.513  22.860  1.00  0.00     0.106 H 
BRANCH  44  52
ATOM     52  C   UNL     1     -51.093  30.970  22.219  1.00  0.00    -0.037 C 
ATOM     53  H   UNL     1     -51.373  29.913  22.229  1.00  0.00     0.028 H 
ATOM     54  H   UNL     1     -50.904  31.258  21.180  1.00  0.00     0.028 H 
ATOM     55  H   UNL     1     -51.940  31.561  22.583  1.00  0.00     0.028 H 
ENDBRANCH  44  52
BRANCH  48  56
ATOM     56  N   UNL     1     -48.460  29.790  20.541  1.00  0.00    -0.383 N 
ATOM     57  H   UNL     1     -49.429  30.084  20.514  1.00  0.00     0.158 HD
ATOM     58  H   UNL     1     -47.932  29.936  19.691  1.00  0.00     0.158 HD
ENDBRANCH  48  56
ENDBRANCH  32  41
BRANCH  35  59
ATOM     59  O   UNL     1     -46.211  32.017  27.402  1.00  0.00    -0.388 OA
ATOM     60  H   UNL     1     -46.631  31.129  27.392  1.00  0.00     0.211 HD
ENDBRANCH  35  59
ENDBRANCH  25  28
ENDBRANCH   1  25
TORSDOF 10
ENDMDL
MODEL 5
REMARK VINA RESULT:      -9.3      2.048      3.045
REMARK SMILES CNc1ccc2ccc(CC[C@H]3C[C@@H](n4cc(C)c5c(N)ncnc54)[C@H](O)[C@@H]3O)cc2n1
REMARK SMILES IDX 10 1 9 4 3 5 4 6 32 7 5 8 31 10 6 11 30 13 7 14 8 16 2 19
REMARK SMILES IDX 1 21 11 25 12 28 13 29 28 30 14 32 26 35 29 39 15 41 16 42
REMARK SMILES IDX 25 43 17 44 19 46 24 47 20 48 23 49 22 50 18 52 21 56 27 59
REMARK H PARENT 10 2 10 3 4 9 5 12 30 15 7 17 8 18 2 20 1 22 1 23 1 24 11 26
REMARK H PARENT 11 27 12 31 13 33 13 34 28 36 14 37 26 38 29 40 16 45 23 51
REMARK H PARENT 18 53 18 54 18 55 21 57 21 58 27 60
REMARK Flexibility Score: inf
ROOT
ATOM      1  C   UNL     1     -47.417  34.740  26.867  1.00  0.00    -0.027 C 
ATOM      2  H   UNL     1     -48.280  34.987  27.499  1.00  0.00     0.032 H 
ATOM      3  H   UNL     1     -47.251  35.615  26.225  1.00  0.00     0.032 H 
ENDROOT
BRANCH   1   4
ATOM      4  C   UNL     1     -47.763  33.546  26.013  1.00  0.00    -0.046 A 
ATOM      5  C   UNL     1     -46.386  30.337  22.762  1.00  0.00     0.126 A 
ATOM      6  C   UNL     1     -47.650  29.758  22.731  1.00  0.00    -0.019 A 
ATOM      7  N   UNL     1     -46.113  31.395  23.552  1.00  0.00    -0.231 NA
ATOM      8  C   UNL     1     -48.655  30.268  23.548  1.00  0.00    -0.049 A 
ATOM      9  H   UNL     1     -47.858  28.926  22.068  1.00  0.00     0.066 H 
ATOM     10  C   UNL     1     -47.080  31.892  24.344  1.00  0.00     0.073 A 
ATOM     11  C   UNL     1     -48.381  31.357  24.377  1.00  0.00     0.000 A 
ATOM     12  H   UNL     1     -49.643  29.817  23.524  1.00  0.00     0.063 H 
ATOM     13  C   UNL     1     -46.798  32.979  25.163  1.00  0.00    -0.033 A 
ATOM     14  C   UNL     1     -49.358  31.915  25.219  1.00  0.00    -0.053 A 
ATOM     15  H   UNL     1     -45.793  33.394  25.133  1.00  0.00     0.065 H 
ATOM     16  C   UNL     1     -49.050  33.005  26.031  1.00  0.00    -0.058 A 
ATOM     17  H   UNL     1     -50.365  31.503  25.244  1.00  0.00     0.063 H 
ATOM     18  H   UNL     1     -49.820  33.427  26.672  1.00  0.00     0.063 H 
BRANCH   5  19
ATOM     19  N   UNL     1     -45.403  29.811  21.904  1.00  0.00    -0.373 N 
ATOM     20  H   UNL     1     -45.832  29.591  21.011  1.00  0.00     0.161 HD
BRANCH  19  21
ATOM     21  C   UNL     1     -44.683  28.672  22.452  1.00  0.00     0.005 C 
ATOM     22  H   UNL     1     -45.175  28.276  23.348  1.00  0.00     0.045 H 
ATOM     23  H   UNL     1     -44.664  27.872  21.705  1.00  0.00     0.045 H 
ATOM     24  H   UNL     1     -43.643  28.926  22.684  1.00  0.00     0.045 H 
ENDBRANCH  19  21
ENDBRANCH   5  19
ENDBRANCH   1   4
BRANCH   1  25
ATOM     25  C   UNL     1     -46.176  34.474  27.725  1.00  0.00    -0.044 C 
ATOM     26  H   UNL     1     -46.412  33.731  28.497  1.00  0.00     0.027 H 
ATOM     27  H   UNL     1     -45.392  34.028  27.099  1.00  0.00     0.027 H 
BRANCH  25  28
ATOM     28  C   UNL     1     -45.629  35.747  28.379  1.00  0.00    -0.010 C 
ATOM     29  C   UNL     1     -45.667  36.981  27.473  1.00  0.00    -0.024 C 
ATOM     30  C   UNL     1     -46.462  36.196  29.582  1.00  0.00     0.085 C 
ATOM     31  H   UNL     1     -44.597  35.553  28.701  1.00  0.00     0.033 H 
ATOM     32  C   UNL     1     -45.628  38.186  28.435  1.00  0.00     0.064 C 
ATOM     33  H   UNL     1     -46.571  36.979  26.853  1.00  0.00     0.029 H 
ATOM     34  H   UNL     1     -44.810  37.001  26.790  1.00  0.00     0.029 H 
ATOM     35  C   UNL     1     -45.988  37.636  29.828  1.00  0.00     0.101 C 
ATOM     36  H   UNL     1     -47.534  36.171  29.360  1.00  0.00     0.063 H 
ATOM     37  H   UNL     1     -44.598  38.569  28.460  1.00  0.00     0.056 H 
ATOM     38  H   UNL     1     -46.732  38.223  30.375  1.00  0.00     0.065 H 
BRANCH  30  39
ATOM     39  O   UNL     1     -46.206  35.394  30.733  1.00  0.00    -0.390 OA
ATOM     40  H   UNL     1     -46.362  35.956  31.513  1.00  0.00     0.211 HD
ENDBRANCH  30  39
BRANCH  32  41
ATOM     41  N   UNL     1     -46.463  39.295  27.999  1.00  0.00    -0.326 N 
ATOM     42  C   UNL     1     -47.781  39.456  28.349  1.00  0.00     0.010 A 
ATOM     43  C   UNL     1     -46.073  40.339  27.198  1.00  0.00     0.146 A 
ATOM     44  C   UNL     1     -48.253  40.622  27.769  1.00  0.00    -0.020 A 
ATOM     45  H   UNL     1     -48.282  38.736  28.985  1.00  0.00     0.082 H 
ATOM     46  C   UNL     1     -47.164  41.183  27.025  1.00  0.00     0.064 A 
ATOM     47  N   UNL     1     -44.844  40.504  26.679  1.00  0.00    -0.218 NA
ATOM     48  C   UNL     1     -46.952  42.317  26.223  1.00  0.00     0.136 A 
ATOM     49  C   UNL     1     -44.766  41.624  25.941  1.00  0.00     0.120 A 
ATOM     50  N   UNL     1     -45.735  42.520  25.683  1.00  0.00    -0.219 NA
ATOM     51  H   UNL     1     -43.799  41.832  25.493  1.00  0.00     0.106 H 
BRANCH  44  52
ATOM     52  C   UNL     1     -49.624  41.175  27.910  1.00  0.00    -0.037 C 
ATOM     53  H   UNL     1     -49.800  41.964  27.173  1.00  0.00     0.028 H 
ATOM     54  H   UNL     1     -49.779  41.604  28.905  1.00  0.00     0.028 H 
ATOM     55  H   UNL     1     -50.370  40.387  27.763  1.00  0.00     0.028 H 
ENDBRANCH  44  52
BRANCH  48  56
ATOM     56  N   UNL     1     -47.932  43.253  25.919  1.00  0.00    -0.383 N 
ATOM     57  H   UNL     1     -48.845  42.887  26.161  1.00  0.00     0.158 HD
ATOM     58  H   UNL     1     -47.730  44.186  26.253  1.00  0.00     0.158 HD
ENDBRANCH  48  56
ENDBRANCH  32  41
BRANCH  35  59
ATOM     59  O   UNL     1     -44.804  37.605  30.646  1.00  0.00    -0.388 OA
ATOM     60  H   UNL     1     -44.780  36.689  31.000  1.00  0.00     0.211 HD
ENDBRANCH  35  59
ENDBRANCH  25  28
ENDBRANCH   1  25
TORSDOF 10
ENDMDL
MODEL 6
REMARK VINA RESULT:      -9.3      2.957      5.111
REMARK SMILES CNc1ccc2ccc(CC[C@H]3C[C@@H](n4cc(C)c5c(N)ncnc54)[C@H](O)[C@@H]3O)cc2n1
REMARK SMILES IDX 10 1 9 4 3 5 4 6 32 7 5 8 31 10 6 11 30 13 7 14 8 16 2 19
REMARK SMILES IDX 1 21 11 25 12 28 13 29 28 30 14 32 26 35 29 39 15 41 16 42
REMARK SMILES IDX 25 43 17 44 19 46 24 47 20 48 23 49 22 50 18 52 21 56 27 59
REMARK H PARENT 10 2 10 3 4 9 5 12 30 15 7 17 8 18 2 20 1 22 1 23 1 24 11 26
REMARK H PARENT 11 27 12 31 13 33 13 34 28 36 14 37 26 38 29 40 16 45 23 51
REMARK H PARENT 18 53 18 54 18 55 21 57 21 58 27 60
REMARK Flexibility Score: inf
ROOT
ATOM      1  C   UNL     1     -45.930  39.456  27.953  1.00  0.00    -0.027 C 
ATOM      2  H   UNL     1     -46.582  40.113  28.542  1.00  0.00     0.032 H 
ATOM      3  H   UNL     1     -45.735  39.986  27.011  1.00  0.00     0.032 H 
ENDROOT
BRANCH   1   4
ATOM      4  C   UNL     1     -46.666  38.170  27.665  1.00  0.00    -0.046 A 
ATOM      5  C   UNL     1     -46.527  33.676  26.070  1.00  0.00     0.126 A 
ATOM      6  C   UNL     1     -47.896  33.519  26.257  1.00  0.00    -0.019 A 
ATOM      7  N   UNL     1     -45.904  34.838  26.354  1.00  0.00    -0.231 NA
ATOM      8  C   UNL     1     -48.641  34.577  26.768  1.00  0.00    -0.049 A 
ATOM      9  H   UNL     1     -48.384  32.587  25.996  1.00  0.00     0.066 H 
ATOM     10  C   UNL     1     -46.619  35.865  26.848  1.00  0.00     0.073 A 
ATOM     11  C   UNL     1     -48.005  35.782  27.075  1.00  0.00     0.000 A 
ATOM     12  H   UNL     1     -49.711  34.456  26.913  1.00  0.00     0.063 H 
ATOM     13  C   UNL     1     -45.978  37.061  27.147  1.00  0.00    -0.033 A 
ATOM     14  C   UNL     1     -48.709  36.884  27.589  1.00  0.00    -0.053 A 
ATOM     15  H   UNL     1     -44.906  37.124  26.967  1.00  0.00     0.065 H 
ATOM     16  C   UNL     1     -48.042  38.072  27.880  1.00  0.00    -0.058 A 
ATOM     17  H   UNL     1     -49.781  36.822  27.763  1.00  0.00     0.063 H 
ATOM     18  H   UNL     1     -48.603  38.917  28.273  1.00  0.00     0.063 H 
BRANCH   5  19
ATOM     19  N   UNL     1     -45.811  32.593  25.528  1.00  0.00    -0.373 N 
ATOM     20  H   UNL     1     -44.880  32.909  25.276  1.00  0.00     0.161 HD
BRANCH  19  21
ATOM     21  C   UNL     1     -46.478  31.937  24.414  1.00  0.00     0.005 C 
ATOM     22  H   UNL     1     -46.668  32.635  23.590  1.00  0.00     0.045 H 
ATOM     23  H   UNL     1     -45.831  31.143  24.031  1.00  0.00     0.045 H 
ATOM     24  H   UNL     1     -47.418  31.470  24.726  1.00  0.00     0.045 H 
ENDBRANCH  19  21
ENDBRANCH   5  19
ENDBRANCH   1   4
BRANCH   1  25
ATOM     25  C   UNL     1     -44.614  39.194  28.691  1.00  0.00    -0.044 C 
ATOM     26  H   UNL     1     -44.759  39.341  29.768  1.00  0.00     0.027 H 
ATOM     27  H   UNL     1     -44.328  38.142  28.560  1.00  0.00     0.027 H 
BRANCH  25  28
ATOM     28  C   UNL     1     -43.472  40.087  28.193  1.00  0.00    -0.010 C 
ATOM     29  C   UNL     1     -43.881  41.065  27.088  1.00  0.00    -0.024 C 
ATOM     30  C   UNL     1     -42.939  41.023  29.280  1.00  0.00     0.085 C 
ATOM     31  H   UNL     1     -42.659  39.441  27.836  1.00  0.00     0.033 H 
ATOM     32  C   UNL     1     -42.825  42.188  27.136  1.00  0.00     0.064 C 
ATOM     33  H   UNL     1     -44.894  41.446  27.263  1.00  0.00     0.029 H 
ATOM     34  H   UNL     1     -43.888  40.578  26.107  1.00  0.00     0.029 H 
ATOM     35  C   UNL     1     -42.112  42.051  28.494  1.00  0.00     0.101 C 
ATOM     36  H   UNL     1     -43.754  41.512  29.825  1.00  0.00     0.063 H 
ATOM     37  H   UNL     1     -42.097  42.006  26.332  1.00  0.00     0.056 H 
ATOM     38  H   UNL     1     -41.992  42.988  29.047  1.00  0.00     0.065 H 
BRANCH  30  39
ATOM     39  O   UNL     1     -42.106  40.334  30.211  1.00  0.00    -0.390 OA
ATOM     40  H   UNL     1     -42.685  39.760  30.742  1.00  0.00     0.211 HD
ENDBRANCH  30  39
BRANCH  32  41
ATOM     41  N   UNL     1     -43.381  43.510  26.887  1.00  0.00    -0.326 N 
ATOM     42  C   UNL     1     -43.909  44.324  27.859  1.00  0.00     0.010 A 
ATOM     43  C   UNL     1     -43.454  44.144  25.672  1.00  0.00     0.146 A 
ATOM     44  C   UNL     1     -44.328  45.503  27.267  1.00  0.00    -0.020 A 
ATOM     45  H   UNL     1     -43.943  44.006  28.894  1.00  0.00     0.082 H 
ATOM     46  C   UNL     1     -44.045  45.387  25.867  1.00  0.00     0.064 A 
ATOM     47  N   UNL     1     -43.021  43.640  24.504  1.00  0.00    -0.218 NA
ATOM     48  C   UNL     1     -44.208  46.185  24.722  1.00  0.00     0.136 A 
ATOM     49  C   UNL     1     -43.223  44.497  23.489  1.00  0.00     0.120 A 
ATOM     50  N   UNL     1     -43.788  45.716  23.531  1.00  0.00    -0.219 NA
ATOM     51  H   UNL     1     -42.892  44.163  22.510  1.00  0.00     0.106 H 
BRANCH  44  52
ATOM     52  C   UNL     1     -44.941  46.661  27.966  1.00  0.00    -0.037 C 
ATOM     53  H   UNL     1     -44.779  46.591  29.046  1.00  0.00     0.028 H 
ATOM     54  H   UNL     1     -46.021  46.704  27.791  1.00  0.00     0.028 H 
ATOM     55  H   UNL     1     -44.504  47.598  27.607  1.00  0.00     0.028 H 
ENDBRANCH  44  52
BRANCH  48  56
ATOM     56  N   UNL     1     -44.801  47.441  24.723  1.00  0.00    -0.383 N 
ATOM     57  H   UNL     1     -45.035  47.710  25.672  1.00  0.00     0.158 HD
ATOM     58  H   UNL     1     -44.305  48.133  24.179  1.00  0.00     0.158 HD
ENDBRANCH  48  56
ENDBRANCH  32  41
BRANCH  35  59
ATOM     59  O   UNL     1     -40.789  41.523  28.284  1.00  0.00    -0.388 OA
ATOM     60  H   UNL     1     -40.880  40.957  27.486  1.00  0.00     0.211 HD
ENDBRANCH  35  59
ENDBRANCH  25  28
ENDBRANCH   1  25
TORSDOF 10
ENDMDL
MODEL 7
REMARK VINA RESULT:      -9.1      2.583     10.317
REMARK SMILES CNc1ccc2ccc(CC[C@H]3C[C@@H](n4cc(C)c5c(N)ncnc54)[C@H](O)[C@@H]3O)cc2n1
REMARK SMILES IDX 10 1 9 4 3 5 4 6 32 7 5 8 31 10 6 11 30 13 7 14 8 16 2 19
REMARK SMILES IDX 1 21 11 25 12 28 13 29 28 30 14 32 26 35 29 39 15 41 16 42
REMARK SMILES IDX 25 43 17 44 19 46 24 47 20 48 23 49 22 50 18 52 21 56 27 59
REMARK H PARENT 10 2 10 3 4 9 5 12 30 15 7 17 8 18 2 20 1 22 1 23 1 24 11 26
REMARK H PARENT 11 27 12 31 13 33 13 34 28 36 14 37 26 38 29 40 16 45 23 51
REMARK H PARENT 18 53 18 54 18 55 21 57 21 58 27 60
REMARK Flexibility Score: inf
ROOT
ATOM      1  C   UNL     1     -47.689  35.677  28.040  1.00  0.00    -0.027 C 
ATOM      2  H   UNL     1     -48.698  36.034  28.283  1.00  0.00     0.032 H 
ATOM      3  H   UNL     1     -47.441  34.925  28.799  1.00  0.00     0.032 H 
ENDROOT
BRANCH   1   4
ATOM      4  C   UNL     1     -46.726  36.834  28.142  1.00  0.00    -0.046 A 
ATOM      5  C   UNL     1     -45.038  40.893  26.289  1.00  0.00     0.126 A 
ATOM      6  C   UNL     1     -44.093  41.016  27.301  1.00  0.00    -0.019 A 
ATOM      7  N   UNL     1     -45.892  39.851  26.242  1.00  0.00    -0.231 NA
ATOM      8  C   UNL     1     -44.036  40.052  28.303  1.00  0.00    -0.049 A 
ATOM      9  H   UNL     1     -43.396  41.847  27.305  1.00  0.00     0.066 H 
ATOM     10  C   UNL     1     -45.842  38.916  27.208  1.00  0.00     0.073 A 
ATOM     11  C   UNL     1     -44.922  38.973  28.271  1.00  0.00     0.000 A 
ATOM     12  H   UNL     1     -43.297  40.146  29.094  1.00  0.00     0.063 H 
ATOM     13  C   UNL     1     -46.726  37.844  27.165  1.00  0.00    -0.033 A 
ATOM     14  C   UNL     1     -44.907  37.970  29.253  1.00  0.00    -0.053 A 
ATOM     15  H   UNL     1     -47.433  37.799  26.340  1.00  0.00     0.065 H 
ATOM     16  C   UNL     1     -45.803  36.905  29.187  1.00  0.00    -0.058 A 
ATOM     17  H   UNL     1     -44.194  38.012  30.075  1.00  0.00     0.063 H 
ATOM     18  H   UNL     1     -45.775  36.134  29.953  1.00  0.00     0.063 H 
BRANCH   5  19
ATOM     19  N   UNL     1     -45.048  41.874  25.279  1.00  0.00    -0.373 N 
ATOM     20  H   UNL     1     -45.309  41.436  24.401  1.00  0.00     0.161 HD
BRANCH  19  21
ATOM     21  C   UNL     1     -43.804  42.619  25.161  1.00  0.00     0.005 C 
ATOM     22  H   UNL     1     -43.131  42.167  24.423  1.00  0.00     0.045 H 
ATOM     23  H   UNL     1     -44.030  43.635  24.824  1.00  0.00     0.045 H 
ATOM     24  H   UNL     1     -43.291  42.702  26.126  1.00  0.00     0.045 H 
ENDBRANCH  19  21
ENDBRANCH   5  19
ENDBRANCH   1   4
BRANCH   1  25
ATOM     25  C   UNL     1     -47.659  35.045  26.644  1.00  0.00    -0.044 C 
ATOM     26  H   UNL     1     -48.283  35.633  25.959  1.00  0.00     0.027 H 
ATOM     27  H   UNL     1     -46.637  35.094  26.247  1.00  0.00     0.027 H 
BRANCH  25  28
ATOM     28  C   UNL     1     -48.125  33.586  26.650  1.00  0.00    -0.010 C 
ATOM     29  C   UNL     1     -49.230  33.279  25.635  1.00  0.00    -0.024 C 
ATOM     30  C   UNL     1     -47.019  32.612  26.236  1.00  0.00     0.085 C 
ATOM     31  H   UNL     1     -48.470  33.337  27.662  1.00  0.00     0.033 H 
ATOM     32  C   UNL     1     -49.150  31.756  25.403  1.00  0.00     0.064 C 
ATOM     33  H   UNL     1     -49.074  33.844  24.708  1.00  0.00     0.029 H 
ATOM     34  H   UNL     1     -50.216  33.563  26.020  1.00  0.00     0.029 H 
ATOM     35  C   UNL     1     -47.778  31.310  25.942  1.00  0.00     0.101 C 
ATOM     36  H   UNL     1     -46.488  32.963  25.344  1.00  0.00     0.063 H 
ATOM     37  H   UNL     1     -49.940  31.279  26.001  1.00  0.00     0.056 H 
ATOM     38  H   UNL     1     -47.215  30.650  25.275  1.00  0.00     0.065 H 
BRANCH  30  39
ATOM     39  O   UNL     1     -46.076  32.403  27.285  1.00  0.00    -0.390 OA
ATOM     40  H   UNL     1     -45.191  32.417  26.881  1.00  0.00     0.211 HD
ENDBRANCH  30  39
BRANCH  32  41
ATOM     41  N   UNL     1     -49.400  31.372  24.022  1.00  0.00    -0.326 N 
ATOM     42  C   UNL     1     -50.650  31.198  23.480  1.00  0.00     0.010 A 
ATOM     43  C   UNL     1     -48.450  31.142  23.059  1.00  0.00     0.146 A 
ATOM     44  C   UNL     1     -50.509  30.852  22.147  1.00  0.00    -0.020 A 
ATOM     45  H   UNL     1     -51.542  31.338  24.079  1.00  0.00     0.082 H 
ATOM     46  C   UNL     1     -49.102  30.807  21.878  1.00  0.00     0.064 A 
ATOM     47  N   UNL     1     -47.121  31.230  23.240  1.00  0.00    -0.218 NA
ATOM     48  C   UNL     1     -48.283  30.530  20.771  1.00  0.00     0.136 A 
ATOM     49  C   UNL     1     -46.448  30.952  22.111  1.00  0.00     0.120 A 
ATOM     50  N   UNL     1     -46.945  30.607  20.910  1.00  0.00    -0.219 NA
ATOM     51  H   UNL     1     -45.365  31.010  22.175  1.00  0.00     0.106 H 
BRANCH  44  52
ATOM     52  C   UNL     1     -51.615  30.592  21.191  1.00  0.00    -0.037 C 
ATOM     53  H   UNL     1     -52.585  30.673  21.690  1.00  0.00     0.028 H 
ATOM     54  H   UNL     1     -51.542  29.586  20.763  1.00  0.00     0.028 H 
ATOM     55  H   UNL     1     -51.584  31.311  20.366  1.00  0.00     0.028 H 
ENDBRANCH  44  52
BRANCH  48  56
ATOM     56  N   UNL     1     -48.758  30.154  19.521  1.00  0.00    -0.383 N 
ATOM     57  H   UNL     1     -49.165  30.954  19.053  1.00  0.00     0.158 HD
ATOM     58  H   UNL     1     -48.102  29.612  18.976  1.00  0.00     0.158 HD
ENDBRANCH  48  56
ENDBRANCH  32  41
BRANCH  35  59
ATOM     59  O   UNL     1     -47.965  30.591  27.176  1.00  0.00    -0.388 OA
ATOM     60  H   UNL     1     -47.117  30.713  27.656  1.00  0.00     0.211 HD
ENDBRANCH  35  59
ENDBRANCH  25  28
ENDBRANCH   1  25
TORSDOF 10
ENDMDL
