MODEL 1
REMARK VINA RESULT:     -10.7      0.000      0.000
REMARK SMILES CNc1ccc2ccc(CC[C@H]3C[C@@H](n4cc(CO)c5c(N)ncnc54)[C@H](O)[C@@H]3O)cc2n1
REMARK SMILES IDX 11 1 10 4 9 7 3 8 4 9 33 10 5 11 32 13 6 14 31 16 7 17 8 19
REMARK SMILES IDX 2 22 1 24 12 28 13 29 29 30 14 32 27 35 30 39 15 41 16 42
REMARK SMILES IDX 26 43 17 44 20 46 25 47 21 48 24 49 23 50 18 52 19 55 22 57
REMARK SMILES IDX 28 60
REMARK H PARENT 11 2 11 3 10 5 10 6 4 12 5 15 31 18 7 20 8 21 2 23 1 25 1 26
REMARK H PARENT 1 27 12 31 13 33 13 34 29 36 14 37 27 38 30 40 16 45 24 51
REMARK H PARENT 18 53 18 54 19 56 22 58 22 59 28 61
REMARK Flexibility Score: inf
ROOT
ATOM      1  C   UNL     1     -47.507  36.474  27.453  1.00  0.00    -0.044 C 
ATOM      2  H   UNL     1     -47.999  37.404  27.752  1.00  0.00     0.027 H 
ATOM      3  H   UNL     1     -46.963  36.701  26.525  1.00  0.00     0.027 H 
ENDROOT
BRANCH   1   4
ATOM      4  C   UNL     1     -48.552  35.407  27.088  1.00  0.00    -0.027 C 
ATOM      5  H   UNL     1     -48.946  34.970  28.016  1.00  0.00     0.032 H 
ATOM      6  H   UNL     1     -49.408  35.890  26.601  1.00  0.00     0.032 H 
BRANCH   4   7
ATOM      7  C   UNL     1     -48.039  34.271  26.241  1.00  0.00    -0.046 A 
ATOM      8  C   UNL     1     -48.660  29.865  24.521  1.00  0.00     0.126 A 
ATOM      9  C   UNL     1     -47.430  29.894  23.874  1.00  0.00    -0.019 A 
ATOM     10  N   UNL     1     -49.099  30.911  25.250  1.00  0.00    -0.231 NA
ATOM     11  C   UNL     1     -46.638  31.035  23.960  1.00  0.00    -0.049 A 
ATOM     12  H   UNL     1     -47.080  29.031  23.318  1.00  0.00     0.066 H 
ATOM     13  C   UNL     1     -48.340  32.018  25.335  1.00  0.00     0.073 A 
ATOM     14  C   UNL     1     -47.088  32.129  24.703  1.00  0.00     0.000 A 
ATOM     15  H   UNL     1     -45.676  31.058  23.457  1.00  0.00     0.063 H 
ATOM     16  C   UNL     1     -48.796  33.097  26.082  1.00  0.00    -0.033 A 
ATOM     17  C   UNL     1     -46.329  33.302  24.832  1.00  0.00    -0.053 A 
ATOM     18  H   UNL     1     -49.770  33.009  26.560  1.00  0.00     0.065 H 
ATOM     19  C   UNL     1     -46.804  34.368  25.596  1.00  0.00    -0.058 A 
ATOM     20  H   UNL     1     -45.361  33.392  24.344  1.00  0.00     0.063 H 
ATOM     21  H   UNL     1     -46.195  35.264  25.694  1.00  0.00     0.063 H 
BRANCH   8  22
ATOM     22  N   UNL     1     -49.418  28.682  24.437  1.00  0.00    -0.373 N 
ATOM     23  H   UNL     1     -50.390  28.927  24.275  1.00  0.00     0.161 HD
BRANCH  22  24
ATOM     24  C   UNL     1     -49.268  27.796  25.581  1.00  0.00     0.005 C 
ATOM     25  H   UNL     1     -48.214  27.587  25.794  1.00  0.00     0.045 H 
ATOM     26  H   UNL     1     -49.693  28.283  26.464  1.00  0.00     0.045 H 
ATOM     27  H   UNL     1     -49.810  26.855  25.435  1.00  0.00     0.045 H 
ENDBRANCH  22  24
ENDBRANCH   8  22
ENDBRANCH   4   7
ENDBRANCH   1   4
BRANCH   1  28
ATOM     28  C   UNL     1     -46.476  36.028  28.511  1.00  0.00    -0.010 C 
ATOM     29  C   UNL     1     -45.088  36.649  28.220  1.00  0.00    -0.024 C 
ATOM     30  C   UNL     1     -46.764  36.512  29.934  1.00  0.00     0.085 C 
ATOM     31  H   UNL     1     -46.382  34.936  28.475  1.00  0.00     0.033 H 
ATOM     32  C   UNL     1     -44.917  37.849  29.178  1.00  0.00     0.064 C 
ATOM     33  H   UNL     1     -44.313  35.907  28.457  1.00  0.00     0.029 H 
ATOM     34  H   UNL     1     -44.953  36.906  27.165  1.00  0.00     0.029 H 
ATOM     35  C   UNL     1     -46.238  37.949  29.960  1.00  0.00     0.101 C 
ATOM     36  H   UNL     1     -47.803  36.458  30.252  1.00  0.00     0.063 H 
ATOM     37  H   UNL     1     -44.102  37.623  29.877  1.00  0.00     0.056 H 
ATOM     38  H   UNL     1     -46.947  38.638  29.487  1.00  0.00     0.065 H 
BRANCH  30  39
ATOM     39  O   UNL     1     -46.010  35.708  30.852  1.00  0.00    -0.390 OA
ATOM     40  H   UNL     1     -46.427  34.822  30.830  1.00  0.00     0.211 HD
ENDBRANCH  30  39
BRANCH  32  41
ATOM     41  N   UNL     1     -44.556  39.082  28.494  1.00  0.00    -0.326 N 
ATOM     42  C   UNL     1     -45.150  39.578  27.360  1.00  0.00     0.012 A 
ATOM     43  C   UNL     1     -43.553  39.936  28.886  1.00  0.00     0.146 A 
ATOM     44  C   UNL     1     -44.543  40.776  27.020  1.00  0.00     0.008 A 
ATOM     45  H   UNL     1     -45.969  39.064  26.876  1.00  0.00     0.082 H 
ATOM     46  C   UNL     1     -43.507  40.994  27.987  1.00  0.00     0.067 A 
ATOM     47  N   UNL     1     -42.757  39.768  29.956  1.00  0.00    -0.218 NA
ATOM     48  C   UNL     1     -42.530  41.974  28.226  1.00  0.00     0.136 A 
ATOM     49  C   UNL     1     -41.885  40.777  30.092  1.00  0.00     0.120 A 
ATOM     50  N   UNL     1     -41.724  41.852  29.298  1.00  0.00    -0.219 NA
ATOM     51  H   UNL     1     -41.219  40.717  30.949  1.00  0.00     0.106 H 
BRANCH  44  52
ATOM     52  C   UNL     1     -44.901  41.678  25.890  1.00  0.00     0.070 C 
ATOM     53  H   UNL     1     -44.427  41.332  24.967  1.00  0.00     0.062 H 
ATOM     54  H   UNL     1     -44.558  42.696  26.105  1.00  0.00     0.062 H 
BRANCH  52  55
ATOM     55  O   UNL     1     -46.308  41.724  25.662  1.00  0.00    -0.392 OA
ATOM     56  H   UNL     1     -46.544  42.664  25.602  1.00  0.00     0.211 HD
ENDBRANCH  52  55
ENDBRANCH  44  52
BRANCH  48  57
ATOM     57  N   UNL     1     -42.307  43.077  27.404  1.00  0.00    -0.383 N 
ATOM     58  H   UNL     1     -42.721  43.890  27.851  1.00  0.00     0.158 HD
ATOM     59  H   UNL     1     -41.332  43.193  27.166  1.00  0.00     0.158 HD
ENDBRANCH  48  57
ENDBRANCH  32  41
BRANCH  35  60
ATOM     60  O   UNL     1     -46.039  38.360  31.314  1.00  0.00    -0.388 OA
ATOM     61  H   UNL     1     -45.135  38.718  31.374  1.00  0.00     0.211 HD
ENDBRANCH  35  60
ENDBRANCH   1  28
TORSDOF 11
ENDMDL
MODEL 2
REMARK VINA RESULT:      -9.8      1.555      2.038
REMARK SMILES CNc1ccc2ccc(CC[C@H]3C[C@@H](n4cc(CO)c5c(N)ncnc54)[C@H](O)[C@@H]3O)cc2n1
REMARK SMILES IDX 11 1 10 4 9 7 3 8 4 9 33 10 5 11 32 13 6 14 31 16 7 17 8 19
REMARK SMILES IDX 2 22 1 24 12 28 13 29 29 30 14 32 27 35 30 39 15 41 16 42
REMARK SMILES IDX 26 43 17 44 20 46 25 47 21 48 24 49 23 50 18 52 19 55 22 57
REMARK SMILES IDX 28 60
REMARK H PARENT 11 2 11 3 10 5 10 6 4 12 5 15 31 18 7 20 8 21 2 23 1 25 1 26
REMARK H PARENT 1 27 12 31 13 33 13 34 29 36 14 37 27 38 30 40 16 45 24 51
REMARK H PARENT 18 53 18 54 19 56 22 58 22 59 28 61
REMARK Flexibility Score: inf
ROOT
ATOM      1  C   UNL     1     -45.550  35.630  27.034  1.00  0.00    -0.044 C 
ATOM      2  H   UNL     1     -44.825  36.299  26.561  1.00  0.00     0.027 H 
ATOM      3  H   UNL     1     -45.091  34.632  27.030  1.00  0.00     0.027 H 
ENDROOT
BRANCH   1   4
ATOM      4  C   UNL     1     -46.821  35.521  26.175  1.00  0.00    -0.027 C 
ATOM      5  H   UNL     1     -47.661  35.956  26.734  1.00  0.00     0.032 H 
ATOM      6  H   UNL     1     -46.707  36.145  25.279  1.00  0.00     0.032 H 
BRANCH   4   7
ATOM      7  C   UNL     1     -47.217  34.120  25.792  1.00  0.00    -0.046 A 
ATOM      8  C   UNL     1     -46.461  30.265  23.084  1.00  0.00     0.126 A 
ATOM      9  C   UNL     1     -47.557  29.608  23.632  1.00  0.00    -0.019 A 
ATOM     10  N   UNL     1     -46.119  31.511  23.470  1.00  0.00    -0.231 NA
ATOM     11  C   UNL     1     -48.310  30.238  24.617  1.00  0.00    -0.049 A 
ATOM     12  H   UNL     1     -47.833  28.618  23.287  1.00  0.00     0.066 H 
ATOM     13  C   UNL     1     -46.842  32.125  24.424  1.00  0.00     0.073 A 
ATOM     14  C   UNL     1     -47.958  31.524  25.033  1.00  0.00     0.000 A 
ATOM     15  H   UNL     1     -49.167  29.726  25.045  1.00  0.00     0.063 H 
ATOM     16  C   UNL     1     -46.487  33.407  24.824  1.00  0.00    -0.033 A 
ATOM     17  C   UNL     1     -48.686  32.211  26.017  1.00  0.00    -0.053 A 
ATOM     18  H   UNL     1     -45.616  33.862  24.357  1.00  0.00     0.065 H 
ATOM     19  C   UNL     1     -48.315  33.502  26.395  1.00  0.00    -0.058 A 
ATOM     20  H   UNL     1     -49.549  31.750  26.491  1.00  0.00     0.063 H 
ATOM     21  H   UNL     1     -48.900  34.023  27.150  1.00  0.00     0.063 H 
BRANCH   8  22
ATOM     22  N   UNL     1     -45.743  29.609  22.067  1.00  0.00    -0.373 N 
ATOM     23  H   UNL     1     -46.392  29.065  21.506  1.00  0.00     0.161 HD
BRANCH  22  24
ATOM     24  C   UNL     1     -44.634  28.800  22.547  1.00  0.00     0.005 C 
ATOM     25  H   UNL     1     -44.370  28.011  21.834  1.00  0.00     0.045 H 
ATOM     26  H   UNL     1     -43.755  29.442  22.670  1.00  0.00     0.045 H 
ATOM     27  H   UNL     1     -44.853  28.357  23.525  1.00  0.00     0.045 H 
ENDBRANCH  22  24
ENDBRANCH   8  22
ENDBRANCH   4   7
ENDBRANCH   1   4
BRANCH   1  28
ATOM     28  C   UNL     1     -45.800  36.034  28.502  1.00  0.00    -0.010 C 
ATOM     29  C   UNL     1     -44.808  37.139  28.943  1.00  0.00    -0.024 C 
ATOM     30  C   UNL     1     -47.160  36.682  28.769  1.00  0.00     0.085 C 
ATOM     31  H   UNL     1     -45.647  35.156  29.141  1.00  0.00     0.033 H 
ATOM     32  C   UNL     1     -45.572  38.481  28.890  1.00  0.00     0.064 C 
ATOM     33  H   UNL     1     -44.512  36.952  29.984  1.00  0.00     0.029 H 
ATOM     34  H   UNL     1     -43.884  37.135  28.357  1.00  0.00     0.029 H 
ATOM     35  C   UNL     1     -46.972  38.143  28.351  1.00  0.00     0.101 C 
ATOM     36  H   UNL     1     -48.010  36.226  28.267  1.00  0.00     0.063 H 
ATOM     37  H   UNL     1     -45.664  38.869  29.912  1.00  0.00     0.056 H 
ATOM     38  H   UNL     1     -47.034  38.253  27.263  1.00  0.00     0.065 H 
BRANCH  30  39
ATOM     39  O   UNL     1     -47.430  36.617  30.176  1.00  0.00    -0.390 OA
ATOM     40  H   UNL     1     -48.364  36.334  30.253  1.00  0.00     0.211 HD
ENDBRANCH  30  39
BRANCH  32  41
ATOM     41  N   UNL     1     -44.884  39.501  28.112  1.00  0.00    -0.326 N 
ATOM     42  C   UNL     1     -45.248  39.945  26.865  1.00  0.00     0.012 A 
ATOM     43  C   UNL     1     -43.754  40.171  28.516  1.00  0.00     0.146 A 
ATOM     44  C   UNL     1     -44.360  40.929  26.459  1.00  0.00     0.008 A 
ATOM     45  H   UNL     1     -46.115  39.552  26.352  1.00  0.00     0.082 H 
ATOM     46  C   UNL     1     -43.392  41.058  27.509  1.00  0.00     0.067 A 
ATOM     47  N   UNL     1     -43.114  39.993  29.685  1.00  0.00    -0.218 NA
ATOM     48  C   UNL     1     -42.246  41.834  27.744  1.00  0.00     0.136 A 
ATOM     49  C   UNL     1     -42.054  40.804  29.802  1.00  0.00     0.120 A 
ATOM     50  N   UNL     1     -41.587  41.699  28.910  1.00  0.00    -0.219 NA
ATOM     51  H   UNL     1     -41.498  40.728  30.732  1.00  0.00     0.106 H 
BRANCH  44  52
ATOM     52  C   UNL     1     -44.404  41.716  25.196  1.00  0.00     0.070 C 
ATOM     53  H   UNL     1     -45.268  41.417  24.595  1.00  0.00     0.062 H 
ATOM     54  H   UNL     1     -43.491  41.541  24.617  1.00  0.00     0.062 H 
BRANCH  52  55
ATOM     55  O   UNL     1     -44.511  43.118  25.439  1.00  0.00    -0.392 OA
ATOM     56  H   UNL     1     -43.656  43.398  25.804  1.00  0.00     0.211 HD
ENDBRANCH  52  55
ENDBRANCH  44  52
BRANCH  48  57
ATOM     57  N   UNL     1     -41.709  42.738  26.829  1.00  0.00    -0.383 N 
ATOM     58  H   UNL     1     -42.093  43.656  27.032  1.00  0.00     0.158 HD
ATOM     59  H   UNL     1     -40.699  42.713  26.806  1.00  0.00     0.158 HD
ENDBRANCH  48  57
ENDBRANCH  32  41
BRANCH  35  60
ATOM     60  O   UNL     1     -47.993  38.945  28.948  1.00  0.00    -0.388 OA
ATOM     61  H   UNL     1     -48.598  38.339  29.413  1.00  0.00     0.211 HD
ENDBRANCH  35  60
ENDBRANCH   1  28
TORSDOF 11
ENDMDL
MODEL 3
REMARK VINA RESULT:      -9.3      1.434      2.298
REMARK SMILES CNc1ccc2ccc(CC[C@H]3C[C@@H](n4cc(CO)c5c(N)ncnc54)[C@H](O)[C@@H]3O)cc2n1
REMARK SMILES IDX 11 1 10 4 9 7 3 8 4 9 33 10 5 11 32 13 6 14 31 16 7 17 8 19
REMARK SMILES IDX 2 22 1 24 12 28 13 29 29 30 14 32 27 35 30 39 15 41 16 42
REMARK SMILES IDX 26 43 17 44 20 46 25 47 21 48 24 49 23 50 18 52 19 55 22 57
REMARK SMILES IDX 28 60
REMARK H PARENT 11 2 11 3 10 5 10 6 4 12 5 15 31 18 7 20 8 21 2 23 1 25 1 26
REMARK H PARENT 1 27 12 31 13 33 13 34 29 36 14 37 27 38 30 40 16 45 24 51
REMARK H PARENT 18 53 18 54 19 56 22 58 22 59 28 61
REMARK Flexibility Score: inf
ROOT
ATOM      1  C   UNL     1     -47.255  36.398  27.240  1.00  0.00    -0.044 C 
ATOM      2  H   UNL     1     -47.705  37.383  27.399  1.00  0.00     0.027 H 
ATOM      3  H   UNL     1     -46.675  36.475  26.311  1.00  0.00     0.027 H 
ENDROOT
BRANCH   1   4
ATOM      4  C   UNL     1     -48.345  35.345  26.981  1.00  0.00    -0.027 C 
ATOM      5  H   UNL     1     -48.690  34.951  27.947  1.00  0.00     0.032 H 
ATOM      6  H   UNL     1     -49.220  35.833  26.532  1.00  0.00     0.032 H 
BRANCH   4   7
ATOM      7  C   UNL     1     -47.914  34.169  26.145  1.00  0.00    -0.046 A 
ATOM      8  C   UNL     1     -48.814  29.777  24.514  1.00  0.00     0.126 A 
ATOM      9  C   UNL     1     -47.597  29.726  23.845  1.00  0.00    -0.019 A 
ATOM     10  N   UNL     1     -49.181  30.859  25.231  1.00  0.00    -0.231 NA
ATOM     11  C   UNL     1     -46.741  30.821  23.896  1.00  0.00    -0.049 A 
ATOM     12  H   UNL     1     -47.307  28.835  23.297  1.00  0.00     0.066 H 
ATOM     13  C   UNL     1     -48.359  31.922  25.284  1.00  0.00     0.073 A 
ATOM     14  C   UNL     1     -47.114  31.951  24.628  1.00  0.00     0.000 A 
ATOM     15  H   UNL     1     -45.788  30.781  23.376  1.00  0.00     0.063 H 
ATOM     16  C   UNL     1     -48.738  33.037  26.020  1.00  0.00    -0.033 A 
ATOM     17  C   UNL     1     -46.288  33.081  24.723  1.00  0.00    -0.053 A 
ATOM     18  H   UNL     1     -49.707  33.013  26.517  1.00  0.00     0.065 H 
ATOM     19  C   UNL     1     -46.687  34.184  25.477  1.00  0.00    -0.058 A 
ATOM     20  H   UNL     1     -45.326  33.107  24.217  1.00  0.00     0.063 H 
ATOM     21  H   UNL     1     -46.027  35.046  25.548  1.00  0.00     0.063 H 
BRANCH   8  22
ATOM     22  N   UNL     1     -49.640  28.638  24.464  1.00  0.00    -0.373 N 
ATOM     23  H   UNL     1     -49.701  28.237  25.395  1.00  0.00     0.161 HD
BRANCH  22  24
ATOM     24  C   UNL     1     -49.234  27.651  23.477  1.00  0.00     0.005 C 
ATOM     25  H   UNL     1     -48.892  26.723  23.950  1.00  0.00     0.045 H 
ATOM     26  H   UNL     1     -50.096  27.403  22.849  1.00  0.00     0.045 H 
ATOM     27  H   UNL     1     -48.450  28.040  22.817  1.00  0.00     0.045 H 
ENDBRANCH  22  24
ENDBRANCH   8  22
ENDBRANCH   4   7
ENDBRANCH   1   4
BRANCH   1  28
ATOM     28  C   UNL     1     -46.280  36.045  28.382  1.00  0.00    -0.010 C 
ATOM     29  C   UNL     1     -44.932  36.785  28.202  1.00  0.00    -0.024 C 
ATOM     30  C   UNL     1     -46.725  36.501  29.774  1.00  0.00     0.085 C 
ATOM     31  H   UNL     1     -46.088  34.965  28.362  1.00  0.00     0.033 H 
ATOM     32  C   UNL     1     -44.947  37.995  29.162  1.00  0.00     0.064 C 
ATOM     33  H   UNL     1     -44.117  36.115  28.506  1.00  0.00     0.029 H 
ATOM     34  H   UNL     1     -44.734  37.054  27.159  1.00  0.00     0.029 H 
ATOM     35  C   UNL     1     -46.330  37.979  29.832  1.00  0.00     0.101 C 
ATOM     36  H   UNL     1     -47.778  36.355  30.006  1.00  0.00     0.063 H 
ATOM     37  H   UNL     1     -44.175  37.841  29.927  1.00  0.00     0.056 H 
ATOM     38  H   UNL     1     -47.056  38.602  29.298  1.00  0.00     0.065 H 
BRANCH  30  39
ATOM     39  O   UNL     1     -45.982  35.766  30.756  1.00  0.00    -0.390 OA
ATOM     40  H   UNL     1     -46.651  35.312  31.308  1.00  0.00     0.211 HD
ENDBRANCH  30  39
BRANCH  32  41
ATOM     41  N   UNL     1     -44.641  39.256  28.501  1.00  0.00    -0.326 N 
ATOM     42  C   UNL     1     -43.468  39.959  28.611  1.00  0.00     0.012 A 
ATOM     43  C   UNL     1     -45.495  39.934  27.665  1.00  0.00     0.146 A 
ATOM     44  C   UNL     1     -43.548  41.097  27.824  1.00  0.00     0.008 A 
ATOM     45  H   UNL     1     -42.648  39.607  29.223  1.00  0.00     0.082 H 
ATOM     46  C   UNL     1     -44.855  41.089  27.235  1.00  0.00     0.067 A 
ATOM     47  N   UNL     1     -46.736  39.541  27.328  1.00  0.00    -0.218 NA
ATOM     48  C   UNL     1     -45.583  41.920  26.368  1.00  0.00     0.136 A 
ATOM     49  C   UNL     1     -47.318  40.401  26.480  1.00  0.00     0.120 A 
ATOM     50  N   UNL     1     -46.823  41.554  25.992  1.00  0.00    -0.219 NA
ATOM     51  H   UNL     1     -48.319  40.137  26.149  1.00  0.00     0.106 H 
BRANCH  44  52
ATOM     52  C   UNL     1     -42.487  42.120  27.609  1.00  0.00     0.070 C 
ATOM     53  H   UNL     1     -42.259  42.208  26.543  1.00  0.00     0.062 H 
ATOM     54  H   UNL     1     -41.577  41.830  28.145  1.00  0.00     0.062 H 
BRANCH  52  55
ATOM     55  O   UNL     1     -42.880  43.410  28.074  1.00  0.00    -0.392 OA
ATOM     56  H   UNL     1     -42.962  43.339  29.039  1.00  0.00     0.211 HD
ENDBRANCH  52  55
ENDBRANCH  44  52
BRANCH  48  57
ATOM     57  N   UNL     1     -45.121  43.140  25.876  1.00  0.00    -0.383 N 
ATOM     58  H   UNL     1     -45.755  43.443  25.143  1.00  0.00     0.158 HD
ATOM     59  H   UNL     1     -44.981  43.825  26.605  1.00  0.00     0.158 HD
ENDBRANCH  48  57
ENDBRANCH  32  41
BRANCH  35  60
ATOM     60  O   UNL     1     -46.280  38.405  31.196  1.00  0.00    -0.388 OA
ATOM     61  H   UNL     1     -47.178  38.303  31.560  1.00  0.00     0.211 HD
ENDBRANCH  35  60
ENDBRANCH   1  28
TORSDOF 11
ENDMDL
MODEL 4
REMARK VINA RESULT:      -9.2      2.422     10.071
REMARK SMILES CNc1ccc2ccc(CC[C@H]3C[C@@H](n4cc(CO)c5c(N)ncnc54)[C@H](O)[C@@H]3O)cc2n1
REMARK SMILES IDX 11 1 10 4 9 7 3 8 4 9 33 10 5 11 32 13 6 14 31 16 7 17 8 19
REMARK SMILES IDX 2 22 1 24 12 28 13 29 29 30 14 32 27 35 30 39 15 41 16 42
REMARK SMILES IDX 26 43 17 44 20 46 25 47 21 48 24 49 23 50 18 52 19 55 22 57
REMARK SMILES IDX 28 60
REMARK H PARENT 11 2 11 3 10 5 10 6 4 12 5 15 31 18 7 20 8 21 2 23 1 25 1 26
REMARK H PARENT 1 27 12 31 13 33 13 34 29 36 14 37 27 38 30 40 16 45 24 51
REMARK H PARENT 18 53 18 54 19 56 22 58 22 59 28 61
REMARK Flexibility Score: inf
ROOT
ATOM      1  C   UNL     1     -46.679  36.830  26.381  1.00  0.00    -0.044 C 
ATOM      2  H   UNL     1     -45.625  36.599  26.197  1.00  0.00     0.027 H 
ATOM      3  H   UNL     1     -47.219  36.537  25.471  1.00  0.00     0.027 H 
ENDROOT
BRANCH   1   4
ATOM      4  C   UNL     1     -46.878  38.348  26.529  1.00  0.00    -0.027 C 
ATOM      5  H   UNL     1     -47.041  38.779  25.532  1.00  0.00     0.032 H 
ATOM      6  H   UNL     1     -47.802  38.539  27.089  1.00  0.00     0.032 H 
BRANCH   4   7
ATOM      7  C   UNL     1     -45.723  39.087  27.153  1.00  0.00    -0.046 A 
ATOM      8  C   UNL     1     -42.318  42.406  26.762  1.00  0.00     0.126 A 
ATOM      9  C   UNL     1     -41.828  42.119  28.031  1.00  0.00    -0.019 A 
ATOM     10  N   UNL     1     -43.372  41.742  26.245  1.00  0.00    -0.231 NA
ATOM     11  C   UNL     1     -42.448  41.138  28.798  1.00  0.00    -0.049 A 
ATOM     12  H   UNL     1     -40.961  42.644  28.418  1.00  0.00     0.066 H 
ATOM     13  C   UNL     1     -43.977  40.793  26.982  1.00  0.00     0.073 A 
ATOM     14  C   UNL     1     -43.546  40.450  28.277  1.00  0.00     0.000 A 
ATOM     15  H   UNL     1     -42.064  40.911  29.789  1.00  0.00     0.063 H 
ATOM     16  C   UNL     1     -45.064  40.112  26.451  1.00  0.00    -0.033 A 
ATOM     17  C   UNL     1     -44.206  39.446  29.002  1.00  0.00    -0.053 A 
ATOM     18  H   UNL     1     -45.400  40.389  25.453  1.00  0.00     0.065 H 
ATOM     19  C   UNL     1     -45.289  38.769  28.442  1.00  0.00    -0.058 A 
ATOM     20  H   UNL     1     -43.876  39.179  30.003  1.00  0.00     0.063 H 
ATOM     21  H   UNL     1     -45.780  37.985  29.015  1.00  0.00     0.063 H 
BRANCH   8  22
ATOM     22  N   UNL     1     -41.646  43.382  26.004  1.00  0.00    -0.373 N 
ATOM     23  H   UNL     1     -41.517  44.211  26.576  1.00  0.00     0.161 HD
BRANCH  22  24
ATOM     24  C   UNL     1     -42.284  43.696  24.736  1.00  0.00     0.005 C 
ATOM     25  H   UNL     1     -41.818  43.156  23.904  1.00  0.00     0.045 H 
ATOM     26  H   UNL     1     -43.334  43.388  24.783  1.00  0.00     0.045 H 
ATOM     27  H   UNL     1     -42.270  44.773  24.532  1.00  0.00     0.045 H 
ENDBRANCH  22  24
ENDBRANCH   8  22
ENDBRANCH   4   7
ENDBRANCH   1   4
BRANCH   1  28
ATOM     28  C   UNL     1     -47.231  35.993  27.553  1.00  0.00    -0.010 C 
ATOM     29  C   UNL     1     -48.128  34.844  27.031  1.00  0.00    -0.024 C 
ATOM     30  C   UNL     1     -46.172  35.244  28.365  1.00  0.00     0.085 C 
ATOM     31  H   UNL     1     -47.838  36.642  28.197  1.00  0.00     0.033 H 
ATOM     32  C   UNL     1     -47.281  33.553  27.067  1.00  0.00     0.064 C 
ATOM     33  H   UNL     1     -48.976  34.718  27.718  1.00  0.00     0.029 H 
ATOM     34  H   UNL     1     -48.561  35.059  26.049  1.00  0.00     0.029 H 
ATOM     35  C   UNL     1     -45.883  33.985  27.542  1.00  0.00     0.101 C 
ATOM     36  H   UNL     1     -45.263  35.799  28.585  1.00  0.00     0.063 H 
ATOM     37  H   UNL     1     -47.717  32.872  27.808  1.00  0.00     0.056 H 
ATOM     38  H   UNL     1     -45.212  34.208  26.704  1.00  0.00     0.065 H 
BRANCH  30  39
ATOM     39  O   UNL     1     -46.742  34.871  29.627  1.00  0.00    -0.390 OA
ATOM     40  H   UNL     1     -46.417  35.535  30.270  1.00  0.00     0.211 HD
ENDBRANCH  30  39
BRANCH  32  41
ATOM     41  N   UNL     1     -47.265  32.842  25.797  1.00  0.00    -0.326 N 
ATOM     42  C   UNL     1     -46.149  32.539  25.057  1.00  0.00     0.012 A 
ATOM     43  C   UNL     1     -48.379  32.370  25.145  1.00  0.00     0.146 A 
ATOM     44  C   UNL     1     -46.535  31.846  23.921  1.00  0.00     0.008 A 
ATOM     45  H   UNL     1     -45.156  32.818  25.385  1.00  0.00     0.082 H 
ATOM     46  C   UNL     1     -47.965  31.756  23.969  1.00  0.00     0.067 A 
ATOM     47  N   UNL     1     -49.646  32.488  25.576  1.00  0.00    -0.218 NA
ATOM     48  C   UNL     1     -48.977  31.212  23.160  1.00  0.00     0.136 A 
ATOM     49  C   UNL     1     -50.515  31.912  24.734  1.00  0.00     0.120 A 
ATOM     50  N   UNL     1     -50.258  31.294  23.565  1.00  0.00    -0.219 NA
ATOM     51  H   UNL     1     -51.560  31.952  25.028  1.00  0.00     0.106 H 
BRANCH  44  52
ATOM     52  C   UNL     1     -45.649  31.282  22.865  1.00  0.00     0.070 C 
ATOM     53  H   UNL     1     -46.096  30.378  22.441  1.00  0.00     0.062 H 
ATOM     54  H   UNL     1     -44.674  31.029  23.295  1.00  0.00     0.062 H 
BRANCH  52  55
ATOM     55  O   UNL     1     -45.434  32.201  21.796  1.00  0.00    -0.392 OA
ATOM     56  H   UNL     1     -45.380  33.083  22.200  1.00  0.00     0.211 HD
ENDBRANCH  52  55
ENDBRANCH  44  52
BRANCH  48  57
ATOM     57  N   UNL     1     -48.753  30.604  21.927  1.00  0.00    -0.383 N 
ATOM     58  H   UNL     1     -49.445  29.870  21.809  1.00  0.00     0.158 HD
ATOM     59  H   UNL     1     -48.727  31.268  21.165  1.00  0.00     0.158 HD
ENDBRANCH  48  57
ENDBRANCH  32  41
BRANCH  35  60
ATOM     60  O   UNL     1     -45.263  33.003  28.374  1.00  0.00    -0.388 OA
ATOM     61  H   UNL     1     -45.270  33.353  29.283  1.00  0.00     0.211 HD
ENDBRANCH  35  60
ENDBRANCH   1  28
TORSDOF 11
ENDMDL
MODEL 5
REMARK VINA RESULT:      -9.2      4.281      6.926
REMARK SMILES CNc1ccc2ccc(CC[C@H]3C[C@@H](n4cc(CO)c5c(N)ncnc54)[C@H](O)[C@@H]3O)cc2n1
REMARK SMILES IDX 11 1 10 4 9 7 3 8 4 9 33 10 5 11 32 13 6 14 31 16 7 17 8 19
REMARK SMILES IDX 2 22 1 24 12 28 13 29 29 30 14 32 27 35 30 39 15 41 16 42
REMARK SMILES IDX 26 43 17 44 20 46 25 47 21 48 24 49 23 50 18 52 19 55 22 57
REMARK SMILES IDX 28 60
REMARK H PARENT 11 2 11 3 10 5 10 6 4 12 5 15 31 18 7 20 8 21 2 23 1 25 1 26
REMARK H PARENT 1 27 12 31 13 33 13 34 29 36 14 37 27 38 30 40 16 45 24 51
REMARK H PARENT 18 53 18 54 19 56 22 58 22 59 28 61
REMARK Flexibility Score: inf
ROOT
ATOM      1  C   UNL     1     -47.738  36.716  27.442  1.00  0.00    -0.044 C 
ATOM      2  H   UNL     1     -47.403  37.652  26.984  1.00  0.00     0.027 H 
ATOM      3  H   UNL     1     -47.869  36.003  26.616  1.00  0.00     0.027 H 
ENDROOT
BRANCH   1   4
ATOM      4  C   UNL     1     -49.127  36.896  28.078  1.00  0.00    -0.027 C 
ATOM      5  H   UNL     1     -49.846  36.268  27.535  1.00  0.00     0.032 H 
ATOM      6  H   UNL     1     -49.108  36.506  29.103  1.00  0.00     0.032 H 
BRANCH   4   7
ATOM      7  C   UNL     1     -49.661  38.304  28.061  1.00  0.00    -0.046 A 
ATOM      8  C   UNL     1     -48.854  42.964  27.436  1.00  0.00     0.126 A 
ATOM      9  C   UNL     1     -50.167  43.283  27.759  1.00  0.00    -0.019 A 
ATOM     10  N   UNL     1     -48.416  41.689  27.434  1.00  0.00    -0.231 NA
ATOM     11  C   UNL     1     -51.062  42.264  28.070  1.00  0.00    -0.049 A 
ATOM     12  H   UNL     1     -50.493  44.317  27.783  1.00  0.00     0.066 H 
ATOM     13  C   UNL     1     -49.276  40.698  27.732  1.00  0.00     0.073 A 
ATOM     14  C   UNL     1     -50.622  40.938  28.063  1.00  0.00     0.000 A 
ATOM     15  H   UNL     1     -52.088  42.511  28.326  1.00  0.00     0.063 H 
ATOM     16  C   UNL     1     -48.825  39.385  27.727  1.00  0.00    -0.033 A 
ATOM     17  C   UNL     1     -51.477  39.870  28.376  1.00  0.00    -0.053 A 
ATOM     18  H   UNL     1     -47.785  39.205  27.461  1.00  0.00     0.065 H 
ATOM     19  C   UNL     1     -50.998  38.560  28.374  1.00  0.00    -0.058 A 
ATOM     20  H   UNL     1     -52.519  40.051  28.631  1.00  0.00     0.063 H 
ATOM     21  H   UNL     1     -51.673  37.747  28.632  1.00  0.00     0.063 H 
BRANCH   8  22
ATOM     22  N   UNL     1     -47.970  44.024  27.157  1.00  0.00    -0.373 N 
ATOM     23  H   UNL     1     -47.750  44.504  28.025  1.00  0.00     0.161 HD
BRANCH  22  24
ATOM     24  C   UNL     1     -48.447  44.945  26.137  1.00  0.00     0.005 C 
ATOM     25  H   UNL     1     -48.376  45.987  26.468  1.00  0.00     0.045 H 
ATOM     26  H   UNL     1     -47.822  44.839  25.245  1.00  0.00     0.045 H 
ATOM     27  H   UNL     1     -49.478  44.720  25.842  1.00  0.00     0.045 H 
ENDBRANCH  22  24
ENDBRANCH   8  22
ENDBRANCH   4   7
ENDBRANCH   1   4
BRANCH   1  28
ATOM     28  C   UNL     1     -46.664  36.151  28.393  1.00  0.00    -0.010 C 
ATOM     29  C   UNL     1     -45.271  36.739  28.060  1.00  0.00    -0.024 C 
ATOM     30  C   UNL     1     -46.841  36.533  29.865  1.00  0.00     0.085 C 
ATOM     31  H   UNL     1     -46.620  35.062  28.270  1.00  0.00     0.033 H 
ATOM     32  C   UNL     1     -44.989  37.853  29.092  1.00  0.00     0.064 C 
ATOM     33  H   UNL     1     -44.515  35.952  28.188  1.00  0.00     0.029 H 
ATOM     34  H   UNL     1     -45.191  37.072  27.020  1.00  0.00     0.029 H 
ATOM     35  C   UNL     1     -46.252  37.943  29.964  1.00  0.00     0.101 C 
ATOM     36  H   UNL     1     -47.860  36.494  30.246  1.00  0.00     0.063 H 
ATOM     37  H   UNL     1     -44.143  37.542  29.717  1.00  0.00     0.056 H 
ATOM     38  H   UNL     1     -46.960  38.693  29.591  1.00  0.00     0.065 H 
BRANCH  30  39
ATOM     39  O   UNL     1     -46.067  35.633  30.669  1.00  0.00    -0.390 OA
ATOM     40  H   UNL     1     -45.816  34.897  30.073  1.00  0.00     0.211 HD
ENDBRANCH  30  39
BRANCH  32  41
ATOM     41  N   UNL     1     -44.619  39.121  28.479  1.00  0.00    -0.326 N 
ATOM     42  C   UNL     1     -45.230  39.702  27.397  1.00  0.00     0.012 A 
ATOM     43  C   UNL     1     -43.587  39.927  28.899  1.00  0.00     0.146 A 
ATOM     44  C   UNL     1     -44.606  40.908  27.119  1.00  0.00     0.008 A 
ATOM     45  H   UNL     1     -46.073  39.237  26.902  1.00  0.00     0.082 H 
ATOM     46  C   UNL     1     -43.541  41.040  28.070  1.00  0.00     0.067 A 
ATOM     47  N   UNL     1     -42.768  39.673  29.935  1.00  0.00    -0.218 NA
ATOM     48  C   UNL     1     -42.538  41.983  28.346  1.00  0.00     0.136 A 
ATOM     49  C   UNL     1     -41.871  40.653  30.113  1.00  0.00     0.120 A 
ATOM     50  N   UNL     1     -41.707  41.775  29.386  1.00  0.00    -0.219 NA
ATOM     51  H   UNL     1     -41.186  40.524  30.945  1.00  0.00     0.106 H 
BRANCH  44  52
ATOM     52  C   UNL     1     -44.972  41.889  26.060  1.00  0.00     0.070 C 
ATOM     53  H   UNL     1     -44.289  41.799  25.210  1.00  0.00     0.062 H 
ATOM     54  H   UNL     1     -44.911  42.907  26.459  1.00  0.00     0.062 H 
BRANCH  52  55
ATOM     55  O   UNL     1     -46.297  41.685  25.573  1.00  0.00    -0.392 OA
ATOM     56  H   UNL     1     -46.825  41.388  26.332  1.00  0.00     0.211 HD
ENDBRANCH  52  55
ENDBRANCH  44  52
BRANCH  48  57
ATOM     57  N   UNL     1     -42.311  43.133  27.592  1.00  0.00    -0.383 N 
ATOM     58  H   UNL     1     -41.319  43.179  27.381  1.00  0.00     0.158 HD
ATOM     59  H   UNL     1     -42.906  43.186  26.777  1.00  0.00     0.158 HD
ENDBRANCH  48  57
ENDBRANCH  32  41
BRANCH  35  60
ATOM     60  O   UNL     1     -45.952  38.239  31.329  1.00  0.00    -0.388 OA
ATOM     61  H   UNL     1     -45.744  39.190  31.376  1.00  0.00     0.211 HD
ENDBRANCH  35  60
ENDBRANCH   1  28
TORSDOF 11
ENDMDL
MODEL 6
REMARK VINA RESULT:      -8.8      1.938      3.227
REMARK SMILES CNc1ccc2ccc(CC[C@H]3C[C@@H](n4cc(CO)c5c(N)ncnc54)[C@H](O)[C@@H]3O)cc2n1
REMARK SMILES IDX 11 1 10 4 9 7 3 8 4 9 33 10 5 11 32 13 6 14 31 16 7 17 8 19
REMARK SMILES IDX 2 22 1 24 12 28 13 29 29 30 14 32 27 35 30 39 15 41 16 42
REMARK SMILES IDX 26 43 17 44 20 46 25 47 21 48 24 49 23 50 18 52 19 55 22 57
REMARK SMILES IDX 28 60
REMARK H PARENT 11 2 11 3 10 5 10 6 4 12 5 15 31 18 7 20 8 21 2 23 1 25 1 26
REMARK H PARENT 1 27 12 31 13 33 13 34 29 36 14 37 27 38 30 40 16 45 24 51
REMARK H PARENT 18 53 18 54 19 56 22 58 22 59 28 61
REMARK Flexibility Score: inf
ROOT
ATOM      1  C   UNL     1     -45.958  36.170  27.648  1.00  0.00    -0.044 C 
ATOM      2  H   UNL     1     -44.948  36.587  27.713  1.00  0.00     0.027 H 
ATOM      3  H   UNL     1     -45.919  35.197  28.155  1.00  0.00     0.027 H 
ENDROOT
BRANCH   1   4
ATOM      4  C   UNL     1     -46.324  35.877  26.183  1.00  0.00    -0.027 C 
ATOM      5  H   UNL     1     -46.991  36.672  25.822  1.00  0.00     0.032 H 
ATOM      6  H   UNL     1     -45.421  35.945  25.564  1.00  0.00     0.032 H 
BRANCH   4   7
ATOM      7  C   UNL     1     -47.024  34.565  25.949  1.00  0.00    -0.046 A 
ATOM      8  C   UNL     1     -46.998  30.228  23.960  1.00  0.00     0.126 A 
ATOM      9  C   UNL     1     -48.279  29.956  24.426  1.00  0.00    -0.019 A 
ATOM     10  N   UNL     1     -46.390  31.406  24.212  1.00  0.00    -0.231 NA
ATOM     11  C   UNL     1     -48.947  30.909  25.188  1.00  0.00    -0.049 A 
ATOM     12  H   UNL     1     -48.763  29.015  24.188  1.00  0.00     0.066 H 
ATOM     13  C   UNL     1     -47.029  32.331  24.950  1.00  0.00     0.073 A 
ATOM     14  C   UNL     1     -48.323  32.128  25.464  1.00  0.00     0.000 A 
ATOM     15  H   UNL     1     -49.949  30.698  25.551  1.00  0.00     0.063 H 
ATOM     16  C   UNL     1     -46.401  33.541  25.212  1.00  0.00    -0.033 A 
ATOM     17  C   UNL     1     -48.952  33.129  26.221  1.00  0.00    -0.053 A 
ATOM     18  H   UNL     1     -45.396  33.688  24.821  1.00  0.00     0.065 H 
ATOM     19  C   UNL     1     -48.304  34.341  26.462  1.00  0.00    -0.058 A 
ATOM     20  H   UNL     1     -49.951  32.976  26.620  1.00  0.00     0.063 H 
ATOM     21  H   UNL     1     -48.813  35.109  27.040  1.00  0.00     0.063 H 
BRANCH   8  22
ATOM     22  N   UNL     1     -46.367  29.253  23.166  1.00  0.00    -0.373 N 
ATOM     23  H   UNL     1     -45.897  28.589  23.774  1.00  0.00     0.161 HD
BRANCH  22  24
ATOM     24  C   UNL     1     -45.467  29.794  22.160  1.00  0.00     0.005 C 
ATOM     25  H   UNL     1     -45.065  29.008  21.512  1.00  0.00     0.045 H 
ATOM     26  H   UNL     1     -46.024  30.492  21.526  1.00  0.00     0.045 H 
ATOM     27  H   UNL     1     -44.643  30.355  22.616  1.00  0.00     0.045 H 
ENDBRANCH  22  24
ENDBRANCH   8  22
ENDBRANCH   4   7
ENDBRANCH   1   4
BRANCH   1  28
ATOM     28  C   UNL     1     -46.971  37.059  28.398  1.00  0.00    -0.010 C 
ATOM     29  C   UNL     1     -46.242  38.143  29.229  1.00  0.00    -0.024 C 
ATOM     30  C   UNL     1     -47.888  37.891  27.498  1.00  0.00     0.085 C 
ATOM     31  H   UNL     1     -47.554  36.430  29.083  1.00  0.00     0.033 H 
ATOM     32  C   UNL     1     -46.325  39.461  28.428  1.00  0.00     0.064 C 
ATOM     33  H   UNL     1     -46.779  38.282  30.177  1.00  0.00     0.029 H 
ATOM     34  H   UNL     1     -45.220  37.854  29.495  1.00  0.00     0.029 H 
ATOM     35  C   UNL     1     -47.039  39.106  27.113  1.00  0.00     0.101 C 
ATOM     36  H   UNL     1     -48.283  37.382  26.622  1.00  0.00     0.063 H 
ATOM     37  H   UNL     1     -46.943  40.171  28.992  1.00  0.00     0.056 H 
ATOM     38  H   UNL     1     -46.333  38.856  26.314  1.00  0.00     0.065 H 
BRANCH  30  39
ATOM     39  O   UNL     1     -49.019  38.321  28.269  1.00  0.00    -0.390 OA
ATOM     40  H   UNL     1     -49.544  38.891  27.670  1.00  0.00     0.211 HD
ENDBRANCH  30  39
BRANCH  32  41
ATOM     41  N   UNL     1     -45.029  40.094  28.229  1.00  0.00    -0.326 N 
ATOM     42  C   UNL     1     -43.934  39.962  29.045  1.00  0.00     0.012 A 
ATOM     43  C   UNL     1     -44.714  40.929  27.184  1.00  0.00     0.146 A 
ATOM     44  C   UNL     1     -42.887  40.701  28.518  1.00  0.00     0.008 A 
ATOM     45  H   UNL     1     -43.958  39.346  29.934  1.00  0.00     0.082 H 
ATOM     46  C   UNL     1     -43.394  41.336  27.337  1.00  0.00     0.067 A 
ATOM     47  N   UNL     1     -45.544  41.287  26.189  1.00  0.00    -0.218 NA
ATOM     48  C   UNL     1     -42.892  42.206  26.356  1.00  0.00     0.136 A 
ATOM     49  C   UNL     1     -44.945  42.097  25.306  1.00  0.00     0.120 A 
ATOM     50  N   UNL     1     -43.686  42.574  25.333  1.00  0.00    -0.219 NA
ATOM     51  H   UNL     1     -45.553  42.412  24.462  1.00  0.00     0.106 H 
BRANCH  44  52
ATOM     52  C   UNL     1     -41.501  40.806  29.052  1.00  0.00     0.070 C 
ATOM     53  H   UNL     1     -40.954  41.596  28.529  1.00  0.00     0.062 H 
ATOM     54  H   UNL     1     -40.975  39.856  28.910  1.00  0.00     0.062 H 
BRANCH  52  55
ATOM     55  O   UNL     1     -41.482  41.117  30.444  1.00  0.00    -0.392 OA
ATOM     56  H   UNL     1     -42.308  41.592  30.630  1.00  0.00     0.211 HD
ENDBRANCH  52  55
ENDBRANCH  44  52
BRANCH  48  57
ATOM     57  N   UNL     1     -41.610  42.753  26.374  1.00  0.00    -0.383 N 
ATOM     58  H   UNL     1     -41.679  43.724  26.084  1.00  0.00     0.158 HD
ATOM     59  H   UNL     1     -41.145  42.623  27.261  1.00  0.00     0.158 HD
ENDBRANCH  48  57
ENDBRANCH  32  41
BRANCH  35  60
ATOM     60  O   UNL     1     -47.892  40.157  26.656  1.00  0.00    -0.388 OA
ATOM     61  H   UNL     1     -47.777  40.219  25.691  1.00  0.00     0.211 HD
ENDBRANCH  35  60
ENDBRANCH   1  28
TORSDOF 11
ENDMDL
MODEL 7
REMARK VINA RESULT:      -8.7      4.312     11.507
REMARK SMILES CNc1ccc2ccc(CC[C@H]3C[C@@H](n4cc(CO)c5c(N)ncnc54)[C@H](O)[C@@H]3O)cc2n1
REMARK SMILES IDX 11 1 10 4 9 7 3 8 4 9 33 10 5 11 32 13 6 14 31 16 7 17 8 19
REMARK SMILES IDX 2 22 1 24 12 28 13 29 29 30 14 32 27 35 30 39 15 41 16 42
REMARK SMILES IDX 26 43 17 44 20 46 25 47 21 48 24 49 23 50 18 52 19 55 22 57
REMARK SMILES IDX 28 60
REMARK H PARENT 11 2 11 3 10 5 10 6 4 12 5 15 31 18 7 20 8 21 2 23 1 25 1 26
REMARK H PARENT 1 27 12 31 13 33 13 34 29 36 14 37 27 38 30 40 16 45 24 51
REMARK H PARENT 18 53 18 54 19 56 22 58 22 59 28 61
REMARK Flexibility Score: inf
ROOT
ATOM      1  C   UNL     1     -48.040  32.016  25.381  1.00  0.00    -0.044 C 
ATOM      2  H   UNL     1     -48.275  31.151  26.009  1.00  0.00     0.027 H 
ATOM      3  H   UNL     1     -46.959  32.180  25.482  1.00  0.00     0.027 H 
ENDROOT
BRANCH   1   4
ATOM      4  C   UNL     1     -48.720  33.280  25.933  1.00  0.00    -0.027 C 
ATOM      5  H   UNL     1     -49.175  33.827  25.096  1.00  0.00     0.032 H 
ATOM      6  H   UNL     1     -49.553  32.989  26.584  1.00  0.00     0.032 H 
BRANCH   4   7
ATOM      7  C   UNL     1     -47.805  34.239  26.649  1.00  0.00    -0.046 A 
ATOM      8  C   UNL     1     -47.046  38.607  28.409  1.00  0.00     0.126 A 
ATOM      9  C   UNL     1     -45.754  38.276  28.800  1.00  0.00    -0.019 A 
ATOM     10  N   UNL     1     -47.848  37.715  27.794  1.00  0.00    -0.231 NA
ATOM     11  C   UNL     1     -45.279  36.989  28.572  1.00  0.00    -0.049 A 
ATOM     12  H   UNL     1     -45.114  39.016  29.268  1.00  0.00     0.066 H 
ATOM     13  C   UNL     1     -47.396  36.468  27.572  1.00  0.00     0.073 A 
ATOM     14  C   UNL     1     -46.105  36.053  27.945  1.00  0.00     0.000 A 
ATOM     15  H   UNL     1     -44.269  36.729  28.875  1.00  0.00     0.063 H 
ATOM     16  C   UNL     1     -48.224  35.548  26.941  1.00  0.00    -0.033 A 
ATOM     17  C   UNL     1     -45.676  34.742  27.682  1.00  0.00    -0.053 A 
ATOM     18  H   UNL     1     -49.226  35.872  26.665  1.00  0.00     0.065 H 
ATOM     19  C   UNL     1     -46.523  33.841  27.038  1.00  0.00    -0.058 A 
ATOM     20  H   UNL     1     -44.679  34.418  27.969  1.00  0.00     0.063 H 
ATOM     21  H   UNL     1     -46.168  32.833  26.831  1.00  0.00     0.063 H 
BRANCH   8  22
ATOM     22  N   UNL     1     -47.480  39.928  28.628  1.00  0.00    -0.373 N 
ATOM     23  H   UNL     1     -47.157  40.232  29.541  1.00  0.00     0.161 HD
BRANCH  22  24
ATOM     24  C   UNL     1     -48.913  40.118  28.472  1.00  0.00     0.005 C 
ATOM     25  H   UNL     1     -49.413  40.238  29.440  1.00  0.00     0.045 H 
ATOM     26  H   UNL     1     -49.089  41.031  27.895  1.00  0.00     0.045 H 
ATOM     27  H   UNL     1     -49.372  39.290  27.919  1.00  0.00     0.045 H 
ENDBRANCH  22  24
ENDBRANCH   8  22
ENDBRANCH   4   7
ENDBRANCH   1   4
BRANCH   1  28
ATOM     28  C   UNL     1     -48.341  31.720  23.898  1.00  0.00    -0.010 C 
ATOM     29  C   UNL     1     -47.954  30.264  23.539  1.00  0.00    -0.024 C 
ATOM     30  C   UNL     1     -49.823  31.772  23.518  1.00  0.00     0.085 C 
ATOM     31  H   UNL     1     -47.749  32.401  23.274  1.00  0.00     0.033 H 
ATOM     32  C   UNL     1     -49.259  29.437  23.527  1.00  0.00     0.064 C 
ATOM     33  H   UNL     1     -47.529  30.251  22.526  1.00  0.00     0.029 H 
ATOM     34  H   UNL     1     -47.182  29.858  24.200  1.00  0.00     0.029 H 
ATOM     35  C   UNL     1     -50.373  30.410  23.949  1.00  0.00     0.101 C 
ATOM     36  H   UNL     1     -50.394  32.592  23.949  1.00  0.00     0.063 H 
ATOM     37  H   UNL     1     -49.447  29.099  22.501  1.00  0.00     0.056 H 
ATOM     38  H   UNL     1     -50.559  30.383  25.028  1.00  0.00     0.065 H 
BRANCH  30  39
ATOM     39  O   UNL     1     -49.926  31.903  22.094  1.00  0.00    -0.390 OA
ATOM     40  H   UNL     1     -49.013  31.806  21.753  1.00  0.00     0.211 HD
ENDBRANCH  30  39
BRANCH  32  41
ATOM     41  N   UNL     1     -49.189  28.244  24.359  1.00  0.00    -0.326 N 
ATOM     42  C   UNL     1     -50.227  27.694  25.067  1.00  0.00     0.012 A 
ATOM     43  C   UNL     1     -48.057  27.491  24.562  1.00  0.00     0.146 A 
ATOM     44  C   UNL     1     -49.776  26.559  25.722  1.00  0.00     0.008 A 
ATOM     45  H   UNL     1     -51.219  28.126  25.052  1.00  0.00     0.082 H 
ATOM     46  C   UNL     1     -48.381  26.442  25.413  1.00  0.00     0.067 A 
ATOM     47  N   UNL     1     -46.848  27.735  24.026  1.00  0.00    -0.218 NA
ATOM     48  C   UNL     1     -47.338  25.561  25.742  1.00  0.00     0.136 A 
ATOM     49  C   UNL     1     -45.945  26.815  24.392  1.00  0.00     0.120 A 
ATOM     50  N   UNL     1     -46.116  25.760  25.211  1.00  0.00    -0.219 NA
ATOM     51  H   UNL     1     -44.948  26.938  23.981  1.00  0.00     0.106 H 
BRANCH  44  52
ATOM     52  C   UNL     1     -50.576  25.627  26.564  1.00  0.00     0.070 C 
ATOM     53  H   UNL     1     -50.000  25.326  27.445  1.00  0.00     0.062 H 
ATOM     54  H   UNL     1     -50.834  24.733  25.986  1.00  0.00     0.062 H 
BRANCH  52  55
ATOM     55  O   UNL     1     -51.788  26.222  27.023  1.00  0.00    -0.392 OA
ATOM     56  H   UNL     1     -51.588  26.620  27.885  1.00  0.00     0.211 HD
ENDBRANCH  52  55
ENDBRANCH  44  52
BRANCH  48  57
ATOM     57  N   UNL     1     -47.466  24.484  26.617  1.00  0.00    -0.383 N 
ATOM     58  H   UNL     1     -46.970  23.693  26.217  1.00  0.00     0.158 HD
ATOM     59  H   UNL     1     -47.180  24.713  27.559  1.00  0.00     0.158 HD
ENDBRANCH  48  57
ENDBRANCH  32  41
BRANCH  35  60
ATOM     60  O   UNL     1     -51.603  30.156  23.268  1.00  0.00    -0.388 OA
ATOM     61  H   UNL     1     -52.079  31.004  23.211  1.00  0.00     0.211 HD
ENDBRANCH  35  60
ENDBRANCH   1  28
TORSDOF 11
ENDMDL
