MODEL 1
REMARK VINA RESULT:     -11.4      0.000      0.000
REMARK SMILES O=C(NCc1ccc2cc(CNC[C@]34CC[C@H](C3)C4)[nH]c2c1)c1cc(=O)n2ccccc2n1
REMARK SMILES IDX 5 1 6 2 7 3 8 4 9 5 10 6 20 7 21 8 22 9 4 15 3 18 1 19 2 20
REMARK SMILES IDX 23 22 24 23 33 24 25 25 32 27 26 28 27 29 31 30 28 31 30 32
REMARK SMILES IDX 29 34 11 38 12 41 13 43 14 46 15 47 18 48 19 49 16 50 17 53
REMARK H PARENT 6 10 7 11 9 12 20 13 22 14 4 16 4 17 3 21 24 26 31 33 28 35
REMARK H PARENT 30 36 29 37 11 39 11 40 12 42 13 44 13 45 15 51 15 52 18 54
REMARK H PARENT 18 55 19 56 19 57 16 58 16 59 17 60
REMARK Flexibility Score: inf
ROOT
ATOM      1  C   UNL     1     -47.943  35.222  26.969  1.00  0.00    -0.027 A 
ATOM      2  C   UNL     1     -46.638  35.268  26.460  1.00  0.00    -0.057 A 
ATOM      3  C   UNL     1     -46.147  34.255  25.628  1.00  0.00    -0.052 A 
ATOM      4  C   UNL     1     -46.982  33.173  25.295  1.00  0.00    -0.000 A 
ATOM      5  C   UNL     1     -46.818  32.006  24.501  1.00  0.00    -0.032 A 
ATOM      6  C   UNL     1     -47.999  31.291  24.535  1.00  0.00     0.030 A 
ATOM      7  N   UNL     1     -48.873  31.997  25.327  1.00  0.00    -0.357 N 
ATOM      8  C   UNL     1     -48.279  33.144  25.802  1.00  0.00     0.046 A 
ATOM      9  C   UNL     1     -48.789  34.150  26.634  1.00  0.00    -0.033 A 
ATOM     10  H   UNL     1     -45.989  36.107  26.710  1.00  0.00     0.063 H 
ATOM     11  H   UNL     1     -45.133  34.308  25.244  1.00  0.00     0.063 H 
ATOM     12  H   UNL     1     -45.930  31.717  23.953  1.00  0.00     0.065 H 
ATOM     13  H   UNL     1     -49.822  31.720  25.538  1.00  0.00     0.166 HD
ATOM     14  H   UNL     1     -49.807  34.100  27.008  1.00  0.00     0.065 H 
ENDROOT
BRANCH   1  15
ATOM     15  C   UNL     1     -48.448  36.342  27.844  1.00  0.00     0.043 C 
ATOM     16  H   UNL     1     -48.719  35.957  28.833  1.00  0.00     0.054 H 
ATOM     17  H   UNL     1     -49.350  36.790  27.412  1.00  0.00     0.054 H 
BRANCH  15  18
ATOM     18  N   UNL     1     -47.463  37.388  27.954  1.00  0.00    -0.347 N 
ATOM     19  O   UNL     1     -46.511  36.672  29.922  1.00  0.00    -0.268 OA
ATOM     20  C   UNL     1     -46.524  37.424  28.955  1.00  0.00     0.270 C 
ATOM     21  H   UNL     1     -47.290  37.994  27.159  1.00  0.00     0.164 HD
BRANCH  20  22
ATOM     22  C   UNL     1     -45.485  38.496  28.729  1.00  0.00     0.136 A 
ATOM     23  C   UNL     1     -44.536  38.609  29.661  1.00  0.00     0.035 A 
ATOM     24  N   UNL     1     -45.570  39.274  27.596  1.00  0.00    -0.225 NA
ATOM     25  C   UNL     1     -43.501  39.634  29.480  1.00  0.00     0.258 A 
ATOM     26  H   UNL     1     -44.480  37.991  30.547  1.00  0.00     0.071 H 
ATOM     27  C   UNL     1     -44.649  40.175  27.436  1.00  0.00     0.140 A 
ATOM     28  O   UNL     1     -42.628  39.752  30.337  1.00  0.00    -0.269 OA
ATOM     29  N   UNL     1     -43.606  40.400  28.327  1.00  0.00    -0.268 N 
ATOM     30  C   UNL     1     -44.697  41.037  26.220  1.00  0.00    -0.019 A 
ATOM     31  C   UNL     1     -42.659  41.390  28.084  1.00  0.00     0.014 A 
ATOM     32  C   UNL     1     -43.762  41.975  26.030  1.00  0.00    -0.057 A 
ATOM     33  H   UNL     1     -45.504  40.867  25.520  1.00  0.00     0.066 H 
ATOM     34  C   UNL     1     -42.707  42.160  26.991  1.00  0.00    -0.045 A 
ATOM     35  H   UNL     1     -41.871  41.511  28.824  1.00  0.00     0.082 H 
ATOM     36  H   UNL     1     -43.779  42.612  25.151  1.00  0.00     0.062 H 
ATOM     37  H   UNL     1     -41.962  42.928  26.811  1.00  0.00     0.064 H 
ENDBRANCH  20  22
ENDBRANCH  15  18
ENDBRANCH   1  15
BRANCH   6  38
ATOM     38  C   UNL     1     -48.373  30.000  23.893  1.00  0.00     0.036 C 
ATOM     39  H   UNL     1     -48.117  30.024  22.826  1.00  0.00     0.049 H 
ATOM     40  H   UNL     1     -49.458  29.864  23.972  1.00  0.00     0.049 H 
BRANCH  38  41
ATOM     41  N   UNL     1     -47.675  28.914  24.566  1.00  0.00    -0.311 NA
ATOM     42  H   UNL     1     -46.677  28.989  24.375  1.00  0.00     0.123 HD
BRANCH  41  43
ATOM     43  C   UNL     1     -48.175  27.609  24.139  1.00  0.00     0.001 C 
ATOM     44  H   UNL     1     -47.576  27.244  23.295  1.00  0.00     0.043 H 
ATOM     45  H   UNL     1     -49.211  27.699  23.792  1.00  0.00     0.043 H 
BRANCH  43  46
ATOM     46  C   UNL     1     -48.110  26.621  25.278  1.00  0.00    -0.017 C 
ATOM     47  C   UNL     1     -46.844  25.759  25.402  1.00  0.00    -0.046 C 
ATOM     48  C   UNL     1     -49.294  25.640  25.592  1.00  0.00    -0.043 C 
ATOM     49  C   UNL     1     -48.368  27.127  26.740  1.00  0.00    -0.043 C 
ATOM     50  C   UNL     1     -47.198  24.984  26.675  1.00  0.00    -0.050 C 
ATOM     51  H   UNL     1     -45.941  26.363  25.532  1.00  0.00     0.027 H 
ATOM     52  H   UNL     1     -46.706  25.086  24.549  1.00  0.00     0.027 H 
ATOM     53  C   UNL     1     -48.563  25.597  26.971  1.00  0.00    -0.040 C 
ATOM     54  H   UNL     1     -50.298  26.081  25.596  1.00  0.00     0.028 H 
ATOM     55  H   UNL     1     -49.323  24.705  25.025  1.00  0.00     0.028 H 
ATOM     56  H   UNL     1     -49.259  27.750  26.886  1.00  0.00     0.028 H 
ATOM     57  H   UNL     1     -47.525  27.598  27.255  1.00  0.00     0.028 H 
ATOM     58  H   UNL     1     -47.259  23.906  26.494  1.00  0.00     0.027 H 
ATOM     59  H   UNL     1     -46.478  25.169  27.479  1.00  0.00     0.027 H 
ATOM     60  H   UNL     1     -49.118  25.266  27.847  1.00  0.00     0.030 H 
ENDBRANCH  43  46
ENDBRANCH  41  43
ENDBRANCH  38  41
ENDBRANCH   6  38
TORSDOF 7
ENDMDL
MODEL 2
REMARK VINA RESULT:     -10.8      1.510      2.170
REMARK SMILES O=C(NCc1ccc2cc(CNC[C@]34CC[C@H](C3)C4)[nH]c2c1)c1cc(=O)n2ccccc2n1
REMARK SMILES IDX 5 1 6 2 7 3 8 4 9 5 10 6 20 7 21 8 22 9 4 15 3 18 1 19 2 20
REMARK SMILES IDX 23 22 24 23 33 24 25 25 32 27 26 28 27 29 31 30 28 31 30 32
REMARK SMILES IDX 29 34 11 38 12 41 13 43 14 46 15 47 18 48 19 49 16 50 17 53
REMARK H PARENT 6 10 7 11 9 12 20 13 22 14 4 16 4 17 3 21 24 26 31 33 28 35
REMARK H PARENT 30 36 29 37 11 39 11 40 12 42 13 44 13 45 15 51 15 52 18 54
REMARK H PARENT 18 55 19 56 19 57 16 58 16 59 17 60
REMARK Flexibility Score: inf
ROOT
ATOM      1  C   UNL     1     -47.925  33.988  26.092  1.00  0.00    -0.027 A 
ATOM      2  C   UNL     1     -46.581  34.006  25.697  1.00  0.00    -0.057 A 
ATOM      3  C   UNL     1     -46.065  33.033  24.832  1.00  0.00    -0.052 A 
ATOM      4  C   UNL     1     -46.916  32.021  24.350  1.00  0.00    -0.000 A 
ATOM      5  C   UNL     1     -46.736  30.909  23.485  1.00  0.00    -0.032 A 
ATOM      6  C   UNL     1     -47.947  30.253  23.367  1.00  0.00     0.030 A 
ATOM      7  N   UNL     1     -48.853  30.943  24.137  1.00  0.00    -0.357 N 
ATOM      8  C   UNL     1     -48.251  32.021  24.746  1.00  0.00     0.046 A 
ATOM      9  C   UNL     1     -48.786  32.987  25.608  1.00  0.00    -0.033 A 
ATOM     10  H   UNL     1     -45.918  34.790  26.063  1.00  0.00     0.063 H 
ATOM     11  H   UNL     1     -45.021  33.062  24.538  1.00  0.00     0.063 H 
ATOM     12  H   UNL     1     -45.819  30.616  22.991  1.00  0.00     0.065 H 
ATOM     13  H   UNL     1     -49.827  30.699  24.248  1.00  0.00     0.166 HD
ATOM     14  H   UNL     1     -49.833  32.962  25.892  1.00  0.00     0.065 H 
ENDROOT
BRANCH   1  15
ATOM     15  C   UNL     1     -48.452  35.066  27.007  1.00  0.00     0.043 C 
ATOM     16  H   UNL     1     -48.604  34.665  28.015  1.00  0.00     0.054 H 
ATOM     17  H   UNL     1     -49.423  35.429  26.652  1.00  0.00     0.054 H 
BRANCH  15  18
ATOM     18  N   UNL     1     -47.558  36.195  27.034  1.00  0.00    -0.347 N 
ATOM     19  O   UNL     1     -48.966  37.643  28.135  1.00  0.00    -0.268 OA
ATOM     20  C   UNL     1     -47.868  37.375  27.664  1.00  0.00     0.270 C 
ATOM     21  H   UNL     1     -46.582  36.063  26.791  1.00  0.00     0.164 HD
BRANCH  20  22
ATOM     22  C   UNL     1     -46.690  38.317  27.727  1.00  0.00     0.136 A 
ATOM     23  C   UNL     1     -46.598  39.219  26.747  1.00  0.00     0.035 A 
ATOM     24  N   UNL     1     -45.802  38.200  28.773  1.00  0.00    -0.225 NA
ATOM     25  C   UNL     1     -45.473  40.161  26.771  1.00  0.00     0.258 A 
ATOM     26  H   UNL     1     -47.304  39.302  25.931  1.00  0.00     0.071 H 
ATOM     27  C   UNL     1     -44.811  39.040  28.793  1.00  0.00     0.140 A 
ATOM     28  O   UNL     1     -45.375  40.990  25.868  1.00  0.00    -0.269 OA
ATOM     29  N   UNL     1     -44.595  40.026  27.838  1.00  0.00    -0.268 N 
ATOM     30  C   UNL     1     -43.826  38.955  29.910  1.00  0.00    -0.019 A 
ATOM     31  C   UNL     1     -43.506  40.886  27.930  1.00  0.00     0.014 A 
ATOM     32  C   UNL     1     -42.794  39.805  29.956  1.00  0.00    -0.057 A 
ATOM     33  H   UNL     1     -43.987  38.191  30.660  1.00  0.00     0.066 H 
ATOM     34  C   UNL     1     -42.626  40.805  28.936  1.00  0.00    -0.045 A 
ATOM     35  H   UNL     1     -43.399  41.634  27.148  1.00  0.00     0.082 H 
ATOM     36  H   UNL     1     -42.068  39.760  30.762  1.00  0.00     0.062 H 
ATOM     37  H   UNL     1     -41.780  41.481  28.998  1.00  0.00     0.064 H 
ENDBRANCH  20  22
ENDBRANCH  15  18
ENDBRANCH   1  15
BRANCH   6  38
ATOM     38  C   UNL     1     -48.321  29.033  22.599  1.00  0.00     0.036 C 
ATOM     39  H   UNL     1     -47.516  28.766  21.904  1.00  0.00     0.049 H 
ATOM     40  H   UNL     1     -49.217  29.247  22.005  1.00  0.00     0.049 H 
BRANCH  38  41
ATOM     41  N   UNL     1     -48.578  27.945  23.532  1.00  0.00    -0.311 NA
ATOM     42  H   UNL     1     -49.410  28.160  24.078  1.00  0.00     0.123 HD
BRANCH  41  43
ATOM     43  C   UNL     1     -47.438  27.717  24.417  1.00  0.00     0.001 C 
ATOM     44  H   UNL     1     -47.186  28.648  24.940  1.00  0.00     0.043 H 
ATOM     45  H   UNL     1     -46.559  27.422  23.830  1.00  0.00     0.043 H 
BRANCH  43  46
ATOM     46  C   UNL     1     -47.756  26.635  25.421  1.00  0.00    -0.017 C 
ATOM     47  C   UNL     1     -46.733  25.503  25.597  1.00  0.00    -0.046 C 
ATOM     48  C   UNL     1     -49.152  25.920  25.452  1.00  0.00    -0.043 C 
ATOM     49  C   UNL     1     -48.124  27.045  26.889  1.00  0.00    -0.043 C 
ATOM     50  C   UNL     1     -47.432  24.710  26.706  1.00  0.00    -0.050 C 
ATOM     51  H   UNL     1     -45.754  25.874  25.919  1.00  0.00     0.027 H 
ATOM     52  H   UNL     1     -46.608  24.901  24.691  1.00  0.00     0.027 H 
ATOM     53  C   UNL     1     -48.668  25.583  26.897  1.00  0.00    -0.040 C 
ATOM     54  H   UNL     1     -50.031  26.573  25.381  1.00  0.00     0.028 H 
ATOM     55  H   UNL     1     -49.288  25.074  24.773  1.00  0.00     0.028 H 
ATOM     56  H   UNL     1     -48.878  27.836  26.996  1.00  0.00     0.028 H 
ATOM     57  H   UNL     1     -47.291  27.263  27.564  1.00  0.00     0.028 H 
ATOM     58  H   UNL     1     -47.687  23.696  26.384  1.00  0.00     0.027 H 
ATOM     59  H   UNL     1     -46.821  24.652  27.613  1.00  0.00     0.027 H 
ATOM     60  H   UNL     1     -49.407  25.304  27.646  1.00  0.00     0.030 H 
ENDBRANCH  43  46
ENDBRANCH  41  43
ENDBRANCH  38  41
ENDBRANCH   6  38
TORSDOF 7
ENDMDL
MODEL 3
REMARK VINA RESULT:     -10.7      1.663      2.491
REMARK SMILES O=C(NCc1ccc2cc(CNC[C@]34CC[C@H](C3)C4)[nH]c2c1)c1cc(=O)n2ccccc2n1
REMARK SMILES IDX 5 1 6 2 7 3 8 4 9 5 10 6 20 7 21 8 22 9 4 15 3 18 1 19 2 20
REMARK SMILES IDX 23 22 24 23 33 24 25 25 32 27 26 28 27 29 31 30 28 31 30 32
REMARK SMILES IDX 29 34 11 38 12 41 13 43 14 46 15 47 18 48 19 49 16 50 17 53
REMARK H PARENT 6 10 7 11 9 12 20 13 22 14 4 16 4 17 3 21 24 26 31 33 28 35
REMARK H PARENT 30 36 29 37 11 39 11 40 12 42 13 44 13 45 15 51 15 52 18 54
REMARK H PARENT 18 55 19 56 19 57 16 58 16 59 17 60
REMARK Flexibility Score: inf
ROOT
ATOM      1  C   UNL     1     -46.392  36.116  28.048  1.00  0.00    -0.027 A 
ATOM      2  C   UNL     1     -47.779  36.111  27.849  1.00  0.00    -0.057 A 
ATOM      3  C   UNL     1     -48.384  35.193  26.982  1.00  0.00    -0.052 A 
ATOM      4  C   UNL     1     -47.583  34.259  26.301  1.00  0.00    -0.000 A 
ATOM      5  C   UNL     1     -47.853  33.215  25.375  1.00  0.00    -0.032 A 
ATOM      6  C   UNL     1     -46.655  32.615  25.039  1.00  0.00     0.030 A 
ATOM      7  N   UNL     1     -45.669  33.268  25.740  1.00  0.00    -0.357 N 
ATOM      8  C   UNL     1     -46.207  34.272  26.514  1.00  0.00     0.046 A 
ATOM      9  C   UNL     1     -45.583  35.180  27.380  1.00  0.00    -0.033 A 
ATOM     10  H   UNL     1     -48.406  36.829  28.378  1.00  0.00     0.063 H 
ATOM     11  H   UNL     1     -49.461  35.204  26.840  1.00  0.00     0.063 H 
ATOM     12  H   UNL     1     -48.823  32.924  24.994  1.00  0.00     0.065 H 
ATOM     13  H   UNL     1     -44.683  33.049  25.699  1.00  0.00     0.166 HD
ATOM     14  H   UNL     1     -44.509  35.160  27.528  1.00  0.00     0.065 H 
ENDROOT
BRANCH   1  15
ATOM     15  C   UNL     1     -45.776  37.104  29.007  1.00  0.00     0.043 C 
ATOM     16  H   UNL     1     -45.088  36.591  29.688  1.00  0.00     0.054 H 
ATOM     17  H   UNL     1     -46.551  37.575  29.622  1.00  0.00     0.054 H 
BRANCH  15  18
ATOM     18  N   UNL     1     -45.099  38.156  28.292  1.00  0.00    -0.347 N 
ATOM     19  O   UNL     1     -46.794  39.706  28.399  1.00  0.00    -0.268 OA
ATOM     20  C   UNL     1     -45.644  39.403  28.110  1.00  0.00     0.270 C 
ATOM     21  H   UNL     1     -44.103  38.074  28.111  1.00  0.00     0.164 HD
BRANCH  20  22
ATOM     22  C   UNL     1     -44.657  40.379  27.516  1.00  0.00     0.136 A 
ATOM     23  C   UNL     1     -43.540  40.593  28.217  1.00  0.00     0.035 A 
ATOM     24  N   UNL     1     -44.954  40.972  26.310  1.00  0.00    -0.225 NA
ATOM     25  C   UNL     1     -42.548  41.529  27.674  1.00  0.00     0.258 A 
ATOM     26  H   UNL     1     -43.318  40.119  29.163  1.00  0.00     0.071 H 
ATOM     27  C   UNL     1     -44.070  41.795  25.831  1.00  0.00     0.140 A 
ATOM     28  O   UNL     1     -41.521  41.739  28.316  1.00  0.00    -0.269 OA
ATOM     29  N   UNL     1     -42.869  42.110  26.455  1.00  0.00    -0.268 N 
ATOM     30  C   UNL     1     -44.346  42.458  24.524  1.00  0.00    -0.019 A 
ATOM     31  C   UNL     1     -41.975  43.005  25.877  1.00  0.00     0.014 A 
ATOM     32  C   UNL     1     -43.455  43.312  24.007  1.00  0.00    -0.057 A 
ATOM     33  H   UNL     1     -45.279  42.217  24.030  1.00  0.00     0.066 H 
ATOM     34  C   UNL     1     -42.229  43.596  24.703  1.00  0.00    -0.045 A 
ATOM     35  H   UNL     1     -41.055  43.205  26.420  1.00  0.00     0.082 H 
ATOM     36  H   UNL     1     -43.637  43.803  23.057  1.00  0.00     0.062 H 
ATOM     37  H   UNL     1     -41.524  44.293  24.261  1.00  0.00     0.064 H 
ENDBRANCH  20  22
ENDBRANCH  15  18
ENDBRANCH   1  15
BRANCH   6  38
ATOM     38  C   UNL     1     -46.357  31.488  24.113  1.00  0.00     0.036 C 
ATOM     39  H   UNL     1     -45.568  30.853  24.535  1.00  0.00     0.049 H 
ATOM     40  H   UNL     1     -45.988  31.894  23.164  1.00  0.00     0.049 H 
BRANCH  38  41
ATOM     41  N   UNL     1     -47.574  30.717  23.895  1.00  0.00    -0.311 NA
ATOM     42  H   UNL     1     -48.045  30.576  24.787  1.00  0.00     0.123 HD
BRANCH  41  43
ATOM     43  C   UNL     1     -47.288  29.430  23.266  1.00  0.00     0.001 C 
ATOM     44  H   UNL     1     -46.203  29.312  23.145  1.00  0.00     0.043 H 
ATOM     45  H   UNL     1     -47.735  29.393  22.265  1.00  0.00     0.043 H 
BRANCH  43  46
ATOM     46  C   UNL     1     -47.836  28.300  24.103  1.00  0.00    -0.017 C 
ATOM     47  C   UNL     1     -46.849  27.223  24.580  1.00  0.00    -0.046 C 
ATOM     48  C   UNL     1     -49.121  27.505  23.682  1.00  0.00    -0.043 C 
ATOM     49  C   UNL     1     -48.674  28.640  25.384  1.00  0.00    -0.043 C 
ATOM     50  C   UNL     1     -47.809  26.355  25.400  1.00  0.00    -0.050 C 
ATOM     51  H   UNL     1     -46.048  27.639  25.200  1.00  0.00     0.027 H 
ATOM     52  H   UNL     1     -46.407  26.659  23.752  1.00  0.00     0.027 H 
ATOM     53  C   UNL     1     -49.096  27.149  25.201  1.00  0.00    -0.040 C 
ATOM     54  H   UNL     1     -49.973  28.108  23.345  1.00  0.00     0.028 H 
ATOM     55  H   UNL     1     -48.981  26.675  22.983  1.00  0.00     0.028 H 
ATOM     56  H   UNL     1     -49.473  29.382  25.257  1.00  0.00     0.028 H 
ATOM     57  H   UNL     1     -48.112  28.883  26.291  1.00  0.00     0.028 H 
ATOM     58  H   UNL     1     -47.884  25.339  25.001  1.00  0.00     0.027 H 
ATOM     59  H   UNL     1     -47.513  26.303  26.453  1.00  0.00     0.027 H 
ATOM     60  H   UNL     1     -50.014  26.803  25.673  1.00  0.00     0.030 H 
ENDBRANCH  43  46
ENDBRANCH  41  43
ENDBRANCH  38  41
ENDBRANCH   6  38
TORSDOF 7
ENDMDL
MODEL 4
REMARK VINA RESULT:     -10.5      1.624      2.324
REMARK SMILES O=C(NCc1ccc2cc(CNC[C@]34CC[C@H](C3)C4)[nH]c2c1)c1cc(=O)n2ccccc2n1
REMARK SMILES IDX 5 1 6 2 7 3 8 4 9 5 10 6 20 7 21 8 22 9 4 15 3 18 1 19 2 20
REMARK SMILES IDX 23 22 24 23 33 24 25 25 32 27 26 28 27 29 31 30 28 31 30 32
REMARK SMILES IDX 29 34 11 38 12 41 13 43 14 46 15 47 18 48 19 49 16 50 17 53
REMARK H PARENT 6 10 7 11 9 12 20 13 22 14 4 16 4 17 3 21 24 26 31 33 28 35
REMARK H PARENT 30 36 29 37 11 39 11 40 12 42 13 44 13 45 15 51 15 52 18 54
REMARK H PARENT 18 55 19 56 19 57 16 58 16 59 17 60
REMARK Flexibility Score: inf
ROOT
ATOM      1  C   UNL     1     -46.580  34.195  26.881  1.00  0.00    -0.027 A 
ATOM      2  C   UNL     1     -47.963  34.402  26.964  1.00  0.00    -0.057 A 
ATOM      3  C   UNL     1     -48.860  33.615  26.232  1.00  0.00    -0.052 A 
ATOM      4  C   UNL     1     -48.361  32.597  25.400  1.00  0.00    -0.000 A 
ATOM      5  C   UNL     1     -48.964  31.638  24.542  1.00  0.00    -0.032 A 
ATOM      6  C   UNL     1     -47.961  30.879  23.971  1.00  0.00     0.030 A 
ATOM      7  N   UNL     1     -46.769  31.353  24.463  1.00  0.00    -0.357 N 
ATOM      8  C   UNL     1     -46.984  32.398  25.333  1.00  0.00     0.046 A 
ATOM      9  C   UNL     1     -46.071  33.173  26.060  1.00  0.00    -0.033 A 
ATOM     10  H   UNL     1     -48.356  35.186  27.611  1.00  0.00     0.063 H 
ATOM     11  H   UNL     1     -49.929  33.791  26.308  1.00  0.00     0.063 H 
ATOM     12  H   UNL     1     -50.023  31.507  24.361  1.00  0.00     0.065 H 
ATOM     13  H   UNL     1     -45.855  30.992  24.224  1.00  0.00     0.166 HD
ATOM     14  H   UNL     1     -45.004  32.989  25.991  1.00  0.00     0.065 H 
ENDROOT
BRANCH   1  15
ATOM     15  C   UNL     1     -45.644  35.047  27.702  1.00  0.00     0.043 C 
ATOM     16  H   UNL     1     -44.605  34.740  27.531  1.00  0.00     0.054 H 
ATOM     17  H   UNL     1     -45.848  34.920  28.771  1.00  0.00     0.054 H 
BRANCH  15  18
ATOM     18  N   UNL     1     -45.822  36.443  27.396  1.00  0.00    -0.347 N 
ATOM     19  O   UNL     1     -44.979  37.274  29.368  1.00  0.00    -0.268 OA
ATOM     20  C   UNL     1     -45.406  37.448  28.233  1.00  0.00     0.270 C 
ATOM     21  H   UNL     1     -46.047  36.719  26.445  1.00  0.00     0.164 HD
BRANCH  20  22
ATOM     22  C   UNL     1     -45.519  38.811  27.593  1.00  0.00     0.136 A 
ATOM     23  C   UNL     1     -46.744  39.193  27.224  1.00  0.00     0.035 A 
ATOM     24  N   UNL     1     -44.379  39.568  27.438  1.00  0.00    -0.225 NA
ATOM     25  C   UNL     1     -46.903  40.514  26.604  1.00  0.00     0.258 A 
ATOM     26  H   UNL     1     -47.632  38.590  27.353  1.00  0.00     0.071 H 
ATOM     27  C   UNL     1     -44.526  40.738  26.894  1.00  0.00     0.140 A 
ATOM     28  O   UNL     1     -48.026  40.872  26.253  1.00  0.00    -0.269 OA
ATOM     29  N   UNL     1     -45.740  41.259  26.464  1.00  0.00    -0.268 N 
ATOM     30  C   UNL     1     -43.320  41.596  26.710  1.00  0.00    -0.019 A 
ATOM     31  C   UNL     1     -45.813  42.523  25.887  1.00  0.00     0.014 A 
ATOM     32  C   UNL     1     -43.440  42.805  26.151  1.00  0.00    -0.057 A 
ATOM     33  H   UNL     1     -42.370  41.199  27.044  1.00  0.00     0.066 H 
ATOM     34  C   UNL     1     -44.726  43.288  25.725  1.00  0.00    -0.045 A 
ATOM     35  H   UNL     1     -46.795  42.867  25.574  1.00  0.00     0.082 H 
ATOM     36  H   UNL     1     -42.574  43.445  26.010  1.00  0.00     0.062 H 
ATOM     37  H   UNL     1     -44.795  44.273  25.275  1.00  0.00     0.064 H 
ENDBRANCH  20  22
ENDBRANCH  15  18
ENDBRANCH   1  15
BRANCH   6  38
ATOM     38  C   UNL     1     -48.027  29.753  22.998  1.00  0.00     0.036 C 
ATOM     39  H   UNL     1     -47.046  29.604  22.529  1.00  0.00     0.049 H 
ATOM     40  H   UNL     1     -48.740  30.007  22.206  1.00  0.00     0.049 H 
BRANCH  38  41
ATOM     41  N   UNL     1     -48.452  28.546  23.695  1.00  0.00    -0.311 NA
ATOM     42  H   UNL     1     -49.133  28.795  24.410  1.00  0.00     0.123 HD
BRANCH  41  43
ATOM     43  C   UNL     1     -47.318  27.849  24.298  1.00  0.00     0.001 C 
ATOM     44  H   UNL     1     -46.669  28.573  24.807  1.00  0.00     0.043 H 
ATOM     45  H   UNL     1     -46.719  27.361  23.520  1.00  0.00     0.043 H 
BRANCH  43  46
ATOM     46  C   UNL     1     -47.801  26.813  25.285  1.00  0.00    -0.017 C 
ATOM     47  C   UNL     1     -46.853  25.649  25.615  1.00  0.00    -0.046 C 
ATOM     48  C   UNL     1     -49.218  26.152  25.164  1.00  0.00    -0.043 C 
ATOM     49  C   UNL     1     -48.327  27.282  26.685  1.00  0.00    -0.043 C 
ATOM     50  C   UNL     1     -47.713  24.918  26.651  1.00  0.00    -0.050 C 
ATOM     51  H   UNL     1     -45.906  25.993  26.044  1.00  0.00     0.027 H 
ATOM     52  H   UNL     1     -46.645  25.014  24.748  1.00  0.00     0.027 H 
ATOM     53  C   UNL     1     -48.927  25.843  26.666  1.00  0.00    -0.040 C 
ATOM     54  H   UNL     1     -50.054  26.834  24.969  1.00  0.00     0.028 H 
ATOM     55  H   UNL     1     -49.305  25.290  24.496  1.00  0.00     0.028 H 
ATOM     56  H   UNL     1     -49.055  28.103  26.678  1.00  0.00     0.028 H 
ATOM     57  H   UNL     1     -47.574  27.490  27.451  1.00  0.00     0.028 H 
ATOM     58  H   UNL     1     -47.969  23.904  26.328  1.00  0.00     0.027 H 
ATOM     59  H   UNL     1     -47.220  24.866  27.627  1.00  0.00     0.027 H 
ATOM     60  H   UNL     1     -49.762  25.615  27.326  1.00  0.00     0.030 H 
ENDBRANCH  43  46
ENDBRANCH  41  43
ENDBRANCH  38  41
ENDBRANCH   6  38
TORSDOF 7
ENDMDL
MODEL 5
REMARK VINA RESULT:     -10.5      3.081      3.958
REMARK SMILES O=C(NCc1ccc2cc(CNC[C@]34CC[C@H](C3)C4)[nH]c2c1)c1cc(=O)n2ccccc2n1
REMARK SMILES IDX 5 1 6 2 7 3 8 4 9 5 10 6 20 7 21 8 22 9 4 15 3 18 1 19 2 20
REMARK SMILES IDX 23 22 24 23 33 24 25 25 32 27 26 28 27 29 31 30 28 31 30 32
REMARK SMILES IDX 29 34 11 38 12 41 13 43 14 46 15 47 18 48 19 49 16 50 17 53
REMARK H PARENT 6 10 7 11 9 12 20 13 22 14 4 16 4 17 3 21 24 26 31 33 28 35
REMARK H PARENT 30 36 29 37 11 39 11 40 12 42 13 44 13 45 15 51 15 52 18 54
REMARK H PARENT 18 55 19 56 19 57 16 58 16 59 17 60
REMARK Flexibility Score: inf
ROOT
ATOM      1  C   UNL     1     -46.453  35.748  28.007  1.00  0.00    -0.027 A 
ATOM      2  C   UNL     1     -47.830  35.782  27.749  1.00  0.00    -0.057 A 
ATOM      3  C   UNL     1     -48.418  34.907  26.827  1.00  0.00    -0.052 A 
ATOM      4  C   UNL     1     -47.609  33.976  26.151  1.00  0.00    -0.000 A 
ATOM      5  C   UNL     1     -47.861  32.969  25.180  1.00  0.00    -0.032 A 
ATOM      6  C   UNL     1     -46.663  32.351  24.877  1.00  0.00     0.030 A 
ATOM      7  N   UNL     1     -45.695  32.957  25.641  1.00  0.00    -0.357 N 
ATOM      8  C   UNL     1     -46.244  33.949  26.424  1.00  0.00     0.046 A 
ATOM      9  C   UNL     1     -45.638  34.813  27.344  1.00  0.00    -0.033 A 
ATOM     10  H   UNL     1     -48.463  36.498  28.274  1.00  0.00     0.063 H 
ATOM     11  H   UNL     1     -49.486  34.949  26.639  1.00  0.00     0.063 H 
ATOM     12  H   UNL     1     -48.821  32.714  24.748  1.00  0.00     0.065 H 
ATOM     13  H   UNL     1     -44.714  32.716  25.636  1.00  0.00     0.166 HD
ATOM     14  H   UNL     1     -44.571  34.763  27.538  1.00  0.00     0.065 H 
ENDROOT
BRANCH   1  15
ATOM     15  C   UNL     1     -45.857  36.689  29.024  1.00  0.00     0.043 C 
ATOM     16  H   UNL     1     -45.164  36.149  29.679  1.00  0.00     0.054 H 
ATOM     17  H   UNL     1     -46.642  37.113  29.661  1.00  0.00     0.054 H 
BRANCH  15  18
ATOM     18  N   UNL     1     -45.194  37.791  28.374  1.00  0.00    -0.347 N 
ATOM     19  O   UNL     1     -46.943  39.280  28.489  1.00  0.00    -0.268 OA
ATOM     20  C   UNL     1     -45.775  39.025  28.223  1.00  0.00     0.270 C 
ATOM     21  H   UNL     1     -44.192  37.748  28.221  1.00  0.00     0.164 HD
BRANCH  20  22
ATOM     22  C   UNL     1     -44.803  40.056  27.701  1.00  0.00     0.136 A 
ATOM     23  C   UNL     1     -43.728  40.294  28.456  1.00  0.00     0.035 A 
ATOM     24  N   UNL     1     -45.071  40.671  26.499  1.00  0.00    -0.225 NA
ATOM     25  C   UNL     1     -42.752  41.284  27.984  1.00  0.00     0.258 A 
ATOM     26  H   UNL     1     -43.528  39.803  29.399  1.00  0.00     0.071 H 
ATOM     27  C   UNL     1     -44.202  41.541  26.082  1.00  0.00     0.140 A 
ATOM     28  O   UNL     1     -41.763  41.516  28.676  1.00  0.00    -0.269 OA
ATOM     29  N   UNL     1     -43.042  41.885  26.767  1.00  0.00    -0.268 N 
ATOM     30  C   UNL     1     -44.447  42.229  24.782  1.00  0.00    -0.019 A 
ATOM     31  C   UNL     1     -42.161  42.831  26.253  1.00  0.00     0.014 A 
ATOM     32  C   UNL     1     -43.570  43.132  24.328  1.00  0.00    -0.057 A 
ATOM     33  H   UNL     1     -45.346  41.966  24.240  1.00  0.00     0.066 H 
ATOM     34  C   UNL     1     -42.387  43.445  25.085  1.00  0.00    -0.045 A 
ATOM     35  H   UNL     1     -41.274  43.052  26.842  1.00  0.00     0.082 H 
ATOM     36  H   UNL     1     -43.729  43.642  23.384  1.00  0.00     0.062 H 
ATOM     37  H   UNL     1     -41.692  44.181  24.694  1.00  0.00     0.064 H 
ENDBRANCH  20  22
ENDBRANCH  15  18
ENDBRANCH   1  15
BRANCH   6  38
ATOM     38  C   UNL     1     -46.352  31.247  23.928  1.00  0.00     0.036 C 
ATOM     39  H   UNL     1     -46.815  30.314  24.272  1.00  0.00     0.049 H 
ATOM     40  H   UNL     1     -45.267  31.092  23.905  1.00  0.00     0.049 H 
BRANCH  38  41
ATOM     41  N   UNL     1     -46.842  31.605  22.604  1.00  0.00    -0.311 NA
ATOM     42  H   UNL     1     -47.656  32.209  22.700  1.00  0.00     0.123 HD
BRANCH  41  43
ATOM     43  C   UNL     1     -47.181  30.420  21.819  1.00  0.00     0.001 C 
ATOM     44  H   UNL     1     -47.220  29.542  22.476  1.00  0.00     0.043 H 
ATOM     45  H   UNL     1     -46.405  30.233  21.066  1.00  0.00     0.043 H 
BRANCH  43  46
ATOM     46  C   UNL     1     -48.513  30.606  21.132  1.00  0.00    -0.017 C 
ATOM     47  C   UNL     1     -49.646  31.254  21.941  1.00  0.00    -0.046 C 
ATOM     48  C   UNL     1     -49.203  29.443  20.337  1.00  0.00    -0.043 C 
ATOM     49  C   UNL     1     -48.560  31.349  19.752  1.00  0.00    -0.043 C 
ATOM     50  C   UNL     1     -50.734  31.281  20.863  1.00  0.00    -0.050 C 
ATOM     51  H   UNL     1     -49.389  32.262  22.283  1.00  0.00     0.027 H 
ATOM     52  H   UNL     1     -49.951  30.650  22.802  1.00  0.00     0.027 H 
ATOM     53  C   UNL     1     -49.957  30.657  19.708  1.00  0.00    -0.040 C 
ATOM     54  H   UNL     1     -48.559  28.874  19.656  1.00  0.00     0.028 H 
ATOM     55  H   UNL     1     -49.807  28.740  20.917  1.00  0.00     0.028 H 
ATOM     56  H   UNL     1     -47.836  31.014  18.997  1.00  0.00     0.028 H 
ATOM     57  H   UNL     1     -48.554  32.442  19.780  1.00  0.00     0.028 H 
ATOM     58  H   UNL     1     -51.606  30.683  21.146  1.00  0.00     0.027 H 
ATOM     59  H   UNL     1     -51.061  32.302  20.638  1.00  0.00     0.027 H 
ATOM     60  H   UNL     1     -50.447  30.527  18.744  1.00  0.00     0.030 H 
ENDBRANCH  43  46
ENDBRANCH  41  43
ENDBRANCH  38  41
ENDBRANCH   6  38
TORSDOF 7
ENDMDL
