MODEL 1
REMARK VINA RESULT:     -10.5      0.000      0.000
REMARK SMILES Cn1ccc(-c2cn(-c3cncc(COc4ccc5ccc(N6CC(N)C6)nc5c4)c3)c3ncnc(N)c23)n1
REMARK SMILES IDX 14 1 13 4 9 5 10 6 31 7 11 8 12 11 8 13 6 14 7 15 38 16
REMARK SMILES IDX 32 18 36 19 33 20 35 21 34 22 5 24 2 25 3 26 39 27 4 28 1 31
REMARK SMILES IDX 37 35 15 38 16 39 17 40 30 41 18 42 29 44 19 46 28 48 20 49
REMARK SMILES IDX 22 50 21 51 23 54 24 55 27 56 25 57 26 63
REMARK H PARENT 14 2 14 3 10 9 31 10 12 12 7 17 34 23 3 29 4 30 1 32 1 33 1 34
REMARK H PARENT 37 36 37 37 17 43 30 45 18 47 20 52 21 53 24 58 24 59 27 60
REMARK H PARENT 27 61 25 62 26 64 26 65
REMARK Flexibility Score: inf
ROOT
ATOM      1  C   UNL     1     -46.800  34.180  27.092  1.00  0.00     0.115 C 
ATOM      2  H   UNL     1     -47.688  33.553  27.236  1.00  0.00     0.076 H 
ATOM      3  H   UNL     1     -46.061  33.830  27.823  1.00  0.00     0.076 H 
ENDROOT
BRANCH   1   4
ATOM      4  C   UNL     1     -47.214  35.609  27.335  1.00  0.00     0.010 A 
ATOM      5  C   UNL     1     -46.730  37.992  27.515  1.00  0.00     0.066 A 
ATOM      6  C   UNL     1     -48.093  38.178  27.712  1.00  0.00     0.051 A 
ATOM      7  C   UNL     1     -46.298  36.672  27.316  1.00  0.00    -0.028 A 
ATOM      8  N   UNL     1     -49.010  37.174  27.717  1.00  0.00    -0.262 NA
ATOM      9  H   UNL     1     -48.546  39.146  27.892  1.00  0.00     0.086 H 
ATOM     10  H   UNL     1     -45.255  36.431  27.135  1.00  0.00     0.065 H 
ATOM     11  C   UNL     1     -48.551  35.922  27.527  1.00  0.00     0.034 A 
ATOM     12  H   UNL     1     -49.321  35.154  27.535  1.00  0.00     0.084 H 
BRANCH   5  13
ATOM     13  N   UNL     1     -45.802  39.084  27.517  1.00  0.00    -0.299 N 
ATOM     14  C   UNL     1     -44.784  41.002  26.903  1.00  0.00     0.033 A 
ATOM     15  C   UNL     1     -45.789  40.113  26.592  1.00  0.00     0.021 A 
ATOM     16  C   UNL     1     -44.093  40.498  28.032  1.00  0.00     0.071 A 
ATOM     17  H   UNL     1     -46.487  40.161  25.769  1.00  0.00     0.083 H 
ATOM     18  C   UNL     1     -44.758  39.331  28.413  1.00  0.00     0.150 A 
ATOM     19  C   UNL     1     -42.969  40.862  28.796  1.00  0.00     0.137 A 
ATOM     20  N   UNL     1     -44.433  38.577  29.484  1.00  0.00    -0.218 NA
ATOM     21  N   UNL     1     -42.629  40.120  29.864  1.00  0.00    -0.219 NA
ATOM     22  C   UNL     1     -43.374  39.042  30.152  1.00  0.00     0.120 A 
ATOM     23  H   UNL     1     -43.073  38.476  31.029  1.00  0.00     0.106 H 
BRANCH  14  24
ATOM     24  C   UNL     1     -44.503  42.232  26.168  1.00  0.00     0.095 A 
ATOM     25  N   UNL     1     -44.049  44.255  25.769  1.00  0.00    -0.275 N 
ATOM     26  C   UNL     1     -44.049  43.658  24.543  1.00  0.00     0.025 A 
ATOM     27  N   UNL     1     -44.314  43.407  26.780  1.00  0.00    -0.173 NA
ATOM     28  C   UNL     1     -44.329  42.331  24.771  1.00  0.00    -0.016 A 
ATOM     29  H   UNL     1     -43.843  44.206  23.635  1.00  0.00     0.084 H 
ATOM     30  H   UNL     1     -44.393  41.543  24.032  1.00  0.00     0.066 H 
BRANCH  25  31
ATOM     31  C   UNL     1     -43.792  45.646  26.059  1.00  0.00     0.030 C 
ATOM     32  H   UNL     1     -43.975  45.814  27.124  1.00  0.00     0.048 H 
ATOM     33  H   UNL     1     -44.461  46.270  25.462  1.00  0.00     0.048 H 
ATOM     34  H   UNL     1     -42.751  45.864  25.807  1.00  0.00     0.048 H 
ENDBRANCH  25  31
ENDBRANCH  14  24
BRANCH  19  35
ATOM     35  N   UNL     1     -42.132  41.934  28.512  1.00  0.00    -0.383 N 
ATOM     36  H   UNL     1     -41.176  41.605  28.435  1.00  0.00     0.158 HD
ATOM     37  H   UNL     1     -42.451  42.507  27.739  1.00  0.00     0.158 HD
ENDBRANCH  19  35
ENDBRANCH   5  13
ENDBRANCH   1   4
BRANCH   1  38
ATOM     38  O   UNL     1     -46.350  33.942  25.755  1.00  0.00    -0.489 OA
BRANCH  38  39
ATOM     39  C   UNL     1     -46.709  32.774  25.140  1.00  0.00     0.122 A 
ATOM     40  C   UNL     1     -46.143  32.590  23.879  1.00  0.00    -0.019 A 
ATOM     41  C   UNL     1     -47.546  31.786  25.662  1.00  0.00     0.007 A 
ATOM     42  C   UNL     1     -46.420  31.438  23.145  1.00  0.00    -0.049 A 
ATOM     43  H   UNL     1     -45.484  33.348  23.465  1.00  0.00     0.066 H 
ATOM     44  C   UNL     1     -47.840  30.628  24.952  1.00  0.00     0.076 A 
ATOM     45  H   UNL     1     -47.990  31.878  26.647  1.00  0.00     0.069 H 
ATOM     46  C   UNL     1     -47.268  30.456  23.677  1.00  0.00     0.001 A 
ATOM     47  H   UNL     1     -45.972  31.313  22.163  1.00  0.00     0.063 H 
ATOM     48  N   UNL     1     -48.658  29.714  25.503  1.00  0.00    -0.231 NA
ATOM     49  C   UNL     1     -47.575  29.288  22.978  1.00  0.00    -0.049 A 
ATOM     50  C   UNL     1     -48.941  28.579  24.824  1.00  0.00     0.129 A 
ATOM     51  C   UNL     1     -48.420  28.344  23.556  1.00  0.00    -0.019 A 
ATOM     52  H   UNL     1     -47.167  29.104  21.988  1.00  0.00     0.063 H 
ATOM     53  H   UNL     1     -48.671  27.440  23.012  1.00  0.00     0.066 H 
BRANCH  50  54
ATOM     54  N   UNL     1     -49.804  27.639  25.415  1.00  0.00    -0.353 N 
ATOM     55  C   UNL     1     -49.412  26.732  26.463  1.00  0.00     0.036 C 
ATOM     56  C   UNL     1     -50.558  26.622  24.727  1.00  0.00     0.036 C 
ATOM     57  C   UNL     1     -50.631  25.870  26.073  1.00  0.00     0.040 C 
ATOM     58  H   UNL     1     -48.444  26.255  26.268  1.00  0.00     0.051 H 
ATOM     59  H   UNL     1     -49.413  27.188  27.457  1.00  0.00     0.051 H 
ATOM     60  H   UNL     1     -51.497  26.985  24.302  1.00  0.00     0.051 H 
ATOM     61  H   UNL     1     -49.968  26.113  23.957  1.00  0.00     0.051 H 
ATOM     62  H   UNL     1     -50.479  24.790  26.038  1.00  0.00     0.050 H 
BRANCH  57  63
ATOM     63  N   UNL     1     -51.826  26.305  26.824  1.00  0.00    -0.325 NA
ATOM     64  H   UNL     1     -51.598  26.782  27.695  1.00  0.00     0.119 HD
ATOM     65  H   UNL     1     -52.382  26.979  26.291  1.00  0.00     0.119 HD
ENDBRANCH  57  63
ENDBRANCH  50  54
ENDBRANCH  38  39
ENDBRANCH   1  38
TORSDOF 9
ENDMDL
MODEL 2
REMARK VINA RESULT:     -10.5      1.858      2.268
REMARK SMILES Cn1ccc(-c2cn(-c3cncc(COc4ccc5ccc(N6CC(N)C6)nc5c4)c3)c3ncnc(N)c23)n1
REMARK SMILES IDX 14 1 13 4 9 5 10 6 31 7 11 8 12 11 8 13 6 14 7 15 38 16
REMARK SMILES IDX 32 18 36 19 33 20 35 21 34 22 5 24 2 25 3 26 39 27 4 28 1 31
REMARK SMILES IDX 37 35 15 38 16 39 17 40 30 41 18 42 29 44 19 46 28 48 20 49
REMARK SMILES IDX 22 50 21 51 23 54 24 55 27 56 25 57 26 63
REMARK H PARENT 14 2 14 3 10 9 31 10 12 12 7 17 34 23 3 29 4 30 1 32 1 33 1 34
REMARK H PARENT 37 36 37 37 17 43 30 45 18 47 20 52 21 53 24 58 24 59 27 60
REMARK H PARENT 27 61 25 62 26 64 26 65
REMARK Flexibility Score: inf
ROOT
ATOM      1  C   UNL     1     -48.324  35.991  27.132  1.00  0.00     0.115 C 
ATOM      2  H   UNL     1     -48.074  36.064  26.066  1.00  0.00     0.076 H 
ATOM      3  H   UNL     1     -49.300  36.478  27.247  1.00  0.00     0.076 H 
ENDROOT
BRANCH   1   4
ATOM      4  C   UNL     1     -47.237  36.697  27.898  1.00  0.00     0.010 A 
ATOM      5  C   UNL     1     -45.657  38.530  28.205  1.00  0.00     0.066 A 
ATOM      6  C   UNL     1     -45.320  37.938  29.417  1.00  0.00     0.051 A 
ATOM      7  C   UNL     1     -46.645  37.886  27.444  1.00  0.00    -0.028 A 
ATOM      8  N   UNL     1     -45.886  36.799  29.896  1.00  0.00    -0.262 NA
ATOM      9  H   UNL     1     -44.562  38.330  30.085  1.00  0.00     0.086 H 
ATOM     10  H   UNL     1     -46.987  38.284  26.494  1.00  0.00     0.065 H 
ATOM     11  C   UNL     1     -46.826  36.211  29.131  1.00  0.00     0.034 A 
ATOM     12  H   UNL     1     -47.253  35.306  29.557  1.00  0.00     0.084 H 
BRANCH   5  13
ATOM     13  N   UNL     1     -45.032  39.734  27.743  1.00  0.00    -0.299 N 
ATOM     14  C   UNL     1     -44.647  41.585  26.511  1.00  0.00     0.033 A 
ATOM     15  C   UNL     1     -45.459  40.482  26.660  1.00  0.00     0.021 A 
ATOM     16  C   UNL     1     -43.632  41.513  27.497  1.00  0.00     0.071 A 
ATOM     17  H   UNL     1     -46.308  40.196  26.057  1.00  0.00     0.083 H 
ATOM     18  C   UNL     1     -43.908  40.380  28.266  1.00  0.00     0.150 A 
ATOM     19  C   UNL     1     -42.488  42.251  27.849  1.00  0.00     0.137 A 
ATOM     20  N   UNL     1     -43.195  39.990  29.342  1.00  0.00    -0.218 NA
ATOM     21  N   UNL     1     -41.763  41.875  28.917  1.00  0.00    -0.219 NA
ATOM     22  C   UNL     1     -42.155  40.790  29.601  1.00  0.00     0.120 A 
ATOM     23  H   UNL     1     -41.551  40.526  30.464  1.00  0.00     0.106 H 
BRANCH  14  24
ATOM     24  C   UNL     1     -44.825  42.620  25.497  1.00  0.00     0.095 A 
ATOM     25  N   UNL     1     -44.475  43.833  23.805  1.00  0.00    -0.275 N 
ATOM     26  C   UNL     1     -45.699  44.226  24.258  1.00  0.00     0.025 A 
ATOM     27  N   UNL     1     -43.922  42.848  24.537  1.00  0.00    -0.173 NA
ATOM     28  C   UNL     1     -45.963  43.442  25.357  1.00  0.00    -0.016 A 
ATOM     29  H   UNL     1     -46.273  45.001  23.770  1.00  0.00     0.084 H 
ATOM     30  H   UNL     1     -46.856  43.458  25.968  1.00  0.00     0.066 H 
BRANCH  25  31
ATOM     31  C   UNL     1     -43.763  44.351  22.661  1.00  0.00     0.030 C 
ATOM     32  H   UNL     1     -44.467  44.441  21.829  1.00  0.00     0.048 H 
ATOM     33  H   UNL     1     -42.956  43.663  22.394  1.00  0.00     0.048 H 
ATOM     34  H   UNL     1     -43.350  45.328  22.925  1.00  0.00     0.048 H 
ENDBRANCH  25  31
ENDBRANCH  14  24
BRANCH  19  35
ATOM     35  N   UNL     1     -42.005  43.348  27.146  1.00  0.00    -0.383 N 
ATOM     36  H   UNL     1     -41.781  44.094  27.795  1.00  0.00     0.158 HD
ATOM     37  H   UNL     1     -41.270  43.118  26.487  1.00  0.00     0.158 HD
ENDBRANCH  19  35
ENDBRANCH   5  13
ENDBRANCH   1   4
BRANCH   1  38
ATOM     38  O   UNL     1     -48.410  34.594  27.431  1.00  0.00    -0.489 OA
BRANCH  38  39
ATOM     39  C   UNL     1     -48.070  33.692  26.460  1.00  0.00     0.122 A 
ATOM     40  C   UNL     1     -46.844  33.943  25.845  1.00  0.00    -0.019 A 
ATOM     41  C   UNL     1     -48.813  32.577  26.069  1.00  0.00     0.007 A 
ATOM     42  C   UNL     1     -46.374  33.097  24.844  1.00  0.00    -0.049 A 
ATOM     43  H   UNL     1     -46.253  34.804  26.147  1.00  0.00     0.066 H 
ATOM     44  C   UNL     1     -48.369  31.717  25.072  1.00  0.00     0.076 A 
ATOM     45  H   UNL     1     -49.762  32.332  26.535  1.00  0.00     0.069 H 
ATOM     46  C   UNL     1     -47.133  31.984  24.454  1.00  0.00     0.001 A 
ATOM     47  H   UNL     1     -45.416  33.309  24.374  1.00  0.00     0.063 H 
ATOM     48  N   UNL     1     -49.130  30.662  24.732  1.00  0.00    -0.231 NA
ATOM     49  C   UNL     1     -46.702  31.109  23.454  1.00  0.00    -0.049 A 
ATOM     50  C   UNL     1     -48.700  29.813  23.771  1.00  0.00     0.129 A 
ATOM     51  C   UNL     1     -47.494  30.018  23.110  1.00  0.00    -0.019 A 
ATOM     52  H   UNL     1     -45.759  31.269  22.939  1.00  0.00     0.063 H 
ATOM     53  H   UNL     1     -47.171  29.343  22.326  1.00  0.00     0.066 H 
BRANCH  50  54
ATOM     54  N   UNL     1     -49.515  28.721  23.425  1.00  0.00    -0.353 N 
ATOM     55  C   UNL     1     -49.194  27.770  22.390  1.00  0.00     0.036 C 
ATOM     56  C   UNL     1     -50.900  28.779  23.032  1.00  0.00     0.036 C 
ATOM     57  C   UNL     1     -50.693  27.403  22.364  1.00  0.00     0.040 C 
ATOM     58  H   UNL     1     -48.833  28.251  21.473  1.00  0.00     0.051 H 
ATOM     59  H   UNL     1     -48.491  26.997  22.712  1.00  0.00     0.051 H 
ATOM     60  H   UNL     1     -51.594  28.830  23.875  1.00  0.00     0.051 H 
ATOM     61  H   UNL     1     -51.101  29.597  22.330  1.00  0.00     0.051 H 
ATOM     62  H   UNL     1     -51.147  27.263  21.382  1.00  0.00     0.050 H 
BRANCH  57  63
ATOM     63  N   UNL     1     -50.974  26.328  23.338  1.00  0.00    -0.325 NA
ATOM     64  H   UNL     1     -50.360  26.357  24.150  1.00  0.00     0.119 HD
ATOM     65  H   UNL     1     -51.921  26.402  23.719  1.00  0.00     0.119 HD
ENDBRANCH  57  63
ENDBRANCH  50  54
ENDBRANCH  38  39
ENDBRANCH   1  38
TORSDOF 9
ENDMDL
MODEL 3
REMARK VINA RESULT:     -10.4      1.824     12.651
REMARK SMILES Cn1ccc(-c2cn(-c3cncc(COc4ccc5ccc(N6CC(N)C6)nc5c4)c3)c3ncnc(N)c23)n1
REMARK SMILES IDX 14 1 13 4 9 5 10 6 31 7 11 8 12 11 8 13 6 14 7 15 38 16
REMARK SMILES IDX 32 18 36 19 33 20 35 21 34 22 5 24 2 25 3 26 39 27 4 28 1 31
REMARK SMILES IDX 37 35 15 38 16 39 17 40 30 41 18 42 29 44 19 46 28 48 20 49
REMARK SMILES IDX 22 50 21 51 23 54 24 55 27 56 25 57 26 63
REMARK H PARENT 14 2 14 3 10 9 31 10 12 12 7 17 34 23 3 29 4 30 1 32 1 33 1 34
REMARK H PARENT 37 36 37 37 17 43 30 45 18 47 20 52 21 53 24 58 24 59 27 60
REMARK H PARENT 27 61 25 62 26 64 26 65
REMARK Flexibility Score: inf
ROOT
ATOM      1  C   UNL     1     -45.662  35.974  27.931  1.00  0.00     0.115 C 
ATOM      2  H   UNL     1     -45.098  36.370  27.077  1.00  0.00     0.076 H 
ATOM      3  H   UNL     1     -44.987  35.273  28.439  1.00  0.00     0.076 H 
ENDROOT
BRANCH   1   4
ATOM      4  C   UNL     1     -46.889  35.292  27.383  1.00  0.00     0.010 A 
ATOM      5  C   UNL     1     -48.004  33.435  26.262  1.00  0.00     0.066 A 
ATOM      6  C   UNL     1     -49.197  34.109  26.496  1.00  0.00     0.051 A 
ATOM      7  C   UNL     1     -46.833  34.051  26.730  1.00  0.00    -0.028 A 
ATOM      8  N   UNL     1     -49.290  35.301  27.141  1.00  0.00    -0.262 NA
ATOM      9  H   UNL     1     -50.164  33.744  26.170  1.00  0.00     0.086 H 
ATOM     10  H   UNL     1     -45.857  33.591  26.611  1.00  0.00     0.065 H 
ATOM     11  C   UNL     1     -48.141  35.859  27.568  1.00  0.00     0.034 A 
ATOM     12  H   UNL     1     -48.265  36.810  28.082  1.00  0.00     0.084 H 
BRANCH   5  13
ATOM     13  N   UNL     1     -47.958  32.177  25.578  1.00  0.00    -0.299 N 
ATOM     14  C   UNL     1     -48.418  30.031  25.052  1.00  0.00     0.033 A 
ATOM     15  C   UNL     1     -48.682  31.054  25.936  1.00  0.00     0.021 A 
ATOM     16  C   UNL     1     -47.449  30.495  24.128  1.00  0.00     0.071 A 
ATOM     17  H   UNL     1     -49.342  31.039  26.791  1.00  0.00     0.083 H 
ATOM     18  C   UNL     1     -47.204  31.832  24.452  1.00  0.00     0.150 A 
ATOM     19  C   UNL     1     -46.720  29.963  23.050  1.00  0.00     0.137 A 
ATOM     20  N   UNL     1     -46.371  32.646  23.772  1.00  0.00    -0.218 NA
ATOM     21  N   UNL     1     -45.883  30.760  22.363  1.00  0.00    -0.219 NA
ATOM     22  C   UNL     1     -45.765  32.040  22.746  1.00  0.00     0.120 A 
ATOM     23  H   UNL     1     -45.088  32.653  22.159  1.00  0.00     0.106 H 
BRANCH  14  24
ATOM     24  C   UNL     1     -49.039  28.710  25.096  1.00  0.00     0.095 A 
ATOM     25  N   UNL     1     -49.404  26.697  25.615  1.00  0.00    -0.275 N 
ATOM     26  C   UNL     1     -50.454  27.038  24.815  1.00  0.00     0.025 A 
ATOM     27  N   UNL     1     -48.530  27.700  25.810  1.00  0.00    -0.173 NA
ATOM     28  C   UNL     1     -50.252  28.354  24.469  1.00  0.00    -0.016 A 
ATOM     29  H   UNL     1     -51.244  26.342  24.573  1.00  0.00     0.084 H 
ATOM     30  H   UNL     1     -50.894  28.971  23.855  1.00  0.00     0.066 H 
BRANCH  25  31
ATOM     31  C   UNL     1     -49.169  25.419  26.244  1.00  0.00     0.030 C 
ATOM     32  H   UNL     1     -49.777  24.667  25.735  1.00  0.00     0.048 H 
ATOM     33  H   UNL     1     -49.451  25.477  27.299  1.00  0.00     0.048 H 
ATOM     34  H   UNL     1     -48.106  25.181  26.154  1.00  0.00     0.048 H 
ENDBRANCH  25  31
ENDBRANCH  14  24
BRANCH  19  35
ATOM     35  N   UNL     1     -46.762  28.635  22.644  1.00  0.00    -0.383 N 
ATOM     36  H   UNL     1     -47.289  28.562  21.781  1.00  0.00     0.158 HD
ATOM     37  H   UNL     1     -45.854  28.185  22.631  1.00  0.00     0.158 HD
ENDBRANCH  19  35
ENDBRANCH   5  13
ENDBRANCH   1   4
BRANCH   1  38
ATOM     38  O   UNL     1     -45.964  37.093  28.769  1.00  0.00    -0.489 OA
BRANCH  38  39
ATOM     39  C   UNL     1     -45.120  38.169  28.758  1.00  0.00     0.122 A 
ATOM     40  C   UNL     1     -44.295  38.266  29.878  1.00  0.00    -0.019 A 
ATOM     41  C   UNL     1     -45.011  39.125  27.746  1.00  0.00     0.007 A 
ATOM     42  C   UNL     1     -43.382  39.312  29.990  1.00  0.00    -0.049 A 
ATOM     43  H   UNL     1     -44.365  37.523  30.668  1.00  0.00     0.066 H 
ATOM     44  C   UNL     1     -44.110  40.180  27.833  1.00  0.00     0.076 A 
ATOM     45  H   UNL     1     -45.617  39.077  26.848  1.00  0.00     0.069 H 
ATOM     46  C   UNL     1     -43.287  40.271  28.971  1.00  0.00     0.001 A 
ATOM     47  H   UNL     1     -42.748  39.372  30.871  1.00  0.00     0.063 H 
ATOM     48  N   UNL     1     -44.053  41.075  26.831  1.00  0.00    -0.231 NA
ATOM     49  C   UNL     1     -42.388  41.337  29.041  1.00  0.00    -0.049 A 
ATOM     50  C   UNL     1     -43.172  42.098  26.902  1.00  0.00     0.129 A 
ATOM     51  C   UNL     1     -42.333  42.257  28.000  1.00  0.00    -0.019 A 
ATOM     52  H   UNL     1     -41.732  41.460  29.899  1.00  0.00     0.063 H 
ATOM     53  H   UNL     1     -41.646  43.094  28.054  1.00  0.00     0.066 H 
BRANCH  50  54
ATOM     54  N   UNL     1     -43.134  43.027  25.847  1.00  0.00    -0.353 N 
ATOM     55  C   UNL     1     -43.870  42.881  24.616  1.00  0.00     0.036 C 
ATOM     56  C   UNL     1     -41.955  43.495  25.162  1.00  0.00     0.036 C 
ATOM     57  C   UNL     1     -42.880  43.887  23.990  1.00  0.00     0.040 C 
ATOM     58  H   UNL     1     -43.803  41.867  24.203  1.00  0.00     0.051 H 
ATOM     59  H   UNL     1     -44.917  43.186  24.696  1.00  0.00     0.051 H 
ATOM     60  H   UNL     1     -41.436  44.302  25.685  1.00  0.00     0.051 H 
ATOM     61  H   UNL     1     -41.255  42.683  24.934  1.00  0.00     0.051 H 
ATOM     62  H   UNL     1     -42.519  43.660  22.986  1.00  0.00     0.050 H 
BRANCH  57  63
ATOM     63  N   UNL     1     -43.367  45.268  24.179  1.00  0.00    -0.325 NA
ATOM     64  H   UNL     1     -43.736  45.681  23.323  1.00  0.00     0.119 HD
ATOM     65  H   UNL     1     -44.142  45.308  24.846  1.00  0.00     0.119 HD
ENDBRANCH  57  63
ENDBRANCH  50  54
ENDBRANCH  38  39
ENDBRANCH   1  38
TORSDOF 9
ENDMDL
MODEL 4
REMARK VINA RESULT:     -10.0      2.099      3.074
REMARK SMILES Cn1ccc(-c2cn(-c3cncc(COc4ccc5ccc(N6CC(N)C6)nc5c4)c3)c3ncnc(N)c23)n1
REMARK SMILES IDX 14 1 13 4 9 5 10 6 31 7 11 8 12 11 8 13 6 14 7 15 38 16
REMARK SMILES IDX 32 18 36 19 33 20 35 21 34 22 5 24 2 25 3 26 39 27 4 28 1 31
REMARK SMILES IDX 37 35 15 38 16 39 17 40 30 41 18 42 29 44 19 46 28 48 20 49
REMARK SMILES IDX 22 50 21 51 23 54 24 55 27 56 25 57 26 63
REMARK H PARENT 14 2 14 3 10 9 31 10 12 12 7 17 34 23 3 29 4 30 1 32 1 33 1 34
REMARK H PARENT 37 36 37 37 17 43 30 45 18 47 20 52 21 53 24 58 24 59 27 60
REMARK H PARENT 27 61 25 62 26 64 26 65
REMARK Flexibility Score: inf
ROOT
ATOM      1  C   UNL     1     -48.157  35.261  26.882  1.00  0.00     0.115 C 
ATOM      2  H   UNL     1     -48.156  35.327  25.787  1.00  0.00     0.076 H 
ATOM      3  H   UNL     1     -49.173  35.526  27.200  1.00  0.00     0.076 H 
ENDROOT
BRANCH   1   4
ATOM      4  C   UNL     1     -47.125  36.234  27.392  1.00  0.00     0.010 A 
ATOM      5  C   UNL     1     -46.037  38.416  27.397  1.00  0.00     0.066 A 
ATOM      6  C   UNL     1     -45.265  37.945  28.453  1.00  0.00     0.051 A 
ATOM      7  C   UNL     1     -46.990  37.530  26.872  1.00  0.00    -0.028 A 
ATOM      8  N   UNL     1     -45.383  36.704  28.994  1.00  0.00    -0.262 NA
ATOM      9  H   UNL     1     -44.487  38.527  28.933  1.00  0.00     0.086 H 
ATOM     10  H   UNL     1     -47.651  37.815  26.060  1.00  0.00     0.065 H 
ATOM     11  C   UNL     1     -46.306  35.884  28.455  1.00  0.00     0.034 A 
ATOM     12  H   UNL     1     -46.366  34.904  28.923  1.00  0.00     0.084 H 
BRANCH   5  13
ATOM     13  N   UNL     1     -45.876  39.735  26.863  1.00  0.00    -0.299 N 
ATOM     14  C   UNL     1     -44.893  41.540  25.929  1.00  0.00     0.033 A 
ATOM     15  C   UNL     1     -44.686  40.259  26.391  1.00  0.00     0.021 A 
ATOM     16  C   UNL     1     -46.251  41.871  26.164  1.00  0.00     0.071 A 
ATOM     17  H   UNL     1     -43.761  39.701  26.407  1.00  0.00     0.083 H 
ATOM     18  C   UNL     1     -46.846  40.731  26.710  1.00  0.00     0.150 A 
ATOM     19  C   UNL     1     -47.077  42.997  26.000  1.00  0.00     0.137 A 
ATOM     20  N   UNL     1     -48.152  40.625  27.030  1.00  0.00    -0.218 NA
ATOM     21  N   UNL     1     -48.381  42.910  26.316  1.00  0.00    -0.219 NA
ATOM     22  C   UNL     1     -48.843  41.746  26.795  1.00  0.00     0.120 A 
ATOM     23  H   UNL     1     -49.903  41.713  27.027  1.00  0.00     0.106 H 
BRANCH  14  24
ATOM     24  C   UNL     1     -43.868  42.383  25.322  1.00  0.00     0.095 A 
ATOM     25  N   UNL     1     -42.867  43.609  23.924  1.00  0.00    -0.275 N 
ATOM     26  C   UNL     1     -42.066  43.625  25.026  1.00  0.00     0.025 A 
ATOM     27  N   UNL     1     -43.979  42.866  24.079  1.00  0.00    -0.173 NA
ATOM     28  C   UNL     1     -42.699  42.844  25.964  1.00  0.00    -0.016 A 
ATOM     29  H   UNL     1     -41.142  44.185  25.059  1.00  0.00     0.084 H 
ATOM     30  H   UNL     1     -42.366  42.640  26.973  1.00  0.00     0.066 H 
BRANCH  25  31
ATOM     31  C   UNL     1     -42.641  44.293  22.673  1.00  0.00     0.030 C 
ATOM     32  H   UNL     1     -43.411  43.978  21.964  1.00  0.00     0.048 H 
ATOM     33  H   UNL     1     -41.652  44.031  22.290  1.00  0.00     0.048 H 
ATOM     34  H   UNL     1     -42.699  45.370  22.854  1.00  0.00     0.048 H 
ENDBRANCH  25  31
ENDBRANCH  14  24
BRANCH  19  35
ATOM     35  N   UNL     1     -46.642  44.242  25.561  1.00  0.00    -0.383 N 
ATOM     36  H   UNL     1     -46.531  44.861  26.356  1.00  0.00     0.158 HD
ATOM     37  H   UNL     1     -45.844  44.197  24.938  1.00  0.00     0.158 HD
ENDBRANCH  19  35
ENDBRANCH   5  13
ENDBRANCH   1   4
BRANCH   1  38
ATOM     38  O   UNL     1     -47.857  33.900  27.204  1.00  0.00    -0.489 OA
BRANCH  38  39
ATOM     39  C   UNL     1     -47.739  32.994  26.185  1.00  0.00     0.122 A 
ATOM     40  C   UNL     1     -46.565  33.114  25.442  1.00  0.00    -0.019 A 
ATOM     41  C   UNL     1     -48.653  31.991  25.859  1.00  0.00     0.007 A 
ATOM     42  C   UNL     1     -46.315  32.249  24.379  1.00  0.00    -0.049 A 
ATOM     43  H   UNL     1     -45.842  33.886  25.692  1.00  0.00     0.066 H 
ATOM     44  C   UNL     1     -48.430  31.115  24.803  1.00  0.00     0.076 A 
ATOM     45  H   UNL     1     -49.568  31.848  26.423  1.00  0.00     0.069 H 
ATOM     46  C   UNL     1     -47.244  31.249  24.056  1.00  0.00     0.001 A 
ATOM     47  H   UNL     1     -45.395  32.358  23.810  1.00  0.00     0.063 H 
ATOM     48  N   UNL     1     -49.348  30.172  24.531  1.00  0.00    -0.231 NA
ATOM     49  C   UNL     1     -47.036  30.362  22.999  1.00  0.00    -0.049 A 
ATOM     50  C   UNL     1     -49.134  29.309  23.512  1.00  0.00     0.129 A 
ATOM     51  C   UNL     1     -47.990  29.386  22.725  1.00  0.00    -0.019 A 
ATOM     52  H   UNL     1     -46.142  30.422  22.385  1.00  0.00     0.063 H 
ATOM     53  H   UNL     1     -47.840  28.702  21.897  1.00  0.00     0.066 H 
BRANCH  50  54
ATOM     54  N   UNL     1     -50.111  28.335  23.239  1.00  0.00    -0.353 N 
ATOM     55  C   UNL     1     -51.280  28.570  22.430  1.00  0.00     0.036 C 
ATOM     56  C   UNL     1     -50.856  27.577  24.212  1.00  0.00     0.036 C 
ATOM     57  C   UNL     1     -51.908  27.334  23.109  1.00  0.00     0.040 C 
ATOM     58  H   UNL     1     -51.777  29.517  22.672  1.00  0.00     0.051 H 
ATOM     59  H   UNL     1     -51.086  28.511  21.356  1.00  0.00     0.051 H 
ATOM     60  H   UNL     1     -50.319  26.706  24.595  1.00  0.00     0.051 H 
ATOM     61  H   UNL     1     -51.209  28.198  25.044  1.00  0.00     0.051 H 
ATOM     62  H   UNL     1     -52.955  27.416  23.406  1.00  0.00     0.050 H 
BRANCH  57  63
ATOM     63  N   UNL     1     -51.569  26.109  22.357  1.00  0.00    -0.325 NA
ATOM     64  H   UNL     1     -51.702  25.258  22.901  1.00  0.00     0.119 HD
ATOM     65  H   UNL     1     -52.167  25.993  21.535  1.00  0.00     0.119 HD
ENDBRANCH  57  63
ENDBRANCH  50  54
ENDBRANCH  38  39
ENDBRANCH   1  38
TORSDOF 9
ENDMDL
MODEL 5
REMARK VINA RESULT:     -10.0      1.992     13.135
REMARK SMILES Cn1ccc(-c2cn(-c3cncc(COc4ccc5ccc(N6CC(N)C6)nc5c4)c3)c3ncnc(N)c23)n1
REMARK SMILES IDX 14 1 13 4 9 5 10 6 31 7 11 8 12 11 8 13 6 14 7 15 38 16
REMARK SMILES IDX 32 18 36 19 33 20 35 21 34 22 5 24 2 25 3 26 39 27 4 28 1 31
REMARK SMILES IDX 37 35 15 38 16 39 17 40 30 41 18 42 29 44 19 46 28 48 20 49
REMARK SMILES IDX 22 50 21 51 23 54 24 55 27 56 25 57 26 63
REMARK H PARENT 14 2 14 3 10 9 31 10 12 12 7 17 34 23 3 29 4 30 1 32 1 33 1 34
REMARK H PARENT 37 36 37 37 17 43 30 45 18 47 20 52 21 53 24 58 24 59 27 60
REMARK H PARENT 27 61 25 62 26 64 26 65
REMARK Flexibility Score: inf
ROOT
ATOM      1  C   UNL     1     -48.090  34.960  27.337  1.00  0.00     0.115 C 
ATOM      2  H   UNL     1     -47.403  34.852  28.185  1.00  0.00     0.076 H 
ATOM      3  H   UNL     1     -49.090  34.728  27.726  1.00  0.00     0.076 H 
ENDROOT
BRANCH   1   4
ATOM      4  C   UNL     1     -47.650  33.988  26.273  1.00  0.00     0.010 A 
ATOM      5  C   UNL     1     -47.962  31.978  24.929  1.00  0.00     0.066 A 
ATOM      6  C   UNL     1     -46.792  32.330  24.266  1.00  0.00     0.051 A 
ATOM      7  C   UNL     1     -48.391  32.841  25.948  1.00  0.00    -0.028 A 
ATOM      8  N   UNL     1     -46.061  33.441  24.542  1.00  0.00    -0.262 NA
ATOM      9  H   UNL     1     -46.351  31.737  23.473  1.00  0.00     0.086 H 
ATOM     10  H   UNL     1     -49.303  32.659  26.507  1.00  0.00     0.065 H 
ATOM     11  C   UNL     1     -46.506  34.240  25.531  1.00  0.00     0.034 A 
ATOM     12  H   UNL     1     -45.891  35.118  25.713  1.00  0.00     0.084 H 
BRANCH   5  13
ATOM     13  N   UNL     1     -48.700  30.794  24.599  1.00  0.00    -0.299 N 
ATOM     14  C   UNL     1     -49.617  28.742  24.802  1.00  0.00     0.033 A 
ATOM     15  C   UNL     1     -48.823  29.685  25.417  1.00  0.00     0.021 A 
ATOM     16  C   UNL     1     -49.971  29.240  23.524  1.00  0.00     0.071 A 
ATOM     17  H   UNL     1     -48.344  29.622  26.383  1.00  0.00     0.083 H 
ATOM     18  C   UNL     1     -49.421  30.520  23.433  1.00  0.00     0.150 A 
ATOM     19  C   UNL     1     -50.681  28.778  22.401  1.00  0.00     0.137 A 
ATOM     20  N   UNL     1     -49.575  31.350  22.380  1.00  0.00    -0.218 NA
ATOM     21  N   UNL     1     -50.842  29.590  21.342  1.00  0.00    -0.219 NA
ATOM     22  C   UNL     1     -50.300  30.815  21.392  1.00  0.00     0.120 A 
ATOM     23  H   UNL     1     -50.463  31.445  20.522  1.00  0.00     0.106 H 
BRANCH  14  24
ATOM     24  C   UNL     1     -49.999  27.461  25.390  1.00  0.00     0.095 A 
ATOM     25  N   UNL     1     -51.160  25.960  26.315  1.00  0.00    -0.275 N 
ATOM     26  C   UNL     1     -49.980  25.344  26.020  1.00  0.00     0.025 A 
ATOM     27  N   UNL     1     -51.202  27.250  25.934  1.00  0.00    -0.173 NA
ATOM     28  C   UNL     1     -49.203  26.296  25.401  1.00  0.00    -0.016 A 
ATOM     29  H   UNL     1     -49.798  24.305  26.254  1.00  0.00     0.084 H 
ATOM     30  H   UNL     1     -48.203  26.165  25.009  1.00  0.00     0.066 H 
BRANCH  25  31
ATOM     31  C   UNL     1     -52.310  25.373  26.959  1.00  0.00     0.030 C 
ATOM     32  H   UNL     1     -53.183  25.993  26.737  1.00  0.00     0.048 H 
ATOM     33  H   UNL     1     -52.143  25.337  28.038  1.00  0.00     0.048 H 
ATOM     34  H   UNL     1     -52.446  24.362  26.567  1.00  0.00     0.048 H 
ENDBRANCH  25  31
ENDBRANCH  14  24
BRANCH  19  35
ATOM     35  N   UNL     1     -51.216  27.501  22.273  1.00  0.00    -0.383 N 
ATOM     36  H   UNL     1     -50.605  26.935  21.695  1.00  0.00     0.158 HD
ATOM     37  H   UNL     1     -51.483  27.081  23.156  1.00  0.00     0.158 HD
ENDBRANCH  19  35
ENDBRANCH   5  13
ENDBRANCH   1   4
BRANCH   1  38
ATOM     38  O   UNL     1     -48.007  36.327  26.922  1.00  0.00    -0.489 OA
BRANCH  38  39
ATOM     39  C   UNL     1     -47.012  37.111  27.438  1.00  0.00     0.122 A 
ATOM     40  C   UNL     1     -46.484  36.652  28.644  1.00  0.00    -0.019 A 
ATOM     41  C   UNL     1     -46.492  38.274  26.866  1.00  0.00     0.007 A 
ATOM     42  C   UNL     1     -45.459  37.353  29.276  1.00  0.00    -0.049 A 
ATOM     43  H   UNL     1     -46.875  35.743  29.096  1.00  0.00     0.066 H 
ATOM     44  C   UNL     1     -45.471  38.993  27.474  1.00  0.00     0.076 A 
ATOM     45  H   UNL     1     -46.858  38.655  25.919  1.00  0.00     0.069 H 
ATOM     46  C   UNL     1     -44.951  38.524  28.695  1.00  0.00     0.001 A 
ATOM     47  H   UNL     1     -45.061  36.981  30.216  1.00  0.00     0.063 H 
ATOM     48  N   UNL     1     -45.015  40.110  26.880  1.00  0.00    -0.231 NA
ATOM     49  C   UNL     1     -43.926  39.260  29.292  1.00  0.00    -0.049 A 
ATOM     50  C   UNL     1     -44.014  40.811  27.460  1.00  0.00     0.129 A 
ATOM     51  C   UNL     1     -43.457  40.412  28.670  1.00  0.00    -0.019 A 
ATOM     52  H   UNL     1     -43.490  38.947  30.238  1.00  0.00     0.063 H 
ATOM     53  H   UNL     1     -42.669  40.995  29.135  1.00  0.00     0.066 H 
BRANCH  50  54
ATOM     54  N   UNL     1     -43.556  41.979  26.825  1.00  0.00    -0.353 N 
ATOM     55  C   UNL     1     -43.958  42.390  25.503  1.00  0.00     0.036 C 
ATOM     56  C   UNL     1     -42.182  42.342  26.591  1.00  0.00     0.036 C 
ATOM     57  C   UNL     1     -42.694  43.276  25.474  1.00  0.00     0.040 C 
ATOM     58  H   UNL     1     -43.944  41.563  24.783  1.00  0.00     0.051 H 
ATOM     59  H   UNL     1     -44.928  42.893  25.479  1.00  0.00     0.051 H 
ATOM     60  H   UNL     1     -41.698  42.807  27.453  1.00  0.00     0.051 H 
ATOM     61  H   UNL     1     -41.582  41.497  26.234  1.00  0.00     0.051 H 
ATOM     62  H   UNL     1     -42.123  43.285  24.545  1.00  0.00     0.050 H 
BRANCH  57  63
ATOM     63  N   UNL     1     -42.992  44.609  26.035  1.00  0.00    -0.325 NA
ATOM     64  H   UNL     1     -42.308  45.315  25.767  1.00  0.00     0.119 HD
ATOM     65  H   UNL     1     -43.889  44.968  25.700  1.00  0.00     0.119 HD
ENDBRANCH  57  63
ENDBRANCH  50  54
ENDBRANCH  38  39
ENDBRANCH   1  38
TORSDOF 9
ENDMDL
MODEL 6
REMARK VINA RESULT:      -9.7      2.397     12.435
REMARK SMILES Cn1ccc(-c2cn(-c3cncc(COc4ccc5ccc(N6CC(N)C6)nc5c4)c3)c3ncnc(N)c23)n1
REMARK SMILES IDX 14 1 13 4 9 5 10 6 31 7 11 8 12 11 8 13 6 14 7 15 38 16
REMARK SMILES IDX 32 18 36 19 33 20 35 21 34 22 5 24 2 25 3 26 39 27 4 28 1 31
REMARK SMILES IDX 37 35 15 38 16 39 17 40 30 41 18 42 29 44 19 46 28 48 20 49
REMARK SMILES IDX 22 50 21 51 23 54 24 55 27 56 25 57 26 63
REMARK H PARENT 14 2 14 3 10 9 31 10 12 12 7 17 34 23 3 29 4 30 1 32 1 33 1 34
REMARK H PARENT 37 36 37 37 17 43 30 45 18 47 20 52 21 53 24 58 24 59 27 60
REMARK H PARENT 27 61 25 62 26 64 26 65
REMARK Flexibility Score: inf
ROOT
ATOM      1  C   UNL     1     -48.156  36.301  27.865  1.00  0.00     0.115 C 
ATOM      2  H   UNL     1     -47.733  36.638  28.819  1.00  0.00     0.076 H 
ATOM      3  H   UNL     1     -49.241  36.240  28.020  1.00  0.00     0.076 H 
ENDROOT
BRANCH   1   4
ATOM      4  C   UNL     1     -47.547  34.958  27.552  1.00  0.00     0.010 A 
ATOM      5  C   UNL     1     -47.385  32.924  26.217  1.00  0.00     0.066 A 
ATOM      6  C   UNL     1     -46.311  32.569  27.025  1.00  0.00     0.051 A 
ATOM      7  C   UNL     1     -48.001  34.153  26.495  1.00  0.00    -0.028 A 
ATOM      8  N   UNL     1     -45.834  33.332  28.043  1.00  0.00    -0.262 NA
ATOM      9  H   UNL     1     -45.764  31.639  26.921  1.00  0.00     0.086 H 
ATOM     10  H   UNL     1     -48.834  34.523  25.906  1.00  0.00     0.065 H 
ATOM     11  C   UNL     1     -46.458  34.502  28.279  1.00  0.00     0.034 A 
ATOM     12  H   UNL     1     -46.038  35.080  29.100  1.00  0.00     0.084 H 
BRANCH   5  13
ATOM     13  N   UNL     1     -47.851  32.084  25.154  1.00  0.00    -0.299 N 
ATOM     14  C   UNL     1     -49.188  30.700  23.975  1.00  0.00     0.033 A 
ATOM     15  C   UNL     1     -49.044  31.384  25.162  1.00  0.00     0.021 A 
ATOM     16  C   UNL     1     -48.022  30.923  23.202  1.00  0.00     0.071 A 
ATOM     17  H   UNL     1     -49.723  31.408  26.001  1.00  0.00     0.083 H 
ATOM     18  C   UNL     1     -47.225  31.805  23.934  1.00  0.00     0.150 A 
ATOM     19  C   UNL     1     -47.509  30.486  21.967  1.00  0.00     0.137 A 
ATOM     20  N   UNL     1     -46.044  32.304  23.514  1.00  0.00    -0.218 NA
ATOM     21  N   UNL     1     -46.332  30.970  21.534  1.00  0.00    -0.219 NA
ATOM     22  C   UNL     1     -45.679  31.846  22.312  1.00  0.00     0.120 A 
ATOM     23  H   UNL     1     -44.738  32.222  21.921  1.00  0.00     0.106 H 
BRANCH  14  24
ATOM     24  C   UNL     1     -50.347  29.888  23.616  1.00  0.00     0.095 A 
ATOM     25  N   UNL     1     -51.510  28.238  22.996  1.00  0.00    -0.275 N 
ATOM     26  C   UNL     1     -52.424  29.192  23.331  1.00  0.00     0.025 A 
ATOM     27  N   UNL     1     -50.234  28.633  23.168  1.00  0.00    -0.173 NA
ATOM     28  C   UNL     1     -51.696  30.280  23.755  1.00  0.00    -0.016 A 
ATOM     29  H   UNL     1     -53.488  29.022  23.257  1.00  0.00     0.084 H 
ATOM     30  H   UNL     1     -52.085  31.222  24.118  1.00  0.00     0.066 H 
BRANCH  25  31
ATOM     31  C   UNL     1     -51.780  26.908  22.506  1.00  0.00     0.030 C 
ATOM     32  H   UNL     1     -52.863  26.764  22.479  1.00  0.00     0.048 H 
ATOM     33  H   UNL     1     -51.322  26.175  23.175  1.00  0.00     0.048 H 
ATOM     34  H   UNL     1     -51.353  26.817  21.503  1.00  0.00     0.048 H 
ENDBRANCH  25  31
ENDBRANCH  14  24
BRANCH  19  35
ATOM     35  N   UNL     1     -48.114  29.541  21.147  1.00  0.00    -0.383 N 
ATOM     36  H   UNL     1     -47.624  28.658  21.231  1.00  0.00     0.158 HD
ATOM     37  H   UNL     1     -49.119  29.487  21.262  1.00  0.00     0.158 HD
ENDBRANCH  19  35
ENDBRANCH   5  13
ENDBRANCH   1   4
BRANCH   1  38
ATOM     38  O   UNL     1     -47.832  37.307  26.901  1.00  0.00    -0.489 OA
BRANCH  38  39
ATOM     39  C   UNL     1     -46.795  38.159  27.164  1.00  0.00     0.122 A 
ATOM     40  C   UNL     1     -46.083  37.858  28.325  1.00  0.00    -0.019 A 
ATOM     41  C   UNL     1     -46.399  39.247  26.384  1.00  0.00     0.007 A 
ATOM     42  C   UNL     1     -44.996  38.642  28.706  1.00  0.00    -0.049 A 
ATOM     43  H   UNL     1     -46.376  37.008  28.935  1.00  0.00     0.066 H 
ATOM     44  C   UNL     1     -45.320  40.047  26.742  1.00  0.00     0.076 A 
ATOM     45  H   UNL     1     -46.911  39.505  25.464  1.00  0.00     0.069 H 
ATOM     46  C   UNL     1     -44.612  39.737  27.918  1.00  0.00     0.001 A 
ATOM     47  H   UNL     1     -44.454  38.394  29.614  1.00  0.00     0.063 H 
ATOM     48  N   UNL     1     -44.989  41.086  25.955  1.00  0.00    -0.231 NA
ATOM     49  C   UNL     1     -43.532  40.552  28.262  1.00  0.00    -0.049 A 
ATOM     50  C   UNL     1     -43.934  41.864  26.290  1.00  0.00     0.129 A 
ATOM     51  C   UNL     1     -43.193  41.624  27.442  1.00  0.00    -0.019 A 
ATOM     52  H   UNL     1     -42.953  40.363  29.162  1.00  0.00     0.063 H 
ATOM     53  H   UNL     1     -42.363  42.267  27.710  1.00  0.00     0.066 H 
BRANCH  50  54
ATOM     54  N   UNL     1     -43.608  42.950  25.457  1.00  0.00    -0.353 N 
ATOM     55  C   UNL     1     -43.866  42.985  24.040  1.00  0.00     0.036 C 
ATOM     56  C   UNL     1     -42.306  43.546  25.302  1.00  0.00     0.036 C 
ATOM     57  C   UNL     1     -42.802  44.099  23.949  1.00  0.00     0.040 C 
ATOM     58  H   UNL     1     -43.585  42.052  23.537  1.00  0.00     0.051 H 
ATOM     59  H   UNL     1     -44.897  43.250  23.791  1.00  0.00     0.051 H 
ATOM     60  H   UNL     1     -42.059  44.271  26.081  1.00  0.00     0.051 H 
ATOM     61  H   UNL     1     -41.510  42.796  25.219  1.00  0.00     0.051 H 
ATOM     62  H   UNL     1     -42.103  44.043  23.112  1.00  0.00     0.050 H 
BRANCH  57  63
ATOM     63  N   UNL     1     -43.427  45.422  24.149  1.00  0.00    -0.325 NA
ATOM     64  H   UNL     1     -42.969  45.973  24.873  1.00  0.00     0.119 HD
ATOM     65  H   UNL     1     -43.372  45.997  23.304  1.00  0.00     0.119 HD
ENDBRANCH  57  63
ENDBRANCH  50  54
ENDBRANCH  38  39
ENDBRANCH   1  38
TORSDOF 9
ENDMDL
MODEL 7
REMARK VINA RESULT:      -9.6      2.643      5.353
REMARK SMILES Cn1ccc(-c2cn(-c3cncc(COc4ccc5ccc(N6CC(N)C6)nc5c4)c3)c3ncnc(N)c23)n1
REMARK SMILES IDX 14 1 13 4 9 5 10 6 31 7 11 8 12 11 8 13 6 14 7 15 38 16
REMARK SMILES IDX 32 18 36 19 33 20 35 21 34 22 5 24 2 25 3 26 39 27 4 28 1 31
REMARK SMILES IDX 37 35 15 38 16 39 17 40 30 41 18 42 29 44 19 46 28 48 20 49
REMARK SMILES IDX 22 50 21 51 23 54 24 55 27 56 25 57 26 63
REMARK H PARENT 14 2 14 3 10 9 31 10 12 12 7 17 34 23 3 29 4 30 1 32 1 33 1 34
REMARK H PARENT 37 36 37 37 17 43 30 45 18 47 20 52 21 53 24 58 24 59 27 60
REMARK H PARENT 27 61 25 62 26 64 26 65
REMARK Flexibility Score: inf
ROOT
ATOM      1  C   UNL     1     -46.339  38.522  27.193  1.00  0.00     0.115 C 
ATOM      2  H   UNL     1     -46.669  38.520  26.147  1.00  0.00     0.076 H 
ATOM      3  H   UNL     1     -47.236  38.720  27.793  1.00  0.00     0.076 H 
ENDROOT
BRANCH   1   4
ATOM      4  C   UNL     1     -45.303  39.607  27.335  1.00  0.00     0.010 A 
ATOM      5  C   UNL     1     -44.355  41.773  26.738  1.00  0.00     0.066 A 
ATOM      6  C   UNL     1     -43.412  41.551  27.735  1.00  0.00     0.051 A 
ATOM      7  C   UNL     1     -45.320  40.772  26.552  1.00  0.00    -0.028 A 
ATOM      8  N   UNL     1     -43.378  40.445  28.524  1.00  0.00    -0.262 NA
ATOM      9  H   UNL     1     -42.608  42.241  27.964  1.00  0.00     0.086 H 
ATOM     10  H   UNL     1     -46.107  40.865  25.811  1.00  0.00     0.065 H 
ATOM     11  C   UNL     1     -44.320  39.507  28.308  1.00  0.00     0.034 A 
ATOM     12  H   UNL     1     -44.254  38.643  28.965  1.00  0.00     0.084 H 
BRANCH   5  13
ATOM     13  N   UNL     1     -44.350  42.958  25.933  1.00  0.00    -0.299 N 
ATOM     14  C   UNL     1     -44.141  44.292  24.125  1.00  0.00     0.033 A 
ATOM     15  C   UNL     1     -44.017  43.002  24.591  1.00  0.00     0.021 A 
ATOM     16  C   UNL     1     -44.513  45.114  25.217  1.00  0.00     0.071 A 
ATOM     17  H   UNL     1     -43.711  42.124  24.041  1.00  0.00     0.083 H 
ATOM     18  C   UNL     1     -44.667  44.265  26.315  1.00  0.00     0.150 A 
ATOM     19  C   UNL     1     -44.733  46.484  25.444  1.00  0.00     0.137 A 
ATOM     20  N   UNL     1     -45.066  44.661  27.542  1.00  0.00    -0.218 NA
ATOM     21  N   UNL     1     -45.128  46.897  26.661  1.00  0.00    -0.219 NA
ATOM     22  C   UNL     1     -45.281  45.977  27.625  1.00  0.00     0.120 A 
ATOM     23  H   UNL     1     -45.612  46.349  28.590  1.00  0.00     0.106 H 
BRANCH  14  24
ATOM     24  C   UNL     1     -43.911  44.705  22.743  1.00  0.00     0.095 A 
ATOM     25  N   UNL     1     -42.909  45.244  20.965  1.00  0.00    -0.275 N 
ATOM     26  C   UNL     1     -44.227  45.214  20.617  1.00  0.00     0.025 A 
ATOM     27  N   UNL     1     -42.686  44.930  22.254  1.00  0.00    -0.173 NA
ATOM     28  C   UNL     1     -44.908  44.851  21.755  1.00  0.00    -0.016 A 
ATOM     29  H   UNL     1     -44.563  45.433  19.614  1.00  0.00     0.084 H 
ATOM     30  H   UNL     1     -45.976  44.706  21.856  1.00  0.00     0.066 H 
BRANCH  25  31
ATOM     31  C   UNL     1     -41.790  45.560  20.109  1.00  0.00     0.030 C 
ATOM     32  H   UNL     1     -42.137  45.551  19.073  1.00  0.00     0.048 H 
ATOM     33  H   UNL     1     -41.006  44.811  20.247  1.00  0.00     0.048 H 
ATOM     34  H   UNL     1     -41.415  46.549  20.383  1.00  0.00     0.048 H 
ENDBRANCH  25  31
ENDBRANCH  14  24
BRANCH  19  35
ATOM     35  N   UNL     1     -44.537  47.485  24.499  1.00  0.00    -0.383 N 
ATOM     36  H   UNL     1     -45.376  47.592  23.941  1.00  0.00     0.158 HD
ATOM     37  H   UNL     1     -44.168  48.345  24.888  1.00  0.00     0.158 HD
ENDBRANCH  19  35
ENDBRANCH   5  13
ENDBRANCH   1   4
BRANCH   1  38
ATOM     38  O   UNL     1     -45.825  37.213  27.456  1.00  0.00    -0.489 OA
BRANCH  38  39
ATOM     39  C   UNL     1     -46.537  36.128  27.022  1.00  0.00     0.122 A 
ATOM     40  C   UNL     1     -47.877  36.128  27.405  1.00  0.00    -0.019 A 
ATOM     41  C   UNL     1     -46.050  35.077  26.242  1.00  0.00     0.007 A 
ATOM     42  C   UNL     1     -48.717  35.084  27.023  1.00  0.00    -0.049 A 
ATOM     43  H   UNL     1     -48.269  36.945  28.005  1.00  0.00     0.066 H 
ATOM     44  C   UNL     1     -46.865  34.023  25.848  1.00  0.00     0.076 A 
ATOM     45  H   UNL     1     -45.020  35.048  25.904  1.00  0.00     0.069 H 
ATOM     46  C   UNL     1     -48.215  34.030  26.246  1.00  0.00     0.001 A 
ATOM     47  H   UNL     1     -49.759  35.100  27.332  1.00  0.00     0.063 H 
ATOM     48  N   UNL     1     -46.340  33.034  25.103  1.00  0.00    -0.231 NA
ATOM     49  C   UNL     1     -49.019  32.963  25.842  1.00  0.00    -0.049 A 
ATOM     50  C   UNL     1     -47.129  32.010  24.706  1.00  0.00     0.129 A 
ATOM     51  C   UNL     1     -48.470  31.945  25.068  1.00  0.00    -0.019 A 
ATOM     52  H   UNL     1     -50.067  32.913  26.124  1.00  0.00     0.063 H 
ATOM     53  H   UNL     1     -49.086  31.107  24.761  1.00  0.00     0.066 H 
BRANCH  50  54
ATOM     54  N   UNL     1     -46.558  30.982  23.933  1.00  0.00    -0.353 N 
ATOM     55  C   UNL     1     -46.052  31.165  22.596  1.00  0.00     0.036 C 
ATOM     56  C   UNL     1     -47.173  29.723  23.599  1.00  0.00     0.036 C 
ATOM     57  C   UNL     1     -46.184  29.637  22.417  1.00  0.00     0.040 C 
ATOM     58  H   UNL     1     -46.730  31.752  21.966  1.00  0.00     0.051 H 
ATOM     59  H   UNL     1     -45.046  31.591  22.565  1.00  0.00     0.051 H 
ATOM     60  H   UNL     1     -47.084  28.969  24.385  1.00  0.00     0.051 H 
ATOM     61  H   UNL     1     -48.222  29.836  23.304  1.00  0.00     0.051 H 
ATOM     62  H   UNL     1     -46.590  29.288  21.466  1.00  0.00     0.050 H 
BRANCH  57  63
ATOM     63  N   UNL     1     -44.945  28.962  22.850  1.00  0.00    -0.325 NA
ATOM     64  H   UNL     1     -44.245  28.901  22.112  1.00  0.00     0.119 HD
ATOM     65  H   UNL     1     -44.484  29.470  23.609  1.00  0.00     0.119 HD
ENDBRANCH  57  63
ENDBRANCH  50  54
ENDBRANCH  38  39
ENDBRANCH   1  38
TORSDOF 9
ENDMDL
