MODEL 1
REMARK VINA RESULT:     -10.8      0.000      0.000
REMARK SMILES Nc1ncnc2c1ccn2[C@H]1C[C@H](O)[C@@H](CCc2ccc3ccc(N4CCC4)nc3c2)O1
REMARK SMILES IDX 16 1 15 4 11 5 12 6 32 7 13 9 10 14 2 15 3 16 7 17 4 18 6 19
REMARK SMILES IDX 8 20 5 21 9 23 1 26 14 29 17 31 18 34 19 35 31 36 20 37
REMARK SMILES IDX 30 39 21 41 29 43 22 44 24 45 23 46 25 49 26 50 28 51 27 52
REMARK H PARENT 16 2 16 3 11 8 12 10 12 11 13 12 15 13 4 22 8 24 9 25 1 27
REMARK H PARENT 1 28 14 30 17 32 17 33 19 38 31 40 20 42 22 47 23 48 26 53
REMARK H PARENT 26 54 28 55 28 56 27 57 27 58
REMARK Flexibility Score: inf
ROOT
ATOM      1  C   UNL     1     -46.570  35.680  26.603  1.00  0.00    -0.020 C 
ATOM      2  H   UNL     1     -46.998  36.557  26.097  1.00  0.00     0.030 H 
ATOM      3  H   UNL     1     -45.728  35.357  25.982  1.00  0.00     0.030 H 
ENDROOT
BRANCH   1   4
ATOM      4  C   UNL     1     -46.047  36.185  27.957  1.00  0.00     0.086 C 
ATOM      5  C   UNL     1     -45.311  38.310  28.598  1.00  0.00     0.138 C 
ATOM      6  C   UNL     1     -46.806  38.259  28.878  1.00  0.00     0.021 C 
ATOM      7  O   UNL     1     -45.032  37.181  27.742  1.00  0.00    -0.352 OA
ATOM      8  H   UNL     1     -44.745  38.168  29.528  1.00  0.00     0.085 H 
ATOM      9  C   UNL     1     -47.089  36.779  28.906  1.00  0.00     0.085 C 
ATOM     10  H   UNL     1     -47.063  38.779  29.806  1.00  0.00     0.034 H 
ATOM     11  H   UNL     1     -47.378  38.704  28.066  1.00  0.00     0.034 H 
ATOM     12  H   UNL     1     -48.118  36.516  28.650  1.00  0.00     0.063 H 
ATOM     13  H   UNL     1     -45.553  35.337  28.448  1.00  0.00     0.063 H 
BRANCH   5  14
ATOM     14  N   UNL     1     -44.765  39.502  27.966  1.00  0.00    -0.306 N 
ATOM     15  C   UNL     1     -42.557  42.268  27.779  1.00  0.00     0.136 A 
ATOM     16  N   UNL     1     -41.845  42.141  28.915  1.00  0.00    -0.219 NA
ATOM     17  C   UNL     1     -43.554  41.325  27.490  1.00  0.00     0.061 A 
ATOM     18  C   UNL     1     -42.126  41.104  29.726  1.00  0.00     0.120 A 
ATOM     19  C   UNL     1     -43.729  40.293  28.405  1.00  0.00     0.147 A 
ATOM     20  C   UNL     1     -44.496  41.123  26.446  1.00  0.00    -0.031 A 
ATOM     21  N   UNL     1     -43.017  40.118  29.531  1.00  0.00    -0.218 NA
ATOM     22  H   UNL     1     -41.561  41.056  30.652  1.00  0.00     0.106 H 
ATOM     23  C   UNL     1     -45.219  39.992  26.755  1.00  0.00     0.009 A 
ATOM     24  H   UNL     1     -44.638  41.743  25.572  1.00  0.00     0.065 H 
ATOM     25  H   UNL     1     -46.033  39.502  26.236  1.00  0.00     0.082 H 
BRANCH  15  26
ATOM     26  N   UNL     1     -42.244  43.335  26.949  1.00  0.00    -0.383 N 
ATOM     27  H   UNL     1     -42.708  44.177  27.270  1.00  0.00     0.158 HD
ATOM     28  H   UNL     1     -41.263  43.419  26.725  1.00  0.00     0.158 HD
ENDBRANCH  15  26
ENDBRANCH   5  14
BRANCH   9  29
ATOM     29  O   UNL     1     -46.851  36.303  30.236  1.00  0.00    -0.390 OA
ATOM     30  H   UNL     1     -46.124  36.834  30.608  1.00  0.00     0.211 HD
ENDBRANCH   9  29
ENDBRANCH   1   4
BRANCH   1  31
ATOM     31  C   UNL     1     -47.692  34.630  26.625  1.00  0.00    -0.025 C 
ATOM     32  H   UNL     1     -48.602  35.096  26.222  1.00  0.00     0.032 H 
ATOM     33  H   UNL     1     -47.930  34.373  27.664  1.00  0.00     0.032 H 
BRANCH  31  34
ATOM     34  C   UNL     1     -47.466  33.374  25.818  1.00  0.00    -0.046 A 
ATOM     35  C   UNL     1     -46.526  33.319  24.787  1.00  0.00    -0.058 A 
ATOM     36  C   UNL     1     -48.263  32.238  26.058  1.00  0.00    -0.033 A 
ATOM     37  C   UNL     1     -46.353  32.144  24.056  1.00  0.00    -0.053 A 
ATOM     38  H   UNL     1     -45.922  34.188  24.536  1.00  0.00     0.063 H 
ATOM     39  C   UNL     1     -48.108  31.052  25.351  1.00  0.00     0.073 A 
ATOM     40  H   UNL     1     -49.020  32.262  26.841  1.00  0.00     0.065 H 
ATOM     41  C   UNL     1     -47.134  31.010  24.338  1.00  0.00     0.000 A 
ATOM     42  H   UNL     1     -45.612  32.117  23.261  1.00  0.00     0.063 H 
ATOM     43  N   UNL     1     -48.879  29.993  25.654  1.00  0.00    -0.231 NA
ATOM     44  C   UNL     1     -46.980  29.813  23.634  1.00  0.00    -0.049 A 
ATOM     45  C   UNL     1     -48.732  28.842  24.963  1.00  0.00     0.129 A 
ATOM     46  C   UNL     1     -47.783  28.721  23.953  1.00  0.00    -0.019 A 
ATOM     47  H   UNL     1     -46.241  29.719  22.844  1.00  0.00     0.063 H 
ATOM     48  H   UNL     1     -47.658  27.785  23.419  1.00  0.00     0.066 H 
BRANCH  45  49
ATOM     49  N   UNL     1     -49.544  27.742  25.300  1.00  0.00    -0.356 N 
ATOM     50  C   UNL     1     -49.322  26.825  26.381  1.00  0.00     0.021 C 
ATOM     51  C   UNL     1     -49.876  26.682  24.386  1.00  0.00     0.021 C 
ATOM     52  C   UNL     1     -50.225  25.846  25.622  1.00  0.00    -0.018 C 
ATOM     53  H   UNL     1     -49.705  27.177  27.340  1.00  0.00     0.049 H 
ATOM     54  H   UNL     1     -48.275  26.514  26.469  1.00  0.00     0.049 H 
ATOM     55  H   UNL     1     -49.014  26.321  23.814  1.00  0.00     0.049 H 
ATOM     56  H   UNL     1     -50.710  26.919  23.724  1.00  0.00     0.049 H 
ATOM     57  H   UNL     1     -49.893  24.806  25.604  1.00  0.00     0.030 H 
ATOM     58  H   UNL     1     -51.281  25.890  25.913  1.00  0.00     0.030 H 
ENDBRANCH  45  49
ENDBRANCH  31  34
ENDBRANCH   1  31
TORSDOF 7
ENDMDL
MODEL 2
REMARK VINA RESULT:     -10.3      2.703     11.059
REMARK SMILES Nc1ncnc2c1ccn2[C@H]1C[C@H](O)[C@@H](CCc2ccc3ccc(N4CCC4)nc3c2)O1
REMARK SMILES IDX 16 1 15 4 11 5 12 6 32 7 13 9 10 14 2 15 3 16 7 17 4 18 6 19
REMARK SMILES IDX 8 20 5 21 9 23 1 26 14 29 17 31 18 34 19 35 31 36 20 37
REMARK SMILES IDX 30 39 21 41 29 43 22 44 24 45 23 46 25 49 26 50 28 51 27 52
REMARK H PARENT 16 2 16 3 11 8 12 10 12 11 13 12 15 13 4 22 8 24 9 25 1 27
REMARK H PARENT 1 28 14 30 17 32 17 33 19 38 31 40 20 42 22 47 23 48 26 53
REMARK H PARENT 26 54 28 55 28 56 27 57 27 58
REMARK Flexibility Score: inf
ROOT
ATOM      1  C   UNL     1     -48.443  35.804  27.056  1.00  0.00    -0.020 C 
ATOM      2  H   UNL     1     -48.074  36.252  26.122  1.00  0.00     0.030 H 
ATOM      3  H   UNL     1     -49.474  35.494  26.852  1.00  0.00     0.030 H 
ENDROOT
BRANCH   1   4
ATOM      4  C   UNL     1     -47.573  34.564  27.306  1.00  0.00     0.086 C 
ATOM      5  C   UNL     1     -47.175  32.696  25.956  1.00  0.00     0.138 C 
ATOM      6  C   UNL     1     -46.106  33.723  25.613  1.00  0.00     0.021 C 
ATOM      7  O   UNL     1     -48.185  33.412  26.699  1.00  0.00    -0.352 OA
ATOM      8  H   UNL     1     -46.763  31.924  26.619  1.00  0.00     0.085 H 
ATOM      9  C   UNL     1     -46.128  34.639  26.809  1.00  0.00     0.085 C 
ATOM     10  H   UNL     1     -45.135  33.252  25.430  1.00  0.00     0.034 H 
ATOM     11  H   UNL     1     -46.378  34.300  24.731  1.00  0.00     0.034 H 
ATOM     12  H   UNL     1     -45.787  35.655  26.599  1.00  0.00     0.063 H 
ATOM     13  H   UNL     1     -47.573  34.382  28.388  1.00  0.00     0.063 H 
BRANCH   5  14
ATOM     14  N   UNL     1     -47.833  31.989  24.867  1.00  0.00    -0.306 N 
ATOM     15  C   UNL     1     -47.864  30.081  21.880  1.00  0.00     0.136 A 
ATOM     16  N   UNL     1     -46.551  29.946  21.616  1.00  0.00    -0.219 NA
ATOM     17  C   UNL     1     -48.260  30.793  23.022  1.00  0.00     0.061 A 
ATOM     18  C   UNL     1     -45.672  30.504  22.470  1.00  0.00     0.120 A 
ATOM     19  C   UNL     1     -47.249  31.302  23.829  1.00  0.00     0.147 A 
ATOM     20  C   UNL     1     -49.495  31.157  23.620  1.00  0.00    -0.031 A 
ATOM     21  N   UNL     1     -45.930  31.160  23.613  1.00  0.00    -0.218 NA
ATOM     22  H   UNL     1     -44.623  30.409  22.203  1.00  0.00     0.106 H 
ATOM     23  C   UNL     1     -49.208  31.880  24.756  1.00  0.00     0.009 A 
ATOM     24  H   UNL     1     -50.486  30.927  23.253  1.00  0.00     0.065 H 
ATOM     25  H   UNL     1     -49.856  32.350  25.486  1.00  0.00     0.082 H 
BRANCH  15  26
ATOM     26  N   UNL     1     -48.755  29.489  20.996  1.00  0.00    -0.383 N 
ATOM     27  H   UNL     1     -48.251  29.041  20.239  1.00  0.00     0.158 HD
ATOM     28  H   UNL     1     -49.484  28.945  21.436  1.00  0.00     0.158 HD
ENDBRANCH  15  26
ENDBRANCH   5  14
BRANCH   9  29
ATOM     29  O   UNL     1     -45.251  34.097  27.804  1.00  0.00    -0.390 OA
ATOM     30  H   UNL     1     -45.420  33.139  27.848  1.00  0.00     0.211 HD
ENDBRANCH   9  29
ENDBRANCH   1   4
BRANCH   1  31
ATOM     31  C   UNL     1     -48.389  36.930  28.101  1.00  0.00    -0.025 C 
ATOM     32  H   UNL     1     -48.418  36.470  29.098  1.00  0.00     0.032 H 
ATOM     33  H   UNL     1     -49.301  37.536  28.031  1.00  0.00     0.032 H 
BRANCH  31  34
ATOM     34  C   UNL     1     -47.171  37.822  28.079  1.00  0.00    -0.046 A 
ATOM     35  C   UNL     1     -46.115  37.649  28.977  1.00  0.00    -0.058 A 
ATOM     36  C   UNL     1     -47.113  38.902  27.178  1.00  0.00    -0.033 A 
ATOM     37  C   UNL     1     -45.011  38.501  28.933  1.00  0.00    -0.053 A 
ATOM     38  H   UNL     1     -46.139  36.857  29.722  1.00  0.00     0.063 H 
ATOM     39  C   UNL     1     -46.023  39.762  27.108  1.00  0.00     0.073 A 
ATOM     40  H   UNL     1     -47.935  39.073  26.483  1.00  0.00     0.065 H 
ATOM     41  C   UNL     1     -44.958  39.549  27.999  1.00  0.00     0.000 A 
ATOM     42  H   UNL     1     -44.195  38.347  29.635  1.00  0.00     0.063 H 
ATOM     43  N   UNL     1     -46.017  40.753  26.199  1.00  0.00    -0.231 NA
ATOM     44  C   UNL     1     -43.863  40.414  27.921  1.00  0.00    -0.049 A 
ATOM     45  C   UNL     1     -44.960  41.591  26.135  1.00  0.00     0.129 A 
ATOM     46  C   UNL     1     -43.864  41.439  26.978  1.00  0.00    -0.019 A 
ATOM     47  H   UNL     1     -43.009  40.297  28.581  1.00  0.00     0.063 H 
ATOM     48  H   UNL     1     -43.011  42.104  26.904  1.00  0.00     0.066 H 
BRANCH  45  49
ATOM     49  N   UNL     1     -44.970  42.619  25.172  1.00  0.00    -0.356 N 
ATOM     50  C   UNL     1     -44.065  42.752  24.067  1.00  0.00     0.021 C 
ATOM     51  C   UNL     1     -44.880  44.018  25.495  1.00  0.00     0.021 C 
ATOM     52  C   UNL     1     -44.453  44.234  24.039  1.00  0.00    -0.018 C 
ATOM     53  H   UNL     1     -44.355  42.169  23.190  1.00  0.00     0.049 H 
ATOM     54  H   UNL     1     -43.023  42.552  24.340  1.00  0.00     0.049 H 
ATOM     55  H   UNL     1     -44.108  44.239  26.239  1.00  0.00     0.049 H 
ATOM     56  H   UNL     1     -45.834  44.464  25.779  1.00  0.00     0.049 H 
ATOM     57  H   UNL     1     -43.634  44.939  23.882  1.00  0.00     0.030 H 
ATOM     58  H   UNL     1     -45.278  44.472  23.357  1.00  0.00     0.030 H 
ENDBRANCH  45  49
ENDBRANCH  31  34
ENDBRANCH   1  31
TORSDOF 7
ENDMDL
MODEL 3
REMARK VINA RESULT:     -10.0      2.826     11.658
REMARK SMILES Nc1ncnc2c1ccn2[C@H]1C[C@H](O)[C@@H](CCc2ccc3ccc(N4CCC4)nc3c2)O1
REMARK SMILES IDX 16 1 15 4 11 5 12 6 32 7 13 9 10 14 2 15 3 16 7 17 4 18 6 19
REMARK SMILES IDX 8 20 5 21 9 23 1 26 14 29 17 31 18 34 19 35 31 36 20 37
REMARK SMILES IDX 30 39 21 41 29 43 22 44 24 45 23 46 25 49 26 50 28 51 27 52
REMARK H PARENT 16 2 16 3 11 8 12 10 12 11 13 12 15 13 4 22 8 24 9 25 1 27
REMARK H PARENT 1 28 14 30 17 32 17 33 19 38 31 40 20 42 22 47 23 48 26 53
REMARK H PARENT 26 54 28 55 28 56 27 57 27 58
REMARK Flexibility Score: inf
ROOT
ATOM      1  C   UNL     1     -46.441  32.342  23.997  1.00  0.00    -0.020 C 
ATOM      2  H   UNL     1     -45.466  32.837  24.103  1.00  0.00     0.030 H 
ATOM      3  H   UNL     1     -47.037  32.989  23.346  1.00  0.00     0.030 H 
ENDROOT
BRANCH   1   4
ATOM      4  C   UNL     1     -46.166  31.009  23.286  1.00  0.00     0.086 C 
ATOM      5  C   UNL     1     -47.496  29.095  23.090  1.00  0.00     0.138 C 
ATOM      6  C   UNL     1     -47.825  29.984  21.900  1.00  0.00     0.021 C 
ATOM      7  O   UNL     1     -46.777  29.934  24.021  1.00  0.00    -0.352 OA
ATOM      8  H   UNL     1     -46.820  28.285  22.785  1.00  0.00     0.085 H 
ATOM      9  C   UNL     1     -46.636  30.906  21.834  1.00  0.00     0.085 C 
ATOM     10  H   UNL     1     -47.986  29.398  20.989  1.00  0.00     0.034 H 
ATOM     11  H   UNL     1     -48.715  30.581  22.084  1.00  0.00     0.034 H 
ATOM     12  H   UNL     1     -46.845  31.872  21.370  1.00  0.00     0.063 H 
ATOM     13  H   UNL     1     -45.083  30.838  23.328  1.00  0.00     0.063 H 
BRANCH   5  14
ATOM     14  N   UNL     1     -48.593  28.462  23.808  1.00  0.00    -0.306 N 
ATOM     15  C   UNL     1     -49.971  26.085  26.047  1.00  0.00     0.136 A 
ATOM     16  N   UNL     1     -48.881  25.396  26.436  1.00  0.00    -0.219 NA
ATOM     17  C   UNL     1     -49.820  27.143  25.139  1.00  0.00     0.061 A 
ATOM     18  C   UNL     1     -47.688  25.761  25.931  1.00  0.00     0.120 A 
ATOM     19  C   UNL     1     -48.528  27.427  24.710  1.00  0.00     0.147 A 
ATOM     20  C   UNL     1     -50.686  28.069  24.497  1.00  0.00    -0.031 A 
ATOM     21  N   UNL     1     -47.416  26.781  25.101  1.00  0.00    -0.218 NA
ATOM     22  H   UNL     1     -46.837  25.157  26.235  1.00  0.00     0.106 H 
ATOM     23  C   UNL     1     -49.909  28.874  23.695  1.00  0.00     0.009 A 
ATOM     24  H   UNL     1     -51.760  28.131  24.600  1.00  0.00     0.065 H 
ATOM     25  H   UNL     1     -50.173  29.690  23.033  1.00  0.00     0.082 H 
BRANCH  15  26
ATOM     26  N   UNL     1     -51.191  25.703  26.587  1.00  0.00    -0.383 N 
ATOM     27  H   UNL     1     -51.393  26.250  27.416  1.00  0.00     0.158 HD
ATOM     28  H   UNL     1     -51.938  25.612  25.913  1.00  0.00     0.158 HD
ENDBRANCH  15  26
ENDBRANCH   5  14
BRANCH   9  29
ATOM     29  O   UNL     1     -45.620  30.272  21.047  1.00  0.00    -0.390 OA
ATOM     30  H   UNL     1     -45.551  30.768  20.211  1.00  0.00     0.211 HD
ENDBRANCH   9  29
ENDBRANCH   1   4
BRANCH   1  31
ATOM     31  C   UNL     1     -47.026  32.279  25.418  1.00  0.00    -0.025 C 
ATOM     32  H   UNL     1     -46.279  31.810  26.072  1.00  0.00     0.032 H 
ATOM     33  H   UNL     1     -47.889  31.602  25.427  1.00  0.00     0.032 H 
BRANCH  31  34
ATOM     34  C   UNL     1     -47.390  33.594  26.064  1.00  0.00    -0.046 A 
ATOM     35  C   UNL     1     -48.713  33.924  26.369  1.00  0.00    -0.058 A 
ATOM     36  C   UNL     1     -46.387  34.551  26.312  1.00  0.00    -0.033 A 
ATOM     37  C   UNL     1     -49.011  35.154  26.956  1.00  0.00    -0.053 A 
ATOM     38  H   UNL     1     -49.524  33.234  26.151  1.00  0.00     0.063 H 
ATOM     39  C   UNL     1     -46.655  35.781  26.902  1.00  0.00     0.073 A 
ATOM     40  H   UNL     1     -45.351  34.328  26.061  1.00  0.00     0.065 H 
ATOM     41  C   UNL     1     -47.989  36.078  27.229  1.00  0.00     0.000 A 
ATOM     42  H   UNL     1     -50.046  35.391  27.193  1.00  0.00     0.063 H 
ATOM     43  N   UNL     1     -45.645  36.635  27.143  1.00  0.00    -0.231 NA
ATOM     44  C   UNL     1     -48.251  37.314  27.826  1.00  0.00    -0.049 A 
ATOM     45  C   UNL     1     -45.907  37.832  27.711  1.00  0.00     0.129 A 
ATOM     46  C   UNL     1     -47.201  38.194  28.071  1.00  0.00    -0.019 A 
ATOM     47  H   UNL     1     -49.262  37.599  28.105  1.00  0.00     0.063 H 
ATOM     48  H   UNL     1     -47.396  39.149  28.546  1.00  0.00     0.066 H 
BRANCH  45  49
ATOM     49  N   UNL     1     -44.834  38.710  27.961  1.00  0.00    -0.356 N 
ATOM     50  C   UNL     1     -44.337  39.092  29.251  1.00  0.00     0.021 C 
ATOM     51  C   UNL     1     -44.775  40.061  27.470  1.00  0.00     0.021 C 
ATOM     52  C   UNL     1     -43.728  40.316  28.559  1.00  0.00    -0.018 C 
ATOM     53  H   UNL     1     -43.623  38.382  29.673  1.00  0.00     0.049 H 
ATOM     54  H   UNL     1     -45.133  39.316  29.969  1.00  0.00     0.049 H 
ATOM     55  H   UNL     1     -45.715  40.607  27.597  1.00  0.00     0.049 H 
ATOM     56  H   UNL     1     -44.417  40.137  26.442  1.00  0.00     0.049 H 
ATOM     57  H   UNL     1     -43.819  41.262  29.096  1.00  0.00     0.030 H 
ATOM     58  H   UNL     1     -42.691  40.179  28.229  1.00  0.00     0.030 H 
ENDBRANCH  45  49
ENDBRANCH  31  34
ENDBRANCH   1  31
TORSDOF 7
ENDMDL
MODEL 4
REMARK VINA RESULT:      -9.5      1.319      2.162
REMARK SMILES Nc1ncnc2c1ccn2[C@H]1C[C@H](O)[C@@H](CCc2ccc3ccc(N4CCC4)nc3c2)O1
REMARK SMILES IDX 16 1 15 4 11 5 12 6 32 7 13 9 10 14 2 15 3 16 7 17 4 18 6 19
REMARK SMILES IDX 8 20 5 21 9 23 1 26 14 29 17 31 18 34 19 35 31 36 20 37
REMARK SMILES IDX 30 39 21 41 29 43 22 44 24 45 23 46 25 49 26 50 28 51 27 52
REMARK H PARENT 16 2 16 3 11 8 12 10 12 11 13 12 15 13 4 22 8 24 9 25 1 27
REMARK H PARENT 1 28 14 30 17 32 17 33 19 38 31 40 20 42 22 47 23 48 26 53
REMARK H PARENT 26 54 28 55 28 56 27 57 27 58
REMARK Flexibility Score: inf
ROOT
ATOM      1  C   UNL     1     -46.206  34.044  26.997  1.00  0.00    -0.020 C 
ATOM      2  H   UNL     1     -45.176  34.400  27.142  1.00  0.00     0.030 H 
ATOM      3  H   UNL     1     -46.234  33.032  27.413  1.00  0.00     0.030 H 
ENDROOT
BRANCH   1   4
ATOM      4  C   UNL     1     -47.098  34.971  27.835  1.00  0.00     0.086 C 
ATOM      5  C   UNL     1     -46.723  37.148  28.602  1.00  0.00     0.138 C 
ATOM      6  C   UNL     1     -47.394  37.270  27.241  1.00  0.00     0.021 C 
ATOM      7  O   UNL     1     -46.280  35.777  28.701  1.00  0.00    -0.352 OA
ATOM      8  H   UNL     1     -47.454  37.318  29.403  1.00  0.00     0.085 H 
ATOM      9  C   UNL     1     -48.019  35.912  27.056  1.00  0.00     0.085 C 
ATOM     10  H   UNL     1     -48.110  38.097  27.215  1.00  0.00     0.034 H 
ATOM     11  H   UNL     1     -46.663  37.424  26.450  1.00  0.00     0.034 H 
ATOM     12  H   UNL     1     -48.160  35.624  26.012  1.00  0.00     0.063 H 
ATOM     13  H   UNL     1     -47.705  34.331  28.488  1.00  0.00     0.063 H 
BRANCH   5  14
ATOM     14  N   UNL     1     -45.588  38.011  28.894  1.00  0.00    -0.306 N 
ATOM     15  C   UNL     1     -43.427  40.745  28.247  1.00  0.00     0.136 A 
ATOM     16  N   UNL     1     -43.942  41.251  27.110  1.00  0.00    -0.219 NA
ATOM     17  C   UNL     1     -44.036  39.625  28.831  1.00  0.00     0.061 A 
ATOM     18  C   UNL     1     -45.028  40.652  26.585  1.00  0.00     0.120 A 
ATOM     19  C   UNL     1     -45.163  39.116  28.195  1.00  0.00     0.147 A 
ATOM     20  C   UNL     1     -43.800  38.816  29.975  1.00  0.00    -0.031 A 
ATOM     21  N   UNL     1     -45.721  39.613  27.079  1.00  0.00    -0.218 NA
ATOM     22  H   UNL     1     -45.391  41.062  25.647  1.00  0.00     0.106 H 
ATOM     23  C   UNL     1     -44.772  37.840  29.998  1.00  0.00     0.009 A 
ATOM     24  H   UNL     1     -43.001  38.927  30.695  1.00  0.00     0.065 H 
ATOM     25  H   UNL     1     -44.945  37.022  30.686  1.00  0.00     0.082 H 
BRANCH  15  26
ATOM     26  N   UNL     1     -42.316  41.383  28.781  1.00  0.00    -0.383 N 
ATOM     27  H   UNL     1     -42.039  42.158  28.189  1.00  0.00     0.158 HD
ATOM     28  H   UNL     1     -42.377  41.571  29.772  1.00  0.00     0.158 HD
ENDBRANCH  15  26
ENDBRANCH   5  14
BRANCH   9  29
ATOM     29  O   UNL     1     -49.315  35.928  27.667  1.00  0.00    -0.390 OA
ATOM     30  H   UNL     1     -49.791  35.136  27.358  1.00  0.00     0.211 HD
ENDBRANCH   9  29
ENDBRANCH   1   4
BRANCH   1  31
ATOM     31  C   UNL     1     -46.426  34.035  25.475  1.00  0.00    -0.025 C 
ATOM     32  H   UNL     1     -45.529  34.456  25.000  1.00  0.00     0.032 H 
ATOM     33  H   UNL     1     -47.242  34.724  25.221  1.00  0.00     0.032 H 
BRANCH  31  34
ATOM     34  C   UNL     1     -46.659  32.692  24.827  1.00  0.00    -0.046 A 
ATOM     35  C   UNL     1     -46.050  32.339  23.621  1.00  0.00    -0.058 A 
ATOM     36  C   UNL     1     -47.564  31.784  25.411  1.00  0.00    -0.033 A 
ATOM     37  C   UNL     1     -46.299  31.092  23.048  1.00  0.00    -0.053 A 
ATOM     38  H   UNL     1     -45.381  33.029  23.111  1.00  0.00     0.063 H 
ATOM     39  C   UNL     1     -47.826  30.533  24.865  1.00  0.00     0.073 A 
ATOM     40  H   UNL     1     -48.071  32.045  26.339  1.00  0.00     0.065 H 
ATOM     41  C   UNL     1     -47.177  30.187  23.667  1.00  0.00     0.000 A 
ATOM     42  H   UNL     1     -45.811  30.832  22.111  1.00  0.00     0.063 H 
ATOM     43  N   UNL     1     -48.675  29.700  25.492  1.00  0.00    -0.231 NA
ATOM     44  C   UNL     1     -47.441  28.926  23.127  1.00  0.00    -0.049 A 
ATOM     45  C   UNL     1     -48.933  28.486  24.959  1.00  0.00     0.129 A 
ATOM     46  C   UNL     1     -48.322  28.069  23.781  1.00  0.00    -0.019 A 
ATOM     47  H   UNL     1     -46.966  28.601  22.205  1.00  0.00     0.063 H 
ATOM     48  H   UNL     1     -48.520  27.084  23.373  1.00  0.00     0.066 H 
BRANCH  45  49
ATOM     49  N   UNL     1     -49.820  27.626  25.635  1.00  0.00    -0.356 N 
ATOM     50  C   UNL     1     -49.454  26.515  26.464  1.00  0.00     0.021 C 
ATOM     51  C   UNL     1     -50.861  26.877  24.982  1.00  0.00     0.021 C 
ATOM     52  C   UNL     1     -50.871  25.980  26.225  1.00  0.00    -0.018 C 
ATOM     53  H   UNL     1     -49.221  26.794  27.493  1.00  0.00     0.049 H 
ATOM     54  H   UNL     1     -48.653  25.905  26.034  1.00  0.00     0.049 H 
ATOM     55  H   UNL     1     -50.526  26.387  24.062  1.00  0.00     0.049 H 
ATOM     56  H   UNL     1     -51.771  27.453  24.807  1.00  0.00     0.049 H 
ATOM     57  H   UNL     1     -50.951  24.908  26.038  1.00  0.00     0.030 H 
ATOM     58  H   UNL     1     -51.599  26.276  26.989  1.00  0.00     0.030 H 
ENDBRANCH  45  49
ENDBRANCH  31  34
ENDBRANCH   1  31
TORSDOF 7
ENDMDL
MODEL 5
REMARK VINA RESULT:      -9.5      2.163      3.182
REMARK SMILES Nc1ncnc2c1ccn2[C@H]1C[C@H](O)[C@@H](CCc2ccc3ccc(N4CCC4)nc3c2)O1
REMARK SMILES IDX 16 1 15 4 11 5 12 6 32 7 13 9 10 14 2 15 3 16 7 17 4 18 6 19
REMARK SMILES IDX 8 20 5 21 9 23 1 26 14 29 17 31 18 34 19 35 31 36 20 37
REMARK SMILES IDX 30 39 21 41 29 43 22 44 24 45 23 46 25 49 26 50 28 51 27 52
REMARK H PARENT 16 2 16 3 11 8 12 10 12 11 13 12 15 13 4 22 8 24 9 25 1 27
REMARK H PARENT 1 28 14 30 17 32 17 33 19 38 31 40 20 42 22 47 23 48 26 53
REMARK H PARENT 26 54 28 55 28 56 27 57 27 58
REMARK Flexibility Score: inf
ROOT
ATOM      1  C   UNL     1     -46.251  36.210  28.367  1.00  0.00    -0.020 C 
ATOM      2  H   UNL     1     -45.242  36.272  28.796  1.00  0.00     0.030 H 
ATOM      3  H   UNL     1     -46.772  35.434  28.938  1.00  0.00     0.030 H 
ENDROOT
BRANCH   1   4
ATOM      4  C   UNL     1     -46.910  37.572  28.628  1.00  0.00     0.086 C 
ATOM      5  C   UNL     1     -46.219  39.726  28.037  1.00  0.00     0.138 C 
ATOM      6  C   UNL     1     -47.084  39.212  26.895  1.00  0.00     0.021 C 
ATOM      7  O   UNL     1     -45.895  38.568  28.837  1.00  0.00    -0.352 OA
ATOM      8  H   UNL     1     -46.794  40.415  28.670  1.00  0.00     0.085 H 
ATOM      9  C   UNL     1     -47.853  38.089  27.540  1.00  0.00     0.085 C 
ATOM     10  H   UNL     1     -47.715  40.003  26.478  1.00  0.00     0.034 H 
ATOM     11  H   UNL     1     -46.476  38.799  26.092  1.00  0.00     0.034 H 
ATOM     12  H   UNL     1     -48.184  37.317  26.841  1.00  0.00     0.063 H 
ATOM     13  H   UNL     1     -47.462  37.488  29.573  1.00  0.00     0.063 H 
BRANCH   5  14
ATOM     14  N   UNL     1     -44.977  40.413  27.712  1.00  0.00    -0.306 N 
ATOM     15  C   UNL     1     -43.026  42.771  25.925  1.00  0.00     0.136 A 
ATOM     16  N   UNL     1     -43.934  43.323  25.099  1.00  0.00    -0.219 NA
ATOM     17  C   UNL     1     -43.436  41.770  26.817  1.00  0.00     0.061 A 
ATOM     18  C   UNL     1     -45.206  42.885  25.171  1.00  0.00     0.120 A 
ATOM     19  C   UNL     1     -44.783  41.424  26.801  1.00  0.00     0.147 A 
ATOM     20  C   UNL     1     -42.809  40.960  27.802  1.00  0.00    -0.031 A 
ATOM     21  N   UNL     1     -45.721  41.975  26.014  1.00  0.00    -0.218 NA
ATOM     22  H   UNL     1     -45.902  43.324  24.462  1.00  0.00     0.106 H 
ATOM     23  C   UNL     1     -43.776  40.144  28.344  1.00  0.00     0.009 A 
ATOM     24  H   UNL     1     -41.762  40.964  28.074  1.00  0.00     0.065 H 
ATOM     25  H   UNL     1     -43.717  39.378  29.107  1.00  0.00     0.082 H 
BRANCH  15  26
ATOM     26  N   UNL     1     -41.724  43.244  25.846  1.00  0.00    -0.383 N 
ATOM     27  H   UNL     1     -41.216  42.753  25.118  1.00  0.00     0.158 HD
ATOM     28  H   UNL     1     -41.642  44.251  25.852  1.00  0.00     0.158 HD
ENDBRANCH  15  26
ENDBRANCH   5  14
BRANCH   9  29
ATOM     29  O   UNL     1     -49.028  38.640  28.146  1.00  0.00    -0.390 OA
ATOM     30  H   UNL     1     -48.830  38.775  29.090  1.00  0.00     0.211 HD
ENDBRANCH   9  29
ENDBRANCH   1   4
BRANCH   1  31
ATOM     31  C   UNL     1     -46.048  35.791  26.901  1.00  0.00    -0.025 C 
ATOM     32  H   UNL     1     -45.007  35.461  26.783  1.00  0.00     0.032 H 
ATOM     33  H   UNL     1     -46.152  36.670  26.253  1.00  0.00     0.032 H 
BRANCH  31  34
ATOM     34  C   UNL     1     -46.910  34.664  26.388  1.00  0.00    -0.046 A 
ATOM     35  C   UNL     1     -48.268  34.572  26.703  1.00  0.00    -0.058 A 
ATOM     36  C   UNL     1     -46.330  33.633  25.623  1.00  0.00    -0.033 A 
ATOM     37  C   UNL     1     -49.030  33.508  26.219  1.00  0.00    -0.053 A 
ATOM     38  H   UNL     1     -48.747  35.319  27.331  1.00  0.00     0.063 H 
ATOM     39  C   UNL     1     -47.066  32.566  25.122  1.00  0.00     0.073 A 
ATOM     40  H   UNL     1     -45.268  33.669  25.383  1.00  0.00     0.065 H 
ATOM     41  C   UNL     1     -48.438  32.512  25.426  1.00  0.00     0.000 A 
ATOM     42  H   UNL     1     -50.087  33.457  26.469  1.00  0.00     0.063 H 
ATOM     43  N   UNL     1     -46.456  31.635  24.369  1.00  0.00    -0.231 NA
ATOM     44  C   UNL     1     -49.173  31.439  24.915  1.00  0.00    -0.049 A 
ATOM     45  C   UNL     1     -47.172  30.595  23.887  1.00  0.00     0.129 A 
ATOM     46  C   UNL     1     -48.535  30.477  24.137  1.00  0.00    -0.019 A 
ATOM     47  H   UNL     1     -50.237  31.345  25.113  1.00  0.00     0.063 H 
ATOM     48  H   UNL     1     -49.103  29.650  23.727  1.00  0.00     0.066 H 
BRANCH  45  49
ATOM     49  N   UNL     1     -46.515  29.633  23.094  1.00  0.00    -0.356 N 
ATOM     50  C   UNL     1     -46.153  28.306  23.501  1.00  0.00     0.021 C 
ATOM     51  C   UNL     1     -45.243  29.853  22.460  1.00  0.00     0.021 C 
ATOM     52  C   UNL     1     -45.131  28.328  22.360  1.00  0.00    -0.018 C 
ATOM     53  H   UNL     1     -46.962  27.580  23.399  1.00  0.00     0.049 H 
ATOM     54  H   UNL     1     -45.722  28.269  24.507  1.00  0.00     0.049 H 
ATOM     55  H   UNL     1     -44.509  30.327  23.120  1.00  0.00     0.049 H 
ATOM     56  H   UNL     1     -45.313  30.385  21.510  1.00  0.00     0.049 H 
ATOM     57  H   UNL     1     -44.150  27.906  22.590  1.00  0.00     0.030 H 
ATOM     58  H   UNL     1     -45.499  27.909  21.416  1.00  0.00     0.030 H 
ENDBRANCH  45  49
ENDBRANCH  31  34
ENDBRANCH   1  31
TORSDOF 7
ENDMDL
MODEL 6
REMARK VINA RESULT:      -9.4      3.217     11.745
REMARK SMILES Nc1ncnc2c1ccn2[C@H]1C[C@H](O)[C@@H](CCc2ccc3ccc(N4CCC4)nc3c2)O1
REMARK SMILES IDX 16 1 15 4 11 5 12 6 32 7 13 9 10 14 2 15 3 16 7 17 4 18 6 19
REMARK SMILES IDX 8 20 5 21 9 23 1 26 14 29 17 31 18 34 19 35 31 36 20 37
REMARK SMILES IDX 30 39 21 41 29 43 22 44 24 45 23 46 25 49 26 50 28 51 27 52
REMARK H PARENT 16 2 16 3 11 8 12 10 12 11 13 12 15 13 4 22 8 24 9 25 1 27
REMARK H PARENT 1 28 14 30 17 32 17 33 19 38 31 40 20 42 22 47 23 48 26 53
REMARK H PARENT 26 54 28 55 28 56 27 57 27 58
REMARK Flexibility Score: inf
ROOT
ATOM      1  C   UNL     1     -47.821  32.533  25.262  1.00  0.00    -0.020 C 
ATOM      2  H   UNL     1     -48.471  33.415  25.173  1.00  0.00     0.030 H 
ATOM      3  H   UNL     1     -48.245  31.930  26.072  1.00  0.00     0.030 H 
ENDROOT
BRANCH   1   4
ATOM      4  C   UNL     1     -47.949  31.774  23.933  1.00  0.00     0.086 C 
ATOM      5  C   UNL     1     -47.997  29.476  23.501  1.00  0.00     0.138 C 
ATOM      6  C   UNL     1     -49.439  29.915  23.713  1.00  0.00     0.021 C 
ATOM      7  O   UNL     1     -47.180  30.560  23.994  1.00  0.00    -0.352 OA
ATOM      8  H   UNL     1     -47.787  29.363  22.430  1.00  0.00     0.085 H 
ATOM      9  C   UNL     1     -49.368  31.404  23.498  1.00  0.00     0.085 C 
ATOM     10  H   UNL     1     -50.124  29.399  23.032  1.00  0.00     0.034 H 
ATOM     11  H   UNL     1     -49.766  29.728  24.734  1.00  0.00     0.034 H 
ATOM     12  H   UNL     1     -50.148  31.967  24.017  1.00  0.00     0.063 H 
ATOM     13  H   UNL     1     -47.485  32.397  23.159  1.00  0.00     0.063 H 
BRANCH   5  14
ATOM     14  N   UNL     1     -47.547  28.246  24.137  1.00  0.00    -0.306 N 
ATOM     15  C   UNL     1     -47.959  25.423  26.240  1.00  0.00     0.136 A 
ATOM     16  N   UNL     1     -49.215  25.590  26.697  1.00  0.00    -0.219 NA
ATOM     17  C   UNL     1     -47.427  26.367  25.350  1.00  0.00     0.061 A 
ATOM     18  C   UNL     1     -49.906  26.664  26.271  1.00  0.00     0.120 A 
ATOM     19  C   UNL     1     -48.255  27.420  24.977  1.00  0.00     0.147 A 
ATOM     20  C   UNL     1     -46.189  26.551  24.678  1.00  0.00    -0.031 A 
ATOM     21  N   UNL     1     -49.521  27.600  25.388  1.00  0.00    -0.218 NA
ATOM     22  H   UNL     1     -50.900  26.788  26.692  1.00  0.00     0.106 H 
ATOM     23  C   UNL     1     -46.291  27.704  23.932  1.00  0.00     0.009 A 
ATOM     24  H   UNL     1     -45.315  25.918  24.743  1.00  0.00     0.065 H 
ATOM     25  H   UNL     1     -45.576  28.204  23.290  1.00  0.00     0.082 H 
BRANCH  15  26
ATOM     26  N   UNL     1     -47.266  24.304  26.679  1.00  0.00    -0.383 N 
ATOM     27  H   UNL     1     -46.520  24.078  26.032  1.00  0.00     0.158 HD
ATOM     28  H   UNL     1     -47.025  24.318  27.660  1.00  0.00     0.158 HD
ENDBRANCH  15  26
ENDBRANCH   5  14
BRANCH   9  29
ATOM     29  O   UNL     1     -49.522  31.663  22.098  1.00  0.00    -0.390 OA
ATOM     30  H   UNL     1     -50.100  30.968  21.737  1.00  0.00     0.211 HD
ENDBRANCH   9  29
ENDBRANCH   1   4
BRANCH   1  31
ATOM     31  C   UNL     1     -46.433  33.082  25.633  1.00  0.00    -0.025 C 
ATOM     32  H   UNL     1     -45.941  33.414  24.709  1.00  0.00     0.032 H 
ATOM     33  H   UNL     1     -45.810  32.266  26.020  1.00  0.00     0.032 H 
BRANCH  31  34
ATOM     34  C   UNL     1     -46.396  34.256  26.580  1.00  0.00    -0.046 A 
ATOM     35  C   UNL     1     -46.179  34.092  27.951  1.00  0.00    -0.058 A 
ATOM     36  C   UNL     1     -46.650  35.553  26.094  1.00  0.00    -0.033 A 
ATOM     37  C   UNL     1     -46.162  35.202  28.796  1.00  0.00    -0.053 A 
ATOM     38  H   UNL     1     -46.026  33.104  28.377  1.00  0.00     0.063 H 
ATOM     39  C   UNL     1     -46.633  36.677  26.912  1.00  0.00     0.073 A 
ATOM     40  H   UNL     1     -46.846  35.706  25.033  1.00  0.00     0.065 H 
ATOM     41  C   UNL     1     -46.380  36.491  28.282  1.00  0.00     0.000 A 
ATOM     42  H   UNL     1     -45.985  35.056  29.859  1.00  0.00     0.063 H 
ATOM     43  N   UNL     1     -46.849  37.891  26.376  1.00  0.00    -0.231 NA
ATOM     44  C   UNL     1     -46.360  37.625  29.098  1.00  0.00    -0.049 A 
ATOM     45  C   UNL     1     -46.837  38.982  27.173  1.00  0.00     0.129 A 
ATOM     46  C   UNL     1     -46.586  38.879  28.537  1.00  0.00    -0.019 A 
ATOM     47  H   UNL     1     -46.167  37.545  30.164  1.00  0.00     0.063 H 
ATOM     48  H   UNL     1     -46.558  39.764  29.163  1.00  0.00     0.066 H 
BRANCH  45  49
ATOM     49  N   UNL     1     -47.059  40.245  26.591  1.00  0.00    -0.356 N 
ATOM     50  C   UNL     1     -46.077  41.273  26.398  1.00  0.00     0.021 C 
ATOM     51  C   UNL     1     -48.039  41.185  27.069  1.00  0.00     0.021 C 
ATOM     52  C   UNL     1     -47.249  42.257  26.311  1.00  0.00    -0.018 C 
ATOM     53  H   UNL     1     -45.490  41.153  25.486  1.00  0.00     0.049 H 
ATOM     54  H   UNL     1     -45.424  41.409  27.267  1.00  0.00     0.049 H 
ATOM     55  H   UNL     1     -48.036  41.293  28.158  1.00  0.00     0.049 H 
ATOM     56  H   UNL     1     -49.047  40.991  26.700  1.00  0.00     0.049 H 
ATOM     57  H   UNL     1     -47.114  43.207  26.832  1.00  0.00     0.030 H 
ATOM     58  H   UNL     1     -47.605  42.444  25.291  1.00  0.00     0.030 H 
ENDBRANCH  45  49
ENDBRANCH  31  34
ENDBRANCH   1  31
TORSDOF 7
ENDMDL
MODEL 7
REMARK VINA RESULT:      -9.4      1.977     11.723
REMARK SMILES Nc1ncnc2c1ccn2[C@H]1C[C@H](O)[C@@H](CCc2ccc3ccc(N4CCC4)nc3c2)O1
REMARK SMILES IDX 16 1 15 4 11 5 12 6 32 7 13 9 10 14 2 15 3 16 7 17 4 18 6 19
REMARK SMILES IDX 8 20 5 21 9 23 1 26 14 29 17 31 18 34 19 35 31 36 20 37
REMARK SMILES IDX 30 39 21 41 29 43 22 44 24 45 23 46 25 49 26 50 28 51 27 52
REMARK H PARENT 16 2 16 3 11 8 12 10 12 11 13 12 15 13 4 22 8 24 9 25 1 27
REMARK H PARENT 1 28 14 30 17 32 17 33 19 38 31 40 20 42 22 47 23 48 26 53
REMARK H PARENT 26 54 28 55 28 56 27 57 27 58
REMARK Flexibility Score: inf
ROOT
ATOM      1  C   UNL     1     -48.393  34.412  26.912  1.00  0.00    -0.020 C 
ATOM      2  H   UNL     1     -49.341  34.284  26.371  1.00  0.00     0.030 H 
ATOM      3  H   UNL     1     -48.648  34.372  27.976  1.00  0.00     0.030 H 
ENDROOT
BRANCH   1   4
ATOM      4  C   UNL     1     -47.526  33.199  26.545  1.00  0.00     0.086 C 
ATOM      5  C   UNL     1     -47.996  31.359  25.179  1.00  0.00     0.138 C 
ATOM      6  C   UNL     1     -47.379  32.425  24.285  1.00  0.00     0.021 C 
ATOM      7  O   UNL     1     -48.358  32.034  26.404  1.00  0.00    -0.352 OA
ATOM      8  H   UNL     1     -47.250  30.595  25.431  1.00  0.00     0.085 H 
ATOM      9  C   UNL     1     -46.685  33.326  25.273  1.00  0.00     0.085 C 
ATOM     10  H   UNL     1     -46.711  31.988  23.536  1.00  0.00     0.034 H 
ATOM     11  H   UNL     1     -48.143  33.002  23.769  1.00  0.00     0.034 H 
ATOM     12  H   UNL     1     -46.563  34.356  24.928  1.00  0.00     0.063 H 
ATOM     13  H   UNL     1     -46.863  33.005  27.398  1.00  0.00     0.063 H 
BRANCH   5  14
ATOM     14  N   UNL     1     -49.168  30.643  24.696  1.00  0.00    -0.306 N 
ATOM     15  C   UNL     1     -51.230  27.778  24.377  1.00  0.00     0.136 A 
ATOM     16  N   UNL     1     -50.551  26.858  25.088  1.00  0.00    -0.219 NA
ATOM     17  C   UNL     1     -50.714  29.078  24.274  1.00  0.00     0.061 A 
ATOM     18  C   UNL     1     -49.399  27.236  25.675  1.00  0.00     0.120 A 
ATOM     19  C   UNL     1     -49.524  29.338  24.944  1.00  0.00     0.147 A 
ATOM     20  C   UNL     1     -51.104  30.283  23.631  1.00  0.00    -0.031 A 
ATOM     21  N   UNL     1     -48.837  28.455  25.688  1.00  0.00    -0.218 NA
ATOM     22  H   UNL     1     -48.858  26.457  26.206  1.00  0.00     0.106 H 
ATOM     23  C   UNL     1     -50.146  31.231  23.914  1.00  0.00     0.009 A 
ATOM     24  H   UNL     1     -51.981  30.437  23.018  1.00  0.00     0.065 H 
ATOM     25  H   UNL     1     -50.056  32.267  23.610  1.00  0.00     0.082 H 
BRANCH  15  26
ATOM     26  N   UNL     1     -52.422  27.375  23.790  1.00  0.00    -0.383 N 
ATOM     27  H   UNL     1     -53.128  28.093  23.904  1.00  0.00     0.158 HD
ATOM     28  H   UNL     1     -52.322  26.983  22.865  1.00  0.00     0.158 HD
ENDBRANCH  15  26
ENDBRANCH   5  14
BRANCH   9  29
ATOM     29  O   UNL     1     -45.373  32.804  25.513  1.00  0.00    -0.390 OA
ATOM     30  H   UNL     1     -44.798  33.125  24.795  1.00  0.00     0.211 HD
ENDBRANCH   9  29
ENDBRANCH   1   4
BRANCH   1  31
ATOM     31  C   UNL     1     -47.874  35.802  26.507  1.00  0.00    -0.025 C 
ATOM     32  H   UNL     1     -48.737  36.476  26.428  1.00  0.00     0.032 H 
ATOM     33  H   UNL     1     -47.449  35.751  25.497  1.00  0.00     0.032 H 
BRANCH  31  34
ATOM     34  C   UNL     1     -46.900  36.467  27.448  1.00  0.00    -0.046 A 
ATOM     35  C   UNL     1     -46.616  35.939  28.710  1.00  0.00    -0.058 A 
ATOM     36  C   UNL     1     -46.301  37.688  27.083  1.00  0.00    -0.033 A 
ATOM     37  C   UNL     1     -45.718  36.590  29.556  1.00  0.00    -0.053 A 
ATOM     38  H   UNL     1     -47.092  35.024  29.052  1.00  0.00     0.063 H 
ATOM     39  C   UNL     1     -45.398  38.354  27.903  1.00  0.00     0.073 A 
ATOM     40  H   UNL     1     -46.524  38.133  26.114  1.00  0.00     0.065 H 
ATOM     41  C   UNL     1     -45.103  37.788  29.156  1.00  0.00     0.000 A 
ATOM     42  H   UNL     1     -45.504  36.161  30.532  1.00  0.00     0.063 H 
ATOM     43  N   UNL     1     -44.836  39.499  27.479  1.00  0.00    -0.231 NA
ATOM     44  C   UNL     1     -44.191  38.459  29.973  1.00  0.00    -0.049 A 
ATOM     45  C   UNL     1     -43.961  40.148  28.279  1.00  0.00     0.129 A 
ATOM     46  C   UNL     1     -43.614  39.645  29.528  1.00  0.00    -0.019 A 
ATOM     47  H   UNL     1     -43.921  38.069  30.950  1.00  0.00     0.063 H 
ATOM     48  H   UNL     1     -42.895  40.164  30.153  1.00  0.00     0.066 H 
BRANCH  45  49
ATOM     49  N   UNL     1     -43.379  41.343  27.814  1.00  0.00    -0.356 N 
ATOM     50  C   UNL     1     -43.707  42.026  26.595  1.00  0.00     0.021 C 
ATOM     51  C   UNL     1     -41.966  41.515  27.603  1.00  0.00     0.021 C 
ATOM     52  C   UNL     1     -42.336  42.701  26.706  1.00  0.00    -0.018 C 
ATOM     53  H   UNL     1     -44.570  42.689  26.683  1.00  0.00     0.049 H 
ATOM     54  H   UNL     1     -43.820  41.349  25.742  1.00  0.00     0.049 H 
ATOM     55  H   UNL     1     -41.503  40.670  27.083  1.00  0.00     0.049 H 
ATOM     56  H   UNL     1     -41.415  41.763  28.511  1.00  0.00     0.049 H 
ATOM     57  H   UNL     1     -41.771  42.789  25.776  1.00  0.00     0.030 H 
ATOM     58  H   UNL     1     -42.350  43.669  27.220  1.00  0.00     0.030 H 
ENDBRANCH  45  49
ENDBRANCH  31  34
ENDBRANCH   1  31
TORSDOF 7
ENDMDL
