MODEL 1
REMARK VINA RESULT:     -10.8      0.000      0.000
REMARK SMILES CNc1ccc2ccc(OC[C@H]3O[C@@H](n4cc(C5CCN(C)CC5)c5c(N)ncnc54)[C@@H](F)[C@@H]3O)cc2n1
REMARK SMILES IDX 11 1 10 4 9 5 3 6 4 7 38 8 5 9 37 11 6 12 36 14 7 15 8 17
REMARK SMILES IDX 2 20 1 22 12 26 13 27 34 28 14 30 32 31 33 34 35 36 15 38
REMARK SMILES IDX 16 39 31 40 17 41 25 43 30 44 26 45 29 46 28 47 18 49 19 50
REMARK SMILES IDX 24 51 20 53 23 56 21 59 22 64 27 68
REMARK H PARENT 11 2 11 3 4 10 5 13 36 16 7 18 8 19 2 21 1 23 1 24 1 25 12 29
REMARK H PARENT 34 32 14 33 32 35 35 37 16 42 29 48 18 52 19 54 19 55 24 57
REMARK H PARENT 24 58 20 60 20 61 23 62 23 63 22 65 22 66 22 67 27 69 27 70
REMARK Flexibility Score: inf
ROOT
ATOM      1  C   UNL     1     -47.046  36.221  27.216  1.00  0.00     0.117 C 
ATOM      2  H   UNL     1     -47.958  35.707  27.543  1.00  0.00     0.073 H 
ATOM      3  H   UNL     1     -47.387  37.236  26.978  1.00  0.00     0.073 H 
ENDROOT
BRANCH   1   4
ATOM      4  O   UNL     1     -46.572  35.522  26.065  1.00  0.00    -0.491 OA
BRANCH   4   5
ATOM      5  C   UNL     1     -47.098  34.296  25.773  1.00  0.00     0.121 A 
ATOM      6  C   UNL     1     -47.095  29.961  23.805  1.00  0.00     0.126 A 
ATOM      7  C   UNL     1     -48.352  29.671  24.324  1.00  0.00    -0.019 A 
ATOM      8  N   UNL     1     -46.499  31.152  24.023  1.00  0.00    -0.231 NA
ATOM      9  C   UNL     1     -49.004  30.620  25.105  1.00  0.00    -0.049 A 
ATOM     10  H   UNL     1     -48.828  28.720  24.113  1.00  0.00     0.066 H 
ATOM     11  C   UNL     1     -47.124  32.077  24.772  1.00  0.00     0.076 A 
ATOM     12  C   UNL     1     -48.390  31.851  25.344  1.00  0.00     0.001 A 
ATOM     13  H   UNL     1     -49.986  30.395  25.512  1.00  0.00     0.063 H 
ATOM     14  C   UNL     1     -46.501  33.300  24.995  1.00  0.00     0.007 A 
ATOM     15  C   UNL     1     -49.000  32.845  26.124  1.00  0.00    -0.049 A 
ATOM     16  H   UNL     1     -45.531  33.439  24.534  1.00  0.00     0.069 H 
ATOM     17  C   UNL     1     -48.351  34.059  26.336  1.00  0.00    -0.019 A 
ATOM     18  H   UNL     1     -49.980  32.681  26.567  1.00  0.00     0.063 H 
ATOM     19  H   UNL     1     -48.828  34.828  26.938  1.00  0.00     0.066 H 
BRANCH   6  20
ATOM     20  N   UNL     1     -46.477  28.989  22.998  1.00  0.00    -0.373 N 
ATOM     21  H   UNL     1     -47.018  28.874  22.146  1.00  0.00     0.161 HD
BRANCH  20  22
ATOM     22  C   UNL     1     -46.239  27.720  23.665  1.00  0.00     0.005 C 
ATOM     23  H   UNL     1     -45.602  27.894  24.540  1.00  0.00     0.045 H 
ATOM     24  H   UNL     1     -45.719  27.012  23.012  1.00  0.00     0.045 H 
ATOM     25  H   UNL     1     -47.172  27.275  24.026  1.00  0.00     0.045 H 
ENDBRANCH  20  22
ENDBRANCH   6  20
ENDBRANCH   4   5
ENDBRANCH   1   4
BRANCH   1  26
ATOM     26  C   UNL     1     -46.012  36.211  28.349  1.00  0.00     0.123 C 
ATOM     27  O   UNL     1     -44.915  37.076  27.983  1.00  0.00    -0.345 OA
ATOM     28  C   UNL     1     -46.568  36.720  29.683  1.00  0.00     0.119 C 
ATOM     29  H   UNL     1     -45.602  35.203  28.474  1.00  0.00     0.067 H 
ATOM     30  C   UNL     1     -44.914  38.198  28.901  1.00  0.00     0.169 C 
ATOM     31  C   UNL     1     -46.253  38.197  29.625  1.00  0.00     0.173 C 
ATOM     32  H   UNL     1     -47.635  36.519  29.818  1.00  0.00     0.066 H 
ATOM     33  H   UNL     1     -44.084  38.022  29.596  1.00  0.00     0.088 H 
ATOM     34  F   UNL     1     -47.216  38.809  28.881  1.00  0.00    -0.239 F 
ATOM     35  H   UNL     1     -46.207  38.689  30.601  1.00  0.00     0.074 H 
BRANCH  28  36
ATOM     36  O   UNL     1     -45.865  36.133  30.785  1.00  0.00    -0.387 OA
ATOM     37  H   UNL     1     -46.196  35.223  30.890  1.00  0.00     0.211 HD
ENDBRANCH  28  36
BRANCH  30  38
ATOM     38  N   UNL     1     -44.633  39.433  28.188  1.00  0.00    -0.303 N 
ATOM     39  C   UNL     1     -45.273  39.913  27.074  1.00  0.00     0.013 A 
ATOM     40  C   UNL     1     -43.653  40.313  28.566  1.00  0.00     0.147 A 
ATOM     41  C   UNL     1     -44.690  41.118  26.709  1.00  0.00    -0.014 A 
ATOM     42  H   UNL     1     -46.083  39.355  26.623  1.00  0.00     0.082 H 
ATOM     43  C   UNL     1     -43.667  41.389  27.686  1.00  0.00     0.065 A 
ATOM     44  N   UNL     1     -42.836  40.144  29.621  1.00  0.00    -0.218 NA
ATOM     45  C   UNL     1     -42.735  42.408  27.949  1.00  0.00     0.136 A 
ATOM     46  C   UNL     1     -41.982  41.170  29.752  1.00  0.00     0.120 A 
ATOM     47  N   UNL     1     -41.893  42.276  28.994  1.00  0.00    -0.219 NA
ATOM     48  H   UNL     1     -41.279  41.103  30.576  1.00  0.00     0.106 H 
BRANCH  41  49
ATOM     49  C   UNL     1     -45.072  41.970  25.520  1.00  0.00    -0.011 C 
ATOM     50  C   UNL     1     -45.976  43.166  25.881  1.00  0.00    -0.033 C 
ATOM     51  C   UNL     1     -43.826  42.416  24.737  1.00  0.00    -0.033 C 
ATOM     52  H   UNL     1     -45.681  41.345  24.855  1.00  0.00     0.035 H 
ATOM     53  C   UNL     1     -45.195  44.477  25.939  1.00  0.00    -0.002 C 
ATOM     54  H   UNL     1     -46.757  43.264  25.113  1.00  0.00     0.029 H 
ATOM     55  H   UNL     1     -46.508  43.001  26.826  1.00  0.00     0.029 H 
ATOM     56  C   UNL     1     -44.141  43.637  23.877  1.00  0.00    -0.002 C 
ATOM     57  H   UNL     1     -43.474  41.593  24.101  1.00  0.00     0.029 H 
ATOM     58  H   UNL     1     -42.994  42.652  25.414  1.00  0.00     0.029 H 
ATOM     59  N   UNL     1     -44.496  44.807  24.690  1.00  0.00    -0.306 NA
ATOM     60  H   UNL     1     -44.441  44.410  26.732  1.00  0.00     0.043 H 
ATOM     61  H   UNL     1     -45.864  45.291  26.246  1.00  0.00     0.043 H 
ATOM     62  H   UNL     1     -44.952  43.374  23.185  1.00  0.00     0.043 H 
ATOM     63  H   UNL     1     -43.265  43.883  23.265  1.00  0.00     0.043 H 
BRANCH  59  64
ATOM     64  C   UNL     1     -45.220  45.794  23.895  1.00  0.00    -0.013 C 
ATOM     65  H   UNL     1     -46.287  45.548  23.852  1.00  0.00     0.039 H 
ATOM     66  H   UNL     1     -45.114  46.807  24.301  1.00  0.00     0.039 H 
ATOM     67  H   UNL     1     -44.859  45.797  22.861  1.00  0.00     0.039 H 
ENDBRANCH  59  64
ENDBRANCH  41  49
BRANCH  45  68
ATOM     68  N   UNL     1     -42.631  43.591  27.225  1.00  0.00    -0.383 N 
ATOM     69  H   UNL     1     -43.114  43.562  26.339  1.00  0.00     0.158 HD
ATOM     70  H   UNL     1     -42.884  44.370  27.824  1.00  0.00     0.158 HD
ENDBRANCH  45  68
ENDBRANCH  30  38
ENDBRANCH   1  26
TORSDOF 10
ENDMDL
MODEL 2
REMARK VINA RESULT:      -9.2      1.669      2.270
REMARK SMILES CNc1ccc2ccc(OC[C@H]3O[C@@H](n4cc(C5CCN(C)CC5)c5c(N)ncnc54)[C@@H](F)[C@@H]3O)cc2n1
REMARK SMILES IDX 11 1 10 4 9 5 3 6 4 7 38 8 5 9 37 11 6 12 36 14 7 15 8 17
REMARK SMILES IDX 2 20 1 22 12 26 13 27 34 28 14 30 32 31 33 34 35 36 15 38
REMARK SMILES IDX 16 39 31 40 17 41 25 43 30 44 26 45 29 46 28 47 18 49 19 50
REMARK SMILES IDX 24 51 20 53 23 56 21 59 22 64 27 68
REMARK H PARENT 11 2 11 3 4 10 5 13 36 16 7 18 8 19 2 21 1 23 1 24 1 25 12 29
REMARK H PARENT 34 32 14 33 32 35 35 37 16 42 29 48 18 52 19 54 19 55 24 57
REMARK H PARENT 24 58 20 60 20 61 23 62 23 63 22 65 22 66 22 67 27 69 27 70
REMARK Flexibility Score: inf
ROOT
ATOM      1  C   UNL     1     -46.318  35.222  26.987  1.00  0.00     0.117 C 
ATOM      2  H   UNL     1     -45.619  35.948  26.556  1.00  0.00     0.073 H 
ATOM      3  H   UNL     1     -45.678  34.380  27.278  1.00  0.00     0.073 H 
ENDROOT
BRANCH   1   4
ATOM      4  O   UNL     1     -47.238  34.873  25.952  1.00  0.00    -0.491 OA
BRANCH   4   5
ATOM      5  C   UNL     1     -47.228  33.599  25.459  1.00  0.00     0.121 A 
ATOM      6  C   UNL     1     -48.806  29.128  25.036  1.00  0.00     0.126 A 
ATOM      7  C   UNL     1     -47.825  28.819  24.101  1.00  0.00    -0.019 A 
ATOM      8  N   UNL     1     -48.887  30.353  25.595  1.00  0.00    -0.231 NA
ATOM      9  C   UNL     1     -46.917  29.799  23.713  1.00  0.00    -0.049 A 
ATOM     10  H   UNL     1     -47.757  27.819  23.686  1.00  0.00     0.066 H 
ATOM     11  C   UNL     1     -48.011  31.306  25.229  1.00  0.00     0.076 A 
ATOM     12  C   UNL     1     -47.000  31.073  24.278  1.00  0.00     0.001 A 
ATOM     13  H   UNL     1     -46.150  29.558  22.982  1.00  0.00     0.063 H 
ATOM     14  C   UNL     1     -48.104  32.568  25.806  1.00  0.00     0.007 A 
ATOM     15  C   UNL     1     -46.113  32.100  23.924  1.00  0.00    -0.049 A 
ATOM     16  H   UNL     1     -48.891  32.708  26.538  1.00  0.00     0.069 H 
ATOM     17  C   UNL     1     -46.232  33.356  24.514  1.00  0.00    -0.019 A 
ATOM     18  H   UNL     1     -45.326  31.929  23.193  1.00  0.00     0.063 H 
ATOM     19  H   UNL     1     -45.541  34.149  24.240  1.00  0.00     0.066 H 
BRANCH   6  20
ATOM     20  N   UNL     1     -49.689  28.105  25.425  1.00  0.00    -0.373 N 
ATOM     21  H   UNL     1     -50.545  28.523  25.778  1.00  0.00     0.161 HD
BRANCH  20  22
ATOM     22  C   UNL     1     -49.124  27.152  26.366  1.00  0.00     0.005 C 
ATOM     23  H   UNL     1     -48.230  27.590  26.821  1.00  0.00     0.045 H 
ATOM     24  H   UNL     1     -48.821  26.225  25.868  1.00  0.00     0.045 H 
ATOM     25  H   UNL     1     -49.824  26.924  27.177  1.00  0.00     0.045 H 
ENDBRANCH  20  22
ENDBRANCH   6  20
ENDBRANCH   4   5
ENDBRANCH   1   4
BRANCH   1  26
ATOM     26  C   UNL     1     -47.035  35.845  28.192  1.00  0.00     0.123 C 
ATOM     27  O   UNL     1     -46.134  36.768  28.841  1.00  0.00    -0.345 OA
ATOM     28  C   UNL     1     -48.294  36.631  27.810  1.00  0.00     0.119 C 
ATOM     29  H   UNL     1     -47.286  35.068  28.922  1.00  0.00     0.067 H 
ATOM     30  C   UNL     1     -46.679  38.102  28.682  1.00  0.00     0.169 C 
ATOM     31  C   UNL     1     -47.757  38.029  27.609  1.00  0.00     0.173 C 
ATOM     32  H   UNL     1     -48.801  36.241  26.922  1.00  0.00     0.066 H 
ATOM     33  H   UNL     1     -47.102  38.375  29.656  1.00  0.00     0.088 H 
ATOM     34  F   UNL     1     -47.215  38.102  26.361  1.00  0.00    -0.239 F 
ATOM     35  H   UNL     1     -48.505  38.820  27.708  1.00  0.00     0.074 H 
BRANCH  28  36
ATOM     36  O   UNL     1     -49.236  36.640  28.889  1.00  0.00    -0.387 OA
ATOM     37  H   UNL     1     -48.815  36.195  29.647  1.00  0.00     0.211 HD
ENDBRANCH  28  36
BRANCH  30  38
ATOM     38  N   UNL     1     -45.617  39.048  28.384  1.00  0.00    -0.303 N 
ATOM     39  C   UNL     1     -45.576  39.954  27.355  1.00  0.00     0.013 A 
ATOM     40  C   UNL     1     -44.477  39.159  29.136  1.00  0.00     0.147 A 
ATOM     41  C   UNL     1     -44.382  40.657  27.427  1.00  0.00    -0.014 A 
ATOM     42  H   UNL     1     -46.392  40.019  26.647  1.00  0.00     0.082 H 
ATOM     43  C   UNL     1     -43.688  40.165  28.589  1.00  0.00     0.065 A 
ATOM     44  N   UNL     1     -44.198  38.415  30.220  1.00  0.00    -0.218 NA
ATOM     45  C   UNL     1     -42.484  40.434  29.263  1.00  0.00     0.136 A 
ATOM     46  C   UNL     1     -43.016  38.751  30.758  1.00  0.00     0.120 A 
ATOM     47  N   UNL     1     -42.162  39.707  30.352  1.00  0.00    -0.219 NA
ATOM     48  H   UNL     1     -42.712  38.185  31.633  1.00  0.00     0.106 H 
BRANCH  41  49
ATOM     49  C   UNL     1     -43.920  41.731  26.469  1.00  0.00    -0.011 C 
ATOM     50  C   UNL     1     -44.840  41.905  25.244  1.00  0.00    -0.033 C 
ATOM     51  C   UNL     1     -43.691  43.064  27.202  1.00  0.00    -0.033 C 
ATOM     52  H   UNL     1     -42.956  41.405  26.056  1.00  0.00     0.035 H 
ATOM     53  C   UNL     1     -45.754  43.121  25.382  1.00  0.00    -0.002 C 
ATOM     54  H   UNL     1     -44.216  42.044  24.350  1.00  0.00     0.029 H 
ATOM     55  H   UNL     1     -45.436  41.004  25.054  1.00  0.00     0.029 H 
ATOM     56  C   UNL     1     -43.719  44.229  26.217  1.00  0.00    -0.002 C 
ATOM     57  H   UNL     1     -42.726  43.039  27.723  1.00  0.00     0.029 H 
ATOM     58  H   UNL     1     -44.451  43.225  27.978  1.00  0.00     0.029 H 
ATOM     59  N   UNL     1     -45.034  44.385  25.583  1.00  0.00    -0.306 NA
ATOM     60  H   UNL     1     -46.415  42.975  26.246  1.00  0.00     0.043 H 
ATOM     61  H   UNL     1     -46.424  43.178  24.515  1.00  0.00     0.043 H 
ATOM     62  H   UNL     1     -42.934  44.068  25.466  1.00  0.00     0.043 H 
ATOM     63  H   UNL     1     -43.469  45.156  26.747  1.00  0.00     0.043 H 
BRANCH  59  64
ATOM     64  C   UNL     1     -44.932  45.165  24.353  1.00  0.00    -0.013 C 
ATOM     65  H   UNL     1     -45.392  46.151  24.482  1.00  0.00     0.039 H 
ATOM     66  H   UNL     1     -43.890  45.307  24.042  1.00  0.00     0.039 H 
ATOM     67  H   UNL     1     -45.472  44.672  23.538  1.00  0.00     0.039 H 
ENDBRANCH  59  64
ENDBRANCH  41  49
BRANCH  45  68
ATOM     68  N   UNL     1     -41.589  41.439  28.913  1.00  0.00    -0.383 N 
ATOM     69  H   UNL     1     -41.963  42.369  29.035  1.00  0.00     0.158 HD
ATOM     70  H   UNL     1     -40.702  41.270  29.376  1.00  0.00     0.158 HD
ENDBRANCH  45  68
ENDBRANCH  30  38
ENDBRANCH   1  26
TORSDOF 10
ENDMDL
MODEL 3
REMARK VINA RESULT:      -8.9      1.605      2.095
REMARK SMILES CNc1ccc2ccc(OC[C@H]3O[C@@H](n4cc(C5CCN(C)CC5)c5c(N)ncnc54)[C@@H](F)[C@@H]3O)cc2n1
REMARK SMILES IDX 11 1 10 4 9 5 3 6 4 7 38 8 5 9 37 11 6 12 36 14 7 15 8 17
REMARK SMILES IDX 2 20 1 22 12 26 13 27 34 28 14 30 32 31 33 34 35 36 15 38
REMARK SMILES IDX 16 39 31 40 17 41 25 43 30 44 26 45 29 46 28 47 18 49 19 50
REMARK SMILES IDX 24 51 20 53 23 56 21 59 22 64 27 68
REMARK H PARENT 11 2 11 3 4 10 5 13 36 16 7 18 8 19 2 21 1 23 1 24 1 25 12 29
REMARK H PARENT 34 32 14 33 32 35 35 37 16 42 29 48 18 52 19 54 19 55 24 57
REMARK H PARENT 24 58 20 60 20 61 23 62 23 63 22 65 22 66 22 67 27 69 27 70
REMARK Flexibility Score: inf
ROOT
ATOM      1  C   UNL     1     -45.794  35.561  27.338  1.00  0.00     0.117 C 
ATOM      2  H   UNL     1     -45.985  35.802  26.285  1.00  0.00     0.073 H 
ATOM      3  H   UNL     1     -44.767  35.907  27.506  1.00  0.00     0.073 H 
ENDROOT
BRANCH   1   4
ATOM      4  O   UNL     1     -45.919  34.145  27.464  1.00  0.00    -0.491 OA
BRANCH   4   5
ATOM      5  C   UNL     1     -46.606  33.454  26.506  1.00  0.00     0.121 A 
ATOM      6  C   UNL     1     -47.069  31.039  22.430  1.00  0.00     0.126 A 
ATOM      7  C   UNL     1     -48.431  30.848  22.641  1.00  0.00    -0.019 A 
ATOM      8  N   UNL     1     -46.309  31.724  23.309  1.00  0.00    -0.231 NA
ATOM      9  C   UNL     1     -49.021  31.354  23.794  1.00  0.00    -0.049 A 
ATOM     10  H   UNL     1     -49.032  30.321  21.909  1.00  0.00     0.066 H 
ATOM     11  C   UNL     1     -46.871  32.221  24.423  1.00  0.00     0.076 A 
ATOM     12  C   UNL     1     -48.239  32.055  24.715  1.00  0.00     0.001 A 
ATOM     13  H   UNL     1     -50.084  31.206  23.961  1.00  0.00     0.063 H 
ATOM     14  C   UNL     1     -46.079  32.922  25.326  1.00  0.00     0.007 A 
ATOM     15  C   UNL     1     -48.779  32.588  25.894  1.00  0.00    -0.049 A 
ATOM     16  H   UNL     1     -45.033  33.034  25.066  1.00  0.00     0.069 H 
ATOM     17  C   UNL     1     -47.962  33.281  26.783  1.00  0.00    -0.019 A 
ATOM     18  H   UNL     1     -49.835  32.468  26.125  1.00  0.00     0.063 H 
ATOM     19  H   UNL     1     -48.385  33.696  27.695  1.00  0.00     0.066 H 
BRANCH   6  20
ATOM     20  N   UNL     1     -46.512  30.537  21.241  1.00  0.00    -0.373 N 
ATOM     21  H   UNL     1     -45.848  29.803  21.470  1.00  0.00     0.161 HD
BRANCH  20  22
ATOM     22  C   UNL     1     -45.925  31.550  20.380  1.00  0.00     0.005 C 
ATOM     23  H   UNL     1     -45.378  31.055  19.571  1.00  0.00     0.045 H 
ATOM     24  H   UNL     1     -45.214  32.180  20.925  1.00  0.00     0.045 H 
ATOM     25  H   UNL     1     -46.694  32.178  19.916  1.00  0.00     0.045 H 
ENDBRANCH  20  22
ENDBRANCH   6  20
ENDBRANCH   4   5
ENDBRANCH   1   4
BRANCH   1  26
ATOM     26  C   UNL     1     -46.802  36.298  28.229  1.00  0.00     0.123 C 
ATOM     27  O   UNL     1     -46.126  37.388  28.891  1.00  0.00    -0.345 OA
ATOM     28  C   UNL     1     -47.977  36.898  27.448  1.00  0.00     0.119 C 
ATOM     29  H   UNL     1     -47.176  35.625  29.008  1.00  0.00     0.067 H 
ATOM     30  C   UNL     1     -46.687  38.626  28.388  1.00  0.00     0.169 C 
ATOM     31  C   UNL     1     -47.481  38.291  27.133  1.00  0.00     0.173 C 
ATOM     32  H   UNL     1     -48.243  36.330  26.551  1.00  0.00     0.066 H 
ATOM     33  H   UNL     1     -47.339  39.010  29.183  1.00  0.00     0.088 H 
ATOM     34  F   UNL     1     -46.668  38.216  26.042  1.00  0.00    -0.239 F 
ATOM     35  H   UNL     1     -48.272  39.017  26.926  1.00  0.00     0.074 H 
BRANCH  28  36
ATOM     36  O   UNL     1     -49.143  36.991  28.275  1.00  0.00    -0.387 OA
ATOM     37  H   UNL     1     -48.888  36.709  29.172  1.00  0.00     0.211 HD
ENDBRANCH  28  36
BRANCH  30  38
ATOM     38  N   UNL     1     -45.636  39.606  28.174  1.00  0.00    -0.303 N 
ATOM     39  C   UNL     1     -45.636  40.642  27.275  1.00  0.00     0.013 A 
ATOM     40  C   UNL     1     -44.464  39.618  28.883  1.00  0.00     0.147 A 
ATOM     41  C   UNL     1     -44.437  41.331  27.388  1.00  0.00    -0.014 A 
ATOM     42  H   UNL     1     -46.482  40.799  26.619  1.00  0.00     0.082 H 
ATOM     43  C   UNL     1     -43.696  40.690  28.442  1.00  0.00     0.065 A 
ATOM     44  N   UNL     1     -44.140  38.735  29.845  1.00  0.00    -0.218 NA
ATOM     45  C   UNL     1     -42.462  40.868  29.092  1.00  0.00     0.136 A 
ATOM     46  C   UNL     1     -42.935  38.999  30.370  1.00  0.00     0.120 A 
ATOM     47  N   UNL     1     -42.096  40.002  30.059  1.00  0.00    -0.219 NA
ATOM     48  H   UNL     1     -42.595  38.321  31.147  1.00  0.00     0.106 H 
BRANCH  41  49
ATOM     49  C   UNL     1     -44.014  42.525  26.563  1.00  0.00    -0.011 C 
ATOM     50  C   UNL     1     -43.217  42.150  25.296  1.00  0.00    -0.033 C 
ATOM     51  C   UNL     1     -45.217  43.424  26.233  1.00  0.00    -0.033 C 
ATOM     52  H   UNL     1     -43.315  43.111  27.174  1.00  0.00     0.035 H 
ATOM     53  C   UNL     1     -44.080  42.216  24.038  1.00  0.00    -0.002 C 
ATOM     54  H   UNL     1     -42.385  42.859  25.180  1.00  0.00     0.029 H 
ATOM     55  H   UNL     1     -42.755  41.160  25.386  1.00  0.00     0.029 H 
ATOM     56  C   UNL     1     -44.910  44.312  25.031  1.00  0.00    -0.002 C 
ATOM     57  H   UNL     1     -45.464  44.046  27.102  1.00  0.00     0.029 H 
ATOM     58  H   UNL     1     -46.114  42.826  26.023  1.00  0.00     0.029 H 
ATOM     59  N   UNL     1     -44.695  43.530  23.807  1.00  0.00    -0.306 NA
ATOM     60  H   UNL     1     -44.891  41.482  24.120  1.00  0.00     0.043 H 
ATOM     61  H   UNL     1     -43.490  41.895  23.170  1.00  0.00     0.043 H 
ATOM     62  H   UNL     1     -44.030  44.926  25.268  1.00  0.00     0.043 H 
ATOM     63  H   UNL     1     -45.746  45.003  24.868  1.00  0.00     0.043 H 
BRANCH  59  64
ATOM     64  C   UNL     1     -43.972  44.311  22.809  1.00  0.00    -0.013 C 
ATOM     65  H   UNL     1     -44.440  44.207  21.823  1.00  0.00     0.039 H 
ATOM     66  H   UNL     1     -43.939  45.377  23.064  1.00  0.00     0.039 H 
ATOM     67  H   UNL     1     -42.943  43.949  22.706  1.00  0.00     0.039 H 
ENDBRANCH  59  64
ENDBRANCH  41  49
BRANCH  45  68
ATOM     68  N   UNL     1     -41.579  41.913  28.840  1.00  0.00    -0.383 N 
ATOM     69  H   UNL     1     -40.611  41.659  28.973  1.00  0.00     0.158 HD
ATOM     70  H   UNL     1     -41.795  42.319  27.936  1.00  0.00     0.158 HD
ENDBRANCH  45  68
ENDBRANCH  30  38
ENDBRANCH   1  26
TORSDOF 10
ENDMDL
MODEL 4
REMARK VINA RESULT:      -8.8      3.087      6.064
REMARK SMILES CNc1ccc2ccc(OC[C@H]3O[C@@H](n4cc(C5CCN(C)CC5)c5c(N)ncnc54)[C@@H](F)[C@@H]3O)cc2n1
REMARK SMILES IDX 11 1 10 4 9 5 3 6 4 7 38 8 5 9 37 11 6 12 36 14 7 15 8 17
REMARK SMILES IDX 2 20 1 22 12 26 13 27 34 28 14 30 32 31 33 34 35 36 15 38
REMARK SMILES IDX 16 39 31 40 17 41 25 43 30 44 26 45 29 46 28 47 18 49 19 50
REMARK SMILES IDX 24 51 20 53 23 56 21 59 22 64 27 68
REMARK H PARENT 11 2 11 3 4 10 5 13 36 16 7 18 8 19 2 21 1 23 1 24 1 25 12 29
REMARK H PARENT 34 32 14 33 32 35 35 37 16 42 29 48 18 52 19 54 19 55 24 57
REMARK H PARENT 24 58 20 60 20 61 23 62 23 63 22 65 22 66 22 67 27 69 27 70
REMARK Flexibility Score: inf
ROOT
ATOM      1  C   UNL     1     -43.965  40.401  28.215  1.00  0.00     0.117 C 
ATOM      2  H   UNL     1     -43.768  39.353  28.472  1.00  0.00     0.073 H 
ATOM      3  H   UNL     1     -43.706  40.949  29.129  1.00  0.00     0.073 H 
ENDROOT
BRANCH   1   4
ATOM      4  O   UNL     1     -45.354  40.492  27.899  1.00  0.00    -0.491 OA
BRANCH   4   5
ATOM      5  C   UNL     1     -46.072  39.342  27.734  1.00  0.00     0.121 A 
ATOM      6  C   UNL     1     -46.624  34.685  26.916  1.00  0.00     0.126 A 
ATOM      7  C   UNL     1     -48.006  34.778  27.038  1.00  0.00    -0.019 A 
ATOM      8  N   UNL     1     -45.830  35.768  27.044  1.00  0.00    -0.231 NA
ATOM      9  C   UNL     1     -48.585  36.010  27.320  1.00  0.00    -0.049 A 
ATOM     10  H   UNL     1     -48.630  33.901  26.902  1.00  0.00     0.066 H 
ATOM     11  C   UNL     1     -46.382  36.964  27.312  1.00  0.00     0.076 A 
ATOM     12  C   UNL     1     -47.771  37.135  27.465  1.00  0.00     0.001 A 
ATOM     13  H   UNL     1     -49.665  36.084  27.416  1.00  0.00     0.063 H 
ATOM     14  C   UNL     1     -45.556  38.075  27.447  1.00  0.00     0.007 A 
ATOM     15  C   UNL     1     -48.300  38.402  27.749  1.00  0.00    -0.049 A 
ATOM     16  H   UNL     1     -44.494  37.907  27.317  1.00  0.00     0.069 H 
ATOM     17  C   UNL     1     -47.449  39.497  27.885  1.00  0.00    -0.019 A 
ATOM     18  H   UNL     1     -49.372  38.544  27.866  1.00  0.00     0.063 H 
ATOM     19  H   UNL     1     -47.862  40.479  28.102  1.00  0.00     0.066 H 
BRANCH   6  20
ATOM     20  N   UNL     1     -46.074  33.429  26.603  1.00  0.00    -0.373 N 
ATOM     21  H   UNL     1     -45.076  33.449  26.789  1.00  0.00     0.161 HD
BRANCH  20  22
ATOM     22  C   UNL     1     -46.367  32.966  25.257  1.00  0.00     0.005 C 
ATOM     23  H   UNL     1     -45.518  32.377  24.892  1.00  0.00     0.045 H 
ATOM     24  H   UNL     1     -46.512  33.802  24.565  1.00  0.00     0.045 H 
ATOM     25  H   UNL     1     -47.247  32.314  25.238  1.00  0.00     0.045 H 
ENDBRANCH  20  22
ENDBRANCH   6  20
ENDBRANCH   4   5
ENDBRANCH   1   4
BRANCH   1  26
ATOM     26  C   UNL     1     -43.087  40.816  27.026  1.00  0.00     0.123 C 
ATOM     27  O   UNL     1     -43.943  41.245  25.946  1.00  0.00    -0.345 OA
ATOM     28  C   UNL     1     -42.142  41.979  27.347  1.00  0.00     0.119 C 
ATOM     29  H   UNL     1     -42.514  39.956  26.665  1.00  0.00     0.067 H 
ATOM     30  C   UNL     1     -43.718  42.662  25.740  1.00  0.00     0.169 C 
ATOM     31  C   UNL     1     -42.964  43.184  26.955  1.00  0.00     0.173 C 
ATOM     32  H   UNL     1     -41.821  42.006  28.393  1.00  0.00     0.066 H 
ATOM     33  H   UNL     1     -43.113  42.745  24.829  1.00  0.00     0.088 H 
ATOM     34  F   UNL     1     -43.816  43.469  27.979  1.00  0.00    -0.239 F 
ATOM     35  H   UNL     1     -42.377  44.080  26.735  1.00  0.00     0.074 H 
BRANCH  28  36
ATOM     36  O   UNL     1     -40.969  41.923  26.526  1.00  0.00    -0.387 OA
ATOM     37  H   UNL     1     -40.912  42.766  26.041  1.00  0.00     0.211 HD
ENDBRANCH  28  36
BRANCH  30  38
ATOM     38  N   UNL     1     -44.978  43.343  25.494  1.00  0.00    -0.303 N 
ATOM     39  C   UNL     1     -46.193  43.077  26.072  1.00  0.00     0.013 A 
ATOM     40  C   UNL     1     -45.108  44.388  24.618  1.00  0.00     0.147 A 
ATOM     41  C   UNL     1     -47.136  43.952  25.552  1.00  0.00    -0.014 A 
ATOM     42  H   UNL     1     -46.294  42.280  26.797  1.00  0.00     0.082 H 
ATOM     43  C   UNL     1     -46.431  44.814  24.638  1.00  0.00     0.065 A 
ATOM     44  N   UNL     1     -44.106  44.901  23.881  1.00  0.00    -0.218 NA
ATOM     45  C   UNL     1     -46.735  45.909  23.810  1.00  0.00     0.136 A 
ATOM     46  C   UNL     1     -44.528  45.922  23.121  1.00  0.00     0.120 A 
ATOM     47  N   UNL     1     -45.761  46.451  23.051  1.00  0.00    -0.219 NA
ATOM     48  H   UNL     1     -43.778  46.385  22.485  1.00  0.00     0.106 H 
BRANCH  41  49
ATOM     49  C   UNL     1     -48.607  43.986  25.895  1.00  0.00    -0.011 C 
ATOM     50  C   UNL     1     -49.145  42.648  26.443  1.00  0.00    -0.033 C 
ATOM     51  C   UNL     1     -48.928  45.157  26.839  1.00  0.00    -0.033 C 
ATOM     52  H   UNL     1     -49.156  44.149  24.959  1.00  0.00     0.035 H 
ATOM     53  C   UNL     1     -49.300  42.673  27.963  1.00  0.00    -0.002 C 
ATOM     54  H   UNL     1     -50.132  42.456  26.000  1.00  0.00     0.029 H 
ATOM     55  H   UNL     1     -48.514  41.804  26.142  1.00  0.00     0.029 H 
ATOM     56  C   UNL     1     -50.246  44.913  27.568  1.00  0.00    -0.002 C 
ATOM     57  H   UNL     1     -48.986  46.090  26.265  1.00  0.00     0.029 H 
ATOM     58  H   UNL     1     -48.126  45.304  27.576  1.00  0.00     0.029 H 
ATOM     59  N   UNL     1     -50.179  43.743  28.452  1.00  0.00    -0.306 NA
ATOM     60  H   UNL     1     -48.314  42.820  28.421  1.00  0.00     0.043 H 
ATOM     61  H   UNL     1     -49.636  41.689  28.314  1.00  0.00     0.043 H 
ATOM     62  H   UNL     1     -51.041  44.799  26.819  1.00  0.00     0.043 H 
ATOM     63  H   UNL     1     -50.496  45.796  28.168  1.00  0.00     0.043 H 
BRANCH  59  64
ATOM     64  C   UNL     1     -51.517  43.255  28.774  1.00  0.00    -0.013 C 
ATOM     65  H   UNL     1     -52.165  44.082  29.087  1.00  0.00     0.039 H 
ATOM     66  H   UNL     1     -51.988  42.752  27.921  1.00  0.00     0.039 H 
ATOM     67  H   UNL     1     -51.481  42.552  29.613  1.00  0.00     0.039 H 
ENDBRANCH  59  64
ENDBRANCH  41  49
BRANCH  45  68
ATOM     68  N   UNL     1     -47.982  46.521  23.734  1.00  0.00    -0.383 N 
ATOM     69  H   UNL     1     -48.751  45.866  23.741  1.00  0.00     0.158 HD
ATOM     70  H   UNL     1     -48.036  47.252  24.437  1.00  0.00     0.158 HD
ENDBRANCH  45  68
ENDBRANCH  30  38
ENDBRANCH   1  26
TORSDOF 10
ENDMDL
MODEL 5
REMARK VINA RESULT:      -8.7      4.472      8.536
REMARK SMILES CNc1ccc2ccc(OC[C@H]3O[C@@H](n4cc(C5CCN(C)CC5)c5c(N)ncnc54)[C@@H](F)[C@@H]3O)cc2n1
REMARK SMILES IDX 11 1 10 4 9 5 3 6 4 7 38 8 5 9 37 11 6 12 36 14 7 15 8 17
REMARK SMILES IDX 2 20 1 22 12 26 13 27 34 28 14 30 32 31 33 34 35 36 15 38
REMARK SMILES IDX 16 39 31 40 17 41 25 43 30 44 26 45 29 46 28 47 18 49 19 50
REMARK SMILES IDX 24 51 20 53 23 56 21 59 22 64 27 68
REMARK H PARENT 11 2 11 3 4 10 5 13 36 16 7 18 8 19 2 21 1 23 1 24 1 25 12 29
REMARK H PARENT 34 32 14 33 32 35 35 37 16 42 29 48 18 52 19 54 19 55 24 57
REMARK H PARENT 24 58 20 60 20 61 23 62 23 63 22 65 22 66 22 67 27 69 27 70
REMARK Flexibility Score: inf
ROOT
ATOM      1  C   UNL     1     -44.358  38.711  28.962  1.00  0.00     0.117 C 
ATOM      2  H   UNL     1     -43.872  39.136  29.849  1.00  0.00     0.073 H 
ATOM      3  H   UNL     1     -43.523  38.340  28.356  1.00  0.00     0.073 H 
ENDROOT
BRANCH   1   4
ATOM      4  O   UNL     1     -45.060  39.779  28.327  1.00  0.00    -0.491 OA
BRANCH   4   5
ATOM      5  C   UNL     1     -44.361  40.660  27.550  1.00  0.00     0.121 A 
ATOM      6  C   UNL     1     -43.636  43.400  23.726  1.00  0.00     0.126 A 
ATOM      7  C   UNL     1     -42.414  43.845  24.217  1.00  0.00    -0.019 A 
ATOM      8  N   UNL     1     -44.391  42.516  24.410  1.00  0.00    -0.231 NA
ATOM      9  C   UNL     1     -41.965  43.388  25.452  1.00  0.00    -0.049 A 
ATOM     10  H   UNL     1     -41.807  44.533  23.638  1.00  0.00     0.066 H 
ATOM     11  C   UNL     1     -43.963  42.064  25.602  1.00  0.00     0.076 A 
ATOM     12  C   UNL     1     -42.745  42.481  26.172  1.00  0.00     0.001 A 
ATOM     13  H   UNL     1     -41.011  43.736  25.836  1.00  0.00     0.063 H 
ATOM     14  C   UNL     1     -44.749  41.156  26.304  1.00  0.00     0.007 A 
ATOM     15  C   UNL     1     -42.344  41.986  27.421  1.00  0.00    -0.049 A 
ATOM     16  H   UNL     1     -45.677  40.855  25.832  1.00  0.00     0.069 H 
ATOM     17  C   UNL     1     -43.153  41.082  28.104  1.00  0.00    -0.019 A 
ATOM     18  H   UNL     1     -41.403  42.300  27.868  1.00  0.00     0.063 H 
ATOM     19  H   UNL     1     -42.838  40.698  29.071  1.00  0.00     0.066 H 
BRANCH   6  20
ATOM     20  N   UNL     1     -44.045  43.862  22.462  1.00  0.00    -0.373 N 
ATOM     21  H   UNL     1     -44.090  43.075  21.821  1.00  0.00     0.161 HD
BRANCH  20  22
ATOM     22  C   UNL     1     -43.237  44.948  21.932  1.00  0.00     0.005 C 
ATOM     23  H   UNL     1     -42.408  45.142  22.621  1.00  0.00     0.045 H 
ATOM     24  H   UNL     1     -43.815  45.873  21.841  1.00  0.00     0.045 H 
ATOM     25  H   UNL     1     -42.800  44.688  20.962  1.00  0.00     0.045 H 
ENDBRANCH  20  22
ENDBRANCH   6  20
ENDBRANCH   4   5
ENDBRANCH   1   4
BRANCH   1  26
ATOM     26  C   UNL     1     -45.309  37.583  29.385  1.00  0.00     0.123 C 
ATOM     27  O   UNL     1     -46.611  38.149  29.647  1.00  0.00    -0.345 OA
ATOM     28  C   UNL     1     -45.489  36.506  28.309  1.00  0.00     0.119 C 
ATOM     29  H   UNL     1     -44.959  37.127  30.316  1.00  0.00     0.067 H 
ATOM     30  C   UNL     1     -47.526  37.633  28.648  1.00  0.00     0.169 C 
ATOM     31  C   UNL     1     -46.687  37.012  27.539  1.00  0.00     0.173 C 
ATOM     32  H   UNL     1     -44.607  36.368  27.676  1.00  0.00     0.066 H 
ATOM     33  H   UNL     1     -48.138  36.878  29.156  1.00  0.00     0.088 H 
ATOM     34  F   UNL     1     -46.259  37.958  26.657  1.00  0.00    -0.239 F 
ATOM     35  H   UNL     1     -47.226  36.240  26.983  1.00  0.00     0.074 H 
BRANCH  28  36
ATOM     36  O   UNL     1     -45.811  35.243  28.902  1.00  0.00    -0.387 OA
ATOM     37  H   UNL     1     -45.166  35.082  29.614  1.00  0.00     0.211 HD
ENDBRANCH  28  36
BRANCH  30  38
ATOM     38  N   UNL     1     -48.418  38.684  28.190  1.00  0.00    -0.303 N 
ATOM     39  C   UNL     1     -48.081  39.966  27.838  1.00  0.00     0.013 A 
ATOM     40  C   UNL     1     -49.769  38.510  28.040  1.00  0.00     0.147 A 
ATOM     41  C   UNL     1     -49.233  40.646  27.468  1.00  0.00    -0.014 A 
ATOM     42  H   UNL     1     -47.052  40.297  27.890  1.00  0.00     0.082 H 
ATOM     43  C   UNL     1     -50.314  39.701  27.571  1.00  0.00     0.065 A 
ATOM     44  N   UNL     1     -50.429  37.368  28.301  1.00  0.00    -0.218 NA
ATOM     45  C   UNL     1     -51.700  39.688  27.331  1.00  0.00     0.136 A 
ATOM     46  C   UNL     1     -51.742  37.491  28.054  1.00  0.00     0.120 A 
ATOM     47  N   UNL     1     -52.401  38.564  27.585  1.00  0.00    -0.219 NA
ATOM     48  H   UNL     1     -52.349  36.612  28.252  1.00  0.00     0.106 H 
BRANCH  41  49
ATOM     49  C   UNL     1     -49.316  42.092  27.037  1.00  0.00    -0.011 C 
ATOM     50  C   UNL     1     -50.081  42.990  28.030  1.00  0.00    -0.033 C 
ATOM     51  C   UNL     1     -47.920  42.655  26.721  1.00  0.00    -0.033 C 
ATOM     52  H   UNL     1     -49.908  42.122  26.113  1.00  0.00     0.035 H 
ATOM     53  C   UNL     1     -49.136  43.822  28.896  1.00  0.00    -0.002 C 
ATOM     54  H   UNL     1     -50.722  43.679  27.462  1.00  0.00     0.029 H 
ATOM     55  H   UNL     1     -50.759  42.407  28.664  1.00  0.00     0.029 H 
ATOM     56  C   UNL     1     -47.931  44.180  26.777  1.00  0.00    -0.002 C 
ATOM     57  H   UNL     1     -47.604  42.321  25.724  1.00  0.00     0.029 H 
ATOM     58  H   UNL     1     -47.168  42.270  27.422  1.00  0.00     0.029 H 
ATOM     59  N   UNL     1     -48.226  44.680  28.126  1.00  0.00    -0.306 NA
ATOM     60  H   UNL     1     -48.519  43.147  29.502  1.00  0.00     0.043 H 
ATOM     61  H   UNL     1     -49.718  44.407  29.619  1.00  0.00     0.043 H 
ATOM     62  H   UNL     1     -48.666  44.549  26.048  1.00  0.00     0.043 H 
ATOM     63  H   UNL     1     -46.951  44.561  26.465  1.00  0.00     0.043 H 
BRANCH  59  64
ATOM     64  C   UNL     1     -48.681  46.067  28.080  1.00  0.00    -0.013 C 
ATOM     65  H   UNL     1     -49.248  46.257  27.162  1.00  0.00     0.039 H 
ATOM     66  H   UNL     1     -49.315  46.320  28.937  1.00  0.00     0.039 H 
ATOM     67  H   UNL     1     -47.827  46.753  28.067  1.00  0.00     0.039 H 
ENDBRANCH  59  64
ENDBRANCH  41  49
BRANCH  45  68
ATOM     68  N   UNL     1     -52.421  40.754  26.806  1.00  0.00    -0.383 N 
ATOM     69  H   UNL     1     -53.257  40.969  27.330  1.00  0.00     0.158 HD
ATOM     70  H   UNL     1     -51.795  41.538  26.658  1.00  0.00     0.158 HD
ENDBRANCH  45  68
ENDBRANCH  30  38
ENDBRANCH   1  26
TORSDOF 10
ENDMDL
MODEL 6
REMARK VINA RESULT:      -8.6      2.797      3.650
REMARK SMILES CNc1ccc2ccc(OC[C@H]3O[C@@H](n4cc(C5CCN(C)CC5)c5c(N)ncnc54)[C@@H](F)[C@@H]3O)cc2n1
REMARK SMILES IDX 11 1 10 4 9 5 3 6 4 7 38 8 5 9 37 11 6 12 36 14 7 15 8 17
REMARK SMILES IDX 2 20 1 22 12 26 13 27 34 28 14 30 32 31 33 34 35 36 15 38
REMARK SMILES IDX 16 39 31 40 17 41 25 43 30 44 26 45 29 46 28 47 18 49 19 50
REMARK SMILES IDX 24 51 20 53 23 56 21 59 22 64 27 68
REMARK H PARENT 11 2 11 3 4 10 5 13 36 16 7 18 8 19 2 21 1 23 1 24 1 25 12 29
REMARK H PARENT 34 32 14 33 32 35 35 37 16 42 29 48 18 52 19 54 19 55 24 57
REMARK H PARENT 24 58 20 60 20 61 23 62 23 63 22 65 22 66 22 67 27 69 27 70
REMARK Flexibility Score: inf
ROOT
ATOM      1  C   UNL     1     -46.299  35.422  26.576  1.00  0.00     0.117 C 
ATOM      2  H   UNL     1     -46.677  36.269  25.992  1.00  0.00     0.073 H 
ATOM      3  H   UNL     1     -45.490  35.015  25.957  1.00  0.00     0.073 H 
ENDROOT
BRANCH   1   4
ATOM      4  O   UNL     1     -47.384  34.507  26.724  1.00  0.00    -0.491 OA
BRANCH   4   5
ATOM      5  C   UNL     1     -47.421  33.391  25.935  1.00  0.00     0.121 A 
ATOM      6  C   UNL     1     -49.363  29.416  24.178  1.00  0.00     0.126 A 
ATOM      7  C   UNL     1     -48.269  29.189  23.351  1.00  0.00    -0.019 A 
ATOM      8  N   UNL     1     -49.412  30.480  25.007  1.00  0.00    -0.231 NA
ATOM      9  C   UNL     1     -47.208  30.088  23.360  1.00  0.00    -0.049 A 
ATOM     10  H   UNL     1     -48.234  28.312  22.714  1.00  0.00     0.066 H 
ATOM     11  C   UNL     1     -48.390  31.352  25.025  1.00  0.00     0.076 A 
ATOM     12  C   UNL     1     -47.255  31.198  24.206  1.00  0.00     0.001 A 
ATOM     13  H   UNL     1     -46.352  29.912  22.714  1.00  0.00     0.063 H 
ATOM     14  C   UNL     1     -48.450  32.448  25.879  1.00  0.00     0.007 A 
ATOM     15  C   UNL     1     -46.215  32.137  24.257  1.00  0.00    -0.049 A 
ATOM     16  H   UNL     1     -49.336  32.530  26.498  1.00  0.00     0.069 H 
ATOM     17  C   UNL     1     -46.304  33.229  25.118  1.00  0.00    -0.019 A 
ATOM     18  H   UNL     1     -45.333  32.025  23.630  1.00  0.00     0.063 H 
ATOM     19  H   UNL     1     -45.495  33.953  25.156  1.00  0.00     0.066 H 
BRANCH   6  20
ATOM     20  N   UNL     1     -50.405  28.472  24.164  1.00  0.00    -0.373 N 
ATOM     21  H   UNL     1     -50.659  28.244  25.121  1.00  0.00     0.161 HD
BRANCH  20  22
ATOM     22  C   UNL     1     -50.123  27.282  23.379  1.00  0.00     0.005 C 
ATOM     23  H   UNL     1     -49.041  27.201  23.233  1.00  0.00     0.045 H 
ATOM     24  H   UNL     1     -50.589  27.331  22.389  1.00  0.00     0.045 H 
ATOM     25  H   UNL     1     -50.450  26.373  23.896  1.00  0.00     0.045 H 
ENDBRANCH  20  22
ENDBRANCH   6  20
ENDBRANCH   4   5
ENDBRANCH   1   4
BRANCH   1  26
ATOM     26  C   UNL     1     -45.790  35.918  27.936  1.00  0.00     0.123 C 
ATOM     27  O   UNL     1     -45.393  37.300  27.807  1.00  0.00    -0.345 OA
ATOM     28  C   UNL     1     -46.850  35.850  29.042  1.00  0.00     0.119 C 
ATOM     29  H   UNL     1     -44.902  35.351  28.234  1.00  0.00     0.067 H 
ATOM     30  C   UNL     1     -46.298  38.096  28.613  1.00  0.00     0.169 C 
ATOM     31  C   UNL     1     -47.490  37.216  28.963  1.00  0.00     0.173 C 
ATOM     32  H   UNL     1     -47.569  35.036  28.909  1.00  0.00     0.066 H 
ATOM     33  H   UNL     1     -45.736  38.382  29.509  1.00  0.00     0.088 H 
ATOM     34  F   UNL     1     -48.405  37.200  27.953  1.00  0.00    -0.239 F 
ATOM     35  H   UNL     1     -47.994  37.533  29.880  1.00  0.00     0.074 H 
BRANCH  28  36
ATOM     36  O   UNL     1     -46.236  35.692  30.326  1.00  0.00    -0.387 OA
ATOM     37  H   UNL     1     -46.435  36.493  30.845  1.00  0.00     0.211 HD
ENDBRANCH  28  36
BRANCH  30  38
ATOM     38  N   UNL     1     -46.656  39.317  27.911  1.00  0.00    -0.303 N 
ATOM     39  C   UNL     1     -47.889  39.918  27.864  1.00  0.00     0.013 A 
ATOM     40  C   UNL     1     -45.760  40.056  27.184  1.00  0.00     0.147 A 
ATOM     41  C   UNL     1     -47.799  41.058  27.079  1.00  0.00    -0.014 A 
ATOM     42  H   UNL     1     -48.733  39.481  28.381  1.00  0.00     0.082 H 
ATOM     43  C   UNL     1     -46.424  41.162  26.665  1.00  0.00     0.065 A 
ATOM     44  N   UNL     1     -44.462  39.745  27.023  1.00  0.00    -0.218 NA
ATOM     45  C   UNL     1     -45.637  42.051  25.911  1.00  0.00     0.136 A 
ATOM     46  C   UNL     1     -43.828  40.655  26.269  1.00  0.00     0.120 A 
ATOM     47  N   UNL     1     -44.331  41.774  25.720  1.00  0.00    -0.219 NA
ATOM     48  H   UNL     1     -42.774  40.469  26.082  1.00  0.00     0.106 H 
BRANCH  41  49
ATOM     49  C   UNL     1     -48.932  41.999  26.741  1.00  0.00    -0.011 C 
ATOM     50  C   UNL     1     -50.331  41.402  26.998  1.00  0.00    -0.033 C 
ATOM     51  C   UNL     1     -48.755  43.354  27.448  1.00  0.00    -0.033 C 
ATOM     52  H   UNL     1     -48.895  42.178  25.658  1.00  0.00     0.035 H 
ATOM     53  C   UNL     1     -50.947  41.923  28.295  1.00  0.00    -0.002 C 
ATOM     54  H   UNL     1     -50.993  41.681  26.166  1.00  0.00     0.029 H 
ATOM     55  H   UNL     1     -50.308  40.306  27.004  1.00  0.00     0.029 H 
ATOM     56  C   UNL     1     -50.085  44.098  27.524  1.00  0.00    -0.002 C 
ATOM     57  H   UNL     1     -48.019  43.961  26.905  1.00  0.00     0.029 H 
ATOM     58  H   UNL     1     -48.352  43.223  28.461  1.00  0.00     0.029 H 
ATOM     59  N   UNL     1     -51.069  43.385  28.348  1.00  0.00    -0.306 NA
ATOM     60  H   UNL     1     -50.319  41.613  29.139  1.00  0.00     0.043 H 
ATOM     61  H   UNL     1     -51.916  41.436  28.463  1.00  0.00     0.043 H 
ATOM     62  H   UNL     1     -50.458  44.248  26.501  1.00  0.00     0.043 H 
ATOM     63  H   UNL     1     -49.918  45.094  27.952  1.00  0.00     0.043 H 
BRANCH  59  64
ATOM     64  C   UNL     1     -52.425  43.838  28.050  1.00  0.00    -0.013 C 
ATOM     65  H   UNL     1     -52.575  43.919  26.967  1.00  0.00     0.039 H 
ATOM     66  H   UNL     1     -53.184  43.159  28.454  1.00  0.00     0.039 H 
ATOM     67  H   UNL     1     -52.599  44.837  28.465  1.00  0.00     0.039 H 
ENDBRANCH  59  64
ENDBRANCH  41  49
BRANCH  45  68
ATOM     68  N   UNL     1     -46.097  43.242  25.360  1.00  0.00    -0.383 N 
ATOM     69  H   UNL     1     -45.811  43.377  24.401  1.00  0.00     0.158 HD
ATOM     70  H   UNL     1     -47.096  43.319  25.524  1.00  0.00     0.158 HD
ENDBRANCH  45  68
ENDBRANCH  30  38
ENDBRANCH   1  26
TORSDOF 10
ENDMDL
MODEL 7
REMARK VINA RESULT:      -8.5      4.014      7.625
REMARK SMILES CNc1ccc2ccc(OC[C@H]3O[C@@H](n4cc(C5CCN(C)CC5)c5c(N)ncnc54)[C@@H](F)[C@@H]3O)cc2n1
REMARK SMILES IDX 11 1 10 4 9 5 3 6 4 7 38 8 5 9 37 11 6 12 36 14 7 15 8 17
REMARK SMILES IDX 2 20 1 22 12 26 13 27 34 28 14 30 32 31 33 34 35 36 15 38
REMARK SMILES IDX 16 39 31 40 17 41 25 43 30 44 26 45 29 46 28 47 18 49 19 50
REMARK SMILES IDX 24 51 20 53 23 56 21 59 22 64 27 68
REMARK H PARENT 11 2 11 3 4 10 5 13 36 16 7 18 8 19 2 21 1 23 1 24 1 25 12 29
REMARK H PARENT 34 32 14 33 32 35 35 37 16 42 29 48 18 52 19 54 19 55 24 57
REMARK H PARENT 24 58 20 60 20 61 23 62 23 63 22 65 22 66 22 67 27 69 27 70
REMARK Flexibility Score: inf
ROOT
ATOM      1  C   UNL     1     -43.227  42.283  27.803  1.00  0.00     0.117 C 
ATOM      2  H   UNL     1     -42.719  43.107  28.318  1.00  0.00     0.073 H 
ATOM      3  H   UNL     1     -44.280  42.408  28.081  1.00  0.00     0.073 H 
ENDROOT
BRANCH   1   4
ATOM      4  O   UNL     1     -42.669  41.073  28.315  1.00  0.00    -0.491 OA
BRANCH   4   5
ATOM      5  C   UNL     1     -43.508  40.054  28.667  1.00  0.00     0.121 A 
ATOM      6  C   UNL     1     -47.116  37.019  28.010  1.00  0.00     0.126 A 
ATOM      7  C   UNL     1     -46.906  36.425  29.250  1.00  0.00    -0.019 A 
ATOM      8  N   UNL     1     -46.351  38.044  27.580  1.00  0.00    -0.231 NA
ATOM      9  C   UNL     1     -45.872  36.882  30.060  1.00  0.00    -0.049 A 
ATOM     10  H   UNL     1     -47.551  35.622  29.591  1.00  0.00     0.066 H 
ATOM     11  C   UNL     1     -45.352  38.495  28.358  1.00  0.00     0.076 A 
ATOM     12  C   UNL     1     -45.069  37.935  29.619  1.00  0.00     0.001 A 
ATOM     13  H   UNL     1     -45.707  36.419  31.029  1.00  0.00     0.063 H 
ATOM     14  C   UNL     1     -44.566  39.549  27.907  1.00  0.00     0.007 A 
ATOM     15  C   UNL     1     -44.012  38.437  30.393  1.00  0.00    -0.049 A 
ATOM     16  H   UNL     1     -44.817  39.957  26.935  1.00  0.00     0.069 H 
ATOM     17  C   UNL     1     -43.237  39.490  29.913  1.00  0.00    -0.019 A 
ATOM     18  H   UNL     1     -43.788  38.013  31.369  1.00  0.00     0.063 H 
ATOM     19  H   UNL     1     -42.420  39.878  30.516  1.00  0.00     0.066 H 
BRANCH   6  20
ATOM     20  N   UNL     1     -48.187  36.550  27.229  1.00  0.00    -0.373 N 
ATOM     21  H   UNL     1     -49.061  36.845  27.655  1.00  0.00     0.161 HD
BRANCH  20  22
ATOM     22  C   UNL     1     -48.163  35.118  26.977  1.00  0.00     0.005 C 
ATOM     23  H   UNL     1     -48.023  34.593  27.928  1.00  0.00     0.045 H 
ATOM     24  H   UNL     1     -47.334  34.838  26.319  1.00  0.00     0.045 H 
ATOM     25  H   UNL     1     -49.109  34.769  26.549  1.00  0.00     0.045 H 
ENDBRANCH  20  22
ENDBRANCH   6  20
ENDBRANCH   4   5
ENDBRANCH   1   4
BRANCH   1  26
ATOM     26  C   UNL     1     -43.011  42.407  26.289  1.00  0.00     0.123 C 
ATOM     27  O   UNL     1     -44.279  42.219  25.624  1.00  0.00    -0.345 OA
ATOM     28  C   UNL     1     -42.472  43.777  25.863  1.00  0.00     0.119 C 
ATOM     29  H   UNL     1     -42.341  41.615  25.940  1.00  0.00     0.067 H 
ATOM     30  C   UNL     1     -44.637  43.475  24.995  1.00  0.00     0.169 C 
ATOM     31  C   UNL     1     -43.738  44.553  25.585  1.00  0.00     0.173 C 
ATOM     32  H   UNL     1     -41.841  44.253  26.619  1.00  0.00     0.066 H 
ATOM     33  H   UNL     1     -44.451  43.343  23.923  1.00  0.00     0.088 H 
ATOM     34  F   UNL     1     -44.229  45.008  26.772  1.00  0.00    -0.239 F 
ATOM     35  H   UNL     1     -43.608  45.408  24.915  1.00  0.00     0.074 H 
BRANCH  28  36
ATOM     36  O   UNL     1     -41.711  43.671  24.654  1.00  0.00    -0.387 OA
ATOM     37  H   UNL     1     -41.774  44.528  24.194  1.00  0.00     0.211 HD
ENDBRANCH  28  36
BRANCH  30  38
ATOM     38  N   UNL     1     -46.057  43.737  25.165  1.00  0.00    -0.303 N 
ATOM     39  C   UNL     1     -46.904  43.165  26.079  1.00  0.00     0.013 A 
ATOM     40  C   UNL     1     -46.751  44.637  24.400  1.00  0.00     0.147 A 
ATOM     41  C   UNL     1     -48.176  43.687  25.897  1.00  0.00    -0.014 A 
ATOM     42  H   UNL     1     -46.539  42.424  26.778  1.00  0.00     0.082 H 
ATOM     43  C   UNL     1     -48.072  44.655  24.835  1.00  0.00     0.065 A 
ATOM     44  N   UNL     1     -46.219  45.372  23.407  1.00  0.00    -0.218 NA
ATOM     45  C   UNL     1     -48.924  45.555  24.171  1.00  0.00     0.136 A 
ATOM     46  C   UNL     1     -47.135  46.171  22.840  1.00  0.00     0.120 A 
ATOM     47  N   UNL     1     -48.432  46.307  23.166  1.00  0.00    -0.219 NA
ATOM     48  H   UNL     1     -46.785  46.790  22.019  1.00  0.00     0.106 H 
BRANCH  41  49
ATOM     49  C   UNL     1     -49.416  43.309  26.674  1.00  0.00    -0.011 C 
ATOM     50  C   UNL     1     -49.623  41.786  26.806  1.00  0.00    -0.033 C 
ATOM     51  C   UNL     1     -49.443  44.007  28.044  1.00  0.00    -0.033 C 
ATOM     52  H   UNL     1     -50.281  43.664  26.099  1.00  0.00     0.035 H 
ATOM     53  C   UNL     1     -49.208  41.269  28.182  1.00  0.00    -0.002 C 
ATOM     54  H   UNL     1     -50.689  41.561  26.661  1.00  0.00     0.029 H 
ATOM     55  H   UNL     1     -49.093  41.236  26.020  1.00  0.00     0.029 H 
ATOM     56  C   UNL     1     -50.380  43.275  29.001  1.00  0.00    -0.002 C 
ATOM     57  H   UNL     1     -49.772  45.047  27.923  1.00  0.00     0.029 H 
ATOM     58  H   UNL     1     -48.438  44.056  28.485  1.00  0.00     0.029 H 
ATOM     59  N   UNL     1     -49.914  41.914  29.296  1.00  0.00    -0.306 NA
ATOM     60  H   UNL     1     -48.134  41.448  28.323  1.00  0.00     0.043 H 
ATOM     61  H   UNL     1     -49.324  40.179  28.215  1.00  0.00     0.043 H 
ATOM     62  H   UNL     1     -51.386  43.262  28.560  1.00  0.00     0.043 H 
ATOM     63  H   UNL     1     -50.450  43.837  29.940  1.00  0.00     0.043 H 
BRANCH  59  64
ATOM     64  C   UNL     1     -51.003  41.090  29.812  1.00  0.00    -0.013 C 
ATOM     65  H   UNL     1     -51.591  40.668  28.989  1.00  0.00     0.039 H 
ATOM     66  H   UNL     1     -50.636  40.265  30.434  1.00  0.00     0.039 H 
ATOM     67  H   UNL     1     -51.693  41.694  30.412  1.00  0.00     0.039 H 
ENDBRANCH  59  64
ENDBRANCH  41  49
BRANCH  45  68
ATOM     68  N   UNL     1     -50.259  45.766  24.497  1.00  0.00    -0.383 N 
ATOM     69  H   UNL     1     -50.749  46.340  23.826  1.00  0.00     0.158 HD
ATOM     70  H   UNL     1     -50.697  44.873  24.697  1.00  0.00     0.158 HD
ENDBRANCH  45  68
ENDBRANCH  30  38
ENDBRANCH   1  26
TORSDOF 10
ENDMDL
