MODEL 1
REMARK VINA RESULT:      -9.8      0.000      0.000
REMARK SMILES CN(C)Cc1cn([C@@H]2O[C@H](COc3ccc4ccc(N5CCC5)nc4c3)[C@@H](O)[C@@H]2F)c2ncnc(N)c12
REMARK SMILES IDX 8 1 9 2 10 3 27 4 29 5 30 6 7 11 5 12 6 13 37 14 31 16 35 17
REMARK SMILES IDX 32 18 34 19 33 20 4 22 2 25 1 26 3 30 36 34 11 37 12 40
REMARK SMILES IDX 13 41 14 42 26 43 15 44 25 46 16 48 24 50 17 51 19 52 18 53
REMARK SMILES IDX 20 56 21 57 23 58 22 59 28 66
REMARK H PARENT 8 7 10 8 27 9 29 10 6 15 33 21 4 23 4 24 1 27 1 28 1 29 3 31
REMARK H PARENT 3 32 3 33 36 35 36 36 11 38 11 39 14 45 26 47 15 49 17 54
REMARK H PARENT 18 55 21 60 21 61 23 62 23 63 22 64 22 65 28 67
REMARK Flexibility Score: inf
ROOT
ATOM      1  C   UNL     1     -44.861  38.120  28.985  1.00  0.00     0.169 C 
ATOM      2  O   UNL     1     -44.981  37.001  28.069  1.00  0.00    -0.345 OA
ATOM      3  C   UNL     1     -46.124  36.221  28.476  1.00  0.00     0.123 C 
ATOM      4  C   UNL     1     -46.589  36.765  29.831  1.00  0.00     0.119 C 
ATOM      5  C   UNL     1     -46.168  38.214  29.761  1.00  0.00     0.173 C 
ATOM      6  F   UNL     1     -47.112  38.898  29.054  1.00  0.00    -0.239 F 
ATOM      7  H   UNL     1     -44.020  37.883  29.647  1.00  0.00     0.088 H 
ATOM      8  H   UNL     1     -45.789  35.184  28.583  1.00  0.00     0.067 H 
ATOM      9  H   UNL     1     -47.661  36.644  30.008  1.00  0.00     0.066 H 
ATOM     10  H   UNL     1     -46.048  38.699  30.733  1.00  0.00     0.074 H 
ENDROOT
BRANCH   1  11
ATOM     11  N   UNL     1     -44.520  39.333  28.261  1.00  0.00    -0.303 N 
ATOM     12  C   UNL     1     -44.454  40.981  26.743  1.00  0.00    -0.003 A 
ATOM     13  C   UNL     1     -45.079  39.794  27.099  1.00  0.00     0.014 A 
ATOM     14  C   UNL     1     -43.481  41.256  27.766  1.00  0.00     0.066 A 
ATOM     15  H   UNL     1     -45.859  39.239  26.591  1.00  0.00     0.082 H 
ATOM     16  C   UNL     1     -43.544  40.204  28.673  1.00  0.00     0.147 A 
ATOM     17  C   UNL     1     -42.527  42.251  28.045  1.00  0.00     0.136 A 
ATOM     18  N   UNL     1     -42.791  40.043  29.776  1.00  0.00    -0.218 NA
ATOM     19  N   UNL     1     -41.744  42.123  29.135  1.00  0.00    -0.219 NA
ATOM     20  C   UNL     1     -41.911  41.045  29.921  1.00  0.00     0.120 A 
ATOM     21  H   UNL     1     -41.256  40.981  30.784  1.00  0.00     0.106 H 
BRANCH  12  22
ATOM     22  C   UNL     1     -44.760  41.784  25.514  1.00  0.00     0.025 C 
ATOM     23  H   UNL     1     -43.817  41.887  24.960  1.00  0.00     0.048 H 
ATOM     24  H   UNL     1     -45.452  41.267  24.843  1.00  0.00     0.048 H 
BRANCH  22  25
ATOM     25  N   UNL     1     -45.264  43.117  25.881  1.00  0.00    -0.305 NA
BRANCH  25  26
ATOM     26  C   UNL     1     -44.949  44.078  24.823  1.00  0.00    -0.013 C 
ATOM     27  H   UNL     1     -45.546  43.873  23.926  1.00  0.00     0.039 H 
ATOM     28  H   UNL     1     -45.136  45.112  25.133  1.00  0.00     0.039 H 
ATOM     29  H   UNL     1     -43.899  43.991  24.522  1.00  0.00     0.039 H 
ENDBRANCH  25  26
BRANCH  25  30
ATOM     30  C   UNL     1     -46.712  43.101  26.118  1.00  0.00    -0.013 C 
ATOM     31  H   UNL     1     -46.956  42.987  27.181  1.00  0.00     0.039 H 
ATOM     32  H   UNL     1     -47.189  44.013  25.746  1.00  0.00     0.039 H 
ATOM     33  H   UNL     1     -47.178  42.274  25.571  1.00  0.00     0.039 H 
ENDBRANCH  25  30
ENDBRANCH  22  25
ENDBRANCH  12  22
BRANCH  17  34
ATOM     34  N   UNL     1     -42.328  43.399  27.286  1.00  0.00    -0.383 N 
ATOM     35  H   UNL     1     -41.482  43.857  27.610  1.00  0.00     0.158 HD
ATOM     36  H   UNL     1     -43.139  44.001  27.256  1.00  0.00     0.158 HD
ENDBRANCH  17  34
ENDBRANCH   1  11
BRANCH   3  37
ATOM     37  C   UNL     1     -47.196  36.316  27.382  1.00  0.00     0.117 C 
ATOM     38  H   UNL     1     -48.105  35.797  27.709  1.00  0.00     0.073 H 
ATOM     39  H   UNL     1     -47.527  37.349  27.219  1.00  0.00     0.073 H 
BRANCH  37  40
ATOM     40  O   UNL     1     -46.777  35.683  26.173  1.00  0.00    -0.491 OA
BRANCH  40  41
ATOM     41  C   UNL     1     -47.272  34.447  25.865  1.00  0.00     0.121 A 
ATOM     42  C   UNL     1     -48.546  34.198  26.372  1.00  0.00    -0.019 A 
ATOM     43  C   UNL     1     -46.628  33.456  25.123  1.00  0.00     0.007 A 
ATOM     44  C   UNL     1     -49.169  32.973  26.141  1.00  0.00    -0.049 A 
ATOM     45  H   UNL     1     -49.060  34.965  26.947  1.00  0.00     0.066 H 
ATOM     46  C   UNL     1     -47.223  32.222  24.881  1.00  0.00     0.076 A 
ATOM     47  H   UNL     1     -45.637  33.605  24.707  1.00  0.00     0.069 H 
ATOM     48  C   UNL     1     -48.510  31.983  25.398  1.00  0.00     0.001 A 
ATOM     49  H   UNL     1     -50.163  32.798  26.543  1.00  0.00     0.063 H 
ATOM     50  N   UNL     1     -46.552  31.302  24.169  1.00  0.00    -0.231 NA
ATOM     51  C   UNL     1     -49.092  30.738  25.148  1.00  0.00    -0.049 A 
ATOM     52  C   UNL     1     -47.125  30.101  23.923  1.00  0.00     0.129 A 
ATOM     53  C   UNL     1     -48.391  29.791  24.407  1.00  0.00    -0.019 A 
ATOM     54  H   UNL     1     -50.081  30.496  25.526  1.00  0.00     0.063 H 
ATOM     55  H   UNL     1     -48.832  28.818  24.220  1.00  0.00     0.066 H 
BRANCH  52  56
ATOM     56  N   UNL     1     -46.400  29.147  23.186  1.00  0.00    -0.356 N 
ATOM     57  C   UNL     1     -46.046  27.845  23.679  1.00  0.00     0.021 C 
ATOM     58  C   UNL     1     -45.118  29.337  22.574  1.00  0.00     0.021 C 
ATOM     59  C   UNL     1     -44.993  27.810  22.565  1.00  0.00    -0.018 C 
ATOM     60  H   UNL     1     -46.852  27.114  23.596  1.00  0.00     0.049 H 
ATOM     61  H   UNL     1     -45.640  27.866  24.695  1.00  0.00     0.049 H 
ATOM     62  H   UNL     1     -44.405  29.857  23.225  1.00  0.00     0.049 H 
ATOM     63  H   UNL     1     -45.166  29.814  21.593  1.00  0.00     0.049 H 
ATOM     64  H   UNL     1     -44.015  27.409  22.846  1.00  0.00     0.030 H 
ATOM     65  H   UNL     1     -45.332  27.333  21.638  1.00  0.00     0.030 H 
ENDBRANCH  52  56
ENDBRANCH  40  41
ENDBRANCH  37  40
ENDBRANCH   3  37
BRANCH   4  66
ATOM     66  O   UNL     1     -45.889  36.126  30.905  1.00  0.00    -0.387 OA
ATOM     67  H   UNL     1     -45.000  35.893  30.578  1.00  0.00     0.211 HD
ENDBRANCH   4  66
TORSDOF 11
ENDMDL
MODEL 2
REMARK VINA RESULT:      -9.1      2.466     10.567
REMARK SMILES CN(C)Cc1cn([C@@H]2O[C@H](COc3ccc4ccc(N5CCC5)nc4c3)[C@@H](O)[C@@H]2F)c2ncnc(N)c12
REMARK SMILES IDX 8 1 9 2 10 3 27 4 29 5 30 6 7 11 5 12 6 13 37 14 31 16 35 17
REMARK SMILES IDX 32 18 34 19 33 20 4 22 2 25 1 26 3 30 36 34 11 37 12 40
REMARK SMILES IDX 13 41 14 42 26 43 15 44 25 46 16 48 24 50 17 51 19 52 18 53
REMARK SMILES IDX 20 56 21 57 23 58 22 59 28 66
REMARK H PARENT 8 7 10 8 27 9 29 10 6 15 33 21 4 23 4 24 1 27 1 28 1 29 3 31
REMARK H PARENT 3 32 3 33 36 35 36 36 11 38 11 39 14 45 26 47 15 49 17 54
REMARK H PARENT 18 55 21 60 21 61 23 62 23 63 22 64 22 65 28 67
REMARK Flexibility Score: inf
ROOT
ATOM      1  C   UNL     1     -47.401  32.476  26.147  1.00  0.00     0.169 C 
ATOM      2  O   UNL     1     -48.301  33.307  26.923  1.00  0.00    -0.345 OA
ATOM      3  C   UNL     1     -47.571  34.481  27.335  1.00  0.00     0.123 C 
ATOM      4  C   UNL     1     -46.099  34.249  26.981  1.00  0.00     0.119 C 
ATOM      5  C   UNL     1     -46.192  33.329  25.786  1.00  0.00     0.173 C 
ATOM      6  F   UNL     1     -46.438  34.089  24.682  1.00  0.00    -0.239 F 
ATOM      7  H   UNL     1     -47.120  31.640  26.798  1.00  0.00     0.088 H 
ATOM      8  H   UNL     1     -47.686  34.571  28.420  1.00  0.00     0.067 H 
ATOM      9  H   UNL     1     -45.550  35.169  26.764  1.00  0.00     0.066 H 
ATOM     10  H   UNL     1     -45.294  32.733  25.601  1.00  0.00     0.074 H 
ENDROOT
BRANCH   1  11
ATOM     11  N   UNL     1     -48.090  31.920  24.994  1.00  0.00    -0.303 N 
ATOM     12  C   UNL     1     -49.675  31.255  23.554  1.00  0.00    -0.003 A 
ATOM     13  C   UNL     1     -49.440  31.885  24.769  1.00  0.00     0.014 A 
ATOM     14  C   UNL     1     -48.387  30.914  23.013  1.00  0.00     0.066 A 
ATOM     15  H   UNL     1     -50.142  32.284  25.492  1.00  0.00     0.082 H 
ATOM     16  C   UNL     1     -47.439  31.326  23.943  1.00  0.00     0.147 A 
ATOM     17  C   UNL     1     -47.883  30.285  21.861  1.00  0.00     0.136 A 
ATOM     18  N   UNL     1     -46.104  31.184  23.853  1.00  0.00    -0.218 NA
ATOM     19  N   UNL     1     -46.552  30.112  21.735  1.00  0.00    -0.219 NA
ATOM     20  C   UNL     1     -45.752  30.557  22.721  1.00  0.00     0.120 A 
ATOM     21  H   UNL     1     -44.689  30.392  22.579  1.00  0.00     0.106 H 
BRANCH  12  22
ATOM     22  C   UNL     1     -51.028  30.993  22.964  1.00  0.00     0.025 C 
ATOM     23  H   UNL     1     -51.046  29.934  22.670  1.00  0.00     0.048 H 
ATOM     24  H   UNL     1     -51.831  31.119  23.696  1.00  0.00     0.048 H 
BRANCH  22  25
ATOM     25  N   UNL     1     -51.246  31.837  21.778  1.00  0.00    -0.305 NA
BRANCH  25  26
ATOM     26  C   UNL     1     -51.810  31.035  20.692  1.00  0.00    -0.013 C 
ATOM     27  H   UNL     1     -51.643  29.967  20.874  1.00  0.00     0.039 H 
ATOM     28  H   UNL     1     -52.886  31.200  20.571  1.00  0.00     0.039 H 
ATOM     29  H   UNL     1     -51.316  31.268  19.742  1.00  0.00     0.039 H 
ENDBRANCH  25  26
BRANCH  25  30
ATOM     30  C   UNL     1     -52.137  32.964  22.073  1.00  0.00    -0.013 C 
ATOM     31  H   UNL     1     -51.862  33.476  23.003  1.00  0.00     0.039 H 
ATOM     32  H   UNL     1     -52.140  33.696  21.260  1.00  0.00     0.039 H 
ATOM     33  H   UNL     1     -53.172  32.616  22.169  1.00  0.00     0.039 H 
ENDBRANCH  25  30
ENDBRANCH  22  25
ENDBRANCH  12  22
BRANCH  17  34
ATOM     34  N   UNL     1     -48.657  29.831  20.798  1.00  0.00    -0.383 N 
ATOM     35  H   UNL     1     -49.511  29.428  21.171  1.00  0.00     0.158 HD
ATOM     36  H   UNL     1     -48.151  29.222  20.170  1.00  0.00     0.158 HD
ENDBRANCH  17  34
ENDBRANCH   1  11
BRANCH   3  37
ATOM     37  C   UNL     1     -48.179  35.705  26.638  1.00  0.00     0.117 C 
ATOM     38  H   UNL     1     -47.533  36.018  25.810  1.00  0.00     0.073 H 
ATOM     39  H   UNL     1     -49.135  35.470  26.153  1.00  0.00     0.073 H 
BRANCH  37  40
ATOM     40  O   UNL     1     -48.281  36.822  27.523  1.00  0.00    -0.491 OA
BRANCH  40  41
ATOM     41  C   UNL     1     -47.205  37.651  27.670  1.00  0.00     0.121 A 
ATOM     42  C   UNL     1     -46.496  37.464  28.855  1.00  0.00    -0.019 A 
ATOM     43  C   UNL     1     -46.784  38.631  26.770  1.00  0.00     0.007 A 
ATOM     44  C   UNL     1     -45.380  38.249  29.139  1.00  0.00    -0.049 A 
ATOM     45  H   UNL     1     -46.812  36.700  29.561  1.00  0.00     0.066 H 
ATOM     46  C   UNL     1     -45.677  39.432  27.029  1.00  0.00     0.076 A 
ATOM     47  H   UNL     1     -47.302  38.811  25.834  1.00  0.00     0.069 H 
ATOM     48  C   UNL     1     -44.968  39.234  28.230  1.00  0.00     0.001 A 
ATOM     49  H   UNL     1     -44.839  38.088  30.068  1.00  0.00     0.063 H 
ATOM     50  N   UNL     1     -45.322  40.366  26.132  1.00  0.00    -0.231 NA
ATOM     51  C   UNL     1     -43.861  40.049  28.475  1.00  0.00    -0.049 A 
ATOM     52  C   UNL     1     -44.243  41.147  26.372  1.00  0.00     0.129 A 
ATOM     53  C   UNL     1     -43.499  41.013  27.539  1.00  0.00    -0.019 A 
ATOM     54  H   UNL     1     -43.280  39.945  29.387  1.00  0.00     0.063 H 
ATOM     55  H   UNL     1     -42.648  41.658  27.729  1.00  0.00     0.066 H 
BRANCH  52  56
ATOM     56  N   UNL     1     -43.897  42.128  25.425  1.00  0.00    -0.356 N 
ATOM     57  C   UNL     1     -42.892  43.133  25.635  1.00  0.00     0.021 C 
ATOM     58  C   UNL     1     -44.788  43.057  24.795  1.00  0.00     0.021 C 
ATOM     59  C   UNL     1     -43.548  43.901  24.481  1.00  0.00    -0.018 C 
ATOM     60  H   UNL     1     -41.876  42.778  25.455  1.00  0.00     0.049 H 
ATOM     61  H   UNL     1     -42.968  43.619  26.613  1.00  0.00     0.049 H 
ATOM     62  H   UNL     1     -45.496  43.515  25.496  1.00  0.00     0.049 H 
ATOM     63  H   UNL     1     -45.312  42.644  23.930  1.00  0.00     0.049 H 
ATOM     64  H   UNL     1     -43.656  44.979  24.627  1.00  0.00     0.030 H 
ATOM     65  H   UNL     1     -43.104  43.705  23.499  1.00  0.00     0.030 H 
ENDBRANCH  52  56
ENDBRANCH  40  41
ENDBRANCH  37  40
ENDBRANCH   3  37
BRANCH   4  66
ATOM     66  O   UNL     1     -45.419  33.569  28.043  1.00  0.00    -0.387 OA
ATOM     67  H   UNL     1     -44.908  32.839  27.644  1.00  0.00     0.211 HD
ENDBRANCH   4  66
TORSDOF 11
ENDMDL
MODEL 3
REMARK VINA RESULT:      -8.5      2.105      3.480
REMARK SMILES CN(C)Cc1cn([C@@H]2O[C@H](COc3ccc4ccc(N5CCC5)nc4c3)[C@@H](O)[C@@H]2F)c2ncnc(N)c12
REMARK SMILES IDX 8 1 9 2 10 3 27 4 29 5 30 6 7 11 5 12 6 13 37 14 31 16 35 17
REMARK SMILES IDX 32 18 34 19 33 20 4 22 2 25 1 26 3 30 36 34 11 37 12 40
REMARK SMILES IDX 13 41 14 42 26 43 15 44 25 46 16 48 24 50 17 51 19 52 18 53
REMARK SMILES IDX 20 56 21 57 23 58 22 59 28 66
REMARK H PARENT 8 7 10 8 27 9 29 10 6 15 33 21 4 23 4 24 1 27 1 28 1 29 3 31
REMARK H PARENT 3 32 3 33 36 35 36 36 11 38 11 39 14 45 26 47 15 49 17 54
REMARK H PARENT 18 55 21 60 21 61 23 62 23 63 22 64 22 65 28 67
REMARK Flexibility Score: inf
ROOT
ATOM      1  C   UNL     1     -47.204  38.283  28.340  1.00  0.00     0.169 C 
ATOM      2  O   UNL     1     -46.376  37.393  29.130  1.00  0.00    -0.345 OA
ATOM      3  C   UNL     1     -46.865  36.050  28.937  1.00  0.00     0.123 C 
ATOM      4  C   UNL     1     -48.186  36.152  28.169  1.00  0.00     0.119 C 
ATOM      5  C   UNL     1     -48.001  37.420  27.370  1.00  0.00     0.173 C 
ATOM      6  F   UNL     1     -47.267  37.122  26.260  1.00  0.00    -0.239 F 
ATOM      7  H   UNL     1     -47.863  38.798  29.050  1.00  0.00     0.088 H 
ATOM      8  H   UNL     1     -47.040  35.621  29.929  1.00  0.00     0.067 H 
ATOM      9  H   UNL     1     -48.396  35.282  27.539  1.00  0.00     0.066 H 
ATOM     10  H   UNL     1     -48.933  37.895  27.049  1.00  0.00     0.074 H 
ENDROOT
BRANCH   1  11
ATOM     11  N   UNL     1     -46.387  39.293  27.690  1.00  0.00    -0.303 N 
ATOM     12  C   UNL     1     -44.650  40.444  26.862  1.00  0.00    -0.003 A 
ATOM     13  C   UNL     1     -45.027  39.284  27.524  1.00  0.00     0.014 A 
ATOM     14  C   UNL     1     -45.858  41.178  26.597  1.00  0.00     0.066 A 
ATOM     15  H   UNL     1     -44.420  38.473  27.907  1.00  0.00     0.082 H 
ATOM     16  C   UNL     1     -46.903  40.440  27.141  1.00  0.00     0.147 A 
ATOM     17  C   UNL     1     -46.217  42.391  25.985  1.00  0.00     0.136 A 
ATOM     18  N   UNL     1     -48.208  40.767  27.142  1.00  0.00    -0.218 NA
ATOM     19  N   UNL     1     -47.513  42.763  25.972  1.00  0.00    -0.219 NA
ATOM     20  C   UNL     1     -48.418  41.949  26.545  1.00  0.00     0.120 A 
ATOM     21  H   UNL     1     -49.448  42.291  26.516  1.00  0.00     0.106 H 
BRANCH  12  22
ATOM     22  C   UNL     1     -43.240  40.823  26.519  1.00  0.00     0.025 C 
ATOM     23  H   UNL     1     -42.585  40.103  27.029  1.00  0.00     0.048 H 
ATOM     24  H   UNL     1     -43.031  40.719  25.451  1.00  0.00     0.048 H 
BRANCH  22  25
ATOM     25  N   UNL     1     -42.941  42.183  26.994  1.00  0.00    -0.305 NA
BRANCH  25  26
ATOM     26  C   UNL     1     -42.402  42.130  28.354  1.00  0.00    -0.013 C 
ATOM     27  H   UNL     1     -41.593  42.859  28.477  1.00  0.00     0.039 H 
ATOM     28  H   UNL     1     -43.168  42.332  29.111  1.00  0.00     0.039 H 
ATOM     29  H   UNL     1     -41.966  41.145  28.558  1.00  0.00     0.039 H 
ENDBRANCH  25  26
BRANCH  25  30
ATOM     30  C   UNL     1     -41.987  42.866  26.113  1.00  0.00    -0.013 C 
ATOM     31  H   UNL     1     -41.155  42.214  25.821  1.00  0.00     0.039 H 
ATOM     32  H   UNL     1     -42.475  43.237  25.206  1.00  0.00     0.039 H 
ATOM     33  H   UNL     1     -41.570  43.747  26.613  1.00  0.00     0.039 H 
ENDBRANCH  25  30
ENDBRANCH  22  25
ENDBRANCH  12  22
BRANCH  17  34
ATOM     34  N   UNL     1     -45.332  43.257  25.353  1.00  0.00    -0.383 N 
ATOM     35  H   UNL     1     -45.866  43.901  24.778  1.00  0.00     0.158 HD
ATOM     36  H   UNL     1     -44.592  42.778  24.858  1.00  0.00     0.158 HD
ENDBRANCH  17  34
ENDBRANCH   1  11
BRANCH   3  37
ATOM     37  C   UNL     1     -45.791  35.240  28.197  1.00  0.00     0.117 C 
ATOM     38  H   UNL     1     -45.777  35.526  27.139  1.00  0.00     0.073 H 
ATOM     39  H   UNL     1     -44.780  35.480  28.549  1.00  0.00     0.073 H 
BRANCH  37  40
ATOM     40  O   UNL     1     -46.062  33.839  28.239  1.00  0.00    -0.491 OA
BRANCH  40  41
ATOM     41  C   UNL     1     -46.498  33.214  27.104  1.00  0.00     0.121 A 
ATOM     42  C   UNL     1     -46.086  33.824  25.920  1.00  0.00    -0.019 A 
ATOM     43  C   UNL     1     -47.295  32.070  27.040  1.00  0.00     0.007 A 
ATOM     44  C   UNL     1     -46.467  33.297  24.688  1.00  0.00    -0.049 A 
ATOM     45  H   UNL     1     -45.462  34.713  25.957  1.00  0.00     0.066 H 
ATOM     46  C   UNL     1     -47.693  31.525  25.824  1.00  0.00     0.076 A 
ATOM     47  H   UNL     1     -47.637  31.560  27.934  1.00  0.00     0.069 H 
ATOM     48  C   UNL     1     -47.271  32.149  24.635  1.00  0.00     0.001 A 
ATOM     49  H   UNL     1     -46.135  33.786  23.775  1.00  0.00     0.063 H 
ATOM     50  N   UNL     1     -48.467  30.428  25.823  1.00  0.00    -0.231 NA
ATOM     51  C   UNL     1     -47.682  31.591  23.423  1.00  0.00    -0.049 A 
ATOM     52  C   UNL     1     -48.856  29.887  24.645  1.00  0.00     0.129 A 
ATOM     53  C   UNL     1     -48.482  30.452  23.431  1.00  0.00    -0.019 A 
ATOM     54  H   UNL     1     -47.391  32.033  22.475  1.00  0.00     0.063 H 
ATOM     55  H   UNL     1     -48.816  30.021  22.494  1.00  0.00     0.066 H 
BRANCH  52  56
ATOM     56  N   UNL     1     -49.677  28.745  24.666  1.00  0.00    -0.356 N 
ATOM     57  C   UNL     1     -49.241  27.444  25.091  1.00  0.00     0.021 C 
ATOM     58  C   UNL     1     -50.418  28.207  23.562  1.00  0.00     0.021 C 
ATOM     59  C   UNL     1     -50.460  26.890  24.344  1.00  0.00    -0.018 C 
ATOM     60  H   UNL     1     -49.248  27.316  26.175  1.00  0.00     0.049 H 
ATOM     61  H   UNL     1     -48.272  27.157  24.670  1.00  0.00     0.049 H 
ATOM     62  H   UNL     1     -49.840  28.177  22.632  1.00  0.00     0.049 H 
ATOM     63  H   UNL     1     -51.383  28.694  23.403  1.00  0.00     0.049 H 
ATOM     64  H   UNL     1     -50.288  25.983  23.759  1.00  0.00     0.030 H 
ATOM     65  H   UNL     1     -51.352  26.762  24.967  1.00  0.00     0.030 H 
ENDBRANCH  52  56
ENDBRANCH  40  41
ENDBRANCH  37  40
ENDBRANCH   3  37
BRANCH   4  66
ATOM     66  O   UNL     1     -49.289  36.322  29.068  1.00  0.00    -0.387 OA
ATOM     67  H   UNL     1     -49.191  35.661  29.779  1.00  0.00     0.211 HD
ENDBRANCH   4  66
TORSDOF 11
ENDMDL
MODEL 4
REMARK VINA RESULT:      -8.4      1.846      2.490
REMARK SMILES CN(C)Cc1cn([C@@H]2O[C@H](COc3ccc4ccc(N5CCC5)nc4c3)[C@@H](O)[C@@H]2F)c2ncnc(N)c12
REMARK SMILES IDX 8 1 9 2 10 3 27 4 29 5 30 6 7 11 5 12 6 13 37 14 31 16 35 17
REMARK SMILES IDX 32 18 34 19 33 20 4 22 2 25 1 26 3 30 36 34 11 37 12 40
REMARK SMILES IDX 13 41 14 42 26 43 15 44 25 46 16 48 24 50 17 51 19 52 18 53
REMARK SMILES IDX 20 56 21 57 23 58 22 59 28 66
REMARK H PARENT 8 7 10 8 27 9 29 10 6 15 33 21 4 23 4 24 1 27 1 28 1 29 3 31
REMARK H PARENT 3 32 3 33 36 35 36 36 11 38 11 39 14 45 26 47 15 49 17 54
REMARK H PARENT 18 55 21 60 21 61 23 62 23 63 22 64 22 65 28 67
REMARK Flexibility Score: inf
ROOT
ATOM      1  C   UNL     1     -46.801  38.297  28.490  1.00  0.00     0.169 C 
ATOM      2  O   UNL     1     -46.207  37.160  29.167  1.00  0.00    -0.345 OA
ATOM      3  C   UNL     1     -46.886  35.972  28.713  1.00  0.00     0.123 C 
ATOM      4  C   UNL     1     -48.096  36.426  27.889  1.00  0.00     0.119 C 
ATOM      5  C   UNL     1     -47.632  37.753  27.336  1.00  0.00     0.173 C 
ATOM      6  F   UNL     1     -46.856  37.511  26.241  1.00  0.00    -0.239 F 
ATOM      7  H   UNL     1     -47.430  38.800  29.233  1.00  0.00     0.088 H 
ATOM      8  H   UNL     1     -47.221  35.429  29.602  1.00  0.00     0.067 H 
ATOM      9  H   UNL     1     -48.384  35.719  27.107  1.00  0.00     0.066 H 
ATOM     10  H   UNL     1     -48.440  38.429  27.042  1.00  0.00     0.074 H 
ENDROOT
BRANCH   1  11
ATOM     11  N   UNL     1     -45.772  39.237  28.079  1.00  0.00    -0.303 N 
ATOM     12  C   UNL     1     -44.595  40.773  26.947  1.00  0.00    -0.003 A 
ATOM     13  C   UNL     1     -45.772  40.037  26.967  1.00  0.00     0.014 A 
ATOM     14  C   UNL     1     -43.861  40.407  28.128  1.00  0.00     0.066 A 
ATOM     15  H   UNL     1     -46.589  40.012  26.256  1.00  0.00     0.082 H 
ATOM     16  C   UNL     1     -44.616  39.443  28.788  1.00  0.00     0.147 A 
ATOM     17  C   UNL     1     -42.635  40.744  28.729  1.00  0.00     0.136 A 
ATOM     18  N   UNL     1     -44.295  38.808  29.928  1.00  0.00    -0.218 NA
ATOM     19  N   UNL     1     -42.269  40.123  29.869  1.00  0.00    -0.219 NA
ATOM     20  C   UNL     1     -43.100  39.203  30.392  1.00  0.00     0.120 A 
ATOM     21  H   UNL     1     -42.762  38.725  31.306  1.00  0.00     0.106 H 
BRANCH  12  22
ATOM     22  C   UNL     1     -44.202  41.744  25.874  1.00  0.00     0.025 C 
ATOM     23  H   UNL     1     -43.104  41.790  25.874  1.00  0.00     0.048 H 
ATOM     24  H   UNL     1     -44.491  41.400  24.877  1.00  0.00     0.048 H 
BRANCH  22  25
ATOM     25  N   UNL     1     -44.751  43.079  26.160  1.00  0.00    -0.305 NA
BRANCH  25  26
ATOM     26  C   UNL     1     -43.664  44.010  26.466  1.00  0.00    -0.013 C 
ATOM     27  H   UNL     1     -42.923  44.016  25.658  1.00  0.00     0.039 H 
ATOM     28  H   UNL     1     -44.024  45.034  26.612  1.00  0.00     0.039 H 
ATOM     29  H   UNL     1     -43.131  43.698  27.371  1.00  0.00     0.039 H 
ENDBRANCH  25  26
BRANCH  25  30
ATOM     30  C   UNL     1     -45.538  43.593  25.034  1.00  0.00    -0.013 C 
ATOM     31  H   UNL     1     -45.935  44.596  25.231  1.00  0.00     0.039 H 
ATOM     32  H   UNL     1     -44.947  43.626  24.114  1.00  0.00     0.039 H 
ATOM     33  H   UNL     1     -46.383  42.927  24.825  1.00  0.00     0.039 H 
ENDBRANCH  25  30
ENDBRANCH  22  25
ENDBRANCH  12  22
BRANCH  17  34
ATOM     34  N   UNL     1     -41.751  41.705  28.251  1.00  0.00    -0.383 N 
ATOM     35  H   UNL     1     -42.284  42.518  27.962  1.00  0.00     0.158 HD
ATOM     36  H   UNL     1     -41.122  41.349  27.544  1.00  0.00     0.158 HD
ENDBRANCH  17  34
ENDBRANCH   1  11
BRANCH   3  37
ATOM     37  C   UNL     1     -45.894  35.114  27.916  1.00  0.00     0.117 C 
ATOM     38  H   UNL     1     -45.945  35.382  26.853  1.00  0.00     0.073 H 
ATOM     39  H   UNL     1     -44.854  35.327  28.191  1.00  0.00     0.073 H 
BRANCH  37  40
ATOM     40  O   UNL     1     -46.206  33.724  28.004  1.00  0.00    -0.491 OA
BRANCH  40  41
ATOM     41  C   UNL     1     -46.592  33.058  26.875  1.00  0.00     0.121 A 
ATOM     42  C   UNL     1     -46.136  33.631  25.688  1.00  0.00    -0.019 A 
ATOM     43  C   UNL     1     -47.379  31.907  26.817  1.00  0.00     0.007 A 
ATOM     44  C   UNL     1     -46.463  33.060  24.460  1.00  0.00    -0.049 A 
ATOM     45  H   UNL     1     -45.518  34.525  25.720  1.00  0.00     0.066 H 
ATOM     46  C   UNL     1     -47.724  31.318  25.606  1.00  0.00     0.076 A 
ATOM     47  H   UNL     1     -47.754  31.425  27.714  1.00  0.00     0.069 H 
ATOM     48  C   UNL     1     -47.257  31.905  24.414  1.00  0.00     0.001 A 
ATOM     49  H   UNL     1     -46.096  33.520  23.546  1.00  0.00     0.063 H 
ATOM     50  N   UNL     1     -48.491  30.216  25.611  1.00  0.00    -0.231 NA
ATOM     51  C   UNL     1     -47.615  31.303  23.207  1.00  0.00    -0.049 A 
ATOM     52  C   UNL     1     -48.828  29.633  24.437  1.00  0.00     0.129 A 
ATOM     53  C   UNL     1     -48.409  30.159  23.220  1.00  0.00    -0.019 A 
ATOM     54  H   UNL     1     -47.288  31.715  22.256  1.00  0.00     0.063 H 
ATOM     55  H   UNL     1     -48.701  29.694  22.286  1.00  0.00     0.066 H 
BRANCH  52  56
ATOM     56  N   UNL     1     -49.643  28.486  24.463  1.00  0.00    -0.356 N 
ATOM     57  C   UNL     1     -49.705  27.565  25.563  1.00  0.00     0.021 C 
ATOM     58  C   UNL     1     -49.661  27.430  23.493  1.00  0.00     0.021 C 
ATOM     59  C   UNL     1     -50.316  26.565  24.574  1.00  0.00    -0.018 C 
ATOM     60  H   UNL     1     -50.358  27.895  26.372  1.00  0.00     0.049 H 
ATOM     61  H   UNL     1     -48.718  27.287  25.947  1.00  0.00     0.049 H 
ATOM     62  H   UNL     1     -48.658  27.112  23.188  1.00  0.00     0.049 H 
ATOM     63  H   UNL     1     -50.281  27.648  22.620  1.00  0.00     0.049 H 
ATOM     64  H   UNL     1     -49.951  25.538  24.649  1.00  0.00     0.030 H 
ATOM     65  H   UNL     1     -51.412  26.565  24.552  1.00  0.00     0.030 H 
ENDBRANCH  52  56
ENDBRANCH  40  41
ENDBRANCH  37  40
ENDBRANCH   3  37
BRANCH   4  66
ATOM     66  O   UNL     1     -49.235  36.642  28.730  1.00  0.00    -0.387 OA
ATOM     67  H   UNL     1     -49.282  35.897  29.357  1.00  0.00     0.211 HD
ENDBRANCH   4  66
TORSDOF 11
ENDMDL
MODEL 5
REMARK VINA RESULT:      -8.4      2.242      3.379
REMARK SMILES CN(C)Cc1cn([C@@H]2O[C@H](COc3ccc4ccc(N5CCC5)nc4c3)[C@@H](O)[C@@H]2F)c2ncnc(N)c12
REMARK SMILES IDX 8 1 9 2 10 3 27 4 29 5 30 6 7 11 5 12 6 13 37 14 31 16 35 17
REMARK SMILES IDX 32 18 34 19 33 20 4 22 2 25 1 26 3 30 36 34 11 37 12 40
REMARK SMILES IDX 13 41 14 42 26 43 15 44 25 46 16 48 24 50 17 51 19 52 18 53
REMARK SMILES IDX 20 56 21 57 23 58 22 59 28 66
REMARK H PARENT 8 7 10 8 27 9 29 10 6 15 33 21 4 23 4 24 1 27 1 28 1 29 3 31
REMARK H PARENT 3 32 3 33 36 35 36 36 11 38 11 39 14 45 26 47 15 49 17 54
REMARK H PARENT 18 55 21 60 21 61 23 62 23 63 22 64 22 65 28 67
REMARK Flexibility Score: inf
ROOT
ATOM      1  C   UNL     1     -46.431  37.855  28.450  1.00  0.00     0.169 C 
ATOM      2  O   UNL     1     -45.600  37.103  27.531  1.00  0.00    -0.345 OA
ATOM      3  C   UNL     1     -46.022  35.724  27.583  1.00  0.00     0.123 C 
ATOM      4  C   UNL     1     -47.006  35.594  28.750  1.00  0.00     0.119 C 
ATOM      5  C   UNL     1     -47.617  36.973  28.816  1.00  0.00     0.173 C 
ATOM      6  F   UNL     1     -48.597  37.050  27.871  1.00  0.00    -0.239 F 
ATOM      7  H   UNL     1     -45.805  38.065  29.325  1.00  0.00     0.088 H 
ATOM      8  H   UNL     1     -45.130  35.119  27.775  1.00  0.00     0.067 H 
ATOM      9  H   UNL     1     -47.752  34.807  28.608  1.00  0.00     0.066 H 
ATOM     10  H   UNL     1     -48.053  37.231  29.785  1.00  0.00     0.074 H 
ENDROOT
BRANCH   1  11
ATOM     11  N   UNL     1     -46.808  39.131  27.865  1.00  0.00    -0.303 N 
ATOM     12  C   UNL     1     -47.974  40.922  27.187  1.00  0.00    -0.003 A 
ATOM     13  C   UNL     1     -48.048  39.711  27.862  1.00  0.00     0.014 A 
ATOM     14  C   UNL     1     -46.603  41.084  26.784  1.00  0.00     0.066 A 
ATOM     15  H   UNL     1     -48.901  39.218  28.313  1.00  0.00     0.082 H 
ATOM     16  C   UNL     1     -45.923  39.947  27.207  1.00  0.00     0.147 A 
ATOM     17  C   UNL     1     -45.834  42.035  26.091  1.00  0.00     0.136 A 
ATOM     18  N   UNL     1     -44.620  39.669  27.021  1.00  0.00    -0.218 NA
ATOM     19  N   UNL     1     -44.526  41.792  25.872  1.00  0.00    -0.219 NA
ATOM     20  C   UNL     1     -44.003  40.643  26.335  1.00  0.00     0.120 A 
ATOM     21  H   UNL     1     -42.948  40.487  26.132  1.00  0.00     0.106 H 
BRANCH  12  22
ATOM     22  C   UNL     1     -49.128  41.846  26.940  1.00  0.00     0.025 C 
ATOM     23  H   UNL     1     -49.112  42.096  25.870  1.00  0.00     0.048 H 
ATOM     24  H   UNL     1     -50.092  41.364  27.125  1.00  0.00     0.048 H 
BRANCH  22  25
ATOM     25  N   UNL     1     -48.983  43.076  27.735  1.00  0.00    -0.305 NA
BRANCH  25  26
ATOM     26  C   UNL     1     -49.488  44.222  26.977  1.00  0.00    -0.013 C 
ATOM     27  H   UNL     1     -50.545  44.081  26.723  1.00  0.00     0.039 H 
ATOM     28  H   UNL     1     -49.389  45.162  27.532  1.00  0.00     0.039 H 
ATOM     29  H   UNL     1     -48.952  44.323  26.027  1.00  0.00     0.039 H 
ENDBRANCH  25  26
BRANCH  25  30
ATOM     30  C   UNL     1     -49.694  42.980  29.015  1.00  0.00    -0.013 C 
ATOM     31  H   UNL     1     -50.275  42.053  29.096  1.00  0.00     0.039 H 
ATOM     32  H   UNL     1     -49.004  43.034  29.862  1.00  0.00     0.039 H 
ATOM     33  H   UNL     1     -50.382  43.825  29.132  1.00  0.00     0.039 H 
ENDBRANCH  25  30
ENDBRANCH  22  25
ENDBRANCH  12  22
BRANCH  17  34
ATOM     34  N   UNL     1     -46.312  43.252  25.615  1.00  0.00    -0.383 N 
ATOM     35  H   UNL     1     -45.815  44.000  26.087  1.00  0.00     0.158 HD
ATOM     36  H   UNL     1     -47.319  43.329  25.662  1.00  0.00     0.158 HD
ENDBRANCH  17  34
ENDBRANCH   1  11
BRANCH   3  37
ATOM     37  C   UNL     1     -46.631  35.347  26.227  1.00  0.00     0.117 C 
ATOM     38  H   UNL     1     -47.093  36.230  25.770  1.00  0.00     0.073 H 
ATOM     39  H   UNL     1     -45.865  35.045  25.501  1.00  0.00     0.073 H 
BRANCH  37  40
ATOM     40  O   UNL     1     -47.664  34.370  26.363  1.00  0.00    -0.491 OA
BRANCH  40  41
ATOM     41  C   UNL     1     -47.534  33.174  25.715  1.00  0.00     0.121 A 
ATOM     42  C   UNL     1     -46.551  33.161  24.727  1.00  0.00    -0.019 A 
ATOM     43  C   UNL     1     -48.282  32.019  25.947  1.00  0.00     0.007 A 
ATOM     44  C   UNL     1     -46.318  32.008  23.980  1.00  0.00    -0.049 A 
ATOM     45  H   UNL     1     -45.958  34.054  24.540  1.00  0.00     0.066 H 
ATOM     46  C   UNL     1     -48.075  30.855  25.214  1.00  0.00     0.076 A 
ATOM     47  H   UNL     1     -49.056  31.980  26.706  1.00  0.00     0.069 H 
ATOM     48  C   UNL     1     -47.078  30.854  24.219  1.00  0.00     0.001 A 
ATOM     49  H   UNL     1     -45.546  32.017  23.215  1.00  0.00     0.063 H 
ATOM     50  N   UNL     1     -48.830  29.776  25.475  1.00  0.00    -0.231 NA
ATOM     51  C   UNL     1     -46.885  29.679  23.491  1.00  0.00    -0.049 A 
ATOM     52  C   UNL     1     -48.632  28.637  24.770  1.00  0.00     0.129 A 
ATOM     53  C   UNL     1     -47.671  28.564  23.769  1.00  0.00    -0.019 A 
ATOM     54  H   UNL     1     -46.134  29.622  22.709  1.00  0.00     0.063 H 
ATOM     55  H   UNL     1     -47.534  27.652  23.198  1.00  0.00     0.066 H 
BRANCH  52  56
ATOM     56  N   UNL     1     -49.443  27.522  25.050  1.00  0.00    -0.356 N 
ATOM     57  C   UNL     1     -50.830  27.422  24.692  1.00  0.00     0.021 C 
ATOM     58  C   UNL     1     -49.665  26.931  26.337  1.00  0.00     0.021 C 
ATOM     59  C   UNL     1     -50.926  26.302  25.735  1.00  0.00    -0.018 C 
ATOM     60  H   UNL     1     -50.992  27.123  23.655  1.00  0.00     0.049 H 
ATOM     61  H   UNL     1     -51.402  28.324  24.931  1.00  0.00     0.049 H 
ATOM     62  H   UNL     1     -49.846  27.672  27.123  1.00  0.00     0.049 H 
ATOM     63  H   UNL     1     -48.883  26.230  26.638  1.00  0.00     0.049 H 
ATOM     64  H   UNL     1     -51.816  26.317  26.369  1.00  0.00     0.030 H 
ATOM     65  H   UNL     1     -50.780  25.295  25.329  1.00  0.00     0.030 H 
ENDBRANCH  52  56
ENDBRANCH  40  41
ENDBRANCH  37  40
ENDBRANCH   3  37
BRANCH   4  66
ATOM     66  O   UNL     1     -46.313  35.330  29.976  1.00  0.00    -0.387 OA
ATOM     67  H   UNL     1     -46.986  35.182  30.667  1.00  0.00     0.211 HD
ENDBRANCH   4  66
TORSDOF 11
ENDMDL
MODEL 6
REMARK VINA RESULT:      -8.1      2.632     10.646
REMARK SMILES CN(C)Cc1cn([C@@H]2O[C@H](COc3ccc4ccc(N5CCC5)nc4c3)[C@@H](O)[C@@H]2F)c2ncnc(N)c12
REMARK SMILES IDX 8 1 9 2 10 3 27 4 29 5 30 6 7 11 5 12 6 13 37 14 31 16 35 17
REMARK SMILES IDX 32 18 34 19 33 20 4 22 2 25 1 26 3 30 36 34 11 37 12 40
REMARK SMILES IDX 13 41 14 42 26 43 15 44 25 46 16 48 24 50 17 51 19 52 18 53
REMARK SMILES IDX 20 56 21 57 23 58 22 59 28 66
REMARK H PARENT 8 7 10 8 27 9 29 10 6 15 33 21 4 23 4 24 1 27 1 28 1 29 3 31
REMARK H PARENT 3 32 3 33 36 35 36 36 11 38 11 39 14 45 26 47 15 49 17 54
REMARK H PARENT 18 55 21 60 21 61 23 62 23 63 22 64 22 65 28 67
REMARK Flexibility Score: inf
ROOT
ATOM      1  C   UNL     1     -47.447  32.450  26.330  1.00  0.00     0.169 C 
ATOM      2  O   UNL     1     -48.301  33.542  26.757  1.00  0.00    -0.345 OA
ATOM      3  C   UNL     1     -47.458  34.561  27.332  1.00  0.00     0.123 C 
ATOM      4  C   UNL     1     -46.052  33.969  27.463  1.00  0.00     0.119 C 
ATOM      5  C   UNL     1     -46.015  32.966  26.333  1.00  0.00     0.173 C 
ATOM      6  F   UNL     1     -45.731  33.635  25.179  1.00  0.00    -0.239 F 
ATOM      7  H   UNL     1     -47.585  31.650  27.068  1.00  0.00     0.088 H 
ATOM      8  H   UNL     1     -47.860  34.795  28.323  1.00  0.00     0.067 H 
ATOM      9  H   UNL     1     -45.254  34.713  27.394  1.00  0.00     0.066 H 
ATOM     10  H   UNL     1     -45.278  32.168  26.459  1.00  0.00     0.074 H 
ENDROOT
BRANCH   1  11
ATOM     11  N   UNL     1     -47.883  31.938  25.042  1.00  0.00    -0.303 N 
ATOM     12  C   UNL     1     -47.924  31.001  23.006  1.00  0.00    -0.003 A 
ATOM     13  C   UNL     1     -47.117  31.322  24.089  1.00  0.00     0.014 A 
ATOM     14  C   UNL     1     -49.254  31.431  23.343  1.00  0.00     0.066 A 
ATOM     15  H   UNL     1     -46.053  31.177  24.231  1.00  0.00     0.082 H 
ATOM     16  C   UNL     1     -49.180  32.020  24.601  1.00  0.00     0.147 A 
ATOM     17  C   UNL     1     -50.526  31.425  22.743  1.00  0.00     0.136 A 
ATOM     18  N   UNL     1     -50.189  32.579  25.292  1.00  0.00    -0.218 NA
ATOM     19  N   UNL     1     -51.564  31.984  23.397  1.00  0.00    -0.219 NA
ATOM     20  C   UNL     1     -51.342  32.525  24.608  1.00  0.00     0.120 A 
ATOM     21  H   UNL     1     -52.205  32.968  25.095  1.00  0.00     0.106 H 
BRANCH  12  22
ATOM     22  C   UNL     1     -47.454  30.342  21.744  1.00  0.00     0.025 C 
ATOM     23  H   UNL     1     -46.432  29.985  21.934  1.00  0.00     0.048 H 
ATOM     24  H   UNL     1     -48.044  29.456  21.494  1.00  0.00     0.048 H 
BRANCH  22  25
ATOM     25  N   UNL     1     -47.439  31.307  20.633  1.00  0.00    -0.305 NA
BRANCH  25  26
ATOM     26  C   UNL     1     -46.059  31.591  20.236  1.00  0.00    -0.013 C 
ATOM     27  H   UNL     1     -45.354  31.051  20.880  1.00  0.00     0.039 H 
ATOM     28  H   UNL     1     -45.860  31.311  19.196  1.00  0.00     0.039 H 
ATOM     29  H   UNL     1     -45.834  32.657  20.357  1.00  0.00     0.039 H 
ENDBRANCH  25  26
BRANCH  25  30
ATOM     30  C   UNL     1     -48.192  30.811  19.476  1.00  0.00    -0.013 C 
ATOM     31  H   UNL     1     -48.118  31.485  18.614  1.00  0.00     0.039 H 
ATOM     32  H   UNL     1     -47.849  29.817  19.171  1.00  0.00     0.039 H 
ATOM     33  H   UNL     1     -49.252  30.698  19.731  1.00  0.00     0.039 H 
ENDBRANCH  25  30
ENDBRANCH  22  25
ENDBRANCH  12  22
BRANCH  17  34
ATOM     34  N   UNL     1     -50.822  30.856  21.509  1.00  0.00    -0.383 N 
ATOM     35  H   UNL     1     -50.311  29.983  21.425  1.00  0.00     0.158 HD
ATOM     36  H   UNL     1     -50.683  31.492  20.736  1.00  0.00     0.158 HD
ENDBRANCH  17  34
ENDBRANCH   1  11
BRANCH   3  37
ATOM     37  C   UNL     1     -47.514  35.806  26.436  1.00  0.00     0.117 C 
ATOM     38  H   UNL     1     -46.544  35.952  25.946  1.00  0.00     0.073 H 
ATOM     39  H   UNL     1     -48.214  35.681  25.601  1.00  0.00     0.073 H 
BRANCH  37  40
ATOM     40  O   UNL     1     -47.774  36.990  27.190  1.00  0.00    -0.491 OA
BRANCH  40  41
ATOM     41  C   UNL     1     -46.758  37.880  27.397  1.00  0.00     0.121 A 
ATOM     42  C   UNL     1     -46.024  37.651  28.560  1.00  0.00    -0.019 A 
ATOM     43  C   UNL     1     -46.418  38.958  26.578  1.00  0.00     0.007 A 
ATOM     44  C   UNL     1     -44.964  38.489  28.900  1.00  0.00    -0.049 A 
ATOM     45  H   UNL     1     -46.277  36.812  29.204  1.00  0.00     0.066 H 
ATOM     46  C   UNL     1     -45.369  39.813  26.894  1.00  0.00     0.076 A 
ATOM     47  H   UNL     1     -46.959  39.173  25.662  1.00  0.00     0.069 H 
ATOM     48  C   UNL     1     -44.634  39.571  28.071  1.00  0.00     0.001 A 
ATOM     49  H   UNL     1     -44.403  38.294  29.810  1.00  0.00     0.063 H 
ATOM     50  N   UNL     1     -45.092  40.839  26.073  1.00  0.00    -0.231 NA
ATOM     51  C   UNL     1     -43.585  40.441  28.375  1.00  0.00    -0.049 A 
ATOM     52  C   UNL     1     -44.069  41.674  26.370  1.00  0.00     0.129 A 
ATOM     53  C   UNL     1     -43.303  41.501  27.518  1.00  0.00    -0.019 A 
ATOM     54  H   UNL     1     -42.988  40.306  29.272  1.00  0.00     0.063 H 
ATOM     55  H   UNL     1     -42.499  42.188  27.755  1.00  0.00     0.066 H 
BRANCH  52  56
ATOM     56  N   UNL     1     -43.804  42.750  25.503  1.00  0.00    -0.356 N 
ATOM     57  C   UNL     1     -44.022  42.716  24.084  1.00  0.00     0.021 C 
ATOM     58  C   UNL     1     -42.556  43.443  25.362  1.00  0.00     0.021 C 
ATOM     59  C   UNL     1     -43.076  43.920  24.002  1.00  0.00    -0.018 C 
ATOM     60  H   UNL     1     -45.058  42.904  23.799  1.00  0.00     0.049 H 
ATOM     61  H   UNL     1     -43.647  41.803  23.613  1.00  0.00     0.049 H 
ATOM     62  H   UNL     1     -41.694  42.768  25.318  1.00  0.00     0.049 H 
ATOM     63  H   UNL     1     -42.401  44.223  26.110  1.00  0.00     0.049 H 
ATOM     64  H   UNL     1     -42.353  43.902  23.182  1.00  0.00     0.030 H 
ATOM     65  H   UNL     1     -43.580  44.893  24.026  1.00  0.00     0.030 H 
ENDBRANCH  52  56
ENDBRANCH  40  41
ENDBRANCH  37  40
ENDBRANCH   3  37
BRANCH   4  66
ATOM     66  O   UNL     1     -45.902  33.276  28.708  1.00  0.00    -0.387 OA
ATOM     67  H   UNL     1     -45.898  33.946  29.417  1.00  0.00     0.211 HD
ENDBRANCH   4  66
TORSDOF 11
ENDMDL
MODEL 7
REMARK VINA RESULT:      -7.9      4.422      7.386
REMARK SMILES CN(C)Cc1cn([C@@H]2O[C@H](COc3ccc4ccc(N5CCC5)nc4c3)[C@@H](O)[C@@H]2F)c2ncnc(N)c12
REMARK SMILES IDX 8 1 9 2 10 3 27 4 29 5 30 6 7 11 5 12 6 13 37 14 31 16 35 17
REMARK SMILES IDX 32 18 34 19 33 20 4 22 2 25 1 26 3 30 36 34 11 37 12 40
REMARK SMILES IDX 13 41 14 42 26 43 15 44 25 46 16 48 24 50 17 51 19 52 18 53
REMARK SMILES IDX 20 56 21 57 23 58 22 59 28 66
REMARK H PARENT 8 7 10 8 27 9 29 10 6 15 33 21 4 23 4 24 1 27 1 28 1 29 3 31
REMARK H PARENT 3 32 3 33 36 35 36 36 11 38 11 39 14 45 26 47 15 49 17 54
REMARK H PARENT 18 55 21 60 21 61 23 62 23 63 22 64 22 65 28 67
REMARK Flexibility Score: inf
ROOT
ATOM      1  C   UNL     1     -44.995  37.686  28.801  1.00  0.00     0.169 C 
ATOM      2  O   UNL     1     -45.362  36.795  27.718  1.00  0.00    -0.345 OA
ATOM      3  C   UNL     1     -46.545  36.076  28.121  1.00  0.00     0.123 C 
ATOM      4  C   UNL     1     -46.781  36.381  29.604  1.00  0.00     0.119 C 
ATOM      5  C   UNL     1     -46.184  37.761  29.750  1.00  0.00     0.173 C 
ATOM      6  F   UNL     1     -47.103  38.671  29.317  1.00  0.00    -0.239 F 
ATOM      7  H   UNL     1     -44.124  37.232  29.289  1.00  0.00     0.088 H 
ATOM      8  H   UNL     1     -46.338  35.009  27.986  1.00  0.00     0.067 H 
ATOM      9  H   UNL     1     -47.833  36.342  29.897  1.00  0.00     0.066 H 
ATOM     10  H   UNL     1     -45.895  38.024  30.771  1.00  0.00     0.074 H 
ENDROOT
BRANCH   1  11
ATOM     11  N   UNL     1     -44.580  38.977  28.279  1.00  0.00    -0.303 N 
ATOM     12  C   UNL     1     -44.373  40.815  27.011  1.00  0.00    -0.003 A 
ATOM     13  C   UNL     1     -45.043  39.608  27.155  1.00  0.00     0.014 A 
ATOM     14  C   UNL     1     -43.474  40.921  28.128  1.00  0.00     0.066 A 
ATOM     15  H   UNL     1     -45.793  39.149  26.521  1.00  0.00     0.082 H 
ATOM     16  C   UNL     1     -43.622  39.757  28.875  1.00  0.00     0.147 A 
ATOM     17  C   UNL     1     -42.526  41.841  28.609  1.00  0.00     0.136 A 
ATOM     18  N   UNL     1     -42.956  39.426  29.995  1.00  0.00    -0.218 NA
ATOM     19  N   UNL     1     -41.828  41.545  29.724  1.00  0.00    -0.219 NA
ATOM     20  C   UNL     1     -42.072  40.375  30.340  1.00  0.00     0.120 A 
ATOM     21  H   UNL     1     -41.483  40.176  31.230  1.00  0.00     0.106 H 
BRANCH  12  22
ATOM     22  C   UNL     1     -44.573  41.786  25.886  1.00  0.00     0.025 C 
ATOM     23  H   UNL     1     -43.577  42.015  25.484  1.00  0.00     0.048 H 
ATOM     24  H   UNL     1     -45.142  41.351  25.060  1.00  0.00     0.048 H 
BRANCH  22  25
ATOM     25  N   UNL     1     -45.202  43.022  26.378  1.00  0.00    -0.305 NA
BRANCH  25  26
ATOM     26  C   UNL     1     -44.527  44.188  25.805  1.00  0.00    -0.013 C 
ATOM     27  H   UNL     1     -43.478  43.957  25.587  1.00  0.00     0.039 H 
ATOM     28  H   UNL     1     -45.005  44.530  24.881  1.00  0.00     0.039 H 
ATOM     29  H   UNL     1     -44.519  45.019  26.519  1.00  0.00     0.039 H 
ENDBRANCH  25  26
BRANCH  25  30
ATOM     30  C   UNL     1     -46.631  43.069  26.049  1.00  0.00    -0.013 C 
ATOM     31  H   UNL     1     -46.932  42.243  25.394  1.00  0.00     0.039 H 
ATOM     32  H   UNL     1     -47.251  43.044  26.951  1.00  0.00     0.039 H 
ATOM     33  H   UNL     1     -46.875  44.011  25.543  1.00  0.00     0.039 H 
ENDBRANCH  25  30
ENDBRANCH  22  25
ENDBRANCH  12  22
BRANCH  17  34
ATOM     34  N   UNL     1     -42.251  43.076  28.032  1.00  0.00    -0.383 N 
ATOM     35  H   UNL     1     -41.289  43.324  28.242  1.00  0.00     0.158 HD
ATOM     36  H   UNL     1     -42.924  43.789  28.279  1.00  0.00     0.158 HD
ENDBRANCH  17  34
ENDBRANCH   1  11
BRANCH   3  37
ATOM     37  C   UNL     1     -47.710  36.503  27.218  1.00  0.00     0.117 C 
ATOM     38  H   UNL     1     -47.647  37.580  27.019  1.00  0.00     0.073 H 
ATOM     39  H   UNL     1     -47.647  36.047  26.222  1.00  0.00     0.073 H 
BRANCH  37  40
ATOM     40  O   UNL     1     -48.974  36.274  27.840  1.00  0.00    -0.491 OA
BRANCH  40  41
ATOM     41  C   UNL     1     -49.756  37.346  28.167  1.00  0.00     0.121 A 
ATOM     42  C   UNL     1     -50.947  37.012  28.810  1.00  0.00    -0.019 A 
ATOM     43  C   UNL     1     -49.473  38.688  27.910  1.00  0.00     0.007 A 
ATOM     44  C   UNL     1     -51.844  38.007  29.192  1.00  0.00    -0.049 A 
ATOM     45  H   UNL     1     -51.176  35.970  29.020  1.00  0.00     0.066 H 
ATOM     46  C   UNL     1     -50.352  39.702  28.276  1.00  0.00     0.076 A 
ATOM     47  H   UNL     1     -48.559  38.996  27.415  1.00  0.00     0.069 H 
ATOM     48  C   UNL     1     -51.551  39.352  28.926  1.00  0.00     0.001 A 
ATOM     49  H   UNL     1     -52.767  37.727  29.694  1.00  0.00     0.063 H 
ATOM     50  N   UNL     1     -50.032  40.976  27.996  1.00  0.00    -0.231 NA
ATOM     51  C   UNL     1     -52.423  40.383  29.283  1.00  0.00    -0.049 A 
ATOM     52  C   UNL     1     -50.878  41.970  28.352  1.00  0.00     0.129 A 
ATOM     53  C   UNL     1     -52.083  41.700  28.992  1.00  0.00    -0.019 A 
ATOM     54  H   UNL     1     -53.365  40.172  29.782  1.00  0.00     0.063 H 
ATOM     55  H   UNL     1     -52.762  42.504  29.255  1.00  0.00     0.066 H 
BRANCH  52  56
ATOM     56  N   UNL     1     -50.530  43.297  28.038  1.00  0.00    -0.356 N 
ATOM     57  C   UNL     1     -50.149  43.742  26.728  1.00  0.00     0.021 C 
ATOM     58  C   UNL     1     -49.515  44.085  28.674  1.00  0.00     0.021 C 
ATOM     59  C   UNL     1     -49.537  44.966  27.421  1.00  0.00    -0.018 C 
ATOM     60  H   UNL     1     -50.997  43.941  26.071  1.00  0.00     0.049 H 
ATOM     61  H   UNL     1     -49.426  43.079  26.241  1.00  0.00     0.049 H 
ATOM     62  H   UNL     1     -48.583  43.532  28.837  1.00  0.00     0.049 H 
ATOM     63  H   UNL     1     -49.847  44.566  29.597  1.00  0.00     0.049 H 
ATOM     64  H   UNL     1     -48.561  45.286  27.046  1.00  0.00     0.030 H 
ATOM     65  H   UNL     1     -50.207  45.830  27.486  1.00  0.00     0.030 H 
ENDBRANCH  52  56
ENDBRANCH  40  41
ENDBRANCH  37  40
ENDBRANCH   3  37
BRANCH   4  66
ATOM     66  O   UNL     1     -46.056  35.467  30.436  1.00  0.00    -0.387 OA
ATOM     67  H   UNL     1     -45.453  35.994  30.993  1.00  0.00     0.211 HD
ENDBRANCH   4  66
TORSDOF 11
ENDMDL
