MODEL 1
REMARK VINA RESULT:     -10.0      0.000      0.000
REMARK SMILES CCC1(CC)CN(Cc2cc3ccc(CNC(=O)c4cc(=O)n5ccccc5n4)cc3[nH]2)C1
REMARK SMILES IDX 9 1 10 2 11 3 12 4 13 5 14 6 30 7 31 8 32 9 8 15 7 18 3 19
REMARK SMILES IDX 6 20 33 21 2 26 1 29 4 33 5 36 15 40 16 43 17 44 18 46 19 47
REMARK SMILES IDX 20 48 29 49 21 50 28 52 22 53 23 54 27 55 24 56 26 57 25 59
REMARK H PARENT 10 10 12 11 13 12 30 13 32 14 8 16 8 17 6 22 6 23 33 24 33 25
REMARK H PARENT 2 27 2 28 1 30 1 31 1 32 4 34 4 35 5 37 5 38 5 39 15 41 15 42
REMARK H PARENT 16 45 20 51 27 58 24 60 26 61 25 62
REMARK Flexibility Score: inf
ROOT
ATOM      1  C   UNL     1     -48.319  31.346  24.356  1.00  0.00     0.030 A 
ATOM      2  C   UNL     1     -47.043  31.876  24.360  1.00  0.00    -0.032 A 
ATOM      3  C   UNL     1     -47.041  33.017  25.207  1.00  0.00    -0.000 A 
ATOM      4  C   UNL     1     -46.061  33.950  25.593  1.00  0.00    -0.052 A 
ATOM      5  C   UNL     1     -46.407  34.989  26.467  1.00  0.00    -0.057 A 
ATOM      6  C   UNL     1     -47.709  35.110  26.969  1.00  0.00    -0.027 A 
ATOM      7  C   UNL     1     -48.697  34.187  26.584  1.00  0.00    -0.033 A 
ATOM      8  C   UNL     1     -48.333  33.157  25.709  1.00  0.00     0.046 A 
ATOM      9  N   UNL     1     -49.088  32.138  25.175  1.00  0.00    -0.357 N 
ATOM     10  H   UNL     1     -46.203  31.485  23.801  1.00  0.00     0.065 H 
ATOM     11  H   UNL     1     -45.046  33.868  25.214  1.00  0.00     0.063 H 
ATOM     12  H   UNL     1     -45.641  35.708  26.752  1.00  0.00     0.063 H 
ATOM     13  H   UNL     1     -49.717  34.278  26.950  1.00  0.00     0.065 H 
ATOM     14  H   UNL     1     -50.072  32.005  25.360  1.00  0.00     0.166 HD
ENDROOT
BRANCH   1  15
ATOM     15  C   UNL     1     -48.880  30.155  23.649  1.00  0.00     0.039 C 
ATOM     16  H   UNL     1     -49.942  30.076  23.911  1.00  0.00     0.050 H 
ATOM     17  H   UNL     1     -48.840  30.305  22.562  1.00  0.00     0.050 H 
BRANCH  15  18
ATOM     18  N   UNL     1     -48.195  28.936  24.077  1.00  0.00    -0.296 NA
ATOM     19  C   UNL     1     -48.584  27.216  25.263  1.00  0.00    -0.005 C 
ATOM     20  C   UNL     1     -49.026  27.731  23.852  1.00  0.00     0.005 C 
ATOM     21  C   UNL     1     -48.338  28.741  25.539  1.00  0.00     0.005 C 
ATOM     22  H   UNL     1     -48.710  27.119  23.002  1.00  0.00     0.044 H 
ATOM     23  H   UNL     1     -50.104  27.916  23.756  1.00  0.00     0.044 H 
ATOM     24  H   UNL     1     -49.183  29.271  25.999  1.00  0.00     0.044 H 
ATOM     25  H   UNL     1     -47.440  28.985  26.116  1.00  0.00     0.044 H 
BRANCH  19  26
ATOM     26  C   UNL     1     -47.246  26.443  25.325  1.00  0.00    -0.048 C 
ATOM     27  H   UNL     1     -46.470  27.003  24.787  1.00  0.00     0.027 H 
ATOM     28  H   UNL     1     -47.340  25.480  24.808  1.00  0.00     0.027 H 
BRANCH  26  29
ATOM     29  C   UNL     1     -46.764  26.162  26.736  1.00  0.00    -0.065 C 
ATOM     30  H   UNL     1     -46.253  25.194  26.772  1.00  0.00     0.023 H 
ATOM     31  H   UNL     1     -47.591  26.136  27.452  1.00  0.00     0.023 H 
ATOM     32  H   UNL     1     -46.041  26.916  27.064  1.00  0.00     0.023 H 
ENDBRANCH  26  29
ENDBRANCH  19  26
BRANCH  19  33
ATOM     33  C   UNL     1     -49.683  26.643  26.177  1.00  0.00    -0.048 C 
ATOM     34  H   UNL     1     -50.657  27.078  25.918  1.00  0.00     0.027 H 
ATOM     35  H   UNL     1     -49.494  26.928  27.218  1.00  0.00     0.027 H 
BRANCH  33  36
ATOM     36  C   UNL     1     -49.834  25.132  26.075  1.00  0.00    -0.065 C 
ATOM     37  H   UNL     1     -50.469  24.740  26.875  1.00  0.00     0.023 H 
ATOM     38  H   UNL     1     -48.854  24.654  26.170  1.00  0.00     0.023 H 
ATOM     39  H   UNL     1     -50.266  24.814  25.125  1.00  0.00     0.023 H 
ENDBRANCH  33  36
ENDBRANCH  19  33
ENDBRANCH  15  18
ENDBRANCH   1  15
BRANCH   6  40
ATOM     40  C   UNL     1     -48.074  36.251  27.887  1.00  0.00     0.043 C 
ATOM     41  H   UNL     1     -49.010  36.716  27.558  1.00  0.00     0.054 H 
ATOM     42  H   UNL     1     -48.233  35.885  28.907  1.00  0.00     0.054 H 
BRANCH  40  43
ATOM     43  N   UNL     1     -47.014  37.224  27.939  1.00  0.00    -0.347 N 
ATOM     44  C   UNL     1     -47.243  38.575  27.852  1.00  0.00     0.270 C 
ATOM     45  H   UNL     1     -46.057  36.925  27.779  1.00  0.00     0.164 HD
ATOM     46  O   UNL     1     -48.352  39.097  27.879  1.00  0.00    -0.268 OA
BRANCH  44  47
ATOM     47  C   UNL     1     -45.964  39.365  27.702  1.00  0.00     0.136 A 
ATOM     48  C   UNL     1     -45.800  40.016  26.548  1.00  0.00     0.035 A 
ATOM     49  N   UNL     1     -45.058  39.362  28.739  1.00  0.00    -0.225 NA
ATOM     50  C   UNL     1     -44.566  40.788  26.355  1.00  0.00     0.258 A 
ATOM     51  H   UNL     1     -46.519  40.009  25.741  1.00  0.00     0.071 H 
ATOM     52  C   UNL     1     -43.966  40.042  28.561  1.00  0.00     0.140 A 
ATOM     53  O   UNL     1     -44.407  41.392  25.296  1.00  0.00    -0.269 OA
ATOM     54  N   UNL     1     -43.668  40.765  27.412  1.00  0.00    -0.268 N 
ATOM     55  C   UNL     1     -42.953  40.063  29.654  1.00  0.00    -0.019 A 
ATOM     56  C   UNL     1     -42.474  41.472  27.301  1.00  0.00     0.014 A 
ATOM     57  C   UNL     1     -41.820  40.758  29.501  1.00  0.00    -0.057 A 
ATOM     58  H   UNL     1     -43.176  39.502  30.553  1.00  0.00     0.066 H 
ATOM     59  C   UNL     1     -41.569  41.487  28.287  1.00  0.00    -0.045 A 
ATOM     60  H   UNL     1     -42.306  42.015  26.374  1.00  0.00     0.082 H 
ATOM     61  H   UNL     1     -41.069  40.784  30.285  1.00  0.00     0.062 H 
ATOM     62  H   UNL     1     -40.641  42.041  28.190  1.00  0.00     0.064 H 
ENDBRANCH  44  47
ENDBRANCH  40  43
ENDBRANCH   6  40
TORSDOF 9
ENDMDL
MODEL 2
REMARK VINA RESULT:      -9.3      2.304      3.497
REMARK SMILES CCC1(CC)CN(Cc2cc3ccc(CNC(=O)c4cc(=O)n5ccccc5n4)cc3[nH]2)C1
REMARK SMILES IDX 9 1 10 2 11 3 12 4 13 5 14 6 30 7 31 8 32 9 8 15 7 18 3 19
REMARK SMILES IDX 6 20 33 21 2 26 1 29 4 33 5 36 15 40 16 43 17 44 18 46 19 47
REMARK SMILES IDX 20 48 29 49 21 50 28 52 22 53 23 54 27 55 24 56 26 57 25 59
REMARK H PARENT 10 10 12 11 13 12 30 13 32 14 8 16 8 17 6 22 6 23 33 24 33 25
REMARK H PARENT 2 27 2 28 1 30 1 31 1 32 4 34 4 35 5 37 5 38 5 39 15 41 15 42
REMARK H PARENT 16 45 20 51 27 58 24 60 26 61 25 62
REMARK Flexibility Score: inf
ROOT
ATOM      1  C   UNL     1     -46.682  32.551  24.936  1.00  0.00     0.030 A 
ATOM      2  C   UNL     1     -47.892  33.154  25.220  1.00  0.00    -0.032 A 
ATOM      3  C   UNL     1     -47.681  34.103  26.257  1.00  0.00    -0.000 A 
ATOM      4  C   UNL     1     -48.517  34.996  26.953  1.00  0.00    -0.052 A 
ATOM      5  C   UNL     1     -47.969  35.813  27.952  1.00  0.00    -0.057 A 
ATOM      6  C   UNL     1     -46.605  35.759  28.264  1.00  0.00    -0.027 A 
ATOM      7  C   UNL     1     -45.764  34.865  27.579  1.00  0.00    -0.033 A 
ATOM      8  C   UNL     1     -46.328  34.057  26.585  1.00  0.00     0.046 A 
ATOM      9  N   UNL     1     -45.747  33.107  25.777  1.00  0.00    -0.357 N 
ATOM     10  H   UNL     1     -48.832  32.927  24.735  1.00  0.00     0.065 H 
ATOM     11  H   UNL     1     -49.576  35.050  26.721  1.00  0.00     0.063 H 
ATOM     12  H   UNL     1     -48.627  36.494  28.488  1.00  0.00     0.063 H 
ATOM     13  H   UNL     1     -44.706  34.798  27.822  1.00  0.00     0.065 H 
ATOM     14  H   UNL     1     -44.770  32.856  25.812  1.00  0.00     0.166 HD
ENDROOT
BRANCH   1  15
ATOM     15  C   UNL     1     -46.326  31.495  23.941  1.00  0.00     0.039 C 
ATOM     16  H   UNL     1     -46.304  31.961  22.948  1.00  0.00     0.050 H 
ATOM     17  H   UNL     1     -45.311  31.121  24.129  1.00  0.00     0.050 H 
BRANCH  15  18
ATOM     18  N   UNL     1     -47.330  30.432  23.943  1.00  0.00    -0.296 NA
ATOM     19  C   UNL     1     -48.487  29.323  22.548  1.00  0.00    -0.005 C 
ATOM     20  C   UNL     1     -46.987  29.350  22.992  1.00  0.00     0.005 C 
ATOM     21  C   UNL     1     -48.481  30.797  23.086  1.00  0.00     0.005 C 
ATOM     22  H   UNL     1     -46.614  28.437  23.465  1.00  0.00     0.044 H 
ATOM     23  H   UNL     1     -46.285  29.632  22.196  1.00  0.00     0.044 H 
ATOM     24  H   UNL     1     -48.274  31.566  22.329  1.00  0.00     0.044 H 
ATOM     25  H   UNL     1     -49.374  31.110  23.638  1.00  0.00     0.044 H 
BRANCH  19  26
ATOM     26  C   UNL     1     -49.441  28.452  23.399  1.00  0.00    -0.048 C 
ATOM     27  H   UNL     1     -50.262  29.070  23.783  1.00  0.00     0.027 H 
ATOM     28  H   UNL     1     -48.914  28.064  24.281  1.00  0.00     0.027 H 
BRANCH  26  29
ATOM     29  C   UNL     1     -50.022  27.266  22.652  1.00  0.00    -0.065 C 
ATOM     30  H   UNL     1     -50.610  26.644  23.335  1.00  0.00     0.023 H 
ATOM     31  H   UNL     1     -49.241  26.640  22.211  1.00  0.00     0.023 H 
ATOM     32  H   UNL     1     -50.698  27.593  21.857  1.00  0.00     0.023 H 
ENDBRANCH  26  29
ENDBRANCH  19  26
BRANCH  19  33
ATOM     33  C   UNL     1     -48.771  29.271  21.036  1.00  0.00    -0.048 C 
ATOM     34  H   UNL     1     -49.085  28.261  20.743  1.00  0.00     0.027 H 
ATOM     35  H   UNL     1     -47.854  29.475  20.472  1.00  0.00     0.027 H 
BRANCH  33  36
ATOM     36  C   UNL     1     -49.872  30.221  20.590  1.00  0.00    -0.065 C 
ATOM     37  H   UNL     1     -49.932  31.098  21.241  1.00  0.00     0.023 H 
ATOM     38  H   UNL     1     -50.841  29.713  20.635  1.00  0.00     0.023 H 
ATOM     39  H   UNL     1     -49.735  30.579  19.568  1.00  0.00     0.023 H 
ENDBRANCH  33  36
ENDBRANCH  19  33
ENDBRANCH  15  18
ENDBRANCH   1  15
BRANCH   6  40
ATOM     40  C   UNL     1     -46.036  36.624  29.362  1.00  0.00     0.043 C 
ATOM     41  H   UNL     1     -46.844  37.030  29.981  1.00  0.00     0.054 H 
ATOM     42  H   UNL     1     -45.389  36.032  30.019  1.00  0.00     0.054 H 
BRANCH  40  43
ATOM     43  N   UNL     1     -45.234  37.686  28.814  1.00  0.00    -0.347 N 
ATOM     44  C   UNL     1     -44.467  38.516  29.594  1.00  0.00     0.270 C 
ATOM     45  H   UNL     1     -45.419  38.012  27.870  1.00  0.00     0.164 HD
ATOM     46  O   UNL     1     -44.260  38.351  30.791  1.00  0.00    -0.268 OA
BRANCH  44  47
ATOM     47  C   UNL     1     -43.907  39.682  28.814  1.00  0.00     0.136 A 
ATOM     48  C   UNL     1     -42.906  40.354  29.387  1.00  0.00     0.035 A 
ATOM     49  N   UNL     1     -44.455  39.983  27.587  1.00  0.00    -0.225 NA
ATOM     50  C   UNL     1     -42.338  41.501  28.668  1.00  0.00     0.258 A 
ATOM     51  H   UNL     1     -42.485  40.109  30.352  1.00  0.00     0.071 H 
ATOM     52  C   UNL     1     -43.953  41.001  26.957  1.00  0.00     0.140 A 
ATOM     53  O   UNL     1     -41.414  42.125  29.187  1.00  0.00    -0.269 OA
ATOM     54  N   UNL     1     -42.910  41.786  27.437  1.00  0.00    -0.268 N 
ATOM     55  C   UNL     1     -44.518  41.367  25.628  1.00  0.00    -0.019 A 
ATOM     56  C   UNL     1     -42.426  42.861  26.697  1.00  0.00     0.014 A 
ATOM     57  C   UNL     1     -44.019  42.410  24.954  1.00  0.00    -0.057 A 
ATOM     58  H   UNL     1     -45.331  40.762  25.247  1.00  0.00     0.066 H 
ATOM     59  C   UNL     1     -42.938  43.184  25.503  1.00  0.00    -0.045 A 
ATOM     60  H   UNL     1     -41.610  43.432  27.133  1.00  0.00     0.082 H 
ATOM     61  H   UNL     1     -44.418  42.693  23.985  1.00  0.00     0.062 H 
ATOM     62  H   UNL     1     -42.554  44.025  24.936  1.00  0.00     0.064 H 
ENDBRANCH  44  47
ENDBRANCH  40  43
ENDBRANCH   6  40
TORSDOF 9
ENDMDL
MODEL 3
REMARK VINA RESULT:      -9.1      1.862      3.094
REMARK SMILES CCC1(CC)CN(Cc2cc3ccc(CNC(=O)c4cc(=O)n5ccccc5n4)cc3[nH]2)C1
REMARK SMILES IDX 9 1 10 2 11 3 12 4 13 5 14 6 30 7 31 8 32 9 8 15 7 18 3 19
REMARK SMILES IDX 6 20 33 21 2 26 1 29 4 33 5 36 15 40 16 43 17 44 18 46 19 47
REMARK SMILES IDX 20 48 29 49 21 50 28 52 22 53 23 54 27 55 24 56 26 57 25 59
REMARK H PARENT 10 10 12 11 13 12 30 13 32 14 8 16 8 17 6 22 6 23 33 24 33 25
REMARK H PARENT 2 27 2 28 1 30 1 31 1 32 4 34 4 35 5 37 5 38 5 39 15 41 15 42
REMARK H PARENT 16 45 20 51 27 58 24 60 26 61 25 62
REMARK Flexibility Score: inf
ROOT
ATOM      1  C   UNL     1     -48.147  33.243  25.947  1.00  0.00     0.030 A 
ATOM      2  C   UNL     1     -46.782  33.345  26.136  1.00  0.00    -0.032 A 
ATOM      3  C   UNL     1     -46.529  34.507  26.915  1.00  0.00    -0.000 A 
ATOM      4  C   UNL     1     -45.365  35.121  27.411  1.00  0.00    -0.052 A 
ATOM      5  C   UNL     1     -45.476  36.298  28.164  1.00  0.00    -0.057 A 
ATOM      6  C   UNL     1     -46.725  36.869  28.436  1.00  0.00    -0.027 A 
ATOM      7  C   UNL     1     -47.894  36.268  27.937  1.00  0.00    -0.033 A 
ATOM      8  C   UNL     1     -47.764  35.093  27.187  1.00  0.00     0.046 A 
ATOM      9  N   UNL     1     -48.725  34.313  26.586  1.00  0.00    -0.357 N 
ATOM     10  H   UNL     1     -46.043  32.658  25.745  1.00  0.00     0.065 H 
ATOM     11  H   UNL     1     -44.389  34.689  27.211  1.00  0.00     0.063 H 
ATOM     12  H   UNL     1     -44.566  36.767  28.536  1.00  0.00     0.063 H 
ATOM     13  H   UNL     1     -48.870  36.709  28.124  1.00  0.00     0.065 H 
ATOM     14  H   UNL     1     -49.714  34.514  26.612  1.00  0.00     0.166 HD
ENDROOT
BRANCH   1  15
ATOM     15  C   UNL     1     -48.957  32.223  25.216  1.00  0.00     0.039 C 
ATOM     16  H   UNL     1     -49.656  31.771  25.930  1.00  0.00     0.050 H 
ATOM     17  H   UNL     1     -49.572  32.706  24.445  1.00  0.00     0.050 H 
BRANCH  15  18
ATOM     18  N   UNL     1     -48.092  31.175  24.675  1.00  0.00    -0.296 NA
ATOM     19  C   UNL     1     -48.275  29.280  23.730  1.00  0.00    -0.005 C 
ATOM     20  C   UNL     1     -48.506  30.770  23.312  1.00  0.00     0.005 C 
ATOM     21  C   UNL     1     -48.504  29.844  25.177  1.00  0.00     0.005 C 
ATOM     22  H   UNL     1     -47.858  31.146  22.514  1.00  0.00     0.044 H 
ATOM     23  H   UNL     1     -49.545  31.008  23.047  1.00  0.00     0.044 H 
ATOM     24  H   UNL     1     -49.539  29.782  25.540  1.00  0.00     0.044 H 
ATOM     25  H   UNL     1     -47.855  29.436  25.959  1.00  0.00     0.044 H 
BRANCH  19  26
ATOM     26  C   UNL     1     -46.830  28.743  23.594  1.00  0.00    -0.048 C 
ATOM     27  H   UNL     1     -46.135  29.417  24.111  1.00  0.00     0.027 H 
ATOM     28  H   UNL     1     -46.525  28.741  22.540  1.00  0.00     0.027 H 
BRANCH  26  29
ATOM     29  C   UNL     1     -46.645  27.335  24.130  1.00  0.00    -0.065 C 
ATOM     30  H   UNL     1     -46.624  26.619  23.302  1.00  0.00     0.023 H 
ATOM     31  H   UNL     1     -47.453  27.048  24.808  1.00  0.00     0.023 H 
ATOM     32  H   UNL     1     -45.693  27.237  24.659  1.00  0.00     0.023 H 
ENDBRANCH  26  29
ENDBRANCH  19  26
BRANCH  19  33
ATOM     33  C   UNL     1     -49.362  28.263  23.338  1.00  0.00    -0.048 C 
ATOM     34  H   UNL     1     -50.355  28.647  23.605  1.00  0.00     0.027 H 
ATOM     35  H   UNL     1     -49.235  27.336  23.909  1.00  0.00     0.027 H 
BRANCH  33  36
ATOM     36  C   UNL     1     -49.396  27.950  21.849  1.00  0.00    -0.065 C 
ATOM     37  H   UNL     1     -50.383  27.598  21.537  1.00  0.00     0.023 H 
ATOM     38  H   UNL     1     -48.677  27.156  21.621  1.00  0.00     0.023 H 
ATOM     39  H   UNL     1     -49.142  28.812  21.230  1.00  0.00     0.023 H 
ENDBRANCH  33  36
ENDBRANCH  19  33
ENDBRANCH  15  18
ENDBRANCH   1  15
BRANCH   6  40
ATOM     40  C   UNL     1     -46.826  38.153  29.223  1.00  0.00     0.043 C 
ATOM     41  H   UNL     1     -47.862  38.508  29.236  1.00  0.00     0.054 H 
ATOM     42  H   UNL     1     -46.525  37.988  30.263  1.00  0.00     0.054 H 
BRANCH  40  43
ATOM     43  N   UNL     1     -45.952  39.159  28.676  1.00  0.00    -0.347 N 
ATOM     44  C   UNL     1     -46.212  39.804  27.493  1.00  0.00     0.270 C 
ATOM     45  H   UNL     1     -44.998  39.226  29.018  1.00  0.00     0.164 HD
ATOM     46  O   UNL     1     -47.263  39.715  26.868  1.00  0.00    -0.268 OA
BRANCH  44  47
ATOM     47  C   UNL     1     -45.043  40.639  27.026  1.00  0.00     0.136 A 
ATOM     48  C   UNL     1     -43.970  40.656  27.821  1.00  0.00     0.035 A 
ATOM     49  N   UNL     1     -45.151  41.325  25.837  1.00  0.00    -0.225 NA
ATOM     50  C   UNL     1     -42.814  41.462  27.411  1.00  0.00     0.258 A 
ATOM     51  H   UNL     1     -43.899  40.114  28.754  1.00  0.00     0.071 H 
ATOM     52  C   UNL     1     -44.128  42.040  25.481  1.00  0.00     0.140 A 
ATOM     53  O   UNL     1     -41.821  41.482  28.136  1.00  0.00    -0.269 OA
ATOM     54  N   UNL     1     -42.950  42.146  26.212  1.00  0.00    -0.268 N 
ATOM     55  C   UNL     1     -44.201  42.804  24.204  1.00  0.00    -0.019 A 
ATOM     56  C   UNL     1     -41.896  42.934  25.759  1.00  0.00     0.014 A 
ATOM     57  C   UNL     1     -43.161  43.549  23.809  1.00  0.00    -0.057 A 
ATOM     58  H   UNL     1     -45.116  42.729  23.628  1.00  0.00     0.066 H 
ATOM     59  C   UNL     1     -41.969  43.618  24.610  1.00  0.00    -0.045 A 
ATOM     60  H   UNL     1     -41.005  42.972  26.381  1.00  0.00     0.082 H 
ATOM     61  H   UNL     1     -43.196  44.114  22.883  1.00  0.00     0.062 H 
ATOM     62  H   UNL     1     -41.141  44.230  24.267  1.00  0.00     0.064 H 
ENDBRANCH  44  47
ENDBRANCH  40  43
ENDBRANCH   6  40
TORSDOF 9
ENDMDL
MODEL 4
REMARK VINA RESULT:      -9.1      1.795      2.426
REMARK SMILES CCC1(CC)CN(Cc2cc3ccc(CNC(=O)c4cc(=O)n5ccccc5n4)cc3[nH]2)C1
REMARK SMILES IDX 9 1 10 2 11 3 12 4 13 5 14 6 30 7 31 8 32 9 8 15 7 18 3 19
REMARK SMILES IDX 6 20 33 21 2 26 1 29 4 33 5 36 15 40 16 43 17 44 18 46 19 47
REMARK SMILES IDX 20 48 29 49 21 50 28 52 22 53 23 54 27 55 24 56 26 57 25 59
REMARK H PARENT 10 10 12 11 13 12 30 13 32 14 8 16 8 17 6 22 6 23 33 24 33 25
REMARK H PARENT 2 27 2 28 1 30 1 31 1 32 4 34 4 35 5 37 5 38 5 39 15 41 15 42
REMARK H PARENT 16 45 20 51 27 58 24 60 26 61 25 62
REMARK Flexibility Score: inf
ROOT
ATOM      1  C   UNL     1     -48.237  31.856  25.709  1.00  0.00     0.030 A 
ATOM      2  C   UNL     1     -46.966  32.396  25.659  1.00  0.00    -0.032 A 
ATOM      3  C   UNL     1     -47.036  33.734  26.133  1.00  0.00    -0.000 A 
ATOM      4  C   UNL     1     -46.092  34.763  26.306  1.00  0.00    -0.052 A 
ATOM      5  C   UNL     1     -46.511  36.003  26.807  1.00  0.00    -0.057 A 
ATOM      6  C   UNL     1     -47.850  36.232  27.146  1.00  0.00    -0.027 A 
ATOM      7  C   UNL     1     -48.802  35.213  26.969  1.00  0.00    -0.033 A 
ATOM      8  C   UNL     1     -48.365  33.982  26.466  1.00  0.00     0.046 A 
ATOM      9  N   UNL     1     -49.072  32.833  26.195  1.00  0.00    -0.357 N 
ATOM     10  H   UNL     1     -46.082  31.881  25.308  1.00  0.00     0.065 H 
ATOM     11  H   UNL     1     -45.049  34.599  26.050  1.00  0.00     0.063 H 
ATOM     12  H   UNL     1     -45.771  36.793  26.929  1.00  0.00     0.063 H 
ATOM     13  H   UNL     1     -49.849  35.381  27.210  1.00  0.00     0.065 H 
ATOM     14  H   UNL     1     -50.068  32.736  26.332  1.00  0.00     0.166 HD
ENDROOT
BRANCH   1  15
ATOM     15  C   UNL     1     -48.736  30.498  25.338  1.00  0.00     0.039 C 
ATOM     16  H   UNL     1     -48.052  29.757  25.770  1.00  0.00     0.050 H 
ATOM     17  H   UNL     1     -49.718  30.315  25.795  1.00  0.00     0.050 H 
BRANCH  15  18
ATOM     18  N   UNL     1     -48.749  30.337  23.885  1.00  0.00    -0.296 NA
ATOM     19  C   UNL     1     -49.276  28.867  22.443  1.00  0.00    -0.005 C 
ATOM     20  C   UNL     1     -50.054  29.831  23.399  1.00  0.00     0.005 C 
ATOM     21  C   UNL     1     -48.125  29.052  23.494  1.00  0.00     0.005 C 
ATOM     22  H   UNL     1     -50.676  30.587  22.910  1.00  0.00     0.044 H 
ATOM     23  H   UNL     1     -50.668  29.320  24.153  1.00  0.00     0.044 H 
ATOM     24  H   UNL     1     -48.092  28.290  24.284  1.00  0.00     0.044 H 
ATOM     25  H   UNL     1     -47.113  29.148  23.085  1.00  0.00     0.044 H 
BRANCH  19  26
ATOM     26  C   UNL     1     -48.846  29.453  21.078  1.00  0.00    -0.048 C 
ATOM     27  H   UNL     1     -48.584  28.637  20.391  1.00  0.00     0.027 H 
ATOM     28  H   UNL     1     -47.937  30.056  21.193  1.00  0.00     0.027 H 
BRANCH  26  29
ATOM     29  C   UNL     1     -49.899  30.329  20.425  1.00  0.00    -0.065 C 
ATOM     30  H   UNL     1     -50.890  29.880  20.551  1.00  0.00     0.023 H 
ATOM     31  H   UNL     1     -49.717  30.455  19.354  1.00  0.00     0.023 H 
ATOM     32  H   UNL     1     -49.935  31.317  20.893  1.00  0.00     0.023 H 
ENDBRANCH  26  29
ENDBRANCH  19  26
BRANCH  19  33
ATOM     33  C   UNL     1     -49.755  27.405  22.377  1.00  0.00    -0.048 C 
ATOM     34  H   UNL     1     -49.909  27.010  23.389  1.00  0.00     0.027 H 
ATOM     35  H   UNL     1     -48.982  26.775  21.923  1.00  0.00     0.027 H 
BRANCH  33  36
ATOM     36  C   UNL     1     -51.069  27.228  21.630  1.00  0.00    -0.065 C 
ATOM     37  H   UNL     1     -51.264  28.070  20.959  1.00  0.00     0.023 H 
ATOM     38  H   UNL     1     -51.897  27.179  22.344  1.00  0.00     0.023 H 
ATOM     39  H   UNL     1     -51.095  26.317  21.031  1.00  0.00     0.023 H 
ENDBRANCH  33  36
ENDBRANCH  19  33
ENDBRANCH  15  18
ENDBRANCH   1  15
BRANCH   6  40
ATOM     40  C   UNL     1     -48.290  37.582  27.657  1.00  0.00     0.043 C 
ATOM     41  H   UNL     1     -49.039  38.015  26.985  1.00  0.00     0.054 H 
ATOM     42  H   UNL     1     -48.757  37.484  28.643  1.00  0.00     0.054 H 
BRANCH  40  43
ATOM     43  N   UNL     1     -47.165  38.468  27.801  1.00  0.00    -0.347 N 
ATOM     44  C   UNL     1     -46.968  39.555  26.986  1.00  0.00     0.270 C 
ATOM     45  H   UNL     1     -46.358  38.162  28.335  1.00  0.00     0.164 HD
ATOM     46  O   UNL     1     -47.784  39.973  26.173  1.00  0.00    -0.268 OA
BRANCH  44  47
ATOM     47  C   UNL     1     -45.610  40.185  27.189  1.00  0.00     0.136 A 
ATOM     48  C   UNL     1     -45.193  41.019  26.233  1.00  0.00     0.035 A 
ATOM     49  N   UNL     1     -44.892  39.863  28.319  1.00  0.00    -0.225 NA
ATOM     50  C   UNL     1     -43.874  41.646  26.384  1.00  0.00     0.258 A 
ATOM     51  H   UNL     1     -45.765  41.262  25.348  1.00  0.00     0.071 H 
ATOM     52  C   UNL     1     -43.724  40.417  28.446  1.00  0.00     0.140 A 
ATOM     53  O   UNL     1     -43.482  42.417  25.509  1.00  0.00    -0.269 OA
ATOM     54  N   UNL     1     -43.170  41.303  27.529  1.00  0.00    -0.268 N 
ATOM     55  C   UNL     1     -42.909  40.094  29.651  1.00  0.00    -0.019 A 
ATOM     56  C   UNL     1     -41.910  41.855  27.740  1.00  0.00     0.014 A 
ATOM     57  C   UNL     1     -41.703  40.651  29.811  1.00  0.00    -0.057 A 
ATOM     58  H   UNL     1     -43.333  39.404  30.371  1.00  0.00     0.066 H 
ATOM     59  C   UNL     1     -41.184  41.561  28.826  1.00  0.00    -0.045 A 
ATOM     60  H   UNL     1     -41.538  42.539  26.982  1.00  0.00     0.082 H 
ATOM     61  H   UNL     1     -41.094  40.427  30.681  1.00  0.00     0.062 H 
ATOM     62  H   UNL     1     -40.202  41.997  28.980  1.00  0.00     0.064 H 
ENDBRANCH  44  47
ENDBRANCH  40  43
ENDBRANCH   6  40
TORSDOF 9
ENDMDL
MODEL 5
REMARK VINA RESULT:      -9.1      2.184      3.839
REMARK SMILES CCC1(CC)CN(Cc2cc3ccc(CNC(=O)c4cc(=O)n5ccccc5n4)cc3[nH]2)C1
REMARK SMILES IDX 9 1 10 2 11 3 12 4 13 5 14 6 30 7 31 8 32 9 8 15 7 18 3 19
REMARK SMILES IDX 6 20 33 21 2 26 1 29 4 33 5 36 15 40 16 43 17 44 18 46 19 47
REMARK SMILES IDX 20 48 29 49 21 50 28 52 22 53 23 54 27 55 24 56 26 57 25 59
REMARK H PARENT 10 10 12 11 13 12 30 13 32 14 8 16 8 17 6 22 6 23 33 24 33 25
REMARK H PARENT 2 27 2 28 1 30 1 31 1 32 4 34 4 35 5 37 5 38 5 39 15 41 15 42
REMARK H PARENT 16 45 20 51 27 58 24 60 26 61 25 62
REMARK Flexibility Score: inf
ROOT
ATOM      1  C   UNL     1     -46.913  33.608  25.695  1.00  0.00     0.030 A 
ATOM      2  C   UNL     1     -48.219  33.734  26.127  1.00  0.00    -0.032 A 
ATOM      3  C   UNL     1     -48.367  35.016  26.722  1.00  0.00    -0.000 A 
ATOM      4  C   UNL     1     -49.437  35.696  27.331  1.00  0.00    -0.052 A 
ATOM      5  C   UNL     1     -49.233  36.989  27.833  1.00  0.00    -0.057 A 
ATOM      6  C   UNL     1     -47.986  37.617  27.731  1.00  0.00    -0.027 A 
ATOM      7  C   UNL     1     -46.908  36.942  27.131  1.00  0.00    -0.033 A 
ATOM      8  C   UNL     1     -47.130  35.651  26.637  1.00  0.00     0.046 A 
ATOM      9  N   UNL     1     -46.267  34.777  26.018  1.00  0.00    -0.357 N 
ATOM     10  H   UNL     1     -48.984  32.974  26.031  1.00  0.00     0.065 H 
ATOM     11  H   UNL     1     -50.411  35.223  27.415  1.00  0.00     0.063 H 
ATOM     12  H   UNL     1     -50.068  37.501  28.308  1.00  0.00     0.063 H 
ATOM     13  H   UNL     1     -45.929  37.409  27.061  1.00  0.00     0.065 H 
ATOM     14  H   UNL     1     -45.293  34.976  25.838  1.00  0.00     0.166 HD
ENDROOT
BRANCH   1  15
ATOM     15  C   UNL     1     -46.217  32.481  25.004  1.00  0.00     0.039 C 
ATOM     16  H   UNL     1     -45.245  32.849  24.652  1.00  0.00     0.050 H 
ATOM     17  H   UNL     1     -46.001  31.673  25.715  1.00  0.00     0.050 H 
BRANCH  15  18
ATOM     18  N   UNL     1     -46.996  32.028  23.852  1.00  0.00    -0.296 NA
ATOM     19  C   UNL     1     -47.647  30.203  22.980  1.00  0.00    -0.005 C 
ATOM     20  C   UNL     1     -48.032  31.045  24.242  1.00  0.00     0.005 C 
ATOM     21  C   UNL     1     -46.278  30.958  23.123  1.00  0.00     0.005 C 
ATOM     22  H   UNL     1     -49.050  31.445  24.255  1.00  0.00     0.044 H 
ATOM     23  H   UNL     1     -47.856  30.532  25.198  1.00  0.00     0.044 H 
ATOM     24  H   UNL     1     -45.515  30.426  23.707  1.00  0.00     0.044 H 
ATOM     25  H   UNL     1     -45.811  31.284  22.188  1.00  0.00     0.044 H 
BRANCH  19  26
ATOM     26  C   UNL     1     -48.335  30.600  21.653  1.00  0.00    -0.048 C 
ATOM     27  H   UNL     1     -48.280  29.765  20.943  1.00  0.00     0.027 H 
ATOM     28  H   UNL     1     -47.799  31.434  21.183  1.00  0.00     0.027 H 
BRANCH  26  29
ATOM     29  C   UNL     1     -49.786  31.018  21.813  1.00  0.00    -0.065 C 
ATOM     30  H   UNL     1     -50.386  30.610  20.993  1.00  0.00     0.023 H 
ATOM     31  H   UNL     1     -49.899  32.106  21.809  1.00  0.00     0.023 H 
ATOM     32  H   UNL     1     -50.209  30.626  22.743  1.00  0.00     0.023 H 
ENDBRANCH  26  29
ENDBRANCH  19  26
BRANCH  19  33
ATOM     33  C   UNL     1     -47.482  28.685  23.172  1.00  0.00    -0.048 C 
ATOM     34  H   UNL     1     -47.105  28.468  24.180  1.00  0.00     0.027 H 
ATOM     35  H   UNL     1     -46.726  28.297  22.479  1.00  0.00     0.027 H 
BRANCH  33  36
ATOM     36  C   UNL     1     -48.778  27.905  23.010  1.00  0.00    -0.065 C 
ATOM     37  H   UNL     1     -49.516  28.471  22.433  1.00  0.00     0.023 H 
ATOM     38  H   UNL     1     -49.216  27.704  23.993  1.00  0.00     0.023 H 
ATOM     39  H   UNL     1     -48.635  26.946  22.510  1.00  0.00     0.023 H 
ENDBRANCH  33  36
ENDBRANCH  19  33
ENDBRANCH  15  18
ENDBRANCH   1  15
BRANCH   6  40
ATOM     40  C   UNL     1     -47.774  38.998  28.302  1.00  0.00     0.043 C 
ATOM     41  H   UNL     1     -48.678  39.603  28.171  1.00  0.00     0.054 H 
ATOM     42  H   UNL     1     -47.574  38.940  29.377  1.00  0.00     0.054 H 
BRANCH  40  43
ATOM     43  N   UNL     1     -46.641  39.638  27.687  1.00  0.00    -0.347 N 
ATOM     44  C   UNL     1     -45.376  39.576  28.215  1.00  0.00     0.270 C 
ATOM     45  H   UNL     1     -46.798  40.364  26.994  1.00  0.00     0.164 HD
ATOM     46  O   UNL     1     -45.048  38.859  29.154  1.00  0.00    -0.268 OA
BRANCH  44  47
ATOM     47  C   UNL     1     -44.416  40.510  27.517  1.00  0.00     0.136 A 
ATOM     48  C   UNL     1     -43.254  40.738  28.134  1.00  0.00     0.035 A 
ATOM     49  N   UNL     1     -44.790  41.068  26.315  1.00  0.00    -0.225 NA
ATOM     50  C   UNL     1     -42.295  41.648  27.496  1.00  0.00     0.258 A 
ATOM     51  H   UNL     1     -42.973  40.295  29.080  1.00  0.00     0.071 H 
ATOM     52  C   UNL     1     -43.941  41.876  25.757  1.00  0.00     0.140 A 
ATOM     53  O   UNL     1     -41.221  41.862  28.056  1.00  0.00    -0.269 OA
ATOM     54  N   UNL     1     -42.697  42.200  26.289  1.00  0.00    -0.268 N 
ATOM     55  C   UNL     1     -44.305  42.508  24.457  1.00  0.00    -0.019 A 
ATOM     56  C   UNL     1     -41.842  43.075  25.625  1.00  0.00     0.014 A 
ATOM     57  C   UNL     1     -43.449  43.343  23.857  1.00  0.00    -0.057 A 
ATOM     58  H   UNL     1     -45.272  42.262  24.036  1.00  0.00     0.066 H 
ATOM     59  C   UNL     1     -42.176  43.638  24.457  1.00  0.00    -0.045 A 
ATOM     60  H   UNL     1     -40.886  43.284  26.098  1.00  0.00     0.082 H 
ATOM     61  H   UNL     1     -43.697  43.814  22.911  1.00  0.00     0.062 H 
ATOM     62  H   UNL     1     -41.501  44.320  23.950  1.00  0.00     0.064 H 
ENDBRANCH  44  47
ENDBRANCH  40  43
ENDBRANCH   6  40
TORSDOF 9
ENDMDL
MODEL 6
REMARK VINA RESULT:      -9.0      2.654      3.799
REMARK SMILES CCC1(CC)CN(Cc2cc3ccc(CNC(=O)c4cc(=O)n5ccccc5n4)cc3[nH]2)C1
REMARK SMILES IDX 9 1 10 2 11 3 12 4 13 5 14 6 30 7 31 8 32 9 8 15 7 18 3 19
REMARK SMILES IDX 6 20 33 21 2 26 1 29 4 33 5 36 15 40 16 43 17 44 18 46 19 47
REMARK SMILES IDX 20 48 29 49 21 50 28 52 22 53 23 54 27 55 24 56 26 57 25 59
REMARK H PARENT 10 10 12 11 13 12 30 13 32 14 8 16 8 17 6 22 6 23 33 24 33 25
REMARK H PARENT 2 27 2 28 1 30 1 31 1 32 4 34 4 35 5 37 5 38 5 39 15 41 15 42
REMARK H PARENT 16 45 20 51 27 58 24 60 26 61 25 62
REMARK Flexibility Score: inf
ROOT
ATOM      1  C   UNL     1     -47.271  32.308  25.045  1.00  0.00     0.030 A 
ATOM      2  C   UNL     1     -48.351  33.047  25.489  1.00  0.00    -0.032 A 
ATOM      3  C   UNL     1     -47.861  34.085  26.327  1.00  0.00    -0.000 A 
ATOM      4  C   UNL     1     -48.468  35.125  27.056  1.00  0.00    -0.052 A 
ATOM      5  C   UNL     1     -47.666  35.997  27.805  1.00  0.00    -0.057 A 
ATOM      6  C   UNL     1     -46.274  35.857  27.834  1.00  0.00    -0.027 A 
ATOM      7  C   UNL     1     -45.659  34.817  27.115  1.00  0.00    -0.033 A 
ATOM      8  C   UNL     1     -46.475  33.955  26.373  1.00  0.00     0.046 A 
ATOM      9  N   UNL     1     -46.144  32.869  25.595  1.00  0.00    -0.357 N 
ATOM     10  H   UNL     1     -49.386  32.851  25.242  1.00  0.00     0.065 H 
ATOM     11  H   UNL     1     -49.547  35.247  27.042  1.00  0.00     0.063 H 
ATOM     12  H   UNL     1     -48.149  36.792  28.371  1.00  0.00     0.063 H 
ATOM     13  H   UNL     1     -44.580  34.683  27.141  1.00  0.00     0.065 H 
ATOM     14  H   UNL     1     -45.200  32.537  25.461  1.00  0.00     0.166 HD
ENDROOT
BRANCH   1  15
ATOM     15  C   UNL     1     -47.207  31.117  24.145  1.00  0.00     0.039 C 
ATOM     16  H   UNL     1     -46.178  31.028  23.775  1.00  0.00     0.050 H 
ATOM     17  H   UNL     1     -47.411  30.200  24.713  1.00  0.00     0.050 H 
BRANCH  15  18
ATOM     18  N   UNL     1     -48.106  31.289  23.005  1.00  0.00    -0.296 NA
ATOM     19  C   UNL     1     -49.107  30.090  21.563  1.00  0.00    -0.005 C 
ATOM     20  C   UNL     1     -49.279  30.389  23.090  1.00  0.00     0.005 C 
ATOM     21  C   UNL     1     -47.622  30.519  21.836  1.00  0.00     0.005 C 
ATOM     22  H   UNL     1     -50.210  30.888  23.375  1.00  0.00     0.044 H 
ATOM     23  H   UNL     1     -49.151  29.512  23.739  1.00  0.00     0.044 H 
ATOM     24  H   UNL     1     -46.937  29.693  22.072  1.00  0.00     0.044 H 
ATOM     25  H   UNL     1     -47.149  31.129  21.059  1.00  0.00     0.044 H 
BRANCH  19  26
ATOM     26  C   UNL     1     -49.776  31.086  20.588  1.00  0.00    -0.048 C 
ATOM     27  H   UNL     1     -49.706  30.703  19.561  1.00  0.00     0.027 H 
ATOM     28  H   UNL     1     -49.236  32.042  20.593  1.00  0.00     0.027 H 
BRANCH  26  29
ATOM     29  C   UNL     1     -51.230  31.379  20.908  1.00  0.00    -0.065 C 
ATOM     30  H   UNL     1     -51.478  30.996  21.904  1.00  0.00     0.023 H 
ATOM     31  H   UNL     1     -51.908  30.913  20.187  1.00  0.00     0.023 H 
ATOM     32  H   UNL     1     -51.422  32.455  20.924  1.00  0.00     0.023 H 
ENDBRANCH  26  29
ENDBRANCH  19  26
BRANCH  19  33
ATOM     33  C   UNL     1     -49.201  28.618  21.120  1.00  0.00    -0.048 C 
ATOM     34  H   UNL     1     -49.926  28.080  21.743  1.00  0.00     0.027 H 
ATOM     35  H   UNL     1     -48.240  28.115  21.276  1.00  0.00     0.027 H 
BRANCH  33  36
ATOM     36  C   UNL     1     -49.646  28.444  19.676  1.00  0.00    -0.065 C 
ATOM     37  H   UNL     1     -49.896  27.402  19.457  1.00  0.00     0.023 H 
ATOM     38  H   UNL     1     -48.835  28.735  19.000  1.00  0.00     0.023 H 
ATOM     39  H   UNL     1     -50.517  29.051  19.425  1.00  0.00     0.023 H 
ENDBRANCH  33  36
ENDBRANCH  19  33
ENDBRANCH  15  18
ENDBRANCH   1  15
BRANCH   6  40
ATOM     40  C   UNL     1     -45.427  36.786  28.668  1.00  0.00     0.043 C 
ATOM     41  H   UNL     1     -45.945  37.035  29.602  1.00  0.00     0.054 H 
ATOM     42  H   UNL     1     -44.482  36.303  28.939  1.00  0.00     0.054 H 
BRANCH  40  43
ATOM     43  N   UNL     1     -45.104  37.982  27.934  1.00  0.00    -0.347 N 
ATOM     44  C   UNL     1     -44.522  39.079  28.521  1.00  0.00     0.270 C 
ATOM     45  H   UNL     1     -45.535  38.140  27.029  1.00  0.00     0.164 HD
ATOM     46  O   UNL     1     -44.081  39.105  29.664  1.00  0.00    -0.268 OA
BRANCH  44  47
ATOM     47  C   UNL     1     -44.496  40.276  27.600  1.00  0.00     0.136 A 
ATOM     48  C   UNL     1     -45.671  40.666  27.099  1.00  0.00     0.035 A 
ATOM     49  N   UNL     1     -43.287  40.878  27.330  1.00  0.00    -0.225 NA
ATOM     50  C   UNL     1     -45.690  41.819  26.191  1.00  0.00     0.258 A 
ATOM     51  H   UNL     1     -46.613  40.183  27.318  1.00  0.00     0.071 H 
ATOM     52  C   UNL     1     -43.310  41.895  26.523  1.00  0.00     0.140 A 
ATOM     53  O   UNL     1     -46.768  42.186  25.726  1.00  0.00    -0.269 OA
ATOM     54  N   UNL     1     -44.460  42.405  25.932  1.00  0.00    -0.268 N 
ATOM     55  C   UNL     1     -42.025  42.576  26.197  1.00  0.00    -0.019 A 
ATOM     56  C   UNL     1     -44.399  43.502  25.078  1.00  0.00     0.014 A 
ATOM     57  C   UNL     1     -42.016  43.627  25.370  1.00  0.00    -0.057 A 
ATOM     58  H   UNL     1     -41.123  42.184  26.652  1.00  0.00     0.066 H 
ATOM     59  C   UNL     1     -43.241  44.109  24.791  1.00  0.00    -0.045 A 
ATOM     60  H   UNL     1     -45.337  43.848  24.651  1.00  0.00     0.082 H 
ATOM     61  H   UNL     1     -41.090  44.135  25.120  1.00  0.00     0.062 H 
ATOM     62  H   UNL     1     -43.205  44.963  24.122  1.00  0.00     0.064 H 
ENDBRANCH  44  47
ENDBRANCH  40  43
ENDBRANCH   6  40
TORSDOF 9
ENDMDL
MODEL 7
REMARK VINA RESULT:      -9.0      1.700      2.416
REMARK SMILES CCC1(CC)CN(Cc2cc3ccc(CNC(=O)c4cc(=O)n5ccccc5n4)cc3[nH]2)C1
REMARK SMILES IDX 9 1 10 2 11 3 12 4 13 5 14 6 30 7 31 8 32 9 8 15 7 18 3 19
REMARK SMILES IDX 6 20 33 21 2 26 1 29 4 33 5 36 15 40 16 43 17 44 18 46 19 47
REMARK SMILES IDX 20 48 29 49 21 50 28 52 22 53 23 54 27 55 24 56 26 57 25 59
REMARK H PARENT 10 10 12 11 13 12 30 13 32 14 8 16 8 17 6 22 6 23 33 24 33 25
REMARK H PARENT 2 27 2 28 1 30 1 31 1 32 4 34 4 35 5 37 5 38 5 39 15 41 15 42
REMARK H PARENT 16 45 20 51 27 58 24 60 26 61 25 62
REMARK Flexibility Score: inf
ROOT
ATOM      1  C   UNL     1     -48.226  31.274  24.616  1.00  0.00     0.030 A 
ATOM      2  C   UNL     1     -46.996  31.903  24.608  1.00  0.00    -0.032 A 
ATOM      3  C   UNL     1     -47.108  33.101  25.366  1.00  0.00    -0.000 A 
ATOM      4  C   UNL     1     -46.214  34.135  25.702  1.00  0.00    -0.052 A 
ATOM      5  C   UNL     1     -46.666  35.205  26.486  1.00  0.00    -0.057 A 
ATOM      6  C   UNL     1     -47.987  35.258  26.947  1.00  0.00    -0.027 A 
ATOM      7  C   UNL     1     -48.889  34.234  26.611  1.00  0.00    -0.033 A 
ATOM      8  C   UNL     1     -48.421  33.174  25.825  1.00  0.00     0.046 A 
ATOM      9  N   UNL     1     -49.078  32.061  25.353  1.00  0.00    -0.357 N 
ATOM     10  H   UNL     1     -46.112  31.541  24.100  1.00  0.00     0.065 H 
ATOM     11  H   UNL     1     -45.186  34.106  25.353  1.00  0.00     0.063 H 
ATOM     12  H   UNL     1     -45.967  36.002  26.733  1.00  0.00     0.063 H 
ATOM     13  H   UNL     1     -49.923  34.270  26.945  1.00  0.00     0.065 H 
ATOM     14  H   UNL     1     -50.053  31.865  25.526  1.00  0.00     0.166 HD
ENDROOT
BRANCH   1  15
ATOM     15  C   UNL     1     -48.672  29.994  23.988  1.00  0.00     0.039 C 
ATOM     16  H   UNL     1     -49.746  29.879  24.181  1.00  0.00     0.050 H 
ATOM     17  H   UNL     1     -48.557  30.044  22.898  1.00  0.00     0.050 H 
BRANCH  15  18
ATOM     18  N   UNL     1     -47.962  28.860  24.580  1.00  0.00    -0.296 NA
ATOM     19  C   UNL     1     -48.374  26.881  25.235  1.00  0.00    -0.005 C 
ATOM     20  C   UNL     1     -48.236  27.600  23.852  1.00  0.00     0.005 C 
ATOM     21  C   UNL     1     -48.705  28.328  25.746  1.00  0.00     0.005 C 
ATOM     22  H   UNL     1     -47.412  27.258  23.219  1.00  0.00     0.044 H 
ATOM     23  H   UNL     1     -49.153  27.597  23.248  1.00  0.00     0.044 H 
ATOM     24  H   UNL     1     -49.774  28.578  25.771  1.00  0.00     0.044 H 
ATOM     25  H   UNL     1     -48.277  28.603  26.716  1.00  0.00     0.044 H 
BRANCH  19  26
ATOM     26  C   UNL     1     -47.063  26.377  25.883  1.00  0.00    -0.048 C 
ATOM     27  H   UNL     1     -46.674  27.139  26.571  1.00  0.00     0.027 H 
ATOM     28  H   UNL     1     -46.291  26.237  25.116  1.00  0.00     0.027 H 
BRANCH  26  29
ATOM     29  C   UNL     1     -47.212  25.065  26.631  1.00  0.00    -0.065 C 
ATOM     30  H   UNL     1     -48.236  24.690  26.531  1.00  0.00     0.023 H 
ATOM     31  H   UNL     1     -46.994  25.177  27.697  1.00  0.00     0.023 H 
ATOM     32  H   UNL     1     -46.550  24.298  26.218  1.00  0.00     0.023 H 
ENDBRANCH  26  29
ENDBRANCH  19  26
BRANCH  19  33
ATOM     33  C   UNL     1     -49.570  25.928  25.416  1.00  0.00    -0.048 C 
ATOM     34  H   UNL     1     -49.333  25.158  26.160  1.00  0.00     0.027 H 
ATOM     35  H   UNL     1     -49.770  25.392  24.481  1.00  0.00     0.027 H 
BRANCH  33  36
ATOM     36  C   UNL     1     -50.837  26.624  25.891  1.00  0.00    -0.065 C 
ATOM     37  H   UNL     1     -51.363  27.106  25.062  1.00  0.00     0.023 H 
ATOM     38  H   UNL     1     -50.582  27.405  26.615  1.00  0.00     0.023 H 
ATOM     39  H   UNL     1     -51.538  25.943  26.375  1.00  0.00     0.023 H 
ENDBRANCH  33  36
ENDBRANCH  19  33
ENDBRANCH  15  18
ENDBRANCH   1  15
BRANCH   6  40
ATOM     40  C   UNL     1     -48.466  36.432  27.767  1.00  0.00     0.043 C 
ATOM     41  H   UNL     1     -49.528  36.621  27.572  1.00  0.00     0.054 H 
ATOM     42  H   UNL     1     -48.365  36.218  28.836  1.00  0.00     0.054 H 
BRANCH  40  43
ATOM     43  N   UNL     1     -47.682  37.606  27.487  1.00  0.00    -0.347 N 
ATOM     44  C   UNL     1     -48.160  38.880  27.673  1.00  0.00     0.270 C 
ATOM     45  H   UNL     1     -46.856  37.523  26.902  1.00  0.00     0.164 HD
ATOM     46  O   UNL     1     -49.217  39.152  28.230  1.00  0.00    -0.268 OA
BRANCH  44  47
ATOM     47  C   UNL     1     -47.239  39.928  27.095  1.00  0.00     0.136 A 
ATOM     48  C   UNL     1     -45.954  39.585  26.967  1.00  0.00     0.035 A 
ATOM     49  N   UNL     1     -47.763  41.154  26.749  1.00  0.00    -0.225 NA
ATOM     50  C   UNL     1     -45.022  40.577  26.419  1.00  0.00     0.258 A 
ATOM     51  H   UNL     1     -45.555  38.619  27.244  1.00  0.00     0.071 H 
ATOM     52  C   UNL     1     -46.933  42.029  26.270  1.00  0.00     0.140 A 
ATOM     53  O   UNL     1     -43.837  40.269  26.296  1.00  0.00    -0.269 OA
ATOM     54  N   UNL     1     -45.573  41.804  26.083  1.00  0.00    -0.268 N 
ATOM     55  C   UNL     1     -47.455  43.371  25.886  1.00  0.00    -0.019 A 
ATOM     56  C   UNL     1     -44.750  42.797  25.560  1.00  0.00     0.014 A 
ATOM     57  C   UNL     1     -46.623  44.294  25.387  1.00  0.00    -0.057 A 
ATOM     58  H   UNL     1     -48.512  43.556  26.030  1.00  0.00     0.066 H 
ATOM     59  C   UNL     1     -45.226  44.000  25.217  1.00  0.00    -0.045 A 
ATOM     60  H   UNL     1     -43.697  42.553  25.441  1.00  0.00     0.082 H 
ATOM     61  H   UNL     1     -46.984  45.278  25.104  1.00  0.00     0.062 H 
ATOM     62  H   UNL     1     -44.574  44.767  24.811  1.00  0.00     0.064 H 
ENDBRANCH  44  47
ENDBRANCH  40  43
ENDBRANCH   6  40
TORSDOF 9
ENDMDL
