MODEL 1
REMARK VINA RESULT:     -11.0      0.000      0.000
REMARK SMILES c1cc(-c2cn(Cc3ccc4cc(CNCC5CCC5)[nH]c4c3)cn2)c2cn[nH]c2c1
REMARK SMILES IDX 8 1 9 2 10 3 11 4 12 5 13 6 21 7 22 8 23 9 7 15 6 18 4 19
REMARK SMILES IDX 5 20 25 21 24 23 3 25 1 26 2 27 31 28 30 31 26 33 29 34
REMARK SMILES IDX 27 35 28 36 14 39 15 42 16 44 17 47 18 48 20 49 19 51
REMARK H PARENT 9 10 10 11 12 12 21 13 23 14 7 16 7 17 5 22 24 24 1 29 2 30
REMARK H PARENT 31 32 29 37 27 38 14 40 14 41 15 43 16 45 16 46 17 50 18 52
REMARK H PARENT 18 53 20 54 20 55 19 56 19 57
REMARK Flexibility Score: inf
ROOT
ATOM      1  C   UNL     1     -47.661  35.844  27.132  1.00  0.00    -0.026 A 
ATOM      2  C   UNL     1     -46.354  35.562  26.707  1.00  0.00    -0.056 A 
ATOM      3  C   UNL     1     -46.040  34.349  26.081  1.00  0.00    -0.052 A 
ATOM      4  C   UNL     1     -47.053  33.395  25.877  1.00  0.00    -0.000 A 
ATOM      5  C   UNL     1     -47.088  32.099  25.297  1.00  0.00    -0.032 A 
ATOM      6  C   UNL     1     -48.380  31.620  25.390  1.00  0.00     0.030 A 
ATOM      7  N   UNL     1     -49.131  32.601  25.993  1.00  0.00    -0.357 N 
ATOM      8  C   UNL     1     -48.346  33.689  26.302  1.00  0.00     0.046 A 
ATOM      9  C   UNL     1     -48.682  34.898  26.925  1.00  0.00    -0.033 A 
ATOM     10  H   UNL     1     -45.556  36.285  26.862  1.00  0.00     0.063 H 
ATOM     11  H   UNL     1     -45.022  34.146  25.762  1.00  0.00     0.063 H 
ATOM     12  H   UNL     1     -46.250  31.564  24.867  1.00  0.00     0.065 H 
ATOM     13  H   UNL     1     -50.119  32.534  26.193  1.00  0.00     0.166 HD
ATOM     14  H   UNL     1     -49.701  35.089  27.248  1.00  0.00     0.065 H 
ENDROOT
BRANCH   1  15
ATOM     15  C   UNL     1     -47.969  37.161  27.801  1.00  0.00     0.049 C 
ATOM     16  H   UNL     1     -48.077  37.017  28.882  1.00  0.00     0.055 H 
ATOM     17  H   UNL     1     -48.908  37.593  27.434  1.00  0.00     0.055 H 
BRANCH  15  18
ATOM     18  N   UNL     1     -46.930  38.148  27.564  1.00  0.00    -0.332 N 
ATOM     19  C   UNL     1     -45.166  39.421  27.739  1.00  0.00     0.089 A 
ATOM     20  C   UNL     1     -45.909  38.476  28.416  1.00  0.00     0.032 A 
ATOM     21  N   UNL     1     -45.731  39.679  26.509  1.00  0.00    -0.237 NA
ATOM     22  H   UNL     1     -45.824  38.045  29.403  1.00  0.00     0.084 H 
ATOM     23  C   UNL     1     -46.776  38.887  26.427  1.00  0.00     0.096 A 
ATOM     24  H   UNL     1     -47.446  38.817  25.581  1.00  0.00     0.104 H 
BRANCH  19  25
ATOM     25  C   UNL     1     -43.996  40.120  28.229  1.00  0.00     0.013 A 
ATOM     26  C   UNL     1     -42.263  40.369  29.932  1.00  0.00    -0.059 A 
ATOM     27  C   UNL     1     -43.397  39.723  29.439  1.00  0.00    -0.052 A 
ATOM     28  C   UNL     1     -41.689  41.439  29.243  1.00  0.00    -0.036 A 
ATOM     29  H   UNL     1     -41.821  40.033  30.868  1.00  0.00     0.062 H 
ATOM     30  H   UNL     1     -43.824  38.893  29.999  1.00  0.00     0.063 H 
ATOM     31  C   UNL     1     -42.307  41.839  28.054  1.00  0.00     0.066 A 
ATOM     32  H   UNL     1     -40.807  41.943  29.628  1.00  0.00     0.065 H 
ATOM     33  C   UNL     1     -43.441  41.216  27.534  1.00  0.00     0.029 A 
ATOM     34  N   UNL     1     -42.004  42.846  27.175  1.00  0.00    -0.278 N 
ATOM     35  C   UNL     1     -43.728  41.964  26.366  1.00  0.00     0.057 A 
ATOM     36  N   UNL     1     -42.851  42.945  26.137  1.00  0.00    -0.183 NA
ATOM     37  H   UNL     1     -41.236  43.505  27.233  1.00  0.00     0.190 HD
ATOM     38  H   UNL     1     -44.547  41.835  25.672  1.00  0.00     0.087 H 
ENDBRANCH  19  25
ENDBRANCH  15  18
ENDBRANCH   1  15
BRANCH   6  39
ATOM     39  C   UNL     1     -48.980  30.329  24.954  1.00  0.00     0.036 C 
ATOM     40  H   UNL     1     -48.908  30.212  23.865  1.00  0.00     0.049 H 
ATOM     41  H   UNL     1     -50.053  30.339  25.184  1.00  0.00     0.049 H 
BRANCH  39  42
ATOM     42  N   UNL     1     -48.378  29.195  25.650  1.00  0.00    -0.311 NA
ATOM     43  H   UNL     1     -47.614  29.527  26.234  1.00  0.00     0.123 HD
BRANCH  42  44
ATOM     44  C   UNL     1     -47.870  28.177  24.725  1.00  0.00    -0.002 C 
ATOM     45  H   UNL     1     -48.391  28.262  23.764  1.00  0.00     0.043 H 
ATOM     46  H   UNL     1     -46.800  28.317  24.539  1.00  0.00     0.043 H 
BRANCH  44  47
ATOM     47  C   UNL     1     -48.133  26.782  25.299  1.00  0.00    -0.029 C 
ATOM     48  C   UNL     1     -48.159  26.645  26.847  1.00  0.00    -0.049 C 
ATOM     49  C   UNL     1     -46.902  25.837  25.320  1.00  0.00    -0.049 C 
ATOM     50  H   UNL     1     -49.002  26.321  24.810  1.00  0.00     0.032 H 
ATOM     51  C   UNL     1     -46.670  26.254  26.784  1.00  0.00    -0.053 C 
ATOM     52  H   UNL     1     -48.808  25.836  27.201  1.00  0.00     0.027 H 
ATOM     53  H   UNL     1     -48.381  27.549  27.420  1.00  0.00     0.027 H 
ATOM     54  H   UNL     1     -46.091  26.076  24.627  1.00  0.00     0.027 H 
ATOM     55  H   UNL     1     -47.163  24.778  25.204  1.00  0.00     0.027 H 
ATOM     56  H   UNL     1     -46.361  25.454  27.462  1.00  0.00     0.027 H 
ATOM     57  H   UNL     1     -45.985  27.101  26.900  1.00  0.00     0.027 H 
ENDBRANCH  44  47
ENDBRANCH  42  44
ENDBRANCH  39  42
ENDBRANCH   6  39
TORSDOF 7
ENDMDL
MODEL 2
REMARK VINA RESULT:     -10.9      1.256      1.834
REMARK SMILES c1cc(-c2cn(Cc3ccc4cc(CNCC5CCC5)[nH]c4c3)cn2)c2cn[nH]c2c1
REMARK SMILES IDX 8 1 9 2 10 3 11 4 12 5 13 6 21 7 22 8 23 9 7 15 6 18 4 19
REMARK SMILES IDX 5 20 25 21 24 23 3 25 1 26 2 27 31 28 30 31 26 33 29 34
REMARK SMILES IDX 27 35 28 36 14 39 15 42 16 44 17 47 18 48 20 49 19 51
REMARK H PARENT 9 10 10 11 12 12 21 13 23 14 7 16 7 17 5 22 24 24 1 29 2 30
REMARK H PARENT 31 32 29 37 27 38 14 40 14 41 15 43 16 45 16 46 17 50 18 52
REMARK H PARENT 18 53 20 54 20 55 19 56 19 57
REMARK Flexibility Score: inf
ROOT
ATOM      1  C   UNL     1     -48.054  34.608  26.477  1.00  0.00    -0.026 A 
ATOM      2  C   UNL     1     -46.742  34.512  25.991  1.00  0.00    -0.056 A 
ATOM      3  C   UNL     1     -46.303  33.373  25.304  1.00  0.00    -0.052 A 
ATOM      4  C   UNL     1     -47.195  32.304  25.101  1.00  0.00    -0.000 A 
ATOM      5  C   UNL     1     -47.090  31.035  24.469  1.00  0.00    -0.032 A 
ATOM      6  C   UNL     1     -48.306  30.392  24.594  1.00  0.00     0.030 A 
ATOM      7  N   UNL     1     -49.147  31.246  25.266  1.00  0.00    -0.357 N 
ATOM      8  C   UNL     1     -48.495  32.414  25.588  1.00  0.00     0.046 A 
ATOM      9  C   UNL     1     -48.954  33.547  26.273  1.00  0.00    -0.033 A 
ATOM     10  H   UNL     1     -46.036  35.326  26.144  1.00  0.00     0.063 H 
ATOM     11  H   UNL     1     -45.283  33.314  24.937  1.00  0.00     0.063 H 
ATOM     12  H   UNL     1     -46.211  30.629  23.985  1.00  0.00     0.065 H 
ATOM     13  H   UNL     1     -50.109  31.045  25.502  1.00  0.00     0.166 HD
ATOM     14  H   UNL     1     -49.974  33.593  26.643  1.00  0.00     0.065 H 
ENDROOT
BRANCH   1  15
ATOM     15  C   UNL     1     -48.497  35.850  27.211  1.00  0.00     0.049 C 
ATOM     16  H   UNL     1     -49.294  35.602  27.923  1.00  0.00     0.055 H 
ATOM     17  H   UNL     1     -48.896  36.607  26.525  1.00  0.00     0.055 H 
BRANCH  15  18
ATOM     18  N   UNL     1     -47.404  36.473  27.937  1.00  0.00    -0.332 N 
ATOM     19  C   UNL     1     -45.814  37.819  28.587  1.00  0.00     0.089 A 
ATOM     20  C   UNL     1     -46.721  37.602  27.571  1.00  0.00     0.032 A 
ATOM     21  N   UNL     1     -45.927  36.834  29.544  1.00  0.00    -0.237 NA
ATOM     22  H   UNL     1     -46.914  38.112  26.638  1.00  0.00     0.084 H 
ATOM     23  C   UNL     1     -46.900  36.053  29.135  1.00  0.00     0.096 A 
ATOM     24  H   UNL     1     -47.269  35.181  29.658  1.00  0.00     0.104 H 
BRANCH  19  25
ATOM     25  C   UNL     1     -44.822  38.872  28.656  1.00  0.00     0.013 A 
ATOM     26  C   UNL     1     -42.902  39.873  29.787  1.00  0.00    -0.059 A 
ATOM     27  C   UNL     1     -43.878  38.880  29.700  1.00  0.00    -0.052 A 
ATOM     28  C   UNL     1     -42.835  40.900  28.843  1.00  0.00    -0.036 A 
ATOM     29  H   UNL     1     -42.184  39.846  30.604  1.00  0.00     0.062 H 
ATOM     30  H   UNL     1     -43.907  38.092  30.451  1.00  0.00     0.063 H 
ATOM     31  C   UNL     1     -43.793  40.893  27.824  1.00  0.00     0.066 A 
ATOM     32  H   UNL     1     -42.077  41.673  28.912  1.00  0.00     0.065 H 
ATOM     33  C   UNL     1     -44.781  39.917  27.707  1.00  0.00     0.029 A 
ATOM     34  N   UNL     1     -44.002  41.755  26.778  1.00  0.00    -0.278 N 
ATOM     35  C   UNL     1     -45.528  40.328  26.576  1.00  0.00     0.057 A 
ATOM     36  N   UNL     1     -45.050  41.435  26.002  1.00  0.00    -0.183 NA
ATOM     37  H   UNL     1     -43.468  42.585  26.547  1.00  0.00     0.190 HD
ATOM     38  H   UNL     1     -46.407  39.865  26.149  1.00  0.00     0.087 H 
ENDBRANCH  19  25
ENDBRANCH  15  18
ENDBRANCH   1  15
BRANCH   6  39
ATOM     39  C   UNL     1     -48.755  29.050  24.129  1.00  0.00     0.036 C 
ATOM     40  H   UNL     1     -47.902  28.445  23.798  1.00  0.00     0.049 H 
ATOM     41  H   UNL     1     -49.395  29.174  23.247  1.00  0.00     0.049 H 
BRANCH  39  42
ATOM     42  N   UNL     1     -49.529  28.358  25.156  1.00  0.00    -0.311 NA
ATOM     43  H   UNL     1     -50.123  29.028  25.638  1.00  0.00     0.123 HD
BRANCH  42  44
ATOM     44  C   UNL     1     -48.676  27.678  26.136  1.00  0.00    -0.002 C 
ATOM     45  H   UNL     1     -47.814  28.313  26.373  1.00  0.00     0.043 H 
ATOM     46  H   UNL     1     -49.221  27.492  27.067  1.00  0.00     0.043 H 
BRANCH  44  47
ATOM     47  C   UNL     1     -48.163  26.361  25.547  1.00  0.00    -0.029 C 
ATOM     48  C   UNL     1     -48.132  25.127  26.490  1.00  0.00    -0.049 C 
ATOM     49  C   UNL     1     -46.618  26.234  25.467  1.00  0.00    -0.049 C 
ATOM     50  H   UNL     1     -48.646  26.155  24.582  1.00  0.00     0.032 H 
ATOM     51  C   UNL     1     -46.663  25.469  26.803  1.00  0.00    -0.053 C 
ATOM     52  H   UNL     1     -48.255  24.173  25.963  1.00  0.00     0.027 H 
ATOM     53  H   UNL     1     -48.809  25.142  27.348  1.00  0.00     0.027 H 
ATOM     54  H   UNL     1     -46.050  27.168  25.477  1.00  0.00     0.027 H 
ATOM     55  H   UNL     1     -46.274  25.622  24.625  1.00  0.00     0.027 H 
ATOM     56  H   UNL     1     -45.984  24.616  26.884  1.00  0.00     0.027 H 
ATOM     57  H   UNL     1     -46.536  26.109  27.684  1.00  0.00     0.027 H 
ENDBRANCH  44  47
ENDBRANCH  42  44
ENDBRANCH  39  42
ENDBRANCH   6  39
TORSDOF 7
ENDMDL
MODEL 3
REMARK VINA RESULT:     -10.7      2.213      3.146
REMARK SMILES c1cc(-c2cn(Cc3ccc4cc(CNCC5CCC5)[nH]c4c3)cn2)c2cn[nH]c2c1
REMARK SMILES IDX 8 1 9 2 10 3 11 4 12 5 13 6 21 7 22 8 23 9 7 15 6 18 4 19
REMARK SMILES IDX 5 20 25 21 24 23 3 25 1 26 2 27 31 28 30 31 26 33 29 34
REMARK SMILES IDX 27 35 28 36 14 39 15 42 16 44 17 47 18 48 20 49 19 51
REMARK H PARENT 9 10 10 11 12 12 21 13 23 14 7 16 7 17 5 22 24 24 1 29 2 30
REMARK H PARENT 31 32 29 37 27 38 14 40 14 41 15 43 16 45 16 46 17 50 18 52
REMARK H PARENT 18 53 20 54 20 55 19 56 19 57
REMARK Flexibility Score: inf
ROOT
ATOM      1  C   UNL     1     -46.872  35.624  28.118  1.00  0.00    -0.026 A 
ATOM      2  C   UNL     1     -48.221  35.567  27.737  1.00  0.00    -0.056 A 
ATOM      3  C   UNL     1     -48.653  34.701  26.725  1.00  0.00    -0.052 A 
ATOM      4  C   UNL     1     -47.717  33.875  26.077  1.00  0.00    -0.000 A 
ATOM      5  C   UNL     1     -47.802  32.911  25.037  1.00  0.00    -0.032 A 
ATOM      6  C   UNL     1     -46.533  32.422  24.799  1.00  0.00     0.030 A 
ATOM      7  N   UNL     1     -45.686  33.051  25.681  1.00  0.00    -0.357 N 
ATOM      8  C   UNL     1     -46.382  33.942  26.466  1.00  0.00     0.046 A 
ATOM      9  C   UNL     1     -45.930  34.797  27.480  1.00  0.00    -0.033 A 
ATOM     10  H   UNL     1     -48.958  36.202  28.223  1.00  0.00     0.063 H 
ATOM     11  H   UNL     1     -49.701  34.671  26.441  1.00  0.00     0.063 H 
ATOM     12  H   UNL     1     -48.699  32.614  24.507  1.00  0.00     0.065 H 
ATOM     13  H   UNL     1     -44.690  32.892  25.741  1.00  0.00     0.166 HD
ATOM     14  H   UNL     1     -44.879  34.825  27.752  1.00  0.00     0.065 H 
ENDROOT
BRANCH   1  15
ATOM     15  C   UNL     1     -46.437  36.566  29.215  1.00  0.00     0.049 C 
ATOM     16  H   UNL     1     -45.520  36.195  29.686  1.00  0.00     0.055 H 
ATOM     17  H   UNL     1     -47.197  36.653  30.001  1.00  0.00     0.055 H 
BRANCH  15  18
ATOM     18  N   UNL     1     -46.192  37.908  28.714  1.00  0.00    -0.332 N 
ATOM     19  C   UNL     1     -45.272  39.696  27.867  1.00  0.00     0.089 A 
ATOM     20  C   UNL     1     -44.995  38.408  28.277  1.00  0.00     0.032 A 
ATOM     21  N   UNL     1     -46.605  39.982  28.066  1.00  0.00    -0.237 NA
ATOM     22  H   UNL     1     -44.081  37.835  28.325  1.00  0.00     0.084 H 
ATOM     23  C   UNL     1     -47.133  38.884  28.558  1.00  0.00     0.096 A 
ATOM     24  H   UNL     1     -48.174  38.750  28.819  1.00  0.00     0.104 H 
BRANCH  19  25
ATOM     25  C   UNL     1     -44.327  40.668  27.358  1.00  0.00     0.013 A 
ATOM     26  C   UNL     1     -43.650  42.206  25.585  1.00  0.00    -0.059 A 
ATOM     27  C   UNL     1     -44.536  41.258  26.098  1.00  0.00    -0.052 A 
ATOM     28  C   UNL     1     -42.519  42.595  26.304  1.00  0.00    -0.036 A 
ATOM     29  H   UNL     1     -43.845  42.646  24.609  1.00  0.00     0.062 H 
ATOM     30  H   UNL     1     -45.410  40.972  25.514  1.00  0.00     0.063 H 
ATOM     31  C   UNL     1     -42.310  41.985  27.545  1.00  0.00     0.066 A 
ATOM     32  H   UNL     1     -41.829  43.331  25.905  1.00  0.00     0.065 H 
ATOM     33  C   UNL     1     -43.174  41.034  28.086  1.00  0.00     0.029 A 
ATOM     34  N   UNL     1     -41.304  42.134  28.465  1.00  0.00    -0.278 N 
ATOM     35  C   UNL     1     -42.556  40.677  29.310  1.00  0.00     0.057 A 
ATOM     36  N   UNL     1     -41.429  41.351  29.549  1.00  0.00    -0.183 NA
ATOM     37  H   UNL     1     -40.500  42.748  28.405  1.00  0.00     0.190 HD
ATOM     38  H   UNL     1     -42.882  39.945  30.037  1.00  0.00     0.087 H 
ENDBRANCH  19  25
ENDBRANCH  15  18
ENDBRANCH   1  15
BRANCH   6  39
ATOM     39  C   UNL     1     -46.040  31.408  23.826  1.00  0.00     0.036 C 
ATOM     40  H   UNL     1     -44.955  31.276  23.914  1.00  0.00     0.049 H 
ATOM     41  H   UNL     1     -46.216  31.776  22.808  1.00  0.00     0.049 H 
BRANCH  39  42
ATOM     42  N   UNL     1     -46.742  30.136  23.974  1.00  0.00    -0.311 NA
ATOM     43  H   UNL     1     -46.226  29.541  24.618  1.00  0.00     0.123 HD
BRANCH  42  44
ATOM     44  C   UNL     1     -46.904  29.435  22.697  1.00  0.00    -0.002 C 
ATOM     45  H   UNL     1     -46.546  30.073  21.880  1.00  0.00     0.043 H 
ATOM     46  H   UNL     1     -46.318  28.510  22.680  1.00  0.00     0.043 H 
BRANCH  44  47
ATOM     47  C   UNL     1     -48.387  29.129  22.461  1.00  0.00    -0.029 C 
ATOM     48  C   UNL     1     -48.961  29.446  21.053  1.00  0.00    -0.049 C 
ATOM     49  C   UNL     1     -49.373  30.193  23.011  1.00  0.00    -0.049 C 
ATOM     50  H   UNL     1     -48.632  28.117  22.810  1.00  0.00     0.032 H 
ATOM     51  C   UNL     1     -49.410  30.813  21.602  1.00  0.00    -0.053 C 
ATOM     52  H   UNL     1     -49.795  28.795  20.766  1.00  0.00     0.027 H 
ATOM     53  H   UNL     1     -48.248  29.485  20.225  1.00  0.00     0.027 H 
ATOM     54  H   UNL     1     -48.996  30.845  23.803  1.00  0.00     0.027 H 
ATOM     55  H   UNL     1     -50.335  29.773  23.329  1.00  0.00     0.027 H 
ATOM     56  H   UNL     1     -50.389  31.162  21.263  1.00  0.00     0.027 H 
ATOM     57  H   UNL     1     -48.677  31.613  21.450  1.00  0.00     0.027 H 
ENDBRANCH  44  47
ENDBRANCH  42  44
ENDBRANCH  39  42
ENDBRANCH   6  39
TORSDOF 7
ENDMDL
MODEL 4
REMARK VINA RESULT:     -10.5      1.501      2.284
REMARK SMILES c1cc(-c2cn(Cc3ccc4cc(CNCC5CCC5)[nH]c4c3)cn2)c2cn[nH]c2c1
REMARK SMILES IDX 8 1 9 2 10 3 11 4 12 5 13 6 21 7 22 8 23 9 7 15 6 18 4 19
REMARK SMILES IDX 5 20 25 21 24 23 3 25 1 26 2 27 31 28 30 31 26 33 29 34
REMARK SMILES IDX 27 35 28 36 14 39 15 42 16 44 17 47 18 48 20 49 19 51
REMARK H PARENT 9 10 10 11 12 12 21 13 23 14 7 16 7 17 5 22 24 24 1 29 2 30
REMARK H PARENT 31 32 29 37 27 38 14 40 14 41 15 43 16 45 16 46 17 50 18 52
REMARK H PARENT 18 53 20 54 20 55 19 56 19 57
REMARK Flexibility Score: inf
ROOT
ATOM      1  C   UNL     1     -46.751  35.000  27.543  1.00  0.00    -0.026 A 
ATOM      2  C   UNL     1     -48.133  34.930  27.315  1.00  0.00    -0.056 A 
ATOM      3  C   UNL     1     -48.671  34.034  26.382  1.00  0.00    -0.052 A 
ATOM      4  C   UNL     1     -47.808  33.191  25.659  1.00  0.00    -0.000 A 
ATOM      5  C   UNL     1     -48.003  32.196  24.663  1.00  0.00    -0.032 A 
ATOM      6  C   UNL     1     -46.766  31.702  24.301  1.00  0.00     0.030 A 
ATOM      7  N   UNL     1     -45.830  32.358  25.065  1.00  0.00    -0.357 N 
ATOM      8  C   UNL     1     -46.439  33.271  25.896  1.00  0.00     0.046 A 
ATOM      9  C   UNL     1     -45.881  34.156  26.828  1.00  0.00    -0.033 A 
ATOM     10  H   UNL     1     -48.815  35.579  27.861  1.00  0.00     0.063 H 
ATOM     11  H   UNL     1     -49.743  33.995  26.216  1.00  0.00     0.063 H 
ATOM     12  H   UNL     1     -48.952  31.883  24.244  1.00  0.00     0.065 H 
ATOM     13  H   UNL     1     -44.833  32.203  25.019  1.00  0.00     0.166 HD
ATOM     14  H   UNL     1     -44.807  34.193  26.982  1.00  0.00     0.065 H 
ENDROOT
BRANCH   1  15
ATOM     15  C   UNL     1     -46.202  35.974  28.557  1.00  0.00     0.049 C 
ATOM     16  H   UNL     1     -45.279  35.578  28.997  1.00  0.00     0.055 H 
ATOM     17  H   UNL     1     -46.908  36.147  29.378  1.00  0.00     0.055 H 
BRANCH  15  18
ATOM     18  N   UNL     1     -45.916  37.271  27.966  1.00  0.00    -0.332 N 
ATOM     19  C   UNL     1     -45.007  39.186  27.448  1.00  0.00     0.089 A 
ATOM     20  C   UNL     1     -44.889  38.110  28.304  1.00  0.00     0.032 A 
ATOM     21  N   UNL     1     -46.095  39.015  26.619  1.00  0.00    -0.237 NA
ATOM     22  H   UNL     1     -44.209  37.890  29.114  1.00  0.00     0.084 H 
ATOM     23  C   UNL     1     -46.607  37.850  26.942  1.00  0.00     0.096 A 
ATOM     24  H   UNL     1     -47.469  37.392  26.476  1.00  0.00     0.104 H 
BRANCH  19  25
ATOM     25  C   UNL     1     -44.181  40.374  27.427  1.00  0.00     0.013 A 
ATOM     26  C   UNL     1     -43.470  42.414  26.285  1.00  0.00    -0.059 A 
ATOM     27  C   UNL     1     -44.245  41.254  26.330  1.00  0.00    -0.052 A 
ATOM     28  C   UNL     1     -42.596  42.735  27.325  1.00  0.00    -0.036 A 
ATOM     29  H   UNL     1     -43.548  43.075  25.424  1.00  0.00     0.062 H 
ATOM     30  H   UNL     1     -44.916  41.028  25.504  1.00  0.00     0.063 H 
ATOM     31  C   UNL     1     -42.524  41.841  28.398  1.00  0.00     0.066 A 
ATOM     32  H   UNL     1     -41.992  43.636  27.289  1.00  0.00     0.065 H 
ATOM     33  C   UNL     1     -43.284  40.674  28.475  1.00  0.00     0.029 A 
ATOM     34  N   UNL     1     -41.766  41.862  29.541  1.00  0.00    -0.278 N 
ATOM     35  C   UNL     1     -42.863  40.079  29.690  1.00  0.00     0.057 A 
ATOM     36  N   UNL     1     -41.952  40.803  30.345  1.00  0.00    -0.183 NA
ATOM     37  H   UNL     1     -41.096  42.568  29.822  1.00  0.00     0.190 HD
ATOM     38  H   UNL     1     -43.182  39.140  30.122  1.00  0.00     0.087 H 
ENDBRANCH  19  25
ENDBRANCH  15  18
ENDBRANCH   1  15
BRANCH   6  39
ATOM     39  C   UNL     1     -46.379  30.661  23.309  1.00  0.00     0.036 C 
ATOM     40  H   UNL     1     -45.370  30.281  23.513  1.00  0.00     0.049 H 
ATOM     41  H   UNL     1     -46.331  31.118  22.313  1.00  0.00     0.049 H 
BRANCH  39  42
ATOM     42  N   UNL     1     -47.354  29.575  23.262  1.00  0.00    -0.311 NA
ATOM     43  H   UNL     1     -48.267  29.954  23.021  1.00  0.00     0.123 HD
BRANCH  42  44
ATOM     44  C   UNL     1     -47.452  28.857  24.536  1.00  0.00    -0.002 C 
ATOM     45  H   UNL     1     -46.592  29.110  25.167  1.00  0.00     0.043 H 
ATOM     46  H   UNL     1     -48.360  29.142  25.078  1.00  0.00     0.043 H 
BRANCH  44  47
ATOM     47  C   UNL     1     -47.438  27.347  24.279  1.00  0.00    -0.029 C 
ATOM     48  C   UNL     1     -48.081  26.437  25.362  1.00  0.00    -0.049 C 
ATOM     49  C   UNL     1     -46.096  26.637  24.600  1.00  0.00    -0.049 C 
ATOM     50  H   UNL     1     -47.792  27.125  23.263  1.00  0.00     0.032 H 
ATOM     51  C   UNL     1     -46.679  26.267  25.976  1.00  0.00    -0.053 C 
ATOM     52  H   UNL     1     -48.497  25.506  24.958  1.00  0.00     0.027 H 
ATOM     53  H   UNL     1     -48.826  26.897  26.017  1.00  0.00     0.027 H 
ATOM     54  H   UNL     1     -45.203  27.267  24.620  1.00  0.00     0.027 H 
ATOM     55  H   UNL     1     -45.898  25.768  23.961  1.00  0.00     0.027 H 
ATOM     56  H   UNL     1     -46.438  25.264  26.339  1.00  0.00     0.027 H 
ATOM     57  H   UNL     1     -46.450  26.993  26.764  1.00  0.00     0.027 H 
ENDBRANCH  44  47
ENDBRANCH  42  44
ENDBRANCH  39  42
ENDBRANCH   6  39
TORSDOF 7
ENDMDL
MODEL 5
REMARK VINA RESULT:     -10.2      1.636      2.377
REMARK SMILES c1cc(-c2cn(Cc3ccc4cc(CNCC5CCC5)[nH]c4c3)cn2)c2cn[nH]c2c1
REMARK SMILES IDX 8 1 9 2 10 3 11 4 12 5 13 6 21 7 22 8 23 9 7 15 6 18 4 19
REMARK SMILES IDX 5 20 25 21 24 23 3 25 1 26 2 27 31 28 30 31 26 33 29 34
REMARK SMILES IDX 27 35 28 36 14 39 15 42 16 44 17 47 18 48 20 49 19 51
REMARK H PARENT 9 10 10 11 12 12 21 13 23 14 7 16 7 17 5 22 24 24 1 29 2 30
REMARK H PARENT 31 32 29 37 27 38 14 40 14 41 15 43 16 45 16 46 17 50 18 52
REMARK H PARENT 18 53 20 54 20 55 19 56 19 57
REMARK Flexibility Score: inf
ROOT
ATOM      1  C   UNL     1     -47.628  36.006  27.081  1.00  0.00    -0.026 A 
ATOM      2  C   UNL     1     -46.353  35.661  26.609  1.00  0.00    -0.056 A 
ATOM      3  C   UNL     1     -46.115  34.423  25.999  1.00  0.00    -0.052 A 
ATOM      4  C   UNL     1     -47.175  33.508  25.858  1.00  0.00    -0.000 A 
ATOM      5  C   UNL     1     -47.286  32.202  25.310  1.00  0.00    -0.032 A 
ATOM      6  C   UNL     1     -48.592  31.781  25.467  1.00  0.00     0.030 A 
ATOM      7  N   UNL     1     -49.276  32.804  26.079  1.00  0.00    -0.357 N 
ATOM      8  C   UNL     1     -48.435  33.864  26.330  1.00  0.00     0.046 A 
ATOM      9  C   UNL     1     -48.695  35.100  26.939  1.00  0.00    -0.033 A 
ATOM     10  H   UNL     1     -45.521  36.354  26.715  1.00  0.00     0.063 H 
ATOM     11  H   UNL     1     -45.121  34.172  25.642  1.00  0.00     0.063 H 
ATOM     12  H   UNL     1     -46.490  31.625  24.857  1.00  0.00     0.065 H 
ATOM     13  H   UNL     1     -50.256  32.782  26.321  1.00  0.00     0.166 HD
ATOM     14  H   UNL     1     -49.691  35.339  27.299  1.00  0.00     0.065 H 
ENDROOT
BRANCH   1  15
ATOM     15  C   UNL     1     -47.854  37.349  27.732  1.00  0.00     0.049 C 
ATOM     16  H   UNL     1     -48.632  37.268  28.500  1.00  0.00     0.055 H 
ATOM     17  H   UNL     1     -48.188  38.101  27.007  1.00  0.00     0.055 H 
BRANCH  15  18
ATOM     18  N   UNL     1     -46.644  37.865  28.349  1.00  0.00    -0.332 N 
ATOM     19  C   UNL     1     -44.865  39.038  28.821  1.00  0.00     0.089 A 
ATOM     20  C   UNL     1     -45.866  38.891  27.883  1.00  0.00     0.032 A 
ATOM     21  N   UNL     1     -45.018  38.109  29.828  1.00  0.00    -0.237 NA
ATOM     22  H   UNL     1     -46.069  39.386  26.944  1.00  0.00     0.084 H 
ATOM     23  C   UNL     1     -46.103  37.434  29.525  1.00  0.00     0.096 A 
ATOM     24  H   UNL     1     -46.528  36.631  30.113  1.00  0.00     0.104 H 
BRANCH  19  25
ATOM     25  C   UNL     1     -43.756  39.967  28.770  1.00  0.00     0.013 A 
ATOM     26  C   UNL     1     -41.729  40.870  29.790  1.00  0.00    -0.059 A 
ATOM     27  C   UNL     1     -42.815  39.995  29.816  1.00  0.00    -0.052 A 
ATOM     28  C   UNL     1     -41.545  41.757  28.728  1.00  0.00    -0.036 A 
ATOM     29  H   UNL     1     -41.016  40.862  30.613  1.00  0.00     0.062 H 
ATOM     30  H   UNL     1     -42.933  39.315  30.658  1.00  0.00     0.063 H 
ATOM     31  C   UNL     1     -42.501  41.736  27.706  1.00  0.00     0.066 A 
ATOM     32  H   UNL     1     -40.702  42.440  28.709  1.00  0.00     0.065 H 
ATOM     33  C   UNL     1     -43.597  40.875  27.701  1.00  0.00     0.029 A 
ATOM     34  N   UNL     1     -42.611  42.480  26.560  1.00  0.00    -0.278 N 
ATOM     35  C   UNL     1     -44.294  41.227  26.518  1.00  0.00     0.057 A 
ATOM     36  N   UNL     1     -43.692  42.191  25.817  1.00  0.00    -0.183 NA
ATOM     37  H   UNL     1     -41.984  43.207  26.234  1.00  0.00     0.190 HD
ATOM     38  H   UNL     1     -45.223  40.820  26.142  1.00  0.00     0.087 H 
ENDBRANCH  19  25
ENDBRANCH  15  18
ENDBRANCH   1  15
BRANCH   6  39
ATOM     39  C   UNL     1     -49.262  30.506  25.086  1.00  0.00     0.036 C 
ATOM     40  H   UNL     1     -50.349  30.582  25.216  1.00  0.00     0.049 H 
ATOM     41  H   UNL     1     -48.933  29.713  25.769  1.00  0.00     0.049 H 
BRANCH  39  42
ATOM     42  N   UNL     1     -48.918  30.104  23.726  1.00  0.00    -0.311 NA
ATOM     43  H   UNL     1     -49.730  29.673  23.288  1.00  0.00     0.123 HD
BRANCH  42  44
ATOM     44  C   UNL     1     -47.795  29.163  23.687  1.00  0.00    -0.002 C 
ATOM     45  H   UNL     1     -47.086  29.406  24.488  1.00  0.00     0.043 H 
ATOM     46  H   UNL     1     -48.139  28.136  23.845  1.00  0.00     0.043 H 
BRANCH  44  47
ATOM     47  C   UNL     1     -47.070  29.281  22.343  1.00  0.00    -0.029 C 
ATOM     48  C   UNL     1     -45.555  29.625  22.383  1.00  0.00    -0.049 C 
ATOM     49  C   UNL     1     -47.271  30.630  21.603  1.00  0.00    -0.049 C 
ATOM     50  H   UNL     1     -47.300  28.418  21.704  1.00  0.00     0.032 H 
ATOM     51  C   UNL     1     -45.942  31.107  22.215  1.00  0.00    -0.053 C 
ATOM     52  H   UNL     1     -44.995  29.222  21.531  1.00  0.00     0.027 H 
ATOM     53  H   UNL     1     -45.016  29.383  23.303  1.00  0.00     0.027 H 
ATOM     54  H   UNL     1     -48.154  31.211  21.880  1.00  0.00     0.027 H 
ATOM     55  H   UNL     1     -47.241  30.536  20.511  1.00  0.00     0.027 H 
ATOM     56  H   UNL     1     -45.299  31.693  21.554  1.00  0.00     0.027 H 
ATOM     57  H   UNL     1     -46.058  31.644  23.164  1.00  0.00     0.027 H 
ENDBRANCH  44  47
ENDBRANCH  42  44
ENDBRANCH  39  42
ENDBRANCH   6  39
TORSDOF 7
ENDMDL
MODEL 6
REMARK VINA RESULT:     -10.0      1.546      2.029
REMARK SMILES c1cc(-c2cn(Cc3ccc4cc(CNCC5CCC5)[nH]c4c3)cn2)c2cn[nH]c2c1
REMARK SMILES IDX 8 1 9 2 10 3 11 4 12 5 13 6 21 7 22 8 23 9 7 15 6 18 4 19
REMARK SMILES IDX 5 20 25 21 24 23 3 25 1 26 2 27 31 28 30 31 26 33 29 34
REMARK SMILES IDX 27 35 28 36 14 39 15 42 16 44 17 47 18 48 20 49 19 51
REMARK H PARENT 9 10 10 11 12 12 21 13 23 14 7 16 7 17 5 22 24 24 1 29 2 30
REMARK H PARENT 31 32 29 37 27 38 14 40 14 41 15 43 16 45 16 46 17 50 18 52
REMARK H PARENT 18 53 20 54 20 55 19 56 19 57
REMARK Flexibility Score: inf
ROOT
ATOM      1  C   UNL     1     -47.008  35.398  28.284  1.00  0.00    -0.026 A 
ATOM      2  C   UNL     1     -48.322  35.440  27.796  1.00  0.00    -0.056 A 
ATOM      3  C   UNL     1     -48.713  34.666  26.696  1.00  0.00    -0.052 A 
ATOM      4  C   UNL     1     -47.769  33.833  26.068  1.00  0.00    -0.000 A 
ATOM      5  C   UNL     1     -47.818  32.943  24.961  1.00  0.00    -0.032 A 
ATOM      6  C   UNL     1     -46.559  32.401  24.791  1.00  0.00     0.030 A 
ATOM      7  N   UNL     1     -45.757  32.925  25.777  1.00  0.00    -0.357 N 
ATOM      8  C   UNL     1     -46.469  33.801  26.564  1.00  0.00     0.046 A 
ATOM      9  C   UNL     1     -46.059  34.563  27.666  1.00  0.00    -0.033 A 
ATOM     10  H   UNL     1     -49.064  36.083  28.265  1.00  0.00     0.063 H 
ATOM     11  H   UNL     1     -49.734  34.712  26.330  1.00  0.00     0.063 H 
ATOM     12  H   UNL     1     -48.682  32.731  24.344  1.00  0.00     0.065 H 
ATOM     13  H   UNL     1     -44.778  32.708  25.903  1.00  0.00     0.166 HD
ATOM     14  H   UNL     1     -45.034  34.515  28.021  1.00  0.00     0.065 H 
ENDROOT
BRANCH   1  15
ATOM     15  C   UNL     1     -46.617  36.242  29.473  1.00  0.00     0.049 C 
ATOM     16  H   UNL     1     -45.843  35.732  30.058  1.00  0.00     0.055 H 
ATOM     17  H   UNL     1     -47.468  36.421  30.141  1.00  0.00     0.055 H 
BRANCH  15  18
ATOM     18  N   UNL     1     -46.114  37.545  29.073  1.00  0.00    -0.332 N 
ATOM     19  C   UNL     1     -44.831  39.257  28.641  1.00  0.00     0.089 A 
ATOM     20  C   UNL     1     -44.824  37.991  29.188  1.00  0.00     0.032 A 
ATOM     21  N   UNL     1     -46.101  39.586  28.219  1.00  0.00    -0.237 NA
ATOM     22  H   UNL     1     -44.052  37.400  29.660  1.00  0.00     0.084 H 
ATOM     23  C   UNL     1     -46.843  38.532  28.475  1.00  0.00     0.096 A 
ATOM     24  H   UNL     1     -47.898  38.438  28.255  1.00  0.00     0.104 H 
BRANCH  19  25
ATOM     25  C   UNL     1     -43.714  40.174  28.560  1.00  0.00     0.013 A 
ATOM     26  C   UNL     1     -41.672  41.084  29.545  1.00  0.00    -0.059 A 
ATOM     27  C   UNL     1     -42.766  40.221  29.599  1.00  0.00    -0.052 A 
ATOM     28  C   UNL     1     -41.486  41.941  28.459  1.00  0.00    -0.036 A 
ATOM     29  H   UNL     1     -40.956  41.090  30.364  1.00  0.00     0.062 H 
ATOM     30  H   UNL     1     -42.887  39.565  30.460  1.00  0.00     0.063 H 
ATOM     31  C   UNL     1     -42.447  41.903  27.443  1.00  0.00     0.066 A 
ATOM     32  H   UNL     1     -40.636  42.615  28.418  1.00  0.00     0.065 H 
ATOM     33  C   UNL     1     -43.551  41.052  27.466  1.00  0.00     0.029 A 
ATOM     34  N   UNL     1     -42.557  42.617  26.278  1.00  0.00    -0.278 N 
ATOM     35  C   UNL     1     -44.252  41.380  26.279  1.00  0.00     0.057 A 
ATOM     36  N   UNL     1     -43.644  42.319  25.549  1.00  0.00    -0.183 NA
ATOM     37  H   UNL     1     -41.925  43.329  25.930  1.00  0.00     0.190 HD
ATOM     38  H   UNL     1     -45.186  40.972  25.918  1.00  0.00     0.087 H 
ENDBRANCH  19  25
ENDBRANCH  15  18
ENDBRANCH   1  15
BRANCH   6  39
ATOM     39  C   UNL     1     -46.040  31.426  23.792  1.00  0.00     0.036 C 
ATOM     40  H   UNL     1     -45.306  30.751  24.249  1.00  0.00     0.049 H 
ATOM     41  H   UNL     1     -45.499  31.971  23.009  1.00  0.00     0.049 H 
BRANCH  39  42
ATOM     42  N   UNL     1     -47.123  30.679  23.157  1.00  0.00    -0.311 NA
ATOM     43  H   UNL     1     -48.003  31.163  23.318  1.00  0.00     0.123 HD
BRANCH  42  44
ATOM     44  C   UNL     1     -47.228  29.308  23.664  1.00  0.00    -0.002 C 
ATOM     45  H   UNL     1     -46.899  28.605  22.889  1.00  0.00     0.043 H 
ATOM     46  H   UNL     1     -46.589  29.163  24.540  1.00  0.00     0.043 H 
BRANCH  44  47
ATOM     47  C   UNL     1     -48.687  28.998  24.013  1.00  0.00    -0.029 C 
ATOM     48  C   UNL     1     -48.971  28.424  25.428  1.00  0.00    -0.049 C 
ATOM     49  C   UNL     1     -49.227  27.656  23.451  1.00  0.00    -0.049 C 
ATOM     50  H   UNL     1     -49.335  29.847  23.753  1.00  0.00     0.032 H 
ATOM     51  C   UNL     1     -48.901  27.014  24.812  1.00  0.00    -0.053 C 
ATOM     52  H   UNL     1     -49.965  28.683  25.811  1.00  0.00     0.027 H 
ATOM     53  H   UNL     1     -48.231  28.633  26.205  1.00  0.00     0.027 H 
ATOM     54  H   UNL     1     -48.697  27.237  22.592  1.00  0.00     0.027 H 
ATOM     55  H   UNL     1     -50.300  27.678  23.225  1.00  0.00     0.027 H 
ATOM     56  H   UNL     1     -49.636  26.296  25.185  1.00  0.00     0.027 H 
ATOM     57  H   UNL     1     -47.905  26.559  24.859  1.00  0.00     0.027 H 
ENDBRANCH  44  47
ENDBRANCH  42  44
ENDBRANCH  39  42
ENDBRANCH   6  39
TORSDOF 7
ENDMDL
MODEL 7
REMARK VINA RESULT:     -10.0      1.882      2.988
REMARK SMILES c1cc(-c2cn(Cc3ccc4cc(CNCC5CCC5)[nH]c4c3)cn2)c2cn[nH]c2c1
REMARK SMILES IDX 8 1 9 2 10 3 11 4 12 5 13 6 21 7 22 8 23 9 7 15 6 18 4 19
REMARK SMILES IDX 5 20 25 21 24 23 3 25 1 26 2 27 31 28 30 31 26 33 29 34
REMARK SMILES IDX 27 35 28 36 14 39 15 42 16 44 17 47 18 48 20 49 19 51
REMARK H PARENT 9 10 10 11 12 12 21 13 23 14 7 16 7 17 5 22 24 24 1 29 2 30
REMARK H PARENT 31 32 29 37 27 38 14 40 14 41 15 43 16 45 16 46 17 50 18 52
REMARK H PARENT 18 53 20 54 20 55 19 56 19 57
REMARK Flexibility Score: inf
ROOT
ATOM      1  C   UNL     1     -47.671  36.165  27.256  1.00  0.00    -0.026 A 
ATOM      2  C   UNL     1     -46.361  35.848  26.866  1.00  0.00    -0.056 A 
ATOM      3  C   UNL     1     -46.062  34.625  26.253  1.00  0.00    -0.052 A 
ATOM      4  C   UNL     1     -47.094  33.696  26.027  1.00  0.00    -0.000 A 
ATOM      5  C   UNL     1     -47.147  32.398  25.451  1.00  0.00    -0.032 A 
ATOM      6  C   UNL     1     -48.453  31.953  25.514  1.00  0.00     0.030 A 
ATOM      7  N   UNL     1     -49.193  32.955  26.094  1.00  0.00    -0.357 N 
ATOM      8  C   UNL     1     -48.389  34.024  26.418  1.00  0.00     0.046 A 
ATOM      9  C   UNL     1     -48.710  35.244  27.028  1.00  0.00    -0.033 A 
ATOM     10  H   UNL     1     -45.549  36.552  27.038  1.00  0.00     0.063 H 
ATOM     11  H   UNL     1     -45.042  34.395  25.960  1.00  0.00     0.063 H 
ATOM     12  H   UNL     1     -46.312  31.841  25.044  1.00  0.00     0.065 H 
ATOM     13  H   UNL     1     -50.187  32.914  26.269  1.00  0.00     0.166 HD
ATOM     14  H   UNL     1     -49.732  35.462  27.324  1.00  0.00     0.065 H 
ENDROOT
BRANCH   1  15
ATOM     15  C   UNL     1     -47.962  37.493  27.912  1.00  0.00     0.049 C 
ATOM     16  H   UNL     1     -48.036  37.367  28.999  1.00  0.00     0.055 H 
ATOM     17  H   UNL     1     -48.913  37.916  27.567  1.00  0.00     0.055 H 
BRANCH  15  18
ATOM     18  N   UNL     1     -46.933  38.478  27.628  1.00  0.00    -0.332 N 
ATOM     19  C   UNL     1     -45.134  39.712  27.693  1.00  0.00     0.089 A 
ATOM     20  C   UNL     1     -45.822  38.737  28.386  1.00  0.00     0.032 A 
ATOM     21  N   UNL     1     -45.819  40.054  26.548  1.00  0.00    -0.237 NA
ATOM     22  H   UNL     1     -45.643  38.245  29.331  1.00  0.00     0.084 H 
ATOM     23  C   UNL     1     -46.883  39.284  26.528  1.00  0.00     0.096 A 
ATOM     24  H   UNL     1     -47.639  39.277  25.755  1.00  0.00     0.104 H 
BRANCH  19  25
ATOM     25  C   UNL     1     -43.906  40.363  28.099  1.00  0.00     0.013 A 
ATOM     26  C   UNL     1     -42.106  40.613  29.731  1.00  0.00    -0.059 A 
ATOM     27  C   UNL     1     -43.296  40.013  29.318  1.00  0.00    -0.052 A 
ATOM     28  C   UNL     1     -41.485  41.590  28.951  1.00  0.00    -0.036 A 
ATOM     29  H   UNL     1     -41.658  40.314  30.677  1.00  0.00     0.062 H 
ATOM     30  H   UNL     1     -43.759  39.255  29.948  1.00  0.00     0.063 H 
ATOM     31  C   UNL     1     -42.113  41.945  27.753  1.00  0.00     0.066 A 
ATOM     32  H   UNL     1     -40.560  42.058  29.273  1.00  0.00     0.065 H 
ATOM     33  C   UNL     1     -43.302  41.366  27.311  1.00  0.00     0.029 A 
ATOM     34  N   UNL     1     -41.772  42.864  26.794  1.00  0.00    -0.278 N 
ATOM     35  C   UNL     1     -43.576  42.047  26.099  1.00  0.00     0.057 A 
ATOM     36  N   UNL     1     -42.644  42.947  25.776  1.00  0.00    -0.183 NA
ATOM     37  H   UNL     1     -40.961  43.472  26.784  1.00  0.00     0.190 HD
ATOM     38  H   UNL     1     -44.424  41.925  25.439  1.00  0.00     0.087 H 
ENDBRANCH  19  25
ENDBRANCH  15  18
ENDBRANCH   1  15
BRANCH   6  39
ATOM     39  C   UNL     1     -49.074  30.675  25.068  1.00  0.00     0.036 C 
ATOM     40  H   UNL     1     -50.128  30.627  25.369  1.00  0.00     0.049 H 
ATOM     41  H   UNL     1     -48.578  29.841  25.578  1.00  0.00     0.049 H 
BRANCH  39  42
ATOM     42  N   UNL     1     -48.925  30.479  23.629  1.00  0.00    -0.311 NA
ATOM     43  H   UNL     1     -48.404  31.259  23.236  1.00  0.00     0.123 HD
BRANCH  42  44
ATOM     44  C   UNL     1     -50.216  30.368  22.943  1.00  0.00    -0.002 C 
ATOM     45  H   UNL     1     -50.265  29.415  22.404  1.00  0.00     0.043 H 
ATOM     46  H   UNL     1     -51.044  30.391  23.659  1.00  0.00     0.043 H 
BRANCH  44  47
ATOM     47  C   UNL     1     -50.359  31.507  21.928  1.00  0.00    -0.029 C 
ATOM     48  C   UNL     1     -51.726  31.641  21.201  1.00  0.00    -0.049 C 
ATOM     49  C   UNL     1     -49.739  31.227  20.534  1.00  0.00    -0.049 C 
ATOM     50  H   UNL     1     -50.004  32.454  22.358  1.00  0.00     0.032 H 
ATOM     51  C   UNL     1     -51.138  30.797  20.054  1.00  0.00    -0.053 C 
ATOM     52  H   UNL     1     -51.964  32.671  20.908  1.00  0.00     0.027 H 
ATOM     53  H   UNL     1     -52.597  31.209  21.701  1.00  0.00     0.027 H 
ATOM     54  H   UNL     1     -48.967  30.455  20.488  1.00  0.00     0.027 H 
ATOM     55  H   UNL     1     -49.364  32.129  20.034  1.00  0.00     0.027 H 
ATOM     56  H   UNL     1     -51.411  31.114  19.044  1.00  0.00     0.027 H 
ATOM     57  H   UNL     1     -51.329  29.723  20.152  1.00  0.00     0.027 H 
ENDBRANCH  44  47
ENDBRANCH  42  44
ENDBRANCH  39  42
ENDBRANCH   6  39
TORSDOF 7
ENDMDL
