MODEL 1
REMARK VINA RESULT:     -10.5      0.000      0.000
REMARK SMILES CNc1ccc2ccc(OC[C@H]3O[C@@H](n4cc(C)c5c(N)ncnc54)[C@@H](F)[C@@H]3O)cc2n1
REMARK SMILES IDX 11 1 10 4 9 5 3 6 4 7 32 8 5 9 31 11 6 12 30 14 7 15 8 17
REMARK SMILES IDX 2 20 1 22 12 26 13 27 28 28 14 30 26 31 27 34 29 36 15 38
REMARK SMILES IDX 16 39 25 40 17 41 19 43 24 44 20 45 23 46 22 47 18 49 21 53
REMARK H PARENT 11 2 11 3 4 10 5 13 30 16 7 18 8 19 2 21 1 23 1 24 1 25 12 29
REMARK H PARENT 28 32 14 33 26 35 29 37 16 42 23 48 18 50 18 51 18 52 21 54
REMARK H PARENT 21 55
REMARK Flexibility Score: inf
ROOT
ATOM      1  C   UNL     1     -47.147  36.339  27.329  1.00  0.00     0.117 C 
ATOM      2  H   UNL     1     -48.050  35.778  27.595  1.00  0.00     0.073 H 
ATOM      3  H   UNL     1     -47.438  37.385  27.181  1.00  0.00     0.073 H 
ENDROOT
BRANCH   1   4
ATOM      4  O   UNL     1     -46.658  35.729  26.120  1.00  0.00    -0.491 OA
BRANCH   4   5
ATOM      5  C   UNL     1     -47.178  34.487  25.880  1.00  0.00     0.121 A 
ATOM      6  C   UNL     1     -46.934  30.183  23.884  1.00  0.00     0.126 A 
ATOM      7  C   UNL     1     -48.172  29.825  24.403  1.00  0.00    -0.019 A 
ATOM      8  N   UNL     1     -46.396  31.399  24.112  1.00  0.00    -0.231 NA
ATOM      9  C   UNL     1     -48.887  30.745  25.164  1.00  0.00    -0.049 A 
ATOM     10  H   UNL     1     -48.576  28.833  24.229  1.00  0.00     0.066 H 
ATOM     11  C   UNL     1     -47.078  32.293  24.850  1.00  0.00     0.076 A 
ATOM     12  C   UNL     1     -48.343  32.007  25.404  1.00  0.00     0.001 A 
ATOM     13  H   UNL     1     -49.853  30.465  25.572  1.00  0.00     0.063 H 
ATOM     14  C   UNL     1     -46.523  33.542  25.089  1.00  0.00     0.007 A 
ATOM     15  C   UNL     1     -49.020  32.971  26.170  1.00  0.00    -0.049 A 
ATOM     16  H   UNL     1     -45.559  33.774  24.646  1.00  0.00     0.069 H 
ATOM     17  C   UNL     1     -48.437  34.215  26.400  1.00  0.00    -0.019 A 
ATOM     18  H   UNL     1     -49.998  32.758  26.594  1.00  0.00     0.063 H 
ATOM     19  H   UNL     1     -48.954  34.960  26.997  1.00  0.00     0.066 H 
BRANCH   6  20
ATOM     20  N   UNL     1     -46.225  29.214  23.150  1.00  0.00    -0.373 N 
ATOM     21  H   UNL     1     -45.244  29.475  23.126  1.00  0.00     0.161 HD
BRANCH  20  22
ATOM     22  C   UNL     1     -46.410  27.853  23.628  1.00  0.00     0.005 C 
ATOM     23  H   UNL     1     -45.738  27.626  24.462  1.00  0.00     0.045 H 
ATOM     24  H   UNL     1     -46.269  27.121  22.827  1.00  0.00     0.045 H 
ATOM     25  H   UNL     1     -47.435  27.745  23.998  1.00  0.00     0.045 H 
ENDBRANCH  20  22
ENDBRANCH   6  20
ENDBRANCH   4   5
ENDBRANCH   1   4
BRANCH   1  26
ATOM     26  C   UNL     1     -46.099  36.198  28.447  1.00  0.00     0.123 C 
ATOM     27  O   UNL     1     -44.927  36.973  28.091  1.00  0.00    -0.345 OA
ATOM     28  C   UNL     1     -46.597  36.752  29.787  1.00  0.00     0.119 C 
ATOM     29  H   UNL     1     -45.778  35.155  28.535  1.00  0.00     0.067 H 
ATOM     30  C   UNL     1     -44.868  38.124  28.967  1.00  0.00     0.169 C 
ATOM     31  C   UNL     1     -46.197  38.204  29.707  1.00  0.00     0.173 C 
ATOM     32  H   UNL     1     -47.672  36.602  29.922  1.00  0.00     0.066 H 
ATOM     33  H   UNL     1     -44.038  37.936  29.661  1.00  0.00     0.088 H 
ATOM     34  F   UNL     1     -47.142  38.856  28.973  1.00  0.00    -0.239 F 
ATOM     35  H   UNL     1     -46.111  38.702  30.676  1.00  0.00     0.074 H 
BRANCH  28  36
ATOM     36  O   UNL     1     -45.921  36.111  30.873  1.00  0.00    -0.387 OA
ATOM     37  H   UNL     1     -45.890  35.155  30.684  1.00  0.00     0.211 HD
ENDBRANCH  28  36
BRANCH  30  38
ATOM     38  N   UNL     1     -44.541  39.325  28.218  1.00  0.00    -0.303 N 
ATOM     39  C   UNL     1     -45.113  39.759  27.051  1.00  0.00     0.012 A 
ATOM     40  C   UNL     1     -43.583  40.223  28.618  1.00  0.00     0.147 A 
ATOM     41  C   UNL     1     -44.547  40.974  26.705  1.00  0.00    -0.020 A 
ATOM     42  H   UNL     1     -45.886  39.183  26.562  1.00  0.00     0.082 H 
ATOM     43  C   UNL     1     -43.556  41.266  27.698  1.00  0.00     0.064 A 
ATOM     44  N   UNL     1     -42.822  40.100  29.720  1.00  0.00    -0.218 NA
ATOM     45  C   UNL     1     -42.630  42.292  27.953  1.00  0.00     0.136 A 
ATOM     46  C   UNL     1     -41.981  41.140  29.851  1.00  0.00     0.120 A 
ATOM     47  N   UNL     1     -41.840  42.206  29.042  1.00  0.00    -0.219 NA
ATOM     48  H   UNL     1     -41.329  41.119  30.719  1.00  0.00     0.106 H 
BRANCH  41  49
ATOM     49  C   UNL     1     -44.919  41.801  25.528  1.00  0.00    -0.037 C 
ATOM     50  H   UNL     1     -44.363  42.743  25.513  1.00  0.00     0.028 H 
ATOM     51  H   UNL     1     -45.987  42.041  25.552  1.00  0.00     0.028 H 
ATOM     52  H   UNL     1     -44.700  41.268  24.598  1.00  0.00     0.028 H 
ENDBRANCH  41  49
BRANCH  45  53
ATOM     53  N   UNL     1     -42.449  43.399  27.136  1.00  0.00    -0.383 N 
ATOM     54  H   UNL     1     -43.051  44.158  27.434  1.00  0.00     0.158 HD
ATOM     55  H   UNL     1     -41.483  43.637  26.960  1.00  0.00     0.158 HD
ENDBRANCH  45  53
ENDBRANCH  30  38
ENDBRANCH   1  26
TORSDOF 9
ENDMDL
MODEL 2
REMARK VINA RESULT:      -9.4      1.281      1.844
REMARK SMILES CNc1ccc2ccc(OC[C@H]3O[C@@H](n4cc(C)c5c(N)ncnc54)[C@@H](F)[C@@H]3O)cc2n1
REMARK SMILES IDX 11 1 10 4 9 5 3 6 4 7 32 8 5 9 31 11 6 12 30 14 7 15 8 17
REMARK SMILES IDX 2 20 1 22 12 26 13 27 28 28 14 30 26 31 27 34 29 36 15 38
REMARK SMILES IDX 16 39 25 40 17 41 19 43 24 44 20 45 23 46 22 47 18 49 21 53
REMARK H PARENT 11 2 11 3 4 10 5 13 30 16 7 18 8 19 2 21 1 23 1 24 1 25 12 29
REMARK H PARENT 28 32 14 33 26 35 29 37 16 42 23 48 18 50 18 51 18 52 21 54
REMARK H PARENT 21 55
REMARK Flexibility Score: inf
ROOT
ATOM      1  C   UNL     1     -46.451  35.941  27.189  1.00  0.00     0.117 C 
ATOM      2  H   UNL     1     -46.873  36.895  26.853  1.00  0.00     0.073 H 
ATOM      3  H   UNL     1     -45.698  35.635  26.454  1.00  0.00     0.073 H 
ENDROOT
BRANCH   1   4
ATOM      4  O   UNL     1     -47.562  35.028  27.250  1.00  0.00    -0.491 OA
BRANCH   4   5
ATOM      5  C   UNL     1     -47.496  34.020  26.327  1.00  0.00     0.121 A 
ATOM      6  C   UNL     1     -49.445  30.354  24.018  1.00  0.00     0.126 A 
ATOM      7  C   UNL     1     -48.276  30.129  23.300  1.00  0.00    -0.019 A 
ATOM      8  N   UNL     1     -49.537  31.345  24.927  1.00  0.00    -0.231 NA
ATOM      9  C   UNL     1     -47.165  30.936  23.531  1.00  0.00    -0.049 A 
ATOM     10  H   UNL     1     -48.230  29.342  22.555  1.00  0.00     0.066 H 
ATOM     11  C   UNL     1     -48.470  32.132  25.155  1.00  0.00     0.076 A 
ATOM     12  C   UNL     1     -47.248  31.963  24.473  1.00  0.00     0.001 A 
ATOM     13  H   UNL     1     -46.253  30.763  22.969  1.00  0.00     0.063 H 
ATOM     14  C   UNL     1     -48.566  33.156  26.086  1.00  0.00     0.007 A 
ATOM     15  C   UNL     1     -46.158  32.808  24.741  1.00  0.00    -0.049 A 
ATOM     16  H   UNL     1     -49.499  33.276  26.630  1.00  0.00     0.069 H 
ATOM     17  C   UNL     1     -46.283  33.833  25.676  1.00  0.00    -0.019 A 
ATOM     18  H   UNL     1     -45.212  32.679  24.222  1.00  0.00     0.063 H 
ATOM     19  H   UNL     1     -45.446  34.493  25.882  1.00  0.00     0.066 H 
BRANCH   6  20
ATOM     20  N   UNL     1     -50.557  29.542  23.730  1.00  0.00    -0.373 N 
ATOM     21  H   UNL     1     -50.623  28.816  24.437  1.00  0.00     0.161 HD
BRANCH  20  22
ATOM     22  C   UNL     1     -51.806  30.274  23.589  1.00  0.00     0.005 C 
ATOM     23  H   UNL     1     -51.867  30.781  22.620  1.00  0.00     0.045 H 
ATOM     24  H   UNL     1     -51.943  30.999  24.398  1.00  0.00     0.045 H 
ATOM     25  H   UNL     1     -52.639  29.564  23.637  1.00  0.00     0.045 H 
ENDBRANCH  20  22
ENDBRANCH   6  20
ENDBRANCH   4   5
ENDBRANCH   1   4
BRANCH   1  26
ATOM     26  C   UNL     1     -45.835  36.111  28.589  1.00  0.00     0.123 C 
ATOM     27  O   UNL     1     -44.703  37.012  28.497  1.00  0.00    -0.345 OA
ATOM     28  C   UNL     1     -46.814  36.740  29.586  1.00  0.00     0.119 C 
ATOM     29  H   UNL     1     -45.449  35.152  28.952  1.00  0.00     0.067 H 
ATOM     30  C   UNL     1     -45.071  38.258  29.136  1.00  0.00     0.169 C 
ATOM     31  C   UNL     1     -46.572  38.217  29.390  1.00  0.00     0.173 C 
ATOM     32  H   UNL     1     -47.848  36.439  29.396  1.00  0.00     0.066 H 
ATOM     33  H   UNL     1     -44.510  38.294  30.079  1.00  0.00     0.088 H 
ATOM     34  F   UNL     1     -47.279  38.611  28.294  1.00  0.00    -0.239 F 
ATOM     35  H   UNL     1     -46.875  38.839  30.237  1.00  0.00     0.074 H 
BRANCH  28  36
ATOM     36  O   UNL     1     -46.480  36.357  30.924  1.00  0.00    -0.387 OA
ATOM     37  H   UNL     1     -47.258  36.524  31.486  1.00  0.00     0.211 HD
ENDBRANCH  28  36
BRANCH  30  38
ATOM     38  N   UNL     1     -44.644  39.394  28.336  1.00  0.00    -0.303 N 
ATOM     39  C   UNL     1     -45.195  39.839  27.163  1.00  0.00     0.012 A 
ATOM     40  C   UNL     1     -43.594  40.207  28.684  1.00  0.00     0.147 A 
ATOM     41  C   UNL     1     -44.520  40.979  26.762  1.00  0.00    -0.020 A 
ATOM     42  H   UNL     1     -46.031  39.325  26.711  1.00  0.00     0.082 H 
ATOM     43  C   UNL     1     -43.484  41.207  27.725  1.00  0.00     0.064 A 
ATOM     44  N   UNL     1     -42.826  40.049  29.777  1.00  0.00    -0.218 NA
ATOM     45  C   UNL     1     -42.457  42.145  27.923  1.00  0.00     0.136 A 
ATOM     46  C   UNL     1     -41.883  41.005  29.853  1.00  0.00     0.120 A 
ATOM     47  N   UNL     1     -41.656  42.021  29.001  1.00  0.00    -0.219 NA
ATOM     48  H   UNL     1     -41.219  40.951  30.709  1.00  0.00     0.106 H 
BRANCH  41  49
ATOM     49  C   UNL     1     -44.835  41.795  25.560  1.00  0.00    -0.037 C 
ATOM     50  H   UNL     1     -44.409  42.800  25.641  1.00  0.00     0.028 H 
ATOM     51  H   UNL     1     -45.918  41.897  25.441  1.00  0.00     0.028 H 
ATOM     52  H   UNL     1     -44.424  41.329  24.659  1.00  0.00     0.028 H 
ENDBRANCH  41  49
BRANCH  45  53
ATOM     53  N   UNL     1     -42.186  43.199  27.062  1.00  0.00    -0.383 N 
ATOM     54  H   UNL     1     -42.110  42.863  26.109  1.00  0.00     0.158 HD
ATOM     55  H   UNL     1     -42.762  44.016  27.204  1.00  0.00     0.158 HD
ENDBRANCH  45  53
ENDBRANCH  30  38
ENDBRANCH   1  26
TORSDOF 9
ENDMDL
MODEL 3
REMARK VINA RESULT:      -9.1      2.308      9.734
REMARK SMILES CNc1ccc2ccc(OC[C@H]3O[C@@H](n4cc(C)c5c(N)ncnc54)[C@@H](F)[C@@H]3O)cc2n1
REMARK SMILES IDX 11 1 10 4 9 5 3 6 4 7 32 8 5 9 31 11 6 12 30 14 7 15 8 17
REMARK SMILES IDX 2 20 1 22 12 26 13 27 28 28 14 30 26 31 27 34 29 36 15 38
REMARK SMILES IDX 16 39 25 40 17 41 19 43 24 44 20 45 23 46 22 47 18 49 21 53
REMARK H PARENT 11 2 11 3 4 10 5 13 30 16 7 18 8 19 2 21 1 23 1 24 1 25 12 29
REMARK H PARENT 28 32 14 33 26 35 29 37 16 42 23 48 18 50 18 51 18 52 21 54
REMARK H PARENT 21 55
REMARK Flexibility Score: inf
ROOT
ATOM      1  C   UNL     1     -48.125  35.597  26.599  1.00  0.00     0.117 C 
ATOM      2  H   UNL     1     -47.367  35.995  25.915  1.00  0.00     0.073 H 
ATOM      3  H   UNL     1     -49.005  35.334  26.001  1.00  0.00     0.073 H 
ENDROOT
BRANCH   1   4
ATOM      4  O   UNL     1     -48.395  36.657  27.535  1.00  0.00    -0.491 OA
BRANCH   4   5
ATOM      5  C   UNL     1     -47.320  37.470  27.770  1.00  0.00     0.121 A 
ATOM      6  C   UNL     1     -44.368  40.956  26.467  1.00  0.00     0.126 A 
ATOM      7  C   UNL     1     -43.628  40.826  27.637  1.00  0.00    -0.019 A 
ATOM      8  N   UNL     1     -45.436  40.173  26.215  1.00  0.00    -0.231 NA
ATOM      9  C   UNL     1     -43.986  39.854  28.567  1.00  0.00    -0.049 A 
ATOM     10  H   UNL     1     -42.788  41.483  27.833  1.00  0.00     0.066 H 
ATOM     11  C   UNL     1     -45.791  39.234  27.110  1.00  0.00     0.076 A 
ATOM     12  C   UNL     1     -45.087  39.035  28.315  1.00  0.00     0.001 A 
ATOM     13  H   UNL     1     -43.410  39.753  29.482  1.00  0.00     0.063 H 
ATOM     14  C   UNL     1     -46.894  38.431  26.853  1.00  0.00     0.007 A 
ATOM     15  C   UNL     1     -45.493  38.043  29.223  1.00  0.00    -0.049 A 
ATOM     16  H   UNL     1     -47.425  38.566  25.915  1.00  0.00     0.069 H 
ATOM     17  C   UNL     1     -46.607  37.255  28.943  1.00  0.00    -0.019 A 
ATOM     18  H   UNL     1     -44.950  37.882  30.151  1.00  0.00     0.063 H 
ATOM     19  H   UNL     1     -46.929  36.491  29.645  1.00  0.00     0.066 H 
BRANCH   6  20
ATOM     20  N   UNL     1     -43.999  41.974  25.568  1.00  0.00    -0.373 N 
ATOM     21  H   UNL     1     -43.530  41.552  24.772  1.00  0.00     0.161 HD
BRANCH  20  22
ATOM     22  C   UNL     1     -45.100  42.830  25.155  1.00  0.00     0.005 C 
ATOM     23  H   UNL     1     -45.283  43.627  25.883  1.00  0.00     0.045 H 
ATOM     24  H   UNL     1     -46.018  42.256  24.992  1.00  0.00     0.045 H 
ATOM     25  H   UNL     1     -44.838  43.310  24.206  1.00  0.00     0.045 H 
ENDBRANCH  20  22
ENDBRANCH   6  20
ENDBRANCH   4   5
ENDBRANCH   1   4
BRANCH   1  26
ATOM     26  C   UNL     1     -47.562  34.373  27.343  1.00  0.00     0.123 C 
ATOM     27  O   UNL     1     -48.285  33.191  26.913  1.00  0.00    -0.345 OA
ATOM     28  C   UNL     1     -46.086  34.121  27.021  1.00  0.00     0.119 C 
ATOM     29  H   UNL     1     -47.730  34.475  28.420  1.00  0.00     0.067 H 
ATOM     30  C   UNL     1     -47.392  32.391  26.103  1.00  0.00     0.169 C 
ATOM     31  C   UNL     1     -46.165  33.240  25.798  1.00  0.00     0.173 C 
ATOM     32  H   UNL     1     -45.535  35.052  26.853  1.00  0.00     0.066 H 
ATOM     33  H   UNL     1     -47.128  31.517  26.712  1.00  0.00     0.088 H 
ATOM     34  F   UNL     1     -46.366  34.046  24.718  1.00  0.00    -0.239 F 
ATOM     35  H   UNL     1     -45.269  32.640  25.617  1.00  0.00     0.074 H 
BRANCH  28  36
ATOM     36  O   UNL     1     -45.453  33.421  28.096  1.00  0.00    -0.387 OA
ATOM     37  H   UNL     1     -44.606  33.866  28.286  1.00  0.00     0.211 HD
ENDBRANCH  28  36
BRANCH  30  38
ATOM     38  N   UNL     1     -48.073  31.900  24.916  1.00  0.00    -0.303 N 
ATOM     39  C   UNL     1     -49.410  31.987  24.629  1.00  0.00     0.012 A 
ATOM     40  C   UNL     1     -47.424  31.274  23.881  1.00  0.00     0.147 A 
ATOM     41  C   UNL     1     -49.630  31.444  23.375  1.00  0.00    -0.020 A 
ATOM     42  H   UNL     1     -50.101  32.439  25.327  1.00  0.00     0.082 H 
ATOM     43  C   UNL     1     -48.362  30.972  22.901  1.00  0.00     0.064 A 
ATOM     44  N   UNL     1     -46.104  31.018  23.841  1.00  0.00    -0.218 NA
ATOM     45  C   UNL     1     -47.872  30.328  21.752  1.00  0.00     0.136 A 
ATOM     46  C   UNL     1     -45.761  30.401  22.697  1.00  0.00     0.120 A 
ATOM     47  N   UNL     1     -46.556  30.043  21.672  1.00  0.00    -0.219 NA
ATOM     48  H   UNL     1     -44.710  30.159  22.583  1.00  0.00     0.106 H 
BRANCH  41  49
ATOM     49  C   UNL     1     -50.938  31.381  22.674  1.00  0.00    -0.037 C 
ATOM     50  H   UNL     1     -51.239  30.346  22.487  1.00  0.00     0.028 H 
ATOM     51  H   UNL     1     -50.880  31.894  21.709  1.00  0.00     0.028 H 
ATOM     52  H   UNL     1     -51.721  31.854  23.276  1.00  0.00     0.028 H 
ENDBRANCH  41  49
BRANCH  45  53
ATOM     53  N   UNL     1     -48.662  29.934  20.682  1.00  0.00    -0.383 N 
ATOM     54  H   UNL     1     -48.412  28.998  20.385  1.00  0.00     0.158 HD
ATOM     55  H   UNL     1     -49.649  30.117  20.799  1.00  0.00     0.158 HD
ENDBRANCH  45  53
ENDBRANCH  30  38
ENDBRANCH   1  26
TORSDOF 9
ENDMDL
MODEL 4
REMARK VINA RESULT:      -8.8      1.038      1.977
REMARK SMILES CNc1ccc2ccc(OC[C@H]3O[C@@H](n4cc(C)c5c(N)ncnc54)[C@@H](F)[C@@H]3O)cc2n1
REMARK SMILES IDX 11 1 10 4 9 5 3 6 4 7 32 8 5 9 31 11 6 12 30 14 7 15 8 17
REMARK SMILES IDX 2 20 1 22 12 26 13 27 28 28 14 30 26 31 27 34 29 36 15 38
REMARK SMILES IDX 16 39 25 40 17 41 19 43 24 44 20 45 23 46 22 47 18 49 21 53
REMARK H PARENT 11 2 11 3 4 10 5 13 30 16 7 18 8 19 2 21 1 23 1 24 1 25 12 29
REMARK H PARENT 28 32 14 33 26 35 29 37 16 42 23 48 18 50 18 51 18 52 21 54
REMARK H PARENT 21 55
REMARK Flexibility Score: inf
ROOT
ATOM      1  C   UNL     1     -47.173  36.884  27.639  1.00  0.00     0.117 C 
ATOM      2  H   UNL     1     -48.201  36.574  27.854  1.00  0.00     0.073 H 
ATOM      3  H   UNL     1     -47.140  37.978  27.686  1.00  0.00     0.073 H 
ENDROOT
BRANCH   1   4
ATOM      4  O   UNL     1     -46.888  36.383  26.319  1.00  0.00    -0.491 OA
BRANCH   4   5
ATOM      5  C   UNL     1     -47.359  35.119  26.097  1.00  0.00     0.121 A 
ATOM      6  C   UNL     1     -46.937  30.792  24.181  1.00  0.00     0.126 A 
ATOM      7  C   UNL     1     -48.167  30.398  24.693  1.00  0.00    -0.019 A 
ATOM      8  N   UNL     1     -46.447  32.030  24.392  1.00  0.00    -0.231 NA
ATOM      9  C   UNL     1     -48.923  31.304  25.432  1.00  0.00    -0.049 A 
ATOM     10  H   UNL     1     -48.533  29.389  24.534  1.00  0.00     0.066 H 
ATOM     11  C   UNL     1     -47.168  32.912  25.107  1.00  0.00     0.076 A 
ATOM     12  C   UNL     1     -48.428  32.590  25.654  1.00  0.00     0.001 A 
ATOM     13  H   UNL     1     -49.883  30.996  25.835  1.00  0.00     0.063 H 
ATOM     14  C   UNL     1     -46.662  34.184  25.329  1.00  0.00     0.007 A 
ATOM     15  C   UNL     1     -49.148  33.541  26.396  1.00  0.00    -0.049 A 
ATOM     16  H   UNL     1     -45.702  34.444  24.891  1.00  0.00     0.069 H 
ATOM     17  C   UNL     1     -48.613  34.810  26.610  1.00  0.00    -0.019 A 
ATOM     18  H   UNL     1     -50.121  33.300  26.815  1.00  0.00     0.063 H 
ATOM     19  H   UNL     1     -49.163  35.546  27.188  1.00  0.00     0.066 H 
BRANCH   6  20
ATOM     20  N   UNL     1     -46.186  29.837  23.471  1.00  0.00    -0.373 N 
ATOM     21  H   UNL     1     -45.475  29.457  24.088  1.00  0.00     0.161 HD
BRANCH  20  22
ATOM     22  C   UNL     1     -46.986  28.788  22.858  1.00  0.00     0.005 C 
ATOM     23  H   UNL     1     -46.618  28.535  21.858  1.00  0.00     0.045 H 
ATOM     24  H   UNL     1     -48.044  29.067  22.805  1.00  0.00     0.045 H 
ATOM     25  H   UNL     1     -46.913  27.884  23.470  1.00  0.00     0.045 H 
ENDBRANCH  20  22
ENDBRANCH   6  20
ENDBRANCH   4   5
ENDBRANCH   1   4
BRANCH   1  26
ATOM     26  C   UNL     1     -46.214  36.247  28.660  1.00  0.00     0.123 C 
ATOM     27  O   UNL     1     -44.900  36.840  28.502  1.00  0.00    -0.345 OA
ATOM     28  C   UNL     1     -46.641  36.513  30.107  1.00  0.00     0.119 C 
ATOM     29  H   UNL     1     -46.106  35.175  28.460  1.00  0.00     0.067 H 
ATOM     30  C   UNL     1     -44.648  37.682  29.652  1.00  0.00     0.169 C 
ATOM     31  C   UNL     1     -45.961  37.825  30.411  1.00  0.00     0.173 C 
ATOM     32  H   UNL     1     -47.728  36.549  30.217  1.00  0.00     0.066 H 
ATOM     33  H   UNL     1     -43.897  37.156  30.256  1.00  0.00     0.088 H 
ATOM     34  F   UNL     1     -46.734  38.822  29.895  1.00  0.00    -0.239 F 
ATOM     35  H   UNL     1     -45.815  38.020  31.476  1.00  0.00     0.074 H 
BRANCH  28  36
ATOM     36  O   UNL     1     -46.143  35.486  30.971  1.00  0.00    -0.387 OA
ATOM     37  H   UNL     1     -46.565  34.646  30.711  1.00  0.00     0.211 HD
ENDBRANCH  28  36
BRANCH  30  38
ATOM     38  N   UNL     1     -44.066  38.950  29.246  1.00  0.00    -0.303 N 
ATOM     39  C   UNL     1     -43.058  39.640  29.867  1.00  0.00     0.012 A 
ATOM     40  C   UNL     1     -44.465  39.635  28.125  1.00  0.00     0.147 A 
ATOM     41  C   UNL     1     -42.770  40.770  29.122  1.00  0.00    -0.020 A 
ATOM     42  H   UNL     1     -42.611  39.270  30.780  1.00  0.00     0.082 H 
ATOM     43  C   UNL     1     -43.681  40.778  28.015  1.00  0.00     0.064 A 
ATOM     44  N   UNL     1     -45.441  39.243  27.288  1.00  0.00    -0.218 NA
ATOM     45  C   UNL     1     -43.946  41.607  26.912  1.00  0.00     0.136 A 
ATOM     46  C   UNL     1     -45.598  40.116  26.278  1.00  0.00     0.120 A 
ATOM     47  N   UNL     1     -44.922  41.257  26.050  1.00  0.00    -0.219 NA
ATOM     48  H   UNL     1     -46.368  39.873  25.553  1.00  0.00     0.106 H 
BRANCH  41  49
ATOM     49  C   UNL     1     -41.710  41.765  29.429  1.00  0.00    -0.037 C 
ATOM     50  H   UNL     1     -40.912  41.321  30.033  1.00  0.00     0.028 H 
ATOM     51  H   UNL     1     -42.127  42.607  29.990  1.00  0.00     0.028 H 
ATOM     52  H   UNL     1     -41.259  42.145  28.507  1.00  0.00     0.028 H 
ENDBRANCH  41  49
BRANCH  45  53
ATOM     53  N   UNL     1     -43.278  42.795  26.650  1.00  0.00    -0.383 N 
ATOM     54  H   UNL     1     -42.361  42.606  26.264  1.00  0.00     0.158 HD
ATOM     55  H   UNL     1     -43.832  43.490  26.169  1.00  0.00     0.158 HD
ENDBRANCH  45  53
ENDBRANCH  30  38
ENDBRANCH   1  26
TORSDOF 9
ENDMDL
MODEL 5
REMARK VINA RESULT:      -8.8      3.778     11.363
REMARK SMILES CNc1ccc2ccc(OC[C@H]3O[C@@H](n4cc(C)c5c(N)ncnc54)[C@@H](F)[C@@H]3O)cc2n1
REMARK SMILES IDX 11 1 10 4 9 5 3 6 4 7 32 8 5 9 31 11 6 12 30 14 7 15 8 17
REMARK SMILES IDX 2 20 1 22 12 26 13 27 28 28 14 30 26 31 27 34 29 36 15 38
REMARK SMILES IDX 16 39 25 40 17 41 19 43 24 44 20 45 23 46 22 47 18 49 21 53
REMARK H PARENT 11 2 11 3 4 10 5 13 30 16 7 18 8 19 2 21 1 23 1 24 1 25 12 29
REMARK H PARENT 28 32 14 33 26 35 29 37 16 42 23 48 18 50 18 51 18 52 21 54
REMARK H PARENT 21 55
REMARK Flexibility Score: inf
ROOT
ATOM      1  C   UNL     1     -47.095  31.938  24.207  1.00  0.00     0.117 C 
ATOM      2  H   UNL     1     -47.290  32.798  23.555  1.00  0.00     0.073 H 
ATOM      3  H   UNL     1     -48.057  31.606  24.613  1.00  0.00     0.073 H 
ENDROOT
BRANCH   1   4
ATOM      4  O   UNL     1     -46.206  32.424  25.230  1.00  0.00    -0.491 OA
BRANCH   4   5
ATOM      5  C   UNL     1     -46.675  33.527  25.888  1.00  0.00     0.121 A 
ATOM      6  C   UNL     1     -45.959  37.542  28.325  1.00  0.00     0.126 A 
ATOM      7  C   UNL     1     -47.326  37.754  28.461  1.00  0.00    -0.019 A 
ATOM      8  N   UNL     1     -45.472  36.467  27.674  1.00  0.00    -0.231 NA
ATOM      9  C   UNL     1     -48.218  36.829  27.928  1.00  0.00    -0.049 A 
ATOM     10  H   UNL     1     -47.699  38.639  28.966  1.00  0.00     0.066 H 
ATOM     11  C   UNL     1     -46.326  35.569  27.152  1.00  0.00     0.076 A 
ATOM     12  C   UNL     1     -47.726  35.710  27.256  1.00  0.00     0.001 A 
ATOM     13  H   UNL     1     -49.286  36.994  28.032  1.00  0.00     0.063 H 
ATOM     14  C   UNL     1     -45.825  34.465  26.477  1.00  0.00     0.007 A 
ATOM     15  C   UNL     1     -48.582  34.748  26.694  1.00  0.00    -0.049 A 
ATOM     16  H   UNL     1     -44.748  34.341  26.415  1.00  0.00     0.069 H 
ATOM     17  C   UNL     1     -48.053  33.652  26.017  1.00  0.00    -0.019 A 
ATOM     18  H   UNL     1     -49.662  34.849  26.776  1.00  0.00     0.063 H 
ATOM     19  H   UNL     1     -48.712  32.910  25.575  1.00  0.00     0.066 H 
BRANCH   6  20
ATOM     20  N   UNL     1     -45.089  38.519  28.845  1.00  0.00    -0.373 N 
ATOM     21  H   UNL     1     -44.264  38.056  29.215  1.00  0.00     0.161 HD
BRANCH  20  22
ATOM     22  C   UNL     1     -44.743  39.570  27.901  1.00  0.00     0.005 C 
ATOM     23  H   UNL     1     -45.013  40.559  28.286  1.00  0.00     0.045 H 
ATOM     24  H   UNL     1     -45.215  39.408  26.926  1.00  0.00     0.045 H 
ATOM     25  H   UNL     1     -43.659  39.565  27.748  1.00  0.00     0.045 H 
ENDBRANCH  20  22
ENDBRANCH   6  20
ENDBRANCH   4   5
ENDBRANCH   1   4
BRANCH   1  26
ATOM     26  C   UNL     1     -46.407  30.822  23.402  1.00  0.00     0.123 C 
ATOM     27  O   UNL     1     -46.819  29.538  23.936  1.00  0.00    -0.345 OA
ATOM     28  C   UNL     1     -46.815  30.830  21.925  1.00  0.00     0.119 C 
ATOM     29  H   UNL     1     -45.320  30.883  23.522  1.00  0.00     0.067 H 
ATOM     30  C   UNL     1     -47.692  28.910  22.968  1.00  0.00     0.169 C 
ATOM     31  C   UNL     1     -48.048  29.960  21.923  1.00  0.00     0.173 C 
ATOM     32  H   UNL     1     -46.995  31.842  21.551  1.00  0.00     0.066 H 
ATOM     33  H   UNL     1     -47.115  28.089  22.524  1.00  0.00     0.088 H 
ATOM     34  F   UNL     1     -49.099  30.730  22.320  1.00  0.00    -0.239 F 
ATOM     35  H   UNL     1     -48.289  29.524  20.950  1.00  0.00     0.074 H 
BRANCH  28  36
ATOM     36  O   UNL     1     -45.789  30.238  21.121  1.00  0.00    -0.387 OA
ATOM     37  H   UNL     1     -45.918  29.272  21.134  1.00  0.00     0.211 HD
ENDBRANCH  28  36
BRANCH  30  38
ATOM     38  N   UNL     1     -48.849  28.321  23.623  1.00  0.00    -0.303 N 
ATOM     39  C   UNL     1     -50.170  28.525  23.320  1.00  0.00     0.012 A 
ATOM     40  C   UNL     1     -48.751  27.434  24.665  1.00  0.00     0.147 A 
ATOM     41  C   UNL     1     -50.942  27.732  24.150  1.00  0.00    -0.020 A 
ATOM     42  H   UNL     1     -50.461  29.204  22.530  1.00  0.00     0.082 H 
ATOM     43  C   UNL     1     -50.037  27.044  25.023  1.00  0.00     0.064 A 
ATOM     44  N   UNL     1     -47.599  27.019  25.220  1.00  0.00    -0.218 NA
ATOM     45  C   UNL     1     -50.133  26.123  26.081  1.00  0.00     0.136 A 
ATOM     46  C   UNL     1     -47.823  26.144  26.216  1.00  0.00     0.120 A 
ATOM     47  N   UNL     1     -49.003  25.686  26.672  1.00  0.00    -0.219 NA
ATOM     48  H   UNL     1     -46.943  25.758  26.718  1.00  0.00     0.106 H 
BRANCH  41  49
ATOM     49  C   UNL     1     -52.424  27.626  24.117  1.00  0.00    -0.037 C 
ATOM     50  H   UNL     1     -52.880  28.562  23.780  1.00  0.00     0.028 H 
ATOM     51  H   UNL     1     -52.813  27.401  25.115  1.00  0.00     0.028 H 
ATOM     52  H   UNL     1     -52.738  26.834  23.430  1.00  0.00     0.028 H 
ENDBRANCH  41  49
BRANCH  45  53
ATOM     53  N   UNL     1     -51.331  25.637  26.585  1.00  0.00    -0.383 N 
ATOM     54  H   UNL     1     -52.001  26.390  26.687  1.00  0.00     0.158 HD
ATOM     55  H   UNL     1     -51.666  24.798  26.135  1.00  0.00     0.158 HD
ENDBRANCH  45  53
ENDBRANCH  30  38
ENDBRANCH   1  26
TORSDOF 9
ENDMDL
MODEL 6
REMARK VINA RESULT:      -8.6      3.913     11.511
REMARK SMILES CNc1ccc2ccc(OC[C@H]3O[C@@H](n4cc(C)c5c(N)ncnc54)[C@@H](F)[C@@H]3O)cc2n1
REMARK SMILES IDX 11 1 10 4 9 5 3 6 4 7 32 8 5 9 31 11 6 12 30 14 7 15 8 17
REMARK SMILES IDX 2 20 1 22 12 26 13 27 28 28 14 30 26 31 27 34 29 36 15 38
REMARK SMILES IDX 16 39 25 40 17 41 19 43 24 44 20 45 23 46 22 47 18 49 21 53
REMARK H PARENT 11 2 11 3 4 10 5 13 30 16 7 18 8 19 2 21 1 23 1 24 1 25 12 29
REMARK H PARENT 28 32 14 33 26 35 29 37 16 42 23 48 18 50 18 51 18 52 21 54
REMARK H PARENT 21 55
REMARK Flexibility Score: inf
ROOT
ATOM      1  C   UNL     1     -46.653  31.435  24.750  1.00  0.00     0.117 C 
ATOM      2  H   UNL     1     -47.615  31.497  25.271  1.00  0.00     0.073 H 
ATOM      3  H   UNL     1     -45.977  30.838  25.372  1.00  0.00     0.073 H 
ENDROOT
BRANCH   1   4
ATOM      4  O   UNL     1     -46.206  32.796  24.604  1.00  0.00    -0.491 OA
BRANCH   4   5
ATOM      5  C   UNL     1     -46.911  33.690  25.362  1.00  0.00     0.121 A 
ATOM      6  C   UNL     1     -47.313  37.886  27.554  1.00  0.00     0.126 A 
ATOM      7  C   UNL     1     -48.579  37.565  28.029  1.00  0.00    -0.019 A 
ATOM      8  N   UNL     1     -46.602  37.025  26.799  1.00  0.00    -0.231 NA
ATOM      9  C   UNL     1     -49.125  36.320  27.733  1.00  0.00    -0.049 A 
ATOM     10  H   UNL     1     -49.146  38.282  28.614  1.00  0.00     0.066 H 
ATOM     11  C   UNL     1     -47.123  35.820  26.504  1.00  0.00     0.076 A 
ATOM     12  C   UNL     1     -48.397  35.418  26.956  1.00  0.00     0.001 A 
ATOM     13  H   UNL     1     -50.115  36.069  28.102  1.00  0.00     0.063 H 
ATOM     14  C   UNL     1     -46.393  34.936  25.723  1.00  0.00     0.007 A 
ATOM     15  C   UNL     1     -48.904  34.151  26.624  1.00  0.00    -0.049 A 
ATOM     16  H   UNL     1     -45.402  35.233  25.392  1.00  0.00     0.069 H 
ATOM     17  C   UNL     1     -48.153  33.284  25.832  1.00  0.00    -0.019 A 
ATOM     18  H   UNL     1     -49.883  33.834  26.973  1.00  0.00     0.063 H 
ATOM     19  H   UNL     1     -48.544  32.306  25.568  1.00  0.00     0.066 H 
BRANCH   6  20
ATOM     20  N   UNL     1     -46.810  39.168  27.843  1.00  0.00    -0.373 N 
ATOM     21  H   UNL     1     -46.051  39.078  28.512  1.00  0.00     0.161 HD
BRANCH  20  22
ATOM     22  C   UNL     1     -46.407  39.926  26.669  1.00  0.00     0.005 C 
ATOM     23  H   UNL     1     -46.872  40.917  26.652  1.00  0.00     0.045 H 
ATOM     24  H   UNL     1     -46.639  39.390  25.743  1.00  0.00     0.045 H 
ATOM     25  H   UNL     1     -45.322  40.077  26.700  1.00  0.00     0.045 H 
ENDBRANCH  20  22
ENDBRANCH   6  20
ENDBRANCH   4   5
ENDBRANCH   1   4
BRANCH   1  26
ATOM     26  C   UNL     1     -46.853  30.798  23.363  1.00  0.00     0.123 C 
ATOM     27  O   UNL     1     -46.912  29.357  23.514  1.00  0.00    -0.345 OA
ATOM     28  C   UNL     1     -48.173  31.222  22.710  1.00  0.00     0.119 C 
ATOM     29  H   UNL     1     -45.994  31.016  22.720  1.00  0.00     0.067 H 
ATOM     30  C   UNL     1     -48.275  28.937  23.270  1.00  0.00     0.169 C 
ATOM     31  C   UNL     1     -49.141  30.190  23.234  1.00  0.00     0.173 C 
ATOM     32  H   UNL     1     -48.449  32.249  22.966  1.00  0.00     0.066 H 
ATOM     33  H   UNL     1     -48.268  28.432  22.295  1.00  0.00     0.088 H 
ATOM     34  F   UNL     1     -49.521  30.574  24.485  1.00  0.00    -0.239 F 
ATOM     35  H   UNL     1     -50.040  30.066  22.624  1.00  0.00     0.074 H 
BRANCH  28  36
ATOM     36  O   UNL     1     -48.075  31.132  21.285  1.00  0.00    -0.387 OA
ATOM     37  H   UNL     1     -47.177  30.825  21.065  1.00  0.00     0.211 HD
ENDBRANCH  28  36
BRANCH  30  38
ATOM     38  N   UNL     1     -48.700  27.960  24.259  1.00  0.00    -0.303 N 
ATOM     39  C   UNL     1     -47.903  27.226  25.098  1.00  0.00     0.012 A 
ATOM     40  C   UNL     1     -50.016  27.652  24.495  1.00  0.00     0.147 A 
ATOM     41  C   UNL     1     -48.711  26.458  25.917  1.00  0.00    -0.020 A 
ATOM     42  H   UNL     1     -46.826  27.315  25.061  1.00  0.00     0.082 H 
ATOM     43  C   UNL     1     -50.065  26.717  25.522  1.00  0.00     0.064 A 
ATOM     44  N   UNL     1     -51.062  28.186  23.840  1.00  0.00    -0.218 NA
ATOM     45  C   UNL     1     -51.345  26.285  25.907  1.00  0.00     0.136 A 
ATOM     46  C   UNL     1     -52.227  27.694  24.297  1.00  0.00     0.120 A 
ATOM     47  N   UNL     1     -52.424  26.787  25.271  1.00  0.00    -0.219 NA
ATOM     48  H   UNL     1     -53.125  28.075  23.821  1.00  0.00     0.106 H 
BRANCH  41  49
ATOM     49  C   UNL     1     -48.241  25.551  26.997  1.00  0.00    -0.037 C 
ATOM     50  H   UNL     1     -47.158  25.405  26.947  1.00  0.00     0.028 H 
ATOM     51  H   UNL     1     -48.718  24.571  26.907  1.00  0.00     0.028 H 
ATOM     52  H   UNL     1     -48.478  25.969  27.980  1.00  0.00     0.028 H 
ENDBRANCH  41  49
BRANCH  45  53
ATOM     53  N   UNL     1     -51.587  25.344  26.897  1.00  0.00    -0.383 N 
ATOM     54  H   UNL     1     -52.567  25.087  26.908  1.00  0.00     0.158 HD
ATOM     55  H   UNL     1     -50.924  24.582  26.922  1.00  0.00     0.158 HD
ENDBRANCH  45  53
ENDBRANCH  30  38
ENDBRANCH   1  26
TORSDOF 9
ENDMDL
MODEL 7
REMARK VINA RESULT:      -8.5      1.759      2.062
REMARK SMILES CNc1ccc2ccc(OC[C@H]3O[C@@H](n4cc(C)c5c(N)ncnc54)[C@@H](F)[C@@H]3O)cc2n1
REMARK SMILES IDX 11 1 10 4 9 5 3 6 4 7 32 8 5 9 31 11 6 12 30 14 7 15 8 17
REMARK SMILES IDX 2 20 1 22 12 26 13 27 28 28 14 30 26 31 27 34 29 36 15 38
REMARK SMILES IDX 16 39 25 40 17 41 19 43 24 44 20 45 23 46 22 47 18 49 21 53
REMARK H PARENT 11 2 11 3 4 10 5 13 30 16 7 18 8 19 2 21 1 23 1 24 1 25 12 29
REMARK H PARENT 28 32 14 33 26 35 29 37 16 42 23 48 18 50 18 51 18 52 21 54
REMARK H PARENT 21 55
REMARK Flexibility Score: inf
ROOT
ATOM      1  C   UNL     1     -46.178  37.094  27.141  1.00  0.00     0.117 C 
ATOM      2  H   UNL     1     -46.890  37.001  26.313  1.00  0.00     0.073 H 
ATOM      3  H   UNL     1     -45.220  37.417  26.719  1.00  0.00     0.073 H 
ENDROOT
BRANCH   1   4
ATOM      4  O   UNL     1     -46.103  35.784  27.734  1.00  0.00    -0.491 OA
BRANCH   4   5
ATOM      5  C   UNL     1     -46.745  34.816  27.013  1.00  0.00     0.121 A 
ATOM      6  C   UNL     1     -46.700  31.176  23.960  1.00  0.00     0.126 A 
ATOM      7  C   UNL     1     -48.083  31.057  24.015  1.00  0.00    -0.019 A 
ATOM      8  N   UNL     1     -46.043  32.117  24.667  1.00  0.00    -0.231 NA
ATOM      9  C   UNL     1     -48.815  31.937  24.807  1.00  0.00    -0.049 A 
ATOM     10  H   UNL     1     -48.591  30.277  23.458  1.00  0.00     0.066 H 
ATOM     11  C   UNL     1     -46.741  32.970  25.438  1.00  0.00     0.076 A 
ATOM     12  C   UNL     1     -48.146  32.918  25.540  1.00  0.00     0.001 A 
ATOM     13  H   UNL     1     -49.895  31.843  24.852  1.00  0.00     0.063 H 
ATOM     14  C   UNL     1     -46.064  33.935  26.171  1.00  0.00     0.007 A 
ATOM     15  C   UNL     1     -48.836  33.827  26.359  1.00  0.00    -0.049 A 
ATOM     16  H   UNL     1     -44.984  33.993  26.077  1.00  0.00     0.069 H 
ATOM     17  C   UNL     1     -48.132  34.783  27.089  1.00  0.00    -0.019 A 
ATOM     18  H   UNL     1     -49.920  33.795  26.437  1.00  0.00     0.063 H 
ATOM     19  H   UNL     1     -48.661  35.484  27.728  1.00  0.00     0.066 H 
BRANCH   6  20
ATOM     20  N   UNL     1     -45.991  30.245  23.177  1.00  0.00    -0.373 N 
ATOM     21  H   UNL     1     -46.379  29.321  23.339  1.00  0.00     0.161 HD
BRANCH  20  22
ATOM     22  C   UNL     1     -45.947  30.573  21.760  1.00  0.00     0.005 C 
ATOM     23  H   UNL     1     -45.034  30.193  21.290  1.00  0.00     0.045 H 
ATOM     24  H   UNL     1     -46.031  31.652  21.593  1.00  0.00     0.045 H 
ATOM     25  H   UNL     1     -46.794  30.093  21.260  1.00  0.00     0.045 H 
ENDBRANCH  20  22
ENDBRANCH   6  20
ENDBRANCH   4   5
ENDBRANCH   1   4
BRANCH   1  26
ATOM     26  C   UNL     1     -46.710  38.106  28.171  1.00  0.00     0.123 C 
ATOM     27  O   UNL     1     -45.728  39.158  28.345  1.00  0.00    -0.345 OA
ATOM     28  C   UNL     1     -48.001  38.789  27.707  1.00  0.00     0.119 C 
ATOM     29  H   UNL     1     -46.836  37.623  29.146  1.00  0.00     0.067 H 
ATOM     30  C   UNL     1     -46.252  40.365  27.742  1.00  0.00     0.169 C 
ATOM     31  C   UNL     1     -47.481  39.974  26.932  1.00  0.00     0.173 C 
ATOM     32  H   UNL     1     -48.631  38.121  27.112  1.00  0.00     0.066 H 
ATOM     33  H   UNL     1     -46.521  41.029  28.574  1.00  0.00     0.088 H 
ATOM     34  F   UNL     1     -47.145  39.540  25.685  1.00  0.00    -0.239 F 
ATOM     35  H   UNL     1     -48.198  40.793  26.829  1.00  0.00     0.074 H 
BRANCH  28  36
ATOM     36  O   UNL     1     -48.766  39.229  28.833  1.00  0.00    -0.387 OA
ATOM     37  H   UNL     1     -48.619  40.187  28.939  1.00  0.00     0.211 HD
ENDBRANCH  28  36
BRANCH  30  38
ATOM     38  N   UNL     1     -45.228  41.040  26.963  1.00  0.00    -0.303 N 
ATOM     39  C   UNL     1     -45.356  41.579  25.710  1.00  0.00     0.012 A 
ATOM     40  C   UNL     1     -43.949  41.242  27.418  1.00  0.00     0.147 A 
ATOM     41  C   UNL     1     -44.156  42.173  25.359  1.00  0.00    -0.020 A 
ATOM     42  H   UNL     1     -46.290  41.514  25.169  1.00  0.00     0.082 H 
ATOM     43  C   UNL     1     -43.249  41.944  26.445  1.00  0.00     0.064 A 
ATOM     44  N   UNL     1     -43.480  40.831  28.610  1.00  0.00    -0.218 NA
ATOM     45  C   UNL     1     -41.910  42.250  26.743  1.00  0.00     0.136 A 
ATOM     46  C   UNL     1     -42.193  41.181  28.776  1.00  0.00     0.120 A 
ATOM     47  N   UNL     1     -41.395  41.850  27.923  1.00  0.00    -0.219 NA
ATOM     48  H   UNL     1     -41.736  40.888  29.715  1.00  0.00     0.106 H 
BRANCH  41  49
ATOM     49  C   UNL     1     -43.889  42.908  24.095  1.00  0.00    -0.037 C 
ATOM     50  H   UNL     1     -42.825  42.889  23.843  1.00  0.00     0.028 H 
ATOM     51  H   UNL     1     -44.194  43.955  24.190  1.00  0.00     0.028 H 
ATOM     52  H   UNL     1     -44.438  42.456  23.264  1.00  0.00     0.028 H 
ENDBRANCH  41  49
BRANCH  45  53
ATOM     53  N   UNL     1     -41.054  42.927  25.886  1.00  0.00    -0.383 N 
ATOM     54  H   UNL     1     -41.083  42.514  24.961  1.00  0.00     0.158 HD
ATOM     55  H   UNL     1     -41.128  43.933  25.928  1.00  0.00     0.158 HD
ENDBRANCH  45  53
ENDBRANCH  30  38
ENDBRANCH   1  26
TORSDOF 9
ENDMDL
