MODEL 1
REMARK VINA RESULT:     -11.1      0.000      0.000
REMARK SMILES CNc1ccc2cc(CC[C@H]3C[C@@H](n4cc(C)c5c(N)ncnc54)[C@H](O)[C@@H]3O)ccc2n1
REMARK SMILES IDX 9 1 8 4 3 5 4 6 32 7 5 8 31 10 6 11 30 13 7 14 29 15 2 19
REMARK SMILES IDX 1 21 10 25 11 28 12 29 27 30 13 32 25 35 28 39 14 41 15 42
REMARK SMILES IDX 24 43 16 44 18 46 23 47 19 48 22 49 21 50 17 52 20 56 26 59
REMARK H PARENT 9 2 9 3 4 9 5 12 30 16 7 17 29 18 2 20 1 22 1 23 1 24 10 26
REMARK H PARENT 10 27 11 31 12 33 12 34 27 36 13 37 25 38 28 40 15 45 22 51
REMARK H PARENT 17 53 17 54 17 55 20 57 20 58 26 60
REMARK Flexibility Score: inf
ROOT
ATOM      1  C   UNL     1     -48.715  35.338  27.141  1.00  0.00    -0.028 C 
ATOM      2  H   UNL     1     -49.629  35.713  26.665  1.00  0.00     0.032 H 
ATOM      3  H   UNL     1     -49.026  34.933  28.111  1.00  0.00     0.032 H 
ENDROOT
BRANCH   1   4
ATOM      4  C   UNL     1     -48.140  34.230  26.294  1.00  0.00    -0.047 A 
ATOM      5  C   UNL     1     -47.128  30.004  23.835  1.00  0.00     0.126 A 
ATOM      6  C   UNL     1     -48.376  29.777  24.394  1.00  0.00    -0.019 A 
ATOM      7  N   UNL     1     -46.465  31.165  23.997  1.00  0.00    -0.231 NA
ATOM      8  C   UNL     1     -48.962  30.775  25.164  1.00  0.00    -0.049 A 
ATOM      9  H   UNL     1     -48.902  28.844  24.219  1.00  0.00     0.066 H 
ATOM     10  C   UNL     1     -47.028  32.134  24.741  1.00  0.00     0.073 A 
ATOM     11  C   UNL     1     -48.288  31.985  25.354  1.00  0.00     0.001 A 
ATOM     12  H   UNL     1     -49.941  30.606  25.604  1.00  0.00     0.063 H 
ATOM     13  C   UNL     1     -46.353  33.333  24.924  1.00  0.00    -0.035 A 
ATOM     14  C   UNL     1     -48.835  33.027  26.125  1.00  0.00    -0.050 A 
ATOM     15  C   UNL     1     -46.889  34.373  25.691  1.00  0.00    -0.057 A 
ATOM     16  H   UNL     1     -45.379  33.460  24.458  1.00  0.00     0.065 H 
ATOM     17  H   UNL     1     -49.806  32.897  26.597  1.00  0.00     0.063 H 
ATOM     18  H   UNL     1     -46.317  35.291  25.810  1.00  0.00     0.063 H 
BRANCH   5  19
ATOM     19  N   UNL     1     -46.485  29.052  23.039  1.00  0.00    -0.373 N 
ATOM     20  H   UNL     1     -47.239  28.680  22.460  1.00  0.00     0.161 HD
BRANCH  19  21
ATOM     21  C   UNL     1     -45.414  29.595  22.222  1.00  0.00     0.005 C 
ATOM     22  H   UNL     1     -45.678  29.477  21.165  1.00  0.00     0.045 H 
ATOM     23  H   UNL     1     -44.472  29.060  22.382  1.00  0.00     0.045 H 
ATOM     24  H   UNL     1     -45.262  30.662  22.411  1.00  0.00     0.045 H 
ENDBRANCH  19  21
ENDBRANCH   5  19
ENDBRANCH   1   4
BRANCH   1  25
ATOM     25  C   UNL     1     -47.699  36.469  27.344  1.00  0.00    -0.044 C 
ATOM     26  H   UNL     1     -47.257  36.722  26.372  1.00  0.00     0.027 H 
ATOM     27  H   UNL     1     -48.223  37.366  27.692  1.00  0.00     0.027 H 
BRANCH  25  28
ATOM     28  C   UNL     1     -46.579  36.087  28.325  1.00  0.00    -0.010 C 
ATOM     29  C   UNL     1     -45.239  36.758  27.946  1.00  0.00    -0.024 C 
ATOM     30  C   UNL     1     -46.840  36.570  29.754  1.00  0.00     0.085 C 
ATOM     31  H   UNL     1     -46.442  34.998  28.296  1.00  0.00     0.033 H 
ATOM     32  C   UNL     1     -44.994  37.889  28.968  1.00  0.00     0.064 C 
ATOM     33  H   UNL     1     -45.221  37.093  26.904  1.00  0.00     0.029 H 
ATOM     34  H   UNL     1     -44.429  36.024  28.042  1.00  0.00     0.029 H 
ATOM     35  C   UNL     1     -46.290  38.001  29.784  1.00  0.00     0.101 C 
ATOM     36  H   UNL     1     -47.884  36.530  30.075  1.00  0.00     0.063 H 
ATOM     37  H   UNL     1     -44.182  37.573  29.637  1.00  0.00     0.056 H 
ATOM     38  H   UNL     1     -47.005  38.704  29.348  1.00  0.00     0.065 H 
BRANCH  30  39
ATOM     39  O   UNL     1     -46.075  35.777  30.676  1.00  0.00    -0.390 OA
ATOM     40  H   UNL     1     -45.159  35.757  30.343  1.00  0.00     0.211 HD
ENDBRANCH  30  39
BRANCH  32  41
ATOM     41  N   UNL     1     -44.554  39.143  28.378  1.00  0.00    -0.326 N 
ATOM     42  C   UNL     1     -45.105  39.703  27.249  1.00  0.00     0.010 A 
ATOM     43  C   UNL     1     -43.555  39.961  28.847  1.00  0.00     0.146 A 
ATOM     44  C   UNL     1     -44.457  40.895  26.983  1.00  0.00    -0.020 A 
ATOM     45  H   UNL     1     -45.913  39.210  26.722  1.00  0.00     0.082 H 
ATOM     46  C   UNL     1     -43.459  41.059  28.000  1.00  0.00     0.064 A 
ATOM     47  N   UNL     1     -42.809  39.731  29.941  1.00  0.00    -0.218 NA
ATOM     48  C   UNL     1     -42.477  42.011  28.323  1.00  0.00     0.136 A 
ATOM     49  C   UNL     1     -41.916  40.711  30.149  1.00  0.00     0.120 A 
ATOM     50  N   UNL     1     -41.708  41.817  29.413  1.00  0.00    -0.219 NA
ATOM     51  H   UNL     1     -41.278  40.597  31.021  1.00  0.00     0.106 H 
BRANCH  44  52
ATOM     52  C   UNL     1     -44.754  41.821  25.860  1.00  0.00    -0.037 C 
ATOM     53  H   UNL     1     -44.188  41.550  24.964  1.00  0.00     0.028 H 
ATOM     54  H   UNL     1     -45.818  41.790  25.606  1.00  0.00     0.028 H 
ATOM     55  H   UNL     1     -44.487  42.847  26.131  1.00  0.00     0.028 H 
ENDBRANCH  44  52
BRANCH  48  56
ATOM     56  N   UNL     1     -42.220  43.153  27.574  1.00  0.00    -0.383 N 
ATOM     57  H   UNL     1     -41.871  42.888  26.659  1.00  0.00     0.158 HD
ATOM     58  H   UNL     1     -42.977  43.822  27.576  1.00  0.00     0.158 HD
ENDBRANCH  48  56
ENDBRANCH  32  41
BRANCH  35  59
ATOM     59  O   UNL     1     -46.038  38.398  31.133  1.00  0.00    -0.388 OA
ATOM     60  H   UNL     1     -46.399  39.306  31.205  1.00  0.00     0.211 HD
ENDBRANCH  35  59
ENDBRANCH  25  28
ENDBRANCH   1  25
TORSDOF 10
ENDMDL
MODEL 2
REMARK VINA RESULT:     -10.0      1.261      2.439
REMARK SMILES CNc1ccc2cc(CC[C@H]3C[C@@H](n4cc(C)c5c(N)ncnc54)[C@H](O)[C@@H]3O)ccc2n1
REMARK SMILES IDX 9 1 8 4 3 5 4 6 32 7 5 8 31 10 6 11 30 13 7 14 29 15 2 19
REMARK SMILES IDX 1 21 10 25 11 28 12 29 27 30 13 32 25 35 28 39 14 41 15 42
REMARK SMILES IDX 24 43 16 44 18 46 23 47 19 48 22 49 21 50 17 52 20 56 26 59
REMARK H PARENT 9 2 9 3 4 9 5 12 30 16 7 17 29 18 2 20 1 22 1 23 1 24 10 26
REMARK H PARENT 10 27 11 31 12 33 12 34 27 36 13 37 25 38 28 40 15 45 22 51
REMARK H PARENT 17 53 17 54 17 55 20 57 20 58 26 60
REMARK Flexibility Score: inf
ROOT
ATOM      1  C   UNL     1     -46.815  35.975  26.158  1.00  0.00    -0.028 C 
ATOM      2  H   UNL     1     -45.725  35.996  26.050  1.00  0.00     0.032 H 
ATOM      3  H   UNL     1     -47.206  36.657  25.392  1.00  0.00     0.032 H 
ENDROOT
BRANCH   1   4
ATOM      4  C   UNL     1     -47.309  34.577  25.885  1.00  0.00    -0.047 A 
ATOM      5  C   UNL     1     -48.082  29.909  24.289  1.00  0.00     0.126 A 
ATOM      6  C   UNL     1     -46.884  30.273  23.694  1.00  0.00    -0.019 A 
ATOM      7  N   UNL     1     -48.762  30.735  25.106  1.00  0.00    -0.231 NA
ATOM      8  C   UNL     1     -46.372  31.544  23.931  1.00  0.00    -0.049 A 
ATOM      9  H   UNL     1     -46.339  29.575  23.067  1.00  0.00     0.066 H 
ATOM     10  C   UNL     1     -48.271  31.966  25.339  1.00  0.00     0.073 A 
ATOM     11  C   UNL     1     -47.067  32.422  24.767  1.00  0.00     0.001 A 
ATOM     12  H   UNL     1     -45.433  31.837  23.470  1.00  0.00     0.063 H 
ATOM     13  C   UNL     1     -48.967  32.832  26.170  1.00  0.00    -0.035 A 
ATOM     14  C   UNL     1     -46.595  33.720  25.040  1.00  0.00    -0.050 A 
ATOM     15  C   UNL     1     -48.504  34.123  26.445  1.00  0.00    -0.057 A 
ATOM     16  H   UNL     1     -49.899  32.492  26.616  1.00  0.00     0.065 H 
ATOM     17  H   UNL     1     -45.667  34.062  24.588  1.00  0.00     0.063 H 
ATOM     18  H   UNL     1     -49.091  34.767  27.098  1.00  0.00     0.063 H 
BRANCH   5  19
ATOM     19  N   UNL     1     -48.648  28.645  24.107  1.00  0.00    -0.373 N 
ATOM     20  H   UNL     1     -48.625  28.518  23.094  1.00  0.00     0.161 HD
BRANCH  19  21
ATOM     21  C   UNL     1     -47.935  27.576  24.786  1.00  0.00     0.005 C 
ATOM     22  H   UNL     1     -47.018  27.350  24.230  1.00  0.00     0.045 H 
ATOM     23  H   UNL     1     -48.527  26.656  24.825  1.00  0.00     0.045 H 
ATOM     24  H   UNL     1     -47.645  27.865  25.801  1.00  0.00     0.045 H 
ENDBRANCH  19  21
ENDBRANCH   5  19
ENDBRANCH   1   4
BRANCH   1  25
ATOM     25  C   UNL     1     -47.238  36.454  27.552  1.00  0.00    -0.044 C 
ATOM     26  H   UNL     1     -47.294  37.550  27.545  1.00  0.00     0.027 H 
ATOM     27  H   UNL     1     -48.249  36.092  27.766  1.00  0.00     0.027 H 
BRANCH  25  28
ATOM     28  C   UNL     1     -46.263  36.005  28.652  1.00  0.00    -0.010 C 
ATOM     29  C   UNL     1     -44.871  36.655  28.478  1.00  0.00    -0.024 C 
ATOM     30  C   UNL     1     -46.698  36.439  30.054  1.00  0.00     0.085 C 
ATOM     31  H   UNL     1     -46.147  34.915  28.595  1.00  0.00     0.033 H 
ATOM     32  C   UNL     1     -44.738  37.739  29.569  1.00  0.00     0.064 C 
ATOM     33  H   UNL     1     -44.711  37.029  27.462  1.00  0.00     0.029 H 
ATOM     34  H   UNL     1     -44.096  35.896  28.647  1.00  0.00     0.029 H 
ATOM     35  C   UNL     1     -46.126  37.853  30.215  1.00  0.00     0.101 C 
ATOM     36  H   UNL     1     -47.775  36.414  30.236  1.00  0.00     0.063 H 
ATOM     37  H   UNL     1     -44.026  37.375  30.323  1.00  0.00     0.056 H 
ATOM     38  H   UNL     1     -46.764  38.591  29.720  1.00  0.00     0.065 H 
BRANCH  30  39
ATOM     39  O   UNL     1     -46.076  35.591  31.033  1.00  0.00    -0.390 OA
ATOM     40  H   UNL     1     -45.432  35.033  30.559  1.00  0.00     0.211 HD
ENDBRANCH  30  39
BRANCH  32  41
ATOM     41  N   UNL     1     -44.198  39.002  29.094  1.00  0.00    -0.326 N 
ATOM     42  C   UNL     1     -43.119  39.643  29.656  1.00  0.00     0.010 A 
ATOM     43  C   UNL     1     -44.653  39.735  28.025  1.00  0.00     0.146 A 
ATOM     44  C   UNL     1     -42.871  40.803  28.945  1.00  0.00    -0.020 A 
ATOM     45  H   UNL     1     -42.612  39.226  30.518  1.00  0.00     0.082 H 
ATOM     46  C   UNL     1     -43.857  40.869  27.905  1.00  0.00     0.064 A 
ATOM     47  N   UNL     1     -45.688  39.402  27.235  1.00  0.00    -0.218 NA
ATOM     48  C   UNL     1     -44.180  41.749  26.859  1.00  0.00     0.136 A 
ATOM     49  C   UNL     1     -45.892  40.312  26.271  1.00  0.00     0.120 A 
ATOM     50  N   UNL     1     -45.211  41.450  26.045  1.00  0.00    -0.219 NA
ATOM     51  H   UNL     1     -46.710  40.108  25.588  1.00  0.00     0.106 H 
BRANCH  44  52
ATOM     52  C   UNL     1     -41.785  41.780  29.215  1.00  0.00    -0.037 C 
ATOM     53  H   UNL     1     -40.841  41.271  29.431  1.00  0.00     0.028 H 
ATOM     54  H   UNL     1     -41.625  42.428  28.347  1.00  0.00     0.028 H 
ATOM     55  H   UNL     1     -42.039  42.403  30.077  1.00  0.00     0.028 H 
ENDBRANCH  44  52
BRANCH  48  56
ATOM     56  N   UNL     1     -43.513  42.942  26.608  1.00  0.00    -0.383 N 
ATOM     57  H   UNL     1     -43.440  43.087  25.606  1.00  0.00     0.158 HD
ATOM     58  H   UNL     1     -43.865  43.726  27.138  1.00  0.00     0.158 HD
ENDBRANCH  48  56
ENDBRANCH  32  41
BRANCH  35  59
ATOM     59  O   UNL     1     -46.042  38.190  31.601  1.00  0.00    -0.388 OA
ATOM     60  H   UNL     1     -46.877  37.862  31.996  1.00  0.00     0.211 HD
ENDBRANCH  35  59
ENDBRANCH  25  28
ENDBRANCH   1  25
TORSDOF 10
ENDMDL
MODEL 3
REMARK VINA RESULT:      -9.6      1.548      2.157
REMARK SMILES CNc1ccc2cc(CC[C@H]3C[C@@H](n4cc(C)c5c(N)ncnc54)[C@H](O)[C@@H]3O)ccc2n1
REMARK SMILES IDX 9 1 8 4 3 5 4 6 32 7 5 8 31 10 6 11 30 13 7 14 29 15 2 19
REMARK SMILES IDX 1 21 10 25 11 28 12 29 27 30 13 32 25 35 28 39 14 41 15 42
REMARK SMILES IDX 24 43 16 44 18 46 23 47 19 48 22 49 21 50 17 52 20 56 26 59
REMARK H PARENT 9 2 9 3 4 9 5 12 30 16 7 17 29 18 2 20 1 22 1 23 1 24 10 26
REMARK H PARENT 10 27 11 31 12 33 12 34 27 36 13 37 25 38 28 40 15 45 22 51
REMARK H PARENT 17 53 17 54 17 55 20 57 20 58 26 60
REMARK Flexibility Score: inf
ROOT
ATOM      1  C   UNL     1     -45.757  34.428  26.443  1.00  0.00    -0.028 C 
ATOM      2  H   UNL     1     -45.336  33.941  27.330  1.00  0.00     0.032 H 
ATOM      3  H   UNL     1     -44.933  34.505  25.722  1.00  0.00     0.032 H 
ENDROOT
BRANCH   1   4
ATOM      4  C   UNL     1     -46.843  33.551  25.872  1.00  0.00    -0.047 A 
ATOM      5  C   UNL     1     -49.636  30.305  23.304  1.00  0.00     0.126 A 
ATOM      6  C   UNL     1     -48.355  30.109  22.810  1.00  0.00    -0.019 A 
ATOM      7  N   UNL     1     -49.907  31.200  24.273  1.00  0.00    -0.231 NA
ATOM      8  C   UNL     1     -47.313  30.876  23.320  1.00  0.00    -0.049 A 
ATOM      9  H   UNL     1     -48.160  29.358  22.053  1.00  0.00     0.066 H 
ATOM     10  C   UNL     1     -48.902  31.943  24.769  1.00  0.00     0.073 A 
ATOM     11  C   UNL     1     -47.573  31.818  24.319  1.00  0.00     0.001 A 
ATOM     12  H   UNL     1     -46.305  30.728  22.940  1.00  0.00     0.063 H 
ATOM     13  C   UNL     1     -49.169  32.875  25.761  1.00  0.00    -0.035 A 
ATOM     14  C   UNL     1     -46.555  32.620  24.868  1.00  0.00    -0.050 A 
ATOM     15  C   UNL     1     -48.162  33.677  26.311  1.00  0.00    -0.057 A 
ATOM     16  H   UNL     1     -50.191  32.983  26.116  1.00  0.00     0.065 H 
ATOM     17  H   UNL     1     -45.534  32.517  24.508  1.00  0.00     0.063 H 
ATOM     18  H   UNL     1     -48.424  34.399  27.082  1.00  0.00     0.063 H 
BRANCH   5  19
ATOM     19  N   UNL     1     -50.728  29.562  22.849  1.00  0.00    -0.373 N 
ATOM     20  H   UNL     1     -50.446  28.596  23.018  1.00  0.00     0.161 HD
BRANCH  19  21
ATOM     21  C   UNL     1     -51.975  29.871  23.530  1.00  0.00     0.005 C 
ATOM     22  H   UNL     1     -52.048  29.258  24.435  1.00  0.00     0.045 H 
ATOM     23  H   UNL     1     -52.844  29.635  22.907  1.00  0.00     0.045 H 
ATOM     24  H   UNL     1     -52.020  30.921  23.834  1.00  0.00     0.045 H 
ENDBRANCH  19  21
ENDBRANCH   5  19
ENDBRANCH   1   4
BRANCH   1  25
ATOM     25  C   UNL     1     -46.289  35.825  26.784  1.00  0.00    -0.044 C 
ATOM     26  H   UNL     1     -45.787  36.559  26.141  1.00  0.00     0.027 H 
ATOM     27  H   UNL     1     -47.356  35.874  26.538  1.00  0.00     0.027 H 
BRANCH  25  28
ATOM     28  C   UNL     1     -46.059  36.202  28.256  1.00  0.00    -0.010 C 
ATOM     29  C   UNL     1     -44.833  37.129  28.420  1.00  0.00    -0.024 C 
ATOM     30  C   UNL     1     -47.213  37.010  28.857  1.00  0.00     0.085 C 
ATOM     31  H   UNL     1     -45.880  35.284  28.830  1.00  0.00     0.033 H 
ATOM     32  C   UNL     1     -45.372  38.545  28.715  1.00  0.00     0.064 C 
ATOM     33  H   UNL     1     -44.159  37.084  27.559  1.00  0.00     0.029 H 
ATOM     34  H   UNL     1     -44.244  36.796  29.284  1.00  0.00     0.029 H 
ATOM     35  C   UNL     1     -46.891  38.466  28.502  1.00  0.00     0.101 C 
ATOM     36  H   UNL     1     -48.210  36.720  28.517  1.00  0.00     0.063 H 
ATOM     37  H   UNL     1     -45.175  38.770  29.773  1.00  0.00     0.056 H 
ATOM     38  H   UNL     1     -47.186  38.691  27.473  1.00  0.00     0.065 H 
BRANCH  30  39
ATOM     39  O   UNL     1     -47.191  36.883  30.288  1.00  0.00    -0.390 OA
ATOM     40  H   UNL     1     -47.010  37.770  30.651  1.00  0.00     0.211 HD
ENDBRANCH  30  39
BRANCH  32  41
ATOM     41  N   UNL     1     -44.720  39.603  27.960  1.00  0.00    -0.326 N 
ATOM     42  C   UNL     1     -45.120  40.021  26.712  1.00  0.00     0.010 A 
ATOM     43  C   UNL     1     -43.640  40.349  28.363  1.00  0.00     0.146 A 
ATOM     44  C   UNL     1     -44.290  41.049  26.302  1.00  0.00    -0.020 A 
ATOM     45  H   UNL     1     -45.961  39.555  26.213  1.00  0.00     0.082 H 
ATOM     46  C   UNL     1     -43.337  41.255  27.353  1.00  0.00     0.064 A 
ATOM     47  N   UNL     1     -42.997  40.220  29.536  1.00  0.00    -0.218 NA
ATOM     48  C   UNL     1     -42.246  42.109  27.588  1.00  0.00     0.136 A 
ATOM     49  C   UNL     1     -41.984  41.091  29.647  1.00  0.00     0.120 A 
ATOM     50  N   UNL     1     -41.575  42.009  28.753  1.00  0.00    -0.219 NA
ATOM     51  H   UNL     1     -41.419  41.050  30.573  1.00  0.00     0.106 H 
BRANCH  44  52
ATOM     52  C   UNL     1     -44.385  41.791  25.019  1.00  0.00    -0.037 C 
ATOM     53  H   UNL     1     -44.968  42.710  25.135  1.00  0.00     0.028 H 
ATOM     54  H   UNL     1     -43.390  42.070  24.660  1.00  0.00     0.028 H 
ATOM     55  H   UNL     1     -44.873  41.175  24.257  1.00  0.00     0.028 H 
ENDBRANCH  44  52
BRANCH  48  56
ATOM     56  N   UNL     1     -41.783  43.054  26.681  1.00  0.00    -0.383 N 
ATOM     57  H   UNL     1     -42.493  43.765  26.539  1.00  0.00     0.158 HD
ATOM     58  H   UNL     1     -40.856  43.397  26.886  1.00  0.00     0.158 HD
ENDBRANCH  48  56
ENDBRANCH  32  41
BRANCH  35  59
ATOM     59  O   UNL     1     -47.598  39.349  29.374  1.00  0.00    -0.388 OA
ATOM     60  H   UNL     1     -48.430  38.880  29.594  1.00  0.00     0.211 HD
ENDBRANCH  35  59
ENDBRANCH  25  28
ENDBRANCH   1  25
TORSDOF 10
ENDMDL
MODEL 4
REMARK VINA RESULT:      -9.3      2.403     10.210
REMARK SMILES CNc1ccc2cc(CC[C@H]3C[C@@H](n4cc(C)c5c(N)ncnc54)[C@H](O)[C@@H]3O)ccc2n1
REMARK SMILES IDX 9 1 8 4 3 5 4 6 32 7 5 8 31 10 6 11 30 13 7 14 29 15 2 19
REMARK SMILES IDX 1 21 10 25 11 28 12 29 27 30 13 32 25 35 28 39 14 41 15 42
REMARK SMILES IDX 24 43 16 44 18 46 23 47 19 48 22 49 21 50 17 52 20 56 26 59
REMARK H PARENT 9 2 9 3 4 9 5 12 30 16 7 17 29 18 2 20 1 22 1 23 1 24 10 26
REMARK H PARENT 10 27 11 31 12 33 12 34 27 36 13 37 25 38 28 40 15 45 22 51
REMARK H PARENT 17 53 17 54 17 55 20 57 20 58 26 60
REMARK Flexibility Score: inf
ROOT
ATOM      1  C   UNL     1     -48.290  36.488  27.389  1.00  0.00    -0.028 C 
ATOM      2  H   UNL     1     -48.521  36.023  28.355  1.00  0.00     0.032 H 
ATOM      3  H   UNL     1     -49.202  37.015  27.083  1.00  0.00     0.032 H 
ENDROOT
BRANCH   1   4
ATOM      4  C   UNL     1     -47.174  37.484  27.580  1.00  0.00    -0.047 A 
ATOM      5  C   UNL     1     -43.302  40.221  29.147  1.00  0.00     0.126 A 
ATOM      6  C   UNL     1     -43.384  39.193  30.074  1.00  0.00    -0.019 A 
ATOM      7  N   UNL     1     -44.143  40.317  28.100  1.00  0.00    -0.231 NA
ATOM      8  C   UNL     1     -44.381  38.235  29.931  1.00  0.00    -0.049 A 
ATOM      9  H   UNL     1     -42.672  39.122  30.889  1.00  0.00     0.066 H 
ATOM     10  C   UNL     1     -45.109  39.391  27.957  1.00  0.00     0.073 A 
ATOM     11  C   UNL     1     -45.272  38.320  28.858  1.00  0.00     0.001 A 
ATOM     12  H   UNL     1     -44.452  37.425  30.652  1.00  0.00     0.063 H 
ATOM     13  C   UNL     1     -45.989  39.483  26.888  1.00  0.00    -0.035 A 
ATOM     14  C   UNL     1     -46.300  37.377  28.667  1.00  0.00    -0.050 A 
ATOM     15  C   UNL     1     -47.014  38.550  26.693  1.00  0.00    -0.057 A 
ATOM     16  H   UNL     1     -45.875  40.306  26.187  1.00  0.00     0.065 H 
ATOM     17  H   UNL     1     -46.418  36.558  29.373  1.00  0.00     0.063 H 
ATOM     18  H   UNL     1     -47.683  38.671  25.843  1.00  0.00     0.063 H 
BRANCH   5  19
ATOM     19  N   UNL     1     -42.319  41.210  29.220  1.00  0.00    -0.373 N 
ATOM     20  H   UNL     1     -41.449  40.690  29.097  1.00  0.00     0.161 HD
BRANCH  19  21
ATOM     21  C   UNL     1     -42.455  42.251  28.215  1.00  0.00     0.005 C 
ATOM     22  H   UNL     1     -42.002  41.905  27.280  1.00  0.00     0.045 H 
ATOM     23  H   UNL     1     -41.932  43.167  28.509  1.00  0.00     0.045 H 
ATOM     24  H   UNL     1     -43.505  42.482  28.012  1.00  0.00     0.045 H 
ENDBRANCH  19  21
ENDBRANCH   5  19
ENDBRANCH   1   4
BRANCH   1  25
ATOM     25  C   UNL     1     -47.919  35.428  26.345  1.00  0.00    -0.044 C 
ATOM     26  H   UNL     1     -48.749  35.331  25.633  1.00  0.00     0.027 H 
ATOM     27  H   UNL     1     -47.055  35.777  25.770  1.00  0.00     0.027 H 
BRANCH  25  28
ATOM     28  C   UNL     1     -47.628  34.056  26.973  1.00  0.00    -0.010 C 
ATOM     29  C   UNL     1     -48.677  33.003  26.548  1.00  0.00    -0.024 C 
ATOM     30  C   UNL     1     -46.298  33.454  26.514  1.00  0.00     0.085 C 
ATOM     31  H   UNL     1     -47.660  34.156  28.066  1.00  0.00     0.033 H 
ATOM     32  C   UNL     1     -47.992  32.066  25.530  1.00  0.00     0.064 C 
ATOM     33  H   UNL     1     -49.600  33.460  26.177  1.00  0.00     0.029 H 
ATOM     34  H   UNL     1     -48.966  32.409  27.425  1.00  0.00     0.029 H 
ATOM     35  C   UNL     1     -46.636  32.714  25.214  1.00  0.00     0.101 C 
ATOM     36  H   UNL     1     -45.486  34.172  26.372  1.00  0.00     0.063 H 
ATOM     37  H   UNL     1     -47.816  31.100  26.022  1.00  0.00     0.056 H 
ATOM     38  H   UNL     1     -46.686  33.409  24.371  1.00  0.00     0.065 H 
BRANCH  30  39
ATOM     39  O   UNL     1     -45.852  32.485  27.477  1.00  0.00    -0.390 OA
ATOM     40  H   UNL     1     -44.965  32.763  27.772  1.00  0.00     0.211 HD
ENDBRANCH  30  39
BRANCH  32  41
ATOM     41  N   UNL     1     -48.796  31.769  24.355  1.00  0.00    -0.326 N 
ATOM     42  C   UNL     1     -50.078  32.228  24.159  1.00  0.00     0.010 A 
ATOM     43  C   UNL     1     -48.413  31.018  23.271  1.00  0.00     0.146 A 
ATOM     44  C   UNL     1     -50.531  31.769  22.935  1.00  0.00    -0.020 A 
ATOM     45  H   UNL     1     -50.569  32.843  24.904  1.00  0.00     0.082 H 
ATOM     46  C   UNL     1     -49.471  30.988  22.369  1.00  0.00     0.064 A 
ATOM     47  N   UNL     1     -47.218  30.423  23.118  1.00  0.00    -0.218 NA
ATOM     48  C   UNL     1     -49.261  30.254  21.189  1.00  0.00     0.136 A 
ATOM     49  C   UNL     1     -47.137  29.763  21.953  1.00  0.00     0.120 A 
ATOM     50  N   UNL     1     -48.076  29.642  20.998  1.00  0.00    -0.219 NA
ATOM     51  H   UNL     1     -46.195  29.259  21.756  1.00  0.00     0.106 H 
BRANCH  44  52
ATOM     52  C   UNL     1     -51.861  32.047  22.335  1.00  0.00    -0.037 C 
ATOM     53  H   UNL     1     -51.768  32.325  21.281  1.00  0.00     0.028 H 
ATOM     54  H   UNL     1     -52.502  31.161  22.391  1.00  0.00     0.028 H 
ATOM     55  H   UNL     1     -52.352  32.870  22.861  1.00  0.00     0.028 H 
ENDBRANCH  44  52
BRANCH  48  56
ATOM     56  N   UNL     1     -50.215  30.090  20.191  1.00  0.00    -0.383 N 
ATOM     57  H   UNL     1     -51.027  29.616  20.572  1.00  0.00     0.158 HD
ATOM     58  H   UNL     1     -50.407  30.932  19.668  1.00  0.00     0.158 HD
ENDBRANCH  48  56
ENDBRANCH  32  41
BRANCH  35  59
ATOM     59  O   UNL     1     -45.632  31.738  24.932  1.00  0.00    -0.388 OA
ATOM     60  H   UNL     1     -45.015  32.177  24.310  1.00  0.00     0.211 HD
ENDBRANCH  35  59
ENDBRANCH  25  28
ENDBRANCH   1  25
TORSDOF 10
ENDMDL
MODEL 5
REMARK VINA RESULT:      -9.1      4.047      6.913
REMARK SMILES CNc1ccc2cc(CC[C@H]3C[C@@H](n4cc(C)c5c(N)ncnc54)[C@H](O)[C@@H]3O)ccc2n1
REMARK SMILES IDX 9 1 8 4 3 5 4 6 32 7 5 8 31 10 6 11 30 13 7 14 29 15 2 19
REMARK SMILES IDX 1 21 10 25 11 28 12 29 27 30 13 32 25 35 28 39 14 41 15 42
REMARK SMILES IDX 24 43 16 44 18 46 23 47 19 48 22 49 21 50 17 52 20 56 26 59
REMARK H PARENT 9 2 9 3 4 9 5 12 30 16 7 17 29 18 2 20 1 22 1 23 1 24 10 26
REMARK H PARENT 10 27 11 31 12 33 12 34 27 36 13 37 25 38 28 40 15 45 22 51
REMARK H PARENT 17 53 17 54 17 55 20 57 20 58 26 60
REMARK Flexibility Score: inf
ROOT
ATOM      1  C   UNL     1     -49.054  36.210  27.892  1.00  0.00    -0.028 C 
ATOM      2  H   UNL     1     -49.004  35.727  28.874  1.00  0.00     0.032 H 
ATOM      3  H   UNL     1     -49.699  35.572  27.276  1.00  0.00     0.032 H 
ENDROOT
BRANCH   1   4
ATOM      4  C   UNL     1     -49.690  37.569  28.046  1.00  0.00    -0.047 A 
ATOM      5  C   UNL     1     -50.763  42.433  28.396  1.00  0.00     0.126 A 
ATOM      6  C   UNL     1     -49.422  42.410  28.044  1.00  0.00    -0.019 A 
ATOM      7  N   UNL     1     -51.487  41.309  28.557  1.00  0.00    -0.231 NA
ATOM      8  C   UNL     1     -48.794  41.182  27.867  1.00  0.00    -0.049 A 
ATOM      9  H   UNL     1     -48.872  43.331  27.888  1.00  0.00     0.066 H 
ATOM     10  C   UNL     1     -50.883  40.119  28.386  1.00  0.00     0.073 A 
ATOM     11  C   UNL     1     -49.523  40.002  28.039  1.00  0.00     0.001 A 
ATOM     12  H   UNL     1     -47.744  41.155  27.589  1.00  0.00     0.063 H 
ATOM     13  C   UNL     1     -51.614  38.952  28.558  1.00  0.00    -0.035 A 
ATOM     14  C   UNL     1     -48.935  38.734  27.873  1.00  0.00    -0.050 A 
ATOM     15  C   UNL     1     -51.036  37.688  28.396  1.00  0.00    -0.057 A 
ATOM     16  H   UNL     1     -52.664  39.029  28.828  1.00  0.00     0.065 H 
ATOM     17  H   UNL     1     -47.882  38.658  27.610  1.00  0.00     0.063 H 
ATOM     18  H   UNL     1     -51.650  36.803  28.549  1.00  0.00     0.063 H 
BRANCH   5  19
ATOM     19  N   UNL     1     -51.463  43.628  28.577  1.00  0.00    -0.373 N 
ATOM     20  H   UNL     1     -52.440  43.350  28.474  1.00  0.00     0.161 HD
BRANCH  19  21
ATOM     21  C   UNL     1     -51.230  44.258  29.866  1.00  0.00     0.005 C 
ATOM     22  H   UNL     1     -51.295  43.497  30.651  1.00  0.00     0.045 H 
ATOM     23  H   UNL     1     -51.986  45.019  30.087  1.00  0.00     0.045 H 
ATOM     24  H   UNL     1     -50.234  44.710  29.921  1.00  0.00     0.045 H 
ENDBRANCH  19  21
ENDBRANCH   5  19
ENDBRANCH   1   4
BRANCH   1  25
ATOM     25  C   UNL     1     -47.661  36.315  27.260  1.00  0.00    -0.044 C 
ATOM     26  H   UNL     1     -47.610  35.627  26.407  1.00  0.00     0.027 H 
ATOM     27  H   UNL     1     -47.524  37.323  26.855  1.00  0.00     0.027 H 
BRANCH  25  28
ATOM     28  C   UNL     1     -46.535  35.976  28.251  1.00  0.00    -0.010 C 
ATOM     29  C   UNL     1     -45.220  36.701  27.886  1.00  0.00    -0.024 C 
ATOM     30  C   UNL     1     -46.829  36.446  29.678  1.00  0.00     0.085 C 
ATOM     31  H   UNL     1     -46.356  34.894  28.221  1.00  0.00     0.033 H 
ATOM     32  C   UNL     1     -45.030  37.839  28.911  1.00  0.00     0.064 C 
ATOM     33  H   UNL     1     -45.205  37.037  26.844  1.00  0.00     0.029 H 
ATOM     34  H   UNL     1     -44.382  35.998  27.988  1.00  0.00     0.029 H 
ATOM     35  C   UNL     1     -46.336  37.897  29.716  1.00  0.00     0.101 C 
ATOM     36  H   UNL     1     -47.874  36.364  29.989  1.00  0.00     0.063 H 
ATOM     37  H   UNL     1     -44.211  37.553  29.587  1.00  0.00     0.056 H 
ATOM     38  H   UNL     1     -47.075  38.572  29.274  1.00  0.00     0.065 H 
BRANCH  30  39
ATOM     39  O   UNL     1     -46.042  35.682  30.605  1.00  0.00    -0.390 OA
ATOM     40  H   UNL     1     -45.121  35.989  30.519  1.00  0.00     0.211 HD
ENDBRANCH  30  39
BRANCH  32  41
ATOM     41  N   UNL     1     -44.634  39.110  28.328  1.00  0.00    -0.326 N 
ATOM     42  C   UNL     1     -45.214  39.663  27.210  1.00  0.00     0.010 A 
ATOM     43  C   UNL     1     -43.654  39.953  28.793  1.00  0.00     0.146 A 
ATOM     44  C   UNL     1     -44.605  40.876  26.948  1.00  0.00    -0.020 A 
ATOM     45  H   UNL     1     -46.013  39.150  26.688  1.00  0.00     0.082 H 
ATOM     46  C   UNL     1     -43.600  41.061  27.954  1.00  0.00     0.064 A 
ATOM     47  N   UNL     1     -42.888  39.736  29.876  1.00  0.00    -0.218 NA
ATOM     48  C   UNL     1     -42.644  42.039  28.274  1.00  0.00     0.136 A 
ATOM     49  C   UNL     1     -42.023  40.740  30.082  1.00  0.00     0.120 A 
ATOM     50  N   UNL     1     -41.856  41.858  29.353  1.00  0.00    -0.219 NA
ATOM     51  H   UNL     1     -41.372  40.638  30.945  1.00  0.00     0.106 H 
BRANCH  44  52
ATOM     52  C   UNL     1     -44.943  41.802  25.836  1.00  0.00    -0.037 C 
ATOM     53  H   UNL     1     -45.836  41.468  25.300  1.00  0.00     0.028 H 
ATOM     54  H   UNL     1     -45.140  42.808  26.219  1.00  0.00     0.028 H 
ATOM     55  H   UNL     1     -44.118  41.854  25.120  1.00  0.00     0.028 H 
ENDBRANCH  44  52
BRANCH  48  56
ATOM     56  N   UNL     1     -42.430  43.194  27.533  1.00  0.00    -0.383 N 
ATOM     57  H   UNL     1     -41.434  43.381  27.473  1.00  0.00     0.158 HD
ATOM     58  H   UNL     1     -42.931  43.216  26.656  1.00  0.00     0.158 HD
ENDBRANCH  48  56
ENDBRANCH  32  41
BRANCH  35  59
ATOM     59  O   UNL     1     -46.112  38.302  31.068  1.00  0.00    -0.388 OA
ATOM     60  H   UNL     1     -46.367  39.247  31.098  1.00  0.00     0.211 HD
ENDBRANCH  35  59
ENDBRANCH  25  28
ENDBRANCH   1  25
TORSDOF 10
ENDMDL
MODEL 6
REMARK VINA RESULT:      -8.9      4.210     11.537
REMARK SMILES CNc1ccc2cc(CC[C@H]3C[C@@H](n4cc(C)c5c(N)ncnc54)[C@H](O)[C@@H]3O)ccc2n1
REMARK SMILES IDX 9 1 8 4 3 5 4 6 32 7 5 8 31 10 6 11 30 13 7 14 29 15 2 19
REMARK SMILES IDX 1 21 10 25 11 28 12 29 27 30 13 32 25 35 28 39 14 41 15 42
REMARK SMILES IDX 24 43 16 44 18 46 23 47 19 48 22 49 21 50 17 52 20 56 26 59
REMARK H PARENT 9 2 9 3 4 9 5 12 30 16 7 17 29 18 2 20 1 22 1 23 1 24 10 26
REMARK H PARENT 10 27 11 31 12 33 12 34 27 36 13 37 25 38 28 40 15 45 22 51
REMARK H PARENT 17 53 17 54 17 55 20 57 20 58 26 60
REMARK Flexibility Score: inf
ROOT
ATOM      1  C   UNL     1     -46.794  32.255  25.664  1.00  0.00    -0.028 C 
ATOM      2  H   UNL     1     -45.725  32.030  25.761  1.00  0.00     0.032 H 
ATOM      3  H   UNL     1     -47.317  31.480  26.238  1.00  0.00     0.032 H 
ENDROOT
BRANCH   1   4
ATOM      4  C   UNL     1     -47.069  33.605  26.275  1.00  0.00    -0.047 A 
ATOM      5  C   UNL     1     -46.903  38.049  28.546  1.00  0.00     0.126 A 
ATOM      6  C   UNL     1     -45.578  37.638  28.516  1.00  0.00    -0.019 A 
ATOM      7  N   UNL     1     -47.900  37.310  28.024  1.00  0.00    -0.231 NA
ATOM      8  C   UNL     1     -45.268  36.410  27.942  1.00  0.00    -0.049 A 
ATOM      9  H   UNL     1     -44.791  38.269  28.914  1.00  0.00     0.066 H 
ATOM     10  C   UNL     1     -47.604  36.122  27.467  1.00  0.00     0.073 A 
ATOM     11  C   UNL     1     -46.288  35.622  27.403  1.00  0.00     0.001 A 
ATOM     12  H   UNL     1     -44.233  36.081  27.912  1.00  0.00     0.063 H 
ATOM     13  C   UNL     1     -48.623  35.346  26.934  1.00  0.00    -0.035 A 
ATOM     14  C   UNL     1     -46.028  34.371  26.812  1.00  0.00    -0.050 A 
ATOM     15  C   UNL     1     -48.372  34.101  26.346  1.00  0.00    -0.057 A 
ATOM     16  H   UNL     1     -49.642  35.720  26.979  1.00  0.00     0.065 H 
ATOM     17  H   UNL     1     -45.008  33.994  26.774  1.00  0.00     0.063 H 
ATOM     18  H   UNL     1     -49.206  33.527  25.949  1.00  0.00     0.063 H 
BRANCH   5  19
ATOM     19  N   UNL     1     -47.287  39.276  29.094  1.00  0.00    -0.373 N 
ATOM     20  H   UNL     1     -46.448  39.850  29.004  1.00  0.00     0.161 HD
BRANCH  19  21
ATOM     21  C   UNL     1     -48.419  39.892  28.423  1.00  0.00     0.005 C 
ATOM     22  H   UNL     1     -48.826  40.681  29.064  1.00  0.00     0.045 H 
ATOM     23  H   UNL     1     -49.224  39.172  28.244  1.00  0.00     0.045 H 
ATOM     24  H   UNL     1     -48.125  40.351  27.474  1.00  0.00     0.045 H 
ENDBRANCH  19  21
ENDBRANCH   5  19
ENDBRANCH   1   4
BRANCH   1  25
ATOM     25  C   UNL     1     -47.232  32.208  24.195  1.00  0.00    -0.044 C 
ATOM     26  H   UNL     1     -48.315  32.028  24.158  1.00  0.00     0.027 H 
ATOM     27  H   UNL     1     -47.063  33.188  23.737  1.00  0.00     0.027 H 
BRANCH  25  28
ATOM     28  C   UNL     1     -46.510  31.109  23.397  1.00  0.00    -0.010 C 
ATOM     29  C   UNL     1     -46.774  29.708  23.993  1.00  0.00    -0.024 C 
ATOM     30  C   UNL     1     -47.004  30.994  21.953  1.00  0.00     0.085 C 
ATOM     31  H   UNL     1     -45.431  31.304  23.431  1.00  0.00     0.033 H 
ATOM     32  C   UNL     1     -47.752  28.988  23.040  1.00  0.00     0.064 C 
ATOM     33  H   UNL     1     -47.121  29.754  25.030  1.00  0.00     0.029 H 
ATOM     34  H   UNL     1     -45.833  29.143  24.014  1.00  0.00     0.029 H 
ATOM     35  C   UNL     1     -48.210  30.051  22.032  1.00  0.00     0.101 C 
ATOM     36  H   UNL     1     -47.259  31.940  21.471  1.00  0.00     0.063 H 
ATOM     37  H   UNL     1     -47.192  28.209  22.503  1.00  0.00     0.056 H 
ATOM     38  H   UNL     1     -49.105  30.588  22.360  1.00  0.00     0.065 H 
BRANCH  30  39
ATOM     39  O   UNL     1     -45.993  30.361  21.151  1.00  0.00    -0.390 OA
ATOM     40  H   UNL     1     -45.237  30.174  21.738  1.00  0.00     0.211 HD
ENDBRANCH  30  39
BRANCH  32  41
ATOM     41  N   UNL     1     -48.841  28.297  23.711  1.00  0.00    -0.326 N 
ATOM     42  C   UNL     1     -50.173  28.512  23.447  1.00  0.00     0.010 A 
ATOM     43  C   UNL     1     -48.723  27.330  24.680  1.00  0.00     0.146 A 
ATOM     44  C   UNL     1     -50.927  27.677  24.252  1.00  0.00    -0.020 A 
ATOM     45  H   UNL     1     -50.483  29.243  22.709  1.00  0.00     0.082 H 
ATOM     46  C   UNL     1     -50.001  26.925  25.048  1.00  0.00     0.064 A 
ATOM     47  N   UNL     1     -47.565  26.861  25.175  1.00  0.00    -0.218 NA
ATOM     48  C   UNL     1     -50.078  25.935  26.042  1.00  0.00     0.136 A 
ATOM     49  C   UNL     1     -47.768  25.917  26.107  1.00  0.00     0.120 A 
ATOM     50  N   UNL     1     -48.939  25.439  26.564  1.00  0.00    -0.219 NA
ATOM     51  H   UNL     1     -46.876  25.486  26.550  1.00  0.00     0.106 H 
BRANCH  44  52
ATOM     52  C   UNL     1     -52.409  27.585  24.272  1.00  0.00    -0.037 C 
ATOM     53  H   UNL     1     -52.849  28.088  23.406  1.00  0.00     0.028 H 
ATOM     54  H   UNL     1     -52.730  26.538  24.249  1.00  0.00     0.028 H 
ATOM     55  H   UNL     1     -52.808  28.055  25.176  1.00  0.00     0.028 H 
ENDBRANCH  44  52
BRANCH  48  56
ATOM     56  N   UNL     1     -51.269  25.432  26.553  1.00  0.00    -0.383 N 
ATOM     57  H   UNL     1     -51.103  25.034  27.471  1.00  0.00     0.158 HD
ATOM     58  H   UNL     1     -52.044  26.077  26.490  1.00  0.00     0.158 HD
ENDBRANCH  48  56
ENDBRANCH  32  41
BRANCH  35  59
ATOM     59  O   UNL     1     -48.474  29.487  20.745  1.00  0.00    -0.388 OA
ATOM     60  H   UNL     1     -47.607  29.164  20.424  1.00  0.00     0.211 HD
ENDBRANCH  35  59
ENDBRANCH  25  28
ENDBRANCH   1  25
TORSDOF 10
ENDMDL
MODEL 7
REMARK VINA RESULT:      -8.8      1.703      2.541
REMARK SMILES CNc1ccc2cc(CC[C@H]3C[C@@H](n4cc(C)c5c(N)ncnc54)[C@H](O)[C@@H]3O)ccc2n1
REMARK SMILES IDX 9 1 8 4 3 5 4 6 32 7 5 8 31 10 6 11 30 13 7 14 29 15 2 19
REMARK SMILES IDX 1 21 10 25 11 28 12 29 27 30 13 32 25 35 28 39 14 41 15 42
REMARK SMILES IDX 24 43 16 44 18 46 23 47 19 48 22 49 21 50 17 52 20 56 26 59
REMARK H PARENT 9 2 9 3 4 9 5 12 30 16 7 17 29 18 2 20 1 22 1 23 1 24 10 26
REMARK H PARENT 10 27 11 31 12 33 12 34 27 36 13 37 25 38 28 40 15 45 22 51
REMARK H PARENT 17 53 17 54 17 55 20 57 20 58 26 60
REMARK Flexibility Score: inf
ROOT
ATOM      1  C   UNL     1     -46.825  35.124  25.908  1.00  0.00    -0.028 C 
ATOM      2  H   UNL     1     -45.748  35.248  25.747  1.00  0.00     0.032 H 
ATOM      3  H   UNL     1     -47.316  35.804  25.201  1.00  0.00     0.032 H 
ENDROOT
BRANCH   1   4
ATOM      4  C   UNL     1     -47.207  33.701  25.586  1.00  0.00    -0.047 A 
ATOM      5  C   UNL     1     -47.663  29.072  23.770  1.00  0.00     0.126 A 
ATOM      6  C   UNL     1     -46.548  29.579  23.120  1.00  0.00    -0.019 A 
ATOM      7  N   UNL     1     -48.357  29.786  24.677  1.00  0.00    -0.231 NA
ATOM      8  C   UNL     1     -46.139  30.879  23.399  1.00  0.00    -0.049 A 
ATOM      9  H   UNL     1     -45.988  28.970  22.419  1.00  0.00     0.066 H 
ATOM     10  C   UNL     1     -47.965  31.043  24.950  1.00  0.00     0.073 A 
ATOM     11  C   UNL     1     -46.851  31.641  24.329  1.00  0.00     0.001 A 
ATOM     12  H   UNL     1     -45.265  31.283  22.896  1.00  0.00     0.063 H 
ATOM     13  C   UNL     1     -48.676  31.794  25.875  1.00  0.00    -0.035 A 
ATOM     14  C   UNL     1     -46.480  32.962  24.647  1.00  0.00    -0.050 A 
ATOM     15  C   UNL     1     -48.314  33.108  26.195  1.00  0.00    -0.057 A 
ATOM     16  H   UNL     1     -49.539  31.345  26.359  1.00  0.00     0.065 H 
ATOM     17  H   UNL     1     -45.621  33.414  24.156  1.00  0.00     0.063 H 
ATOM     18  H   UNL     1     -48.909  33.657  26.921  1.00  0.00     0.063 H 
BRANCH   5  19
ATOM     19  N   UNL     1     -48.124  27.772  23.550  1.00  0.00    -0.373 N 
ATOM     20  H   UNL     1     -47.317  27.300  23.138  1.00  0.00     0.161 HD
BRANCH  19  21
ATOM     21  C   UNL     1     -48.569  27.092  24.755  1.00  0.00     0.005 C 
ATOM     22  H   UNL     1     -48.213  27.648  25.629  1.00  0.00     0.045 H 
ATOM     23  H   UNL     1     -48.157  26.080  24.824  1.00  0.00     0.045 H 
ATOM     24  H   UNL     1     -49.661  27.044  24.812  1.00  0.00     0.045 H 
ENDBRANCH  19  21
ENDBRANCH   5  19
ENDBRANCH   1   4
BRANCH   1  25
ATOM     25  C   UNL     1     -47.211  35.493  27.346  1.00  0.00    -0.044 C 
ATOM     26  H   UNL     1     -47.939  36.313  27.314  1.00  0.00     0.027 H 
ATOM     27  H   UNL     1     -47.719  34.642  27.812  1.00  0.00     0.027 H 
BRANCH  25  28
ATOM     28  C   UNL     1     -46.001  35.924  28.191  1.00  0.00    -0.010 C 
ATOM     29  C   UNL     1     -45.285  37.148  27.574  1.00  0.00    -0.024 C 
ATOM     30  C   UNL     1     -46.386  36.394  29.596  1.00  0.00     0.085 C 
ATOM     31  H   UNL     1     -45.288  35.091  28.235  1.00  0.00     0.033 H 
ATOM     32  C   UNL     1     -45.635  38.368  28.452  1.00  0.00     0.064 C 
ATOM     33  H   UNL     1     -45.527  37.281  26.515  1.00  0.00     0.029 H 
ATOM     34  H   UNL     1     -44.199  36.989  27.619  1.00  0.00     0.029 H 
ATOM     35  C   UNL     1     -46.716  37.882  29.428  1.00  0.00     0.101 C 
ATOM     36  H   UNL     1     -47.208  35.845  30.061  1.00  0.00     0.063 H 
ATOM     37  H   UNL     1     -44.739  38.642  29.026  1.00  0.00     0.056 H 
ATOM     38  H   UNL     1     -47.729  38.015  29.038  1.00  0.00     0.065 H 
BRANCH  30  39
ATOM     39  O   UNL     1     -45.248  36.284  30.466  1.00  0.00    -0.390 OA
ATOM     40  H   UNL     1     -45.216  35.361  30.780  1.00  0.00     0.211 HD
ENDBRANCH  30  39
BRANCH  32  41
ATOM     41  N   UNL     1     -46.003  39.558  27.703  1.00  0.00    -0.326 N 
ATOM     42  C   UNL     1     -47.297  39.973  27.496  1.00  0.00     0.010 A 
ATOM     43  C   UNL     1     -45.142  40.449  27.110  1.00  0.00     0.146 A 
ATOM     44  C   UNL     1     -47.276  41.144  26.761  1.00  0.00    -0.020 A 
ATOM     45  H   UNL     1     -48.132  39.403  27.885  1.00  0.00     0.082 H 
ATOM     46  C   UNL     1     -45.898  41.447  26.506  1.00  0.00     0.064 A 
ATOM     47  N   UNL     1     -43.800  40.363  27.123  1.00  0.00    -0.218 NA
ATOM     48  C   UNL     1     -45.180  42.455  25.839  1.00  0.00     0.136 A 
ATOM     49  C   UNL     1     -43.230  41.383  26.463  1.00  0.00     0.120 A 
ATOM     50  N   UNL     1     -43.833  42.404  25.828  1.00  0.00    -0.219 NA
ATOM     51  H   UNL     1     -42.145  41.384  26.434  1.00  0.00     0.106 H 
BRANCH  44  52
ATOM     52  C   UNL     1     -48.461  41.930  26.332  1.00  0.00    -0.037 C 
ATOM     53  H   UNL     1     -48.207  42.619  25.521  1.00  0.00     0.028 H 
ATOM     54  H   UNL     1     -49.254  41.267  25.971  1.00  0.00     0.028 H 
ATOM     55  H   UNL     1     -48.850  42.520  27.168  1.00  0.00     0.028 H 
ENDBRANCH  44  52
BRANCH  48  56
ATOM     56  N   UNL     1     -45.770  43.512  25.156  1.00  0.00    -0.383 N 
ATOM     57  H   UNL     1     -45.358  44.387  25.463  1.00  0.00     0.158 HD
ATOM     58  H   UNL     1     -45.814  43.378  24.156  1.00  0.00     0.158 HD
ENDBRANCH  48  56
ENDBRANCH  32  41
BRANCH  35  59
ATOM     59  O   UNL     1     -46.632  38.546  30.691  1.00  0.00    -0.388 OA
ATOM     60  H   UNL     1     -46.285  37.872  31.312  1.00  0.00     0.211 HD
ENDBRANCH  35  59
ENDBRANCH  25  28
ENDBRANCH   1  25
TORSDOF 10
ENDMDL
