MODEL 1
REMARK VINA RESULT:      -9.9      0.000      0.000
REMARK SMILES Nc1ncnc2c1ccn2[C@H]1C[C@H](O)[C@@H](COc2ccc3ccc(N4CCC4)nc3c2)O1
REMARK SMILES IDX 16 1 15 4 11 5 12 6 32 7 13 9 10 14 2 15 3 16 7 17 4 18 6 19
REMARK SMILES IDX 8 20 5 21 9 23 1 26 14 29 17 31 18 32 19 33 31 34 20 35
REMARK SMILES IDX 30 37 21 39 29 41 22 42 24 43 23 44 25 47 26 48 28 49 27 50
REMARK H PARENT 16 2 16 3 11 8 12 10 12 11 13 12 15 13 4 22 8 24 9 25 1 27
REMARK H PARENT 1 28 14 30 19 36 31 38 20 40 22 45 23 46 26 51 26 52 28 53
REMARK H PARENT 28 54 27 55 27 56
REMARK Flexibility Score: inf
ROOT
ATOM      1  C   UNL     1     -47.323  31.902  24.055  1.00  0.00     0.117 C 
ATOM      2  H   UNL     1     -48.305  31.452  24.248  1.00  0.00     0.073 H 
ATOM      3  H   UNL     1     -47.468  32.776  23.409  1.00  0.00     0.073 H 
ENDROOT
BRANCH   1   4
ATOM      4  C   UNL     1     -46.443  30.862  23.350  1.00  0.00     0.120 C 
ATOM      5  C   UNL     1     -47.557  28.817  23.032  1.00  0.00     0.138 C 
ATOM      6  C   UNL     1     -47.901  29.731  21.861  1.00  0.00     0.022 C 
ATOM      7  O   UNL     1     -46.687  29.560  23.924  1.00  0.00    -0.348 OA
ATOM      8  H   UNL     1     -46.993  27.935  22.704  1.00  0.00     0.085 H 
ATOM      9  C   UNL     1     -46.751  30.708  21.863  1.00  0.00     0.088 C 
ATOM     10  H   UNL     1     -48.847  30.259  22.036  1.00  0.00     0.034 H 
ATOM     11  H   UNL     1     -47.996  29.168  20.928  1.00  0.00     0.034 H 
ATOM     12  H   UNL     1     -46.987  31.646  21.356  1.00  0.00     0.063 H 
ATOM     13  H   UNL     1     -45.386  31.108  23.505  1.00  0.00     0.067 H 
BRANCH   5  14
ATOM     14  N   UNL     1     -48.726  28.336  23.756  1.00  0.00    -0.306 N 
ATOM     15  C   UNL     1     -50.123  26.076  26.094  1.00  0.00     0.136 A 
ATOM     16  N   UNL     1     -49.045  25.359  26.466  1.00  0.00    -0.219 NA
ATOM     17  C   UNL     1     -49.963  27.099  25.151  1.00  0.00     0.061 A 
ATOM     18  C   UNL     1     -47.854  25.668  25.918  1.00  0.00     0.120 A 
ATOM     19  C   UNL     1     -48.679  27.305  24.664  1.00  0.00     0.147 A 
ATOM     20  C   UNL     1     -50.803  28.053  24.512  1.00  0.00    -0.031 A 
ATOM     21  N   UNL     1     -47.577  26.617  25.007  1.00  0.00    -0.218 NA
ATOM     22  H   UNL     1     -47.011  25.070  26.252  1.00  0.00     0.106 H 
ATOM     23  C   UNL     1     -50.015  28.802  23.661  1.00  0.00     0.009 A 
ATOM     24  H   UNL     1     -51.865  28.187  24.668  1.00  0.00     0.065 H 
ATOM     25  H   UNL     1     -50.270  29.631  23.013  1.00  0.00     0.082 H 
BRANCH  15  26
ATOM     26  N   UNL     1     -51.341  25.738  26.665  1.00  0.00    -0.383 N 
ATOM     27  H   UNL     1     -51.624  24.779  26.522  1.00  0.00     0.158 HD
ATOM     28  H   UNL     1     -51.401  26.089  27.614  1.00  0.00     0.158 HD
ENDBRANCH  15  26
ENDBRANCH   5  14
BRANCH   9  29
ATOM     29  O   UNL     1     -45.646  30.114  21.170  1.00  0.00    -0.390 OA
ATOM     30  H   UNL     1     -45.734  29.144  21.211  1.00  0.00     0.211 HD
ENDBRANCH   9  29
ENDBRANCH   1   4
BRANCH   1  31
ATOM     31  O   UNL     1     -46.703  32.282  25.282  1.00  0.00    -0.491 OA
BRANCH  31  32
ATOM     32  C   UNL     1     -47.146  33.433  25.873  1.00  0.00     0.121 A 
ATOM     33  C   UNL     1     -48.505  33.444  26.180  1.00  0.00    -0.019 A 
ATOM     34  C   UNL     1     -46.368  34.554  26.176  1.00  0.00     0.007 A 
ATOM     35  C   UNL     1     -49.079  34.558  26.786  1.00  0.00    -0.049 A 
ATOM     36  H   UNL     1     -49.120  32.578  25.946  1.00  0.00     0.066 H 
ATOM     37  C   UNL     1     -46.915  35.680  26.780  1.00  0.00     0.076 A 
ATOM     38  H   UNL     1     -45.308  34.589  25.949  1.00  0.00     0.069 H 
ATOM     39  C   UNL     1     -48.288  35.677  27.088  1.00  0.00     0.001 A 
ATOM     40  H   UNL     1     -50.141  34.549  27.020  1.00  0.00     0.063 H 
ATOM     41  N   UNL     1     -46.119  36.730  27.048  1.00  0.00    -0.231 NA
ATOM     42  C   UNL     1     -48.821  36.815  27.699  1.00  0.00    -0.049 A 
ATOM     43  C   UNL     1     -46.644  37.830  27.633  1.00  0.00     0.129 A 
ATOM     44  C   UNL     1     -47.991  37.897  27.975  1.00  0.00    -0.019 A 
ATOM     45  H   UNL     1     -49.873  36.866  27.964  1.00  0.00     0.063 H 
ATOM     46  H   UNL     1     -48.396  38.777  28.461  1.00  0.00     0.066 H 
BRANCH  43  47
ATOM     47  N   UNL     1     -45.793  38.914  27.919  1.00  0.00    -0.356 N 
ATOM     48  C   UNL     1     -44.703  38.860  28.852  1.00  0.00     0.021 C 
ATOM     49  C   UNL     1     -45.032  39.674  26.971  1.00  0.00     0.021 C 
ATOM     50  C   UNL     1     -44.162  40.113  28.154  1.00  0.00    -0.018 C 
ATOM     51  H   UNL     1     -45.012  38.989  29.892  1.00  0.00     0.049 H 
ATOM     52  H   UNL     1     -44.083  37.965  28.738  1.00  0.00     0.049 H 
ATOM     53  H   UNL     1     -44.523  39.047  26.231  1.00  0.00     0.049 H 
ATOM     54  H   UNL     1     -45.603  40.466  26.483  1.00  0.00     0.049 H 
ATOM     55  H   UNL     1     -44.472  41.057  28.616  1.00  0.00     0.030 H 
ATOM     56  H   UNL     1     -43.085  40.130  27.973  1.00  0.00     0.030 H 
ENDBRANCH  43  47
ENDBRANCH  31  32
ENDBRANCH   1  31
TORSDOF 7
ENDMDL
MODEL 2
REMARK VINA RESULT:      -9.6      3.374     11.178
REMARK SMILES Nc1ncnc2c1ccn2[C@H]1C[C@H](O)[C@@H](COc2ccc3ccc(N4CCC4)nc3c2)O1
REMARK SMILES IDX 16 1 15 4 11 5 12 6 32 7 13 9 10 14 2 15 3 16 7 17 4 18 6 19
REMARK SMILES IDX 8 20 5 21 9 23 1 26 14 29 17 31 18 32 19 33 31 34 20 35
REMARK SMILES IDX 30 37 21 39 29 41 22 42 24 43 23 44 25 47 26 48 28 49 27 50
REMARK H PARENT 16 2 16 3 11 8 12 10 12 11 13 12 15 13 4 22 8 24 9 25 1 27
REMARK H PARENT 1 28 14 30 19 36 31 38 20 40 22 45 23 46 26 51 26 52 28 53
REMARK H PARENT 28 54 27 55 27 56
REMARK Flexibility Score: inf
ROOT
ATOM      1  C   UNL     1     -45.265  35.872  27.315  1.00  0.00     0.117 C 
ATOM      2  H   UNL     1     -44.888  34.843  27.259  1.00  0.00     0.073 H 
ATOM      3  H   UNL     1     -44.529  36.532  26.840  1.00  0.00     0.073 H 
ENDROOT
BRANCH   1   4
ATOM      4  C   UNL     1     -45.436  36.246  28.793  1.00  0.00     0.120 C 
ATOM      5  C   UNL     1     -45.301  38.566  29.149  1.00  0.00     0.138 C 
ATOM      6  C   UNL     1     -46.740  38.227  28.778  1.00  0.00     0.022 C 
ATOM      7  O   UNL     1     -44.541  37.330  29.120  1.00  0.00    -0.348 OA
ATOM      8  H   UNL     1     -45.227  38.956  30.171  1.00  0.00     0.085 H 
ATOM      9  C   UNL     1     -46.832  36.763  29.134  1.00  0.00     0.088 C 
ATOM     10  H   UNL     1     -46.915  38.368  27.704  1.00  0.00     0.034 H 
ATOM     11  H   UNL     1     -47.452  38.856  29.321  1.00  0.00     0.034 H 
ATOM     12  H   UNL     1     -47.640  36.247  28.612  1.00  0.00     0.063 H 
ATOM     13  H   UNL     1     -45.175  35.388  29.422  1.00  0.00     0.067 H 
BRANCH   5  14
ATOM     14  N   UNL     1     -44.689  39.551  28.267  1.00  0.00    -0.306 N 
ATOM     15  C   UNL     1     -42.143  41.943  27.699  1.00  0.00     0.136 A 
ATOM     16  N   UNL     1     -41.431  41.867  28.840  1.00  0.00    -0.219 NA
ATOM     17  C   UNL     1     -43.266  41.120  27.546  1.00  0.00     0.061 A 
ATOM     18  C   UNL     1     -41.827  40.989  29.782  1.00  0.00     0.120 A 
ATOM     19  C   UNL     1     -43.563  40.266  28.600  1.00  0.00     0.147 A 
ATOM     20  C   UNL     1     -44.251  40.894  26.544  1.00  0.00    -0.031 A 
ATOM     21  N   UNL     1     -42.881  40.156  29.752  1.00  0.00    -0.218 NA
ATOM     22  H   UNL     1     -41.220  40.956  30.681  1.00  0.00     0.106 H 
ATOM     23  C   UNL     1     -45.113  39.924  27.013  1.00  0.00     0.009 A 
ATOM     24  H   UNL     1     -44.315  41.379  25.580  1.00  0.00     0.065 H 
ATOM     25  H   UNL     1     -45.976  39.465  26.550  1.00  0.00     0.082 H 
BRANCH  15  26
ATOM     26  N   UNL     1     -41.722  42.857  26.744  1.00  0.00    -0.383 N 
ATOM     27  H   UNL     1     -41.594  43.799  27.087  1.00  0.00     0.158 HD
ATOM     28  H   UNL     1     -40.967  42.471  26.190  1.00  0.00     0.158 HD
ENDBRANCH  15  26
ENDBRANCH   5  14
BRANCH   9  29
ATOM     29  O   UNL     1     -47.089  36.651  30.539  1.00  0.00    -0.390 OA
ATOM     30  H   UNL     1     -46.884  37.503  30.966  1.00  0.00     0.211 HD
ENDBRANCH   9  29
ENDBRANCH   1   4
BRANCH   1  31
ATOM     31  O   UNL     1     -46.527  35.973  26.659  1.00  0.00    -0.491 OA
BRANCH  31  32
ATOM     32  C   UNL     1     -47.097  34.809  26.223  1.00  0.00     0.121 A 
ATOM     33  C   UNL     1     -48.420  34.624  26.620  1.00  0.00    -0.019 A 
ATOM     34  C   UNL     1     -46.475  33.830  25.443  1.00  0.00     0.007 A 
ATOM     35  C   UNL     1     -49.114  33.479  26.239  1.00  0.00    -0.049 A 
ATOM     36  H   UNL     1     -48.913  35.378  27.229  1.00  0.00     0.066 H 
ATOM     37  C   UNL     1     -47.144  32.677  25.049  1.00  0.00     0.076 A 
ATOM     38  H   UNL     1     -45.445  33.932  25.117  1.00  0.00     0.069 H 
ATOM     39  C   UNL     1     -48.481  32.504  25.454  1.00  0.00     0.001 A 
ATOM     40  H   UNL     1     -50.146  33.352  26.556  1.00  0.00     0.063 H 
ATOM     41  N   UNL     1     -46.495  31.769  24.299  1.00  0.00    -0.231 NA
ATOM     42  C   UNL     1     -49.139  31.341  25.046  1.00  0.00    -0.049 A 
ATOM     43  C   UNL     1     -47.138  30.643  23.915  1.00  0.00     0.129 A 
ATOM     44  C   UNL     1     -48.462  30.407  24.269  1.00  0.00    -0.019 A 
ATOM     45  H   UNL     1     -50.173  31.158  25.324  1.00  0.00     0.063 H 
ATOM     46  H   UNL     1     -48.972  29.510  23.937  1.00  0.00     0.066 H 
BRANCH  43  47
ATOM     47  N   UNL     1     -46.447  29.710  23.118  1.00  0.00    -0.356 N 
ATOM     48  C   UNL     1     -45.164  29.952  22.521  1.00  0.00     0.021 C 
ATOM     49  C   UNL     1     -46.100  28.368  23.484  1.00  0.00     0.021 C 
ATOM     50  C   UNL     1     -45.049  28.431  22.370  1.00  0.00    -0.018 C 
ATOM     51  H   UNL     1     -45.216  30.522  21.591  1.00  0.00     0.049 H 
ATOM     52  H   UNL     1     -44.446  30.402  23.215  1.00  0.00     0.049 H 
ATOM     53  H   UNL     1     -45.693  28.293  24.498  1.00  0.00     0.049 H 
ATOM     54  H   UNL     1     -46.907  27.649  23.333  1.00  0.00     0.049 H 
ATOM     55  H   UNL     1     -45.392  28.046  21.403  1.00  0.00     0.030 H 
ATOM     56  H   UNL     1     -44.074  28.001  22.609  1.00  0.00     0.030 H 
ENDBRANCH  43  47
ENDBRANCH  31  32
ENDBRANCH   1  31
TORSDOF 7
ENDMDL
MODEL 3
REMARK VINA RESULT:      -9.2      1.565      2.456
REMARK SMILES Nc1ncnc2c1ccn2[C@H]1C[C@H](O)[C@@H](COc2ccc3ccc(N4CCC4)nc3c2)O1
REMARK SMILES IDX 16 1 15 4 11 5 12 6 32 7 13 9 10 14 2 15 3 16 7 17 4 18 6 19
REMARK SMILES IDX 8 20 5 21 9 23 1 26 14 29 17 31 18 32 19 33 31 34 20 35
REMARK SMILES IDX 30 37 21 39 29 41 22 42 24 43 23 44 25 47 26 48 28 49 27 50
REMARK H PARENT 16 2 16 3 11 8 12 10 12 11 13 12 15 13 4 22 8 24 9 25 1 27
REMARK H PARENT 1 28 14 30 19 36 31 38 20 40 22 45 23 46 26 51 26 52 28 53
REMARK H PARENT 28 54 27 55 27 56
REMARK Flexibility Score: inf
ROOT
ATOM      1  C   UNL     1     -46.481  31.696  24.382  1.00  0.00     0.117 C 
ATOM      2  H   UNL     1     -45.785  32.496  24.101  1.00  0.00     0.073 H 
ATOM      3  H   UNL     1     -45.892  30.821  24.683  1.00  0.00     0.073 H 
ENDROOT
BRANCH   1   4
ATOM      4  C   UNL     1     -47.349  31.358  23.164  1.00  0.00     0.120 C 
ATOM      5  C   UNL     1     -48.105  29.132  23.195  1.00  0.00     0.138 C 
ATOM      6  C   UNL     1     -49.081  29.975  24.008  1.00  0.00     0.022 C 
ATOM      7  O   UNL     1     -47.055  30.015  22.723  1.00  0.00    -0.348 OA
ATOM      8  H   UNL     1     -48.583  28.707  22.304  1.00  0.00     0.085 H 
ATOM      9  C   UNL     1     -48.847  31.362  23.461  1.00  0.00     0.088 C 
ATOM     10  H   UNL     1     -48.836  29.943  25.076  1.00  0.00     0.034 H 
ATOM     11  H   UNL     1     -50.111  29.624  23.886  1.00  0.00     0.034 H 
ATOM     12  H   UNL     1     -49.165  32.151  24.146  1.00  0.00     0.063 H 
ATOM     13  H   UNL     1     -47.114  32.044  22.342  1.00  0.00     0.067 H 
BRANCH   5  14
ATOM     14  N   UNL     1     -47.530  28.024  23.945  1.00  0.00    -0.306 N 
ATOM     15  C   UNL     1     -47.954  25.409  26.291  1.00  0.00     0.136 A 
ATOM     16  N   UNL     1     -49.263  25.517  26.595  1.00  0.00    -0.219 NA
ATOM     17  C   UNL     1     -47.397  26.301  25.366  1.00  0.00     0.061 A 
ATOM     18  C   UNL     1     -49.981  26.478  25.984  1.00  0.00     0.120 A 
ATOM     19  C   UNL     1     -48.254  27.246  24.817  1.00  0.00     0.147 A 
ATOM     20  C   UNL     1     -46.116  26.523  24.790  1.00  0.00    -0.031 A 
ATOM     21  N   UNL     1     -49.562  27.389  25.088  1.00  0.00    -0.218 NA
ATOM     22  H   UNL     1     -51.033  26.524  26.252  1.00  0.00     0.106 H 
ATOM     23  C   UNL     1     -46.227  27.587  23.918  1.00  0.00     0.009 A 
ATOM     24  H   UNL     1     -45.214  25.957  24.981  1.00  0.00     0.065 H 
ATOM     25  H   UNL     1     -45.489  28.052  23.278  1.00  0.00     0.082 H 
BRANCH  15  26
ATOM     26  N   UNL     1     -47.230  24.417  26.937  1.00  0.00    -0.383 N 
ATOM     27  H   UNL     1     -46.302  24.263  26.569  1.00  0.00     0.158 HD
ATOM     28  H   UNL     1     -47.306  24.518  27.943  1.00  0.00     0.158 HD
ENDBRANCH  15  26
ENDBRANCH   5  14
BRANCH   9  29
ATOM     29  O   UNL     1     -49.607  31.511  22.255  1.00  0.00    -0.390 OA
ATOM     30  H   UNL     1     -50.528  31.728  22.488  1.00  0.00     0.211 HD
ENDBRANCH   9  29
ENDBRANCH   1   4
BRANCH   1  31
ATOM     31  O   UNL     1     -47.323  32.125  25.450  1.00  0.00    -0.491 OA
BRANCH  31  32
ATOM     32  C   UNL     1     -46.909  33.210  26.172  1.00  0.00     0.121 A 
ATOM     33  C   UNL     1     -46.247  32.899  27.359  1.00  0.00    -0.019 A 
ATOM     34  C   UNL     1     -47.095  34.550  25.825  1.00  0.00     0.007 A 
ATOM     35  C   UNL     1     -45.773  33.916  28.185  1.00  0.00    -0.049 A 
ATOM     36  H   UNL     1     -46.098  31.860  27.641  1.00  0.00     0.066 H 
ATOM     37  C   UNL     1     -46.634  35.584  26.630  1.00  0.00     0.076 A 
ATOM     38  H   UNL     1     -47.610  34.834  24.913  1.00  0.00     0.069 H 
ATOM     39  C   UNL     1     -45.963  35.259  27.824  1.00  0.00     0.001 A 
ATOM     40  H   UNL     1     -45.256  33.656  29.105  1.00  0.00     0.063 H 
ATOM     41  N   UNL     1     -46.841  36.856  26.245  1.00  0.00    -0.231 NA
ATOM     42  C   UNL     1     -45.502  36.310  28.620  1.00  0.00    -0.049 A 
ATOM     43  C   UNL     1     -46.398  37.868  27.025  1.00  0.00     0.129 A 
ATOM     44  C   UNL     1     -45.719  37.623  28.215  1.00  0.00    -0.019 A 
ATOM     45  H   UNL     1     -44.973  36.117  29.549  1.00  0.00     0.063 H 
ATOM     46  H   UNL     1     -45.351  38.442  28.820  1.00  0.00     0.066 H 
BRANCH  43  47
ATOM     47  N   UNL     1     -46.613  39.192  26.599  1.00  0.00    -0.356 N 
ATOM     48  C   UNL     1     -47.606  40.068  27.155  1.00  0.00     0.021 C 
ATOM     49  C   UNL     1     -45.633  40.236  26.533  1.00  0.00     0.021 C 
ATOM     50  C   UNL     1     -46.809  41.219  26.533  1.00  0.00    -0.018 C 
ATOM     51  H   UNL     1     -48.607  39.906  26.748  1.00  0.00     0.049 H 
ATOM     52  H   UNL     1     -47.624  40.057  28.250  1.00  0.00     0.049 H 
ATOM     53  H   UNL     1     -44.994  40.280  27.422  1.00  0.00     0.049 H 
ATOM     54  H   UNL     1     -45.031  40.217  25.622  1.00  0.00     0.049 H 
ATOM     55  H   UNL     1     -47.149  41.516  25.535  1.00  0.00     0.030 H 
ATOM     56  H   UNL     1     -46.688  42.107  27.158  1.00  0.00     0.030 H 
ENDBRANCH  43  47
ENDBRANCH  31  32
ENDBRANCH   1  31
TORSDOF 7
ENDMDL
MODEL 4
REMARK VINA RESULT:      -9.2      3.333      4.867
REMARK SMILES Nc1ncnc2c1ccn2[C@H]1C[C@H](O)[C@@H](COc2ccc3ccc(N4CCC4)nc3c2)O1
REMARK SMILES IDX 16 1 15 4 11 5 12 6 32 7 13 9 10 14 2 15 3 16 7 17 4 18 6 19
REMARK SMILES IDX 8 20 5 21 9 23 1 26 14 29 17 31 18 32 19 33 31 34 20 35
REMARK SMILES IDX 30 37 21 39 29 41 22 42 24 43 23 44 25 47 26 48 28 49 27 50
REMARK H PARENT 16 2 16 3 11 8 12 10 12 11 13 12 15 13 4 22 8 24 9 25 1 27
REMARK H PARENT 1 28 14 30 19 36 31 38 20 40 22 45 23 46 26 51 26 52 28 53
REMARK H PARENT 28 54 27 55 27 56
REMARK Flexibility Score: inf
ROOT
ATOM      1  C   UNL     1     -48.532  35.277  26.805  1.00  0.00     0.117 C 
ATOM      2  H   UNL     1     -49.436  34.656  26.752  1.00  0.00     0.073 H 
ATOM      3  H   UNL     1     -48.325  35.666  25.801  1.00  0.00     0.073 H 
ENDROOT
BRANCH   1   4
ATOM      4  C   UNL     1     -47.369  34.399  27.285  1.00  0.00     0.120 C 
ATOM      5  C   UNL     1     -46.985  32.568  25.862  1.00  0.00     0.138 C 
ATOM      6  C   UNL     1     -46.222  33.766  25.309  1.00  0.00     0.022 C 
ATOM      7  O   UNL     1     -47.688  33.011  27.052  1.00  0.00    -0.348 OA
ATOM      8  H   UNL     1     -46.307  31.767  26.178  1.00  0.00     0.085 H 
ATOM      9  C   UNL     1     -46.067  34.644  26.527  1.00  0.00     0.088 C 
ATOM     10  H   UNL     1     -46.805  34.286  24.539  1.00  0.00     0.034 H 
ATOM     11  H   UNL     1     -45.269  33.463  24.863  1.00  0.00     0.034 H 
ATOM     12  H   UNL     1     -45.884  35.691  26.278  1.00  0.00     0.063 H 
ATOM     13  H   UNL     1     -47.224  34.538  28.362  1.00  0.00     0.067 H 
BRANCH   5  14
ATOM     14  N   UNL     1     -47.924  31.988  24.912  1.00  0.00    -0.306 N 
ATOM     15  C   UNL     1     -48.479  30.119  21.957  1.00  0.00     0.136 A 
ATOM     16  N   UNL     1     -47.222  29.819  21.578  1.00  0.00    -0.219 NA
ATOM     17  C   UNL     1     -48.673  30.874  23.121  1.00  0.00     0.061 A 
ATOM     18  C   UNL     1     -46.204  30.252  22.345  1.00  0.00     0.120 A 
ATOM     19  C   UNL     1     -47.533  31.259  23.813  1.00  0.00     0.147 A 
ATOM     20  C   UNL     1     -49.786  31.387  23.845  1.00  0.00    -0.031 A 
ATOM     21  N   UNL     1     -46.263  30.982  23.473  1.00  0.00    -0.218 NA
ATOM     22  H   UNL     1     -45.208  29.981  22.007  1.00  0.00     0.106 H 
ATOM     23  C   UNL     1     -49.296  32.067  24.942  1.00  0.00     0.009 A 
ATOM     24  H   UNL     1     -50.831  31.262  23.597  1.00  0.00     0.065 H 
ATOM     25  H   UNL     1     -49.814  32.582  25.740  1.00  0.00     0.082 H 
BRANCH  15  26
ATOM     26  N   UNL     1     -49.514  29.670  21.150  1.00  0.00    -0.383 N 
ATOM     27  H   UNL     1     -50.162  30.386  20.854  1.00  0.00     0.158 HD
ATOM     28  H   UNL     1     -49.159  29.054  20.426  1.00  0.00     0.158 HD
ENDBRANCH  15  26
ENDBRANCH   5  14
BRANCH   9  29
ATOM     29  O   UNL     1     -44.941  34.181  27.282  1.00  0.00    -0.390 OA
ATOM     30  H   UNL     1     -44.133  34.599  26.932  1.00  0.00     0.211 HD
ENDBRANCH   9  29
ENDBRANCH   1   4
BRANCH   1  31
ATOM     31  O   UNL     1     -48.721  36.347  27.729  1.00  0.00    -0.491 OA
BRANCH  31  32
ATOM     32  C   UNL     1     -47.602  37.005  28.157  1.00  0.00     0.121 A 
ATOM     33  C   UNL     1     -47.126  36.594  29.401  1.00  0.00    -0.019 A 
ATOM     34  C   UNL     1     -46.931  38.019  27.469  1.00  0.00     0.007 A 
ATOM     35  C   UNL     1     -45.990  37.186  29.948  1.00  0.00    -0.049 A 
ATOM     36  H   UNL     1     -47.642  35.808  29.946  1.00  0.00     0.066 H 
ATOM     37  C   UNL     1     -45.796  38.628  27.992  1.00  0.00     0.076 A 
ATOM     38  H   UNL     1     -47.272  38.372  26.501  1.00  0.00     0.069 H 
ATOM     39  C   UNL     1     -45.322  38.202  29.247  1.00  0.00     0.001 A 
ATOM     40  H   UNL     1     -45.631  36.852  30.918  1.00  0.00     0.063 H 
ATOM     41  N   UNL     1     -45.190  39.598  27.285  1.00  0.00    -0.231 NA
ATOM     42  C   UNL     1     -44.178  38.821  29.756  1.00  0.00    -0.049 A 
ATOM     43  C   UNL     1     -44.087  40.197  27.789  1.00  0.00     0.129 A 
ATOM     44  C   UNL     1     -43.556  39.824  29.019  1.00  0.00    -0.019 A 
ATOM     45  H   UNL     1     -43.764  38.528  30.717  1.00  0.00     0.063 H 
ATOM     46  H   UNL     1     -42.660  40.297  29.401  1.00  0.00     0.066 H 
BRANCH  43  47
ATOM     47  N   UNL     1     -43.459  41.202  27.029  1.00  0.00    -0.356 N 
ATOM     48  C   UNL     1     -44.070  42.456  26.686  1.00  0.00     0.021 C 
ATOM     49  C   UNL     1     -42.195  41.818  27.308  1.00  0.00     0.021 C 
ATOM     50  C   UNL     1     -42.652  42.965  26.400  1.00  0.00    -0.018 C 
ATOM     51  H   UNL     1     -44.737  42.394  25.823  1.00  0.00     0.049 H 
ATOM     52  H   UNL     1     -44.570  42.936  27.533  1.00  0.00     0.049 H 
ATOM     53  H   UNL     1     -42.073  42.085  28.364  1.00  0.00     0.049 H 
ATOM     54  H   UNL     1     -41.338  41.244  26.951  1.00  0.00     0.049 H 
ATOM     55  H   UNL     1     -42.339  42.866  25.355  1.00  0.00     0.030 H 
ATOM     56  H   UNL     1     -42.428  43.974  26.756  1.00  0.00     0.030 H 
ENDBRANCH  43  47
ENDBRANCH  31  32
ENDBRANCH   1  31
TORSDOF 7
ENDMDL
MODEL 5
REMARK VINA RESULT:      -9.2      6.138      8.962
REMARK SMILES Nc1ncnc2c1ccn2[C@H]1C[C@H](O)[C@@H](COc2ccc3ccc(N4CCC4)nc3c2)O1
REMARK SMILES IDX 16 1 15 4 11 5 12 6 32 7 13 9 10 14 2 15 3 16 7 17 4 18 6 19
REMARK SMILES IDX 8 20 5 21 9 23 1 26 14 29 17 31 18 32 19 33 31 34 20 35
REMARK SMILES IDX 30 37 21 39 29 41 22 42 24 43 23 44 25 47 26 48 28 49 27 50
REMARK H PARENT 16 2 16 3 11 8 12 10 12 11 13 12 15 13 4 22 8 24 9 25 1 27
REMARK H PARENT 1 28 14 30 19 36 31 38 20 40 22 45 23 46 26 51 26 52 28 53
REMARK H PARENT 28 54 27 55 27 56
REMARK Flexibility Score: inf
ROOT
ATOM      1  C   UNL     1     -45.111  36.204  28.141  1.00  0.00     0.117 C 
ATOM      2  H   UNL     1     -45.272  36.657  27.155  1.00  0.00     0.073 H 
ATOM      3  H   UNL     1     -44.105  35.767  28.156  1.00  0.00     0.073 H 
ENDROOT
BRANCH   1   4
ATOM      4  C   UNL     1     -46.166  35.111  28.352  1.00  0.00     0.120 C 
ATOM      5  C   UNL     1     -48.351  35.895  27.984  1.00  0.00     0.138 C 
ATOM      6  C   UNL     1     -47.769  35.467  26.641  1.00  0.00     0.022 C 
ATOM      7  O   UNL     1     -47.328  35.683  28.990  1.00  0.00    -0.348 OA
ATOM      8  H   UNL     1     -49.208  35.274  28.270  1.00  0.00     0.085 H 
ATOM      9  C   UNL     1     -46.683  34.502  27.051  1.00  0.00     0.088 C 
ATOM     10  H   UNL     1     -47.336  36.321  26.108  1.00  0.00     0.034 H 
ATOM     11  H   UNL     1     -48.534  35.019  25.999  1.00  0.00     0.034 H 
ATOM     12  H   UNL     1     -45.918  34.370  26.283  1.00  0.00     0.063 H 
ATOM     13  H   UNL     1     -45.764  34.334  29.012  1.00  0.00     0.067 H 
BRANCH   5  14
ATOM     14  N   UNL     1     -48.797  37.282  28.007  1.00  0.00    -0.306 N 
ATOM     15  C   UNL     1     -51.397  39.619  28.562  1.00  0.00     0.136 A 
ATOM     16  N   UNL     1     -52.418  38.818  28.926  1.00  0.00    -0.219 NA
ATOM     17  C   UNL     1     -50.159  39.040  28.253  1.00  0.00     0.061 A 
ATOM     18  C   UNL     1     -52.197  37.491  28.986  1.00  0.00     0.120 A 
ATOM     19  C   UNL     1     -50.074  37.658  28.351  1.00  0.00     0.147 A 
ATOM     20  C   UNL     1     -48.878  39.503  27.843  1.00  0.00    -0.031 A 
ATOM     21  N   UNL     1     -51.063  36.822  28.711  1.00  0.00    -0.218 NA
ATOM     22  H   UNL     1     -53.044  36.885  29.290  1.00  0.00     0.106 H 
ATOM     23  C   UNL     1     -48.059  38.400  27.701  1.00  0.00     0.009 A 
ATOM     24  H   UNL     1     -48.582  40.530  27.682  1.00  0.00     0.065 H 
ATOM     25  H   UNL     1     -47.016  38.329  27.423  1.00  0.00     0.082 H 
BRANCH  15  26
ATOM     26  N   UNL     1     -51.646  40.982  28.500  1.00  0.00    -0.383 N 
ATOM     27  H   UNL     1     -52.604  41.246  28.682  1.00  0.00     0.158 HD
ATOM     28  H   UNL     1     -50.933  41.498  29.002  1.00  0.00     0.158 HD
ENDBRANCH  15  26
ENDBRANCH   5  14
BRANCH   9  29
ATOM     29  O   UNL     1     -47.277  33.219  27.287  1.00  0.00    -0.390 OA
ATOM     30  H   UNL     1     -48.152  33.194  26.858  1.00  0.00     0.211 HD
ENDBRANCH   9  29
ENDBRANCH   1   4
BRANCH   1  31
ATOM     31  O   UNL     1     -45.246  37.187  29.166  1.00  0.00    -0.491 OA
BRANCH  31  32
ATOM     32  C   UNL     1     -44.566  38.361  28.996  1.00  0.00     0.121 A 
ATOM     33  C   UNL     1     -43.699  38.686  30.037  1.00  0.00    -0.019 A 
ATOM     34  C   UNL     1     -44.675  39.224  27.903  1.00  0.00     0.007 A 
ATOM     35  C   UNL     1     -42.946  39.856  29.984  1.00  0.00    -0.049 A 
ATOM     36  H   UNL     1     -43.608  38.023  30.894  1.00  0.00     0.066 H 
ATOM     37  C   UNL     1     -43.937  40.399  27.824  1.00  0.00     0.076 A 
ATOM     38  H   UNL     1     -45.342  39.010  27.074  1.00  0.00     0.069 H 
ATOM     39  C   UNL     1     -43.061  40.714  28.879  1.00  0.00     0.001 A 
ATOM     40  H   UNL     1     -42.272  40.094  30.804  1.00  0.00     0.063 H 
ATOM     41  N   UNL     1     -44.082  41.191  26.747  1.00  0.00    -0.231 NA
ATOM     42  C   UNL     1     -42.323  41.897  28.783  1.00  0.00    -0.049 A 
ATOM     43  C   UNL     1     -43.369  42.338  26.665  1.00  0.00     0.129 A 
ATOM     44  C   UNL     1     -42.478  42.712  27.666  1.00  0.00    -0.019 A 
ATOM     45  H   UNL     1     -41.628  42.187  29.565  1.00  0.00     0.063 H 
ATOM     46  H   UNL     1     -41.898  43.622  27.578  1.00  0.00     0.066 H 
BRANCH  43  47
ATOM     47  N   UNL     1     -43.524  43.148  25.524  1.00  0.00    -0.356 N 
ATOM     48  C   UNL     1     -42.465  43.911  24.926  1.00  0.00     0.021 C 
ATOM     49  C   UNL     1     -44.040  42.739  24.251  1.00  0.00     0.021 C 
ATOM     50  C   UNL     1     -43.342  43.974  23.670  1.00  0.00    -0.018 C 
ATOM     51  H   UNL     1     -42.277  44.864  25.425  1.00  0.00     0.049 H 
ATOM     52  H   UNL     1     -41.537  43.341  24.812  1.00  0.00     0.049 H 
ATOM     53  H   UNL     1     -43.635  41.778  23.914  1.00  0.00     0.049 H 
ATOM     54  H   UNL     1     -45.130  42.742  24.197  1.00  0.00     0.049 H 
ATOM     55  H   UNL     1     -43.977  44.864  23.608  1.00  0.00     0.030 H 
ATOM     56  H   UNL     1     -42.824  43.826  22.720  1.00  0.00     0.030 H 
ENDBRANCH  43  47
ENDBRANCH  31  32
ENDBRANCH   1  31
TORSDOF 7
ENDMDL
MODEL 6
REMARK VINA RESULT:      -9.1      1.521      2.115
REMARK SMILES Nc1ncnc2c1ccn2[C@H]1C[C@H](O)[C@@H](COc2ccc3ccc(N4CCC4)nc3c2)O1
REMARK SMILES IDX 16 1 15 4 11 5 12 6 32 7 13 9 10 14 2 15 3 16 7 17 4 18 6 19
REMARK SMILES IDX 8 20 5 21 9 23 1 26 14 29 17 31 18 32 19 33 31 34 20 35
REMARK SMILES IDX 30 37 21 39 29 41 22 42 24 43 23 44 25 47 26 48 28 49 27 50
REMARK H PARENT 16 2 16 3 11 8 12 10 12 11 13 12 15 13 4 22 8 24 9 25 1 27
REMARK H PARENT 1 28 14 30 19 36 31 38 20 40 22 45 23 46 26 51 26 52 28 53
REMARK H PARENT 28 54 27 55 27 56
REMARK Flexibility Score: inf
ROOT
ATOM      1  C   UNL     1     -47.362  31.232  24.393  1.00  0.00     0.117 C 
ATOM      2  H   UNL     1     -46.621  30.434  24.529  1.00  0.00     0.073 H 
ATOM      3  H   UNL     1     -48.050  31.209  25.247  1.00  0.00     0.073 H 
ENDROOT
BRANCH   1   4
ATOM      4  C   UNL     1     -48.126  30.968  23.089  1.00  0.00     0.120 C 
ATOM      5  C   UNL     1     -49.517  29.079  23.235  1.00  0.00     0.138 C 
ATOM      6  C   UNL     1     -50.289  30.278  23.774  1.00  0.00     0.022 C 
ATOM      7  O   UNL     1     -48.197  29.545  22.855  1.00  0.00    -0.348 OA
ATOM      8  H   UNL     1     -49.981  28.673  22.328  1.00  0.00     0.085 H 
ATOM      9  C   UNL     1     -49.578  31.441  23.126  1.00  0.00     0.088 C 
ATOM     10  H   UNL     1     -50.206  30.344  24.865  1.00  0.00     0.034 H 
ATOM     11  H   UNL     1     -51.352  30.217  23.519  1.00  0.00     0.034 H 
ATOM     12  H   UNL     1     -49.729  32.383  23.656  1.00  0.00     0.063 H 
ATOM     13  H   UNL     1     -47.590  31.425  22.250  1.00  0.00     0.067 H 
BRANCH   5  14
ATOM     14  N   UNL     1     -49.406  27.983  24.189  1.00  0.00    -0.306 N 
ATOM     15  C   UNL     1     -47.379  25.599  25.842  1.00  0.00     0.136 A 
ATOM     16  N   UNL     1     -46.160  25.873  25.337  1.00  0.00    -0.219 NA
ATOM     17  C   UNL     1     -48.475  26.358  25.414  1.00  0.00     0.061 A 
ATOM     18  C   UNL     1     -46.050  26.876  24.446  1.00  0.00     0.120 A 
ATOM     19  C   UNL     1     -48.217  27.359  24.486  1.00  0.00     0.147 A 
ATOM     20  C   UNL     1     -49.871  26.398  25.684  1.00  0.00    -0.031 A 
ATOM     21  N   UNL     1     -47.021  27.667  23.958  1.00  0.00    -0.218 NA
ATOM     22  H   UNL     1     -45.048  27.067  24.071  1.00  0.00     0.106 H 
ATOM     23  C   UNL     1     -50.419  27.407  24.918  1.00  0.00     0.009 A 
ATOM     24  H   UNL     1     -50.414  25.765  26.373  1.00  0.00     0.065 H 
ATOM     25  H   UNL     1     -51.438  27.765  24.849  1.00  0.00     0.082 H 
BRANCH  15  26
ATOM     26  N   UNL     1     -47.472  24.557  26.753  1.00  0.00    -0.383 N 
ATOM     27  H   UNL     1     -47.044  23.693  26.454  1.00  0.00     0.158 HD
ATOM     28  H   UNL     1     -47.238  24.877  27.686  1.00  0.00     0.158 HD
ENDBRANCH  15  26
ENDBRANCH   5  14
BRANCH   9  29
ATOM     29  O   UNL     1     -50.094  31.609  21.799  1.00  0.00    -0.390 OA
ATOM     30  H   UNL     1     -50.439  30.754  21.485  1.00  0.00     0.211 HD
ENDBRANCH   9  29
ENDBRANCH   1   4
BRANCH   1  31
ATOM     31  O   UNL     1     -46.714  32.500  24.305  1.00  0.00    -0.491 OA
BRANCH  31  32
ATOM     32  C   UNL     1     -46.980  33.405  25.294  1.00  0.00     0.121 A 
ATOM     33  C   UNL     1     -48.314  33.455  25.692  1.00  0.00    -0.019 A 
ATOM     34  C   UNL     1     -46.052  34.252  25.906  1.00  0.00     0.007 A 
ATOM     35  C   UNL     1     -48.715  34.336  26.694  1.00  0.00    -0.049 A 
ATOM     36  H   UNL     1     -49.046  32.803  25.221  1.00  0.00     0.066 H 
ATOM     37  C   UNL     1     -46.424  35.141  26.907  1.00  0.00     0.076 A 
ATOM     38  H   UNL     1     -45.005  34.248  25.621  1.00  0.00     0.069 H 
ATOM     39  C   UNL     1     -47.774  35.179  27.304  1.00  0.00     0.001 A 
ATOM     40  H   UNL     1     -49.760  34.360  26.994  1.00  0.00     0.063 H 
ATOM     41  N   UNL     1     -45.488  35.931  27.461  1.00  0.00    -0.231 NA
ATOM     42  C   UNL     1     -48.131  36.076  28.314  1.00  0.00    -0.049 A 
ATOM     43  C   UNL     1     -45.844  36.801  28.433  1.00  0.00     0.129 A 
ATOM     44  C   UNL     1     -47.157  36.890  28.884  1.00  0.00    -0.019 A 
ATOM     45  H   UNL     1     -49.157  36.144  28.664  1.00  0.00     0.063 H 
ATOM     46  H   UNL     1     -47.425  37.576  29.678  1.00  0.00     0.066 H 
BRANCH  43  47
ATOM     47  N   UNL     1     -44.848  37.611  29.011  1.00  0.00    -0.356 N 
ATOM     48  C   UNL     1     -44.611  38.981  28.650  1.00  0.00     0.021 C 
ATOM     49  C   UNL     1     -44.670  37.879  30.408  1.00  0.00     0.021 C 
ATOM     50  C   UNL     1     -43.860  39.107  29.980  1.00  0.00    -0.018 C 
ATOM     51  H   UNL     1     -44.007  39.096  27.747  1.00  0.00     0.049 H 
ATOM     52  H   UNL     1     -45.531  39.572  28.582  1.00  0.00     0.049 H 
ATOM     53  H   UNL     1     -45.610  38.103  30.924  1.00  0.00     0.049 H 
ATOM     54  H   UNL     1     -44.111  37.104  30.936  1.00  0.00     0.049 H 
ATOM     55  H   UNL     1     -42.780  38.933  29.907  1.00  0.00     0.030 H 
ATOM     56  H   UNL     1     -44.046  40.023  30.547  1.00  0.00     0.030 H 
ENDBRANCH  43  47
ENDBRANCH  31  32
ENDBRANCH   1  31
TORSDOF 7
ENDMDL
MODEL 7
REMARK VINA RESULT:      -8.8      3.300      6.488
REMARK SMILES Nc1ncnc2c1ccn2[C@H]1C[C@H](O)[C@@H](COc2ccc3ccc(N4CCC4)nc3c2)O1
REMARK SMILES IDX 16 1 15 4 11 5 12 6 32 7 13 9 10 14 2 15 3 16 7 17 4 18 6 19
REMARK SMILES IDX 8 20 5 21 9 23 1 26 14 29 17 31 18 32 19 33 31 34 20 35
REMARK SMILES IDX 30 37 21 39 29 41 22 42 24 43 23 44 25 47 26 48 28 49 27 50
REMARK H PARENT 16 2 16 3 11 8 12 10 12 11 13 12 15 13 4 22 8 24 9 25 1 27
REMARK H PARENT 1 28 14 30 19 36 31 38 20 40 22 45 23 46 26 51 26 52 28 53
REMARK H PARENT 28 54 27 55 27 56
REMARK Flexibility Score: inf
ROOT
ATOM      1  C   UNL     1     -47.188  36.882  26.856  1.00  0.00     0.117 C 
ATOM      2  H   UNL     1     -47.888  36.643  26.045  1.00  0.00     0.073 H 
ATOM      3  H   UNL     1     -46.167  36.769  26.470  1.00  0.00     0.073 H 
ENDROOT
BRANCH   1   4
ATOM      4  C   UNL     1     -47.430  35.904  28.012  1.00  0.00     0.120 C 
ATOM      5  C   UNL     1     -46.926  33.684  27.425  1.00  0.00     0.138 C 
ATOM      6  C   UNL     1     -45.638  34.355  27.891  1.00  0.00     0.022 C 
ATOM      7  O   UNL     1     -47.983  34.676  27.493  1.00  0.00    -0.348 OA
ATOM      8  H   UNL     1     -47.220  32.865  28.092  1.00  0.00     0.085 H 
ATOM      9  C   UNL     1     -46.153  35.491  28.741  1.00  0.00     0.088 C 
ATOM     10  H   UNL     1     -45.066  34.746  27.041  1.00  0.00     0.034 H 
ATOM     11  H   UNL     1     -44.998  33.655  28.437  1.00  0.00     0.034 H 
ATOM     12  H   UNL     1     -45.426  36.297  28.861  1.00  0.00     0.063 H 
ATOM     13  H   UNL     1     -48.155  36.334  28.712  1.00  0.00     0.067 H 
BRANCH   5  14
ATOM     14  N   UNL     1     -46.840  33.134  26.079  1.00  0.00    -0.306 N 
ATOM     15  C   UNL     1     -47.729  30.592  23.782  1.00  0.00     0.136 A 
ATOM     16  N   UNL     1     -48.513  29.798  24.536  1.00  0.00    -0.219 NA
ATOM     17  C   UNL     1     -47.170  31.739  24.361  1.00  0.00     0.061 A 
ATOM     18  C   UNL     1     -48.734  30.151  25.817  1.00  0.00     0.120 A 
ATOM     19  C   UNL     1     -47.478  31.979  25.694  1.00  0.00     0.147 A 
ATOM     20  C   UNL     1     -46.324  32.801  23.937  1.00  0.00    -0.031 A 
ATOM     21  N   UNL     1     -48.255  31.217  26.482  1.00  0.00    -0.218 NA
ATOM     22  H   UNL     1     -49.379  29.487  26.386  1.00  0.00     0.106 H 
ATOM     23  C   UNL     1     -46.138  33.645  25.013  1.00  0.00     0.009 A 
ATOM     24  H   UNL     1     -45.906  32.939  22.949  1.00  0.00     0.065 H 
ATOM     25  H   UNL     1     -45.578  34.567  25.096  1.00  0.00     0.082 H 
BRANCH  15  26
ATOM     26  N   UNL     1     -47.508  30.208  22.468  1.00  0.00    -0.383 N 
ATOM     27  H   UNL     1     -47.018  29.331  22.359  1.00  0.00     0.158 HD
ATOM     28  H   UNL     1     -48.349  30.326  21.915  1.00  0.00     0.158 HD
ENDBRANCH  15  26
ENDBRANCH   5  14
BRANCH   9  29
ATOM     29  O   UNL     1     -46.451  34.985  30.048  1.00  0.00    -0.390 OA
ATOM     30  H   UNL     1     -45.623  34.683  30.464  1.00  0.00     0.211 HD
ENDBRANCH   9  29
ENDBRANCH   1   4
BRANCH   1  31
ATOM     31  O   UNL     1     -47.404  38.214  27.319  1.00  0.00    -0.491 OA
BRANCH  31  32
ATOM     32  C   UNL     1     -46.330  39.060  27.303  1.00  0.00     0.121 A 
ATOM     33  C   UNL     1     -45.404  38.844  28.322  1.00  0.00    -0.019 A 
ATOM     34  C   UNL     1     -46.104  40.086  26.381  1.00  0.00     0.007 A 
ATOM     35  C   UNL     1     -44.265  39.639  28.415  1.00  0.00    -0.049 A 
ATOM     36  H   UNL     1     -45.571  38.051  29.047  1.00  0.00     0.066 H 
ATOM     37  C   UNL     1     -44.976  40.895  26.451  1.00  0.00     0.076 A 
ATOM     38  H   UNL     1     -46.803  40.291  25.576  1.00  0.00     0.069 H 
ATOM     39  C   UNL     1     -44.047  40.664  27.482  1.00  0.00     0.001 A 
ATOM     40  H   UNL     1     -43.551  39.455  29.215  1.00  0.00     0.063 H 
ATOM     41  N   UNL     1     -44.811  41.866  25.537  1.00  0.00    -0.231 NA
ATOM     42  C   UNL     1     -42.916  41.484  27.536  1.00  0.00    -0.049 A 
ATOM     43  C   UNL     1     -43.717  42.660  25.600  1.00  0.00     0.129 A 
ATOM     44  C   UNL     1     -42.751  42.486  26.586  1.00  0.00    -0.019 A 
ATOM     45  H   UNL     1     -42.163  41.347  28.306  1.00  0.00     0.063 H 
ATOM     46  H   UNL     1     -41.870  43.115  26.613  1.00  0.00     0.066 H 
BRANCH  43  47
ATOM     47  N   UNL     1     -43.554  43.663  24.626  1.00  0.00    -0.356 N 
ATOM     48  C   UNL     1     -44.109  43.602  23.303  1.00  0.00     0.021 C 
ATOM     49  C   UNL     1     -43.878  45.052  24.769  1.00  0.00     0.021 C 
ATOM     50  C   UNL     1     -43.890  45.117  23.239  1.00  0.00    -0.018 C 
ATOM     51  H   UNL     1     -43.515  43.004  22.608  1.00  0.00     0.049 H 
ATOM     52  H   UNL     1     -45.157  43.286  23.291  1.00  0.00     0.049 H 
ATOM     53  H   UNL     1     -44.851  45.217  25.247  1.00  0.00     0.049 H 
ATOM     54  H   UNL     1     -43.098  45.636  25.263  1.00  0.00     0.049 H 
ATOM     55  H   UNL     1     -42.936  45.417  22.792  1.00  0.00     0.030 H 
ATOM     56  H   UNL     1     -44.702  45.697  22.792  1.00  0.00     0.030 H 
ENDBRANCH  43  47
ENDBRANCH  31  32
ENDBRANCH   1  31
TORSDOF 7
ENDMDL
