MODEL 1
REMARK VINA RESULT:     -10.0      0.000      0.000
REMARK SMILES CNc1ccc2ccc(OCc3nnc(-n4cc(Cl)c5c(N)ncnc54)s3)cc2n1
REMARK SMILES IDX 11 1 10 4 9 5 3 6 4 7 30 8 5 9 29 11 6 12 28 14 7 15 8 17
REMARK SMILES IDX 2 20 1 22 12 26 13 27 27 28 14 29 15 30 16 31 17 32 26 33
REMARK SMILES IDX 18 34 20 36 25 37 19 38 21 39 24 40 23 41 22 43
REMARK H PARENT 11 2 11 3 4 10 5 13 28 16 7 18 8 19 2 21 1 23 1 24 1 25 17 35
REMARK H PARENT 24 42 22 44 22 45
REMARK Flexibility Score: inf
ROOT
ATOM      1  C   UNL     1     -47.020  37.204  27.132  1.00  0.00     0.142 C 
ATOM      2  H   UNL     1     -47.841  37.929  27.069  1.00  0.00     0.078 H 
ATOM      3  H   UNL     1     -46.237  37.464  26.410  1.00  0.00     0.078 H 
ENDROOT
BRANCH   1   4
ATOM      4  O   UNL     1     -46.496  37.170  28.460  1.00  0.00    -0.486 OA
BRANCH   4   5
ATOM      5  C   UNL     1     -45.472  38.030  28.747  1.00  0.00     0.122 A 
ATOM      6  C   UNL     1     -42.621  41.748  27.916  1.00  0.00     0.126 A 
ATOM      7  C   UNL     1     -41.913  41.529  29.092  1.00  0.00    -0.019 A 
ATOM      8  N   UNL     1     -43.642  40.948  27.547  1.00  0.00    -0.231 NA
ATOM      9  C   UNL     1     -42.276  40.474  29.922  1.00  0.00    -0.049 A 
ATOM     10  H   UNL     1     -41.075  42.165  29.355  1.00  0.00     0.066 H 
ATOM     11  C   UNL     1     -43.999  39.925  28.344  1.00  0.00     0.076 A 
ATOM     12  C   UNL     1     -43.340  39.648  29.556  1.00  0.00     0.001 A 
ATOM     13  H   UNL     1     -41.723  40.302  30.841  1.00  0.00     0.063 H 
ATOM     14  C   UNL     1     -45.057  39.108  27.962  1.00  0.00     0.007 A 
ATOM     15  C   UNL     1     -43.749  38.569  30.354  1.00  0.00    -0.049 A 
ATOM     16  H   UNL     1     -45.545  39.351  27.023  1.00  0.00     0.069 H 
ATOM     17  C   UNL     1     -44.814  37.767  29.947  1.00  0.00    -0.019 A 
ATOM     18  H   UNL     1     -43.245  38.348  31.292  1.00  0.00     0.063 H 
ATOM     19  H   UNL     1     -45.130  36.932  30.568  1.00  0.00     0.066 H 
BRANCH   6  20
ATOM     20  N   UNL     1     -42.207  42.807  27.087  1.00  0.00    -0.373 N 
ATOM     21  H   UNL     1     -41.881  43.572  27.670  1.00  0.00     0.161 HD
BRANCH  20  22
ATOM     22  C   UNL     1     -43.211  43.246  26.131  1.00  0.00     0.005 C 
ATOM     23  H   UNL     1     -42.765  43.819  25.312  1.00  0.00     0.045 H 
ATOM     24  H   UNL     1     -43.994  43.839  26.615  1.00  0.00     0.045 H 
ATOM     25  H   UNL     1     -43.693  42.365  25.695  1.00  0.00     0.045 H 
ENDBRANCH  20  22
ENDBRANCH   6  20
ENDBRANCH   4   5
ENDBRANCH   1   4
BRANCH   1  26
ATOM     26  C   UNL     1     -47.549  35.839  26.829  1.00  0.00     0.156 A 
ATOM     27  N   UNL     1     -48.747  35.400  27.166  1.00  0.00    -0.138 NA
ATOM     28  S   UNL     1     -46.611  34.694  25.948  1.00  0.00    -0.075 S 
ATOM     29  N   UNL     1     -48.963  34.103  26.743  1.00  0.00    -0.119 NA
ATOM     30  C   UNL     1     -47.920  33.621  26.100  1.00  0.00     0.218 A 
BRANCH  30  31
ATOM     31  N   UNL     1     -47.898  32.321  25.579  1.00  0.00    -0.274 N 
ATOM     32  C   UNL     1     -48.621  31.271  26.132  1.00  0.00     0.033 A 
ATOM     33  C   UNL     1     -47.209  31.807  24.479  1.00  0.00     0.153 A 
ATOM     34  C   UNL     1     -48.399  30.130  25.405  1.00  0.00     0.072 A 
ATOM     35  H   UNL     1     -49.236  31.439  27.008  1.00  0.00     0.084 H 
ATOM     36  C   UNL     1     -47.510  30.451  24.352  1.00  0.00     0.080 A 
ATOM     37  N   UNL     1     -46.385  32.494  23.663  1.00  0.00    -0.218 NA
ATOM     38  Cl  UNL     1     -49.071  28.602  25.723  1.00  0.00    -0.082 Cl
ATOM     39  C   UNL     1     -46.907  29.762  23.289  1.00  0.00     0.137 A 
ATOM     40  C   UNL     1     -45.864  31.734  22.691  1.00  0.00     0.120 A 
ATOM     41  N   UNL     1     -46.073  30.427  22.469  1.00  0.00    -0.219 NA
ATOM     42  H   UNL     1     -45.190  32.232  22.001  1.00  0.00     0.106 H 
BRANCH  39  43
ATOM     43  N   UNL     1     -47.108  28.419  23.021  1.00  0.00    -0.383 N 
ATOM     44  H   UNL     1     -46.767  27.827  23.767  1.00  0.00     0.158 HD
ATOM     45  H   UNL     1     -47.992  28.173  22.597  1.00  0.00     0.158 HD
ENDBRANCH  39  43
ENDBRANCH  30  31
ENDBRANCH   1  26
TORSDOF 7
ENDMDL
MODEL 2
REMARK VINA RESULT:      -9.9      1.733      2.473
REMARK SMILES CNc1ccc2ccc(OCc3nnc(-n4cc(Cl)c5c(N)ncnc54)s3)cc2n1
REMARK SMILES IDX 11 1 10 4 9 5 3 6 4 7 30 8 5 9 29 11 6 12 28 14 7 15 8 17
REMARK SMILES IDX 2 20 1 22 12 26 13 27 27 28 14 29 15 30 16 31 17 32 26 33
REMARK SMILES IDX 18 34 20 36 25 37 19 38 21 39 24 40 23 41 22 43
REMARK H PARENT 11 2 11 3 4 10 5 13 28 16 7 18 8 19 2 21 1 23 1 24 1 25 17 35
REMARK H PARENT 24 42 22 44 22 45
REMARK Flexibility Score: inf
ROOT
ATOM      1  C   UNL     1     -45.470  35.510  28.014  1.00  0.00     0.142 C 
ATOM      2  H   UNL     1     -44.641  35.840  27.376  1.00  0.00     0.078 H 
ATOM      3  H   UNL     1     -45.093  35.241  29.007  1.00  0.00     0.078 H 
ENDROOT
BRANCH   1   4
ATOM      4  O   UNL     1     -46.458  36.538  28.107  1.00  0.00    -0.486 OA
BRANCH   4   5
ATOM      5  C   UNL     1     -46.096  37.788  27.687  1.00  0.00     0.122 A 
ATOM      6  C   UNL     1     -43.344  41.670  27.615  1.00  0.00     0.126 A 
ATOM      7  C   UNL     1     -44.159  42.289  26.675  1.00  0.00    -0.019 A 
ATOM      8  N   UNL     1     -43.624  40.439  28.092  1.00  0.00    -0.231 NA
ATOM      9  C   UNL     1     -45.280  41.619  26.194  1.00  0.00    -0.049 A 
ATOM     10  H   UNL     1     -43.933  43.291  26.326  1.00  0.00     0.066 H 
ATOM     11  C   UNL     1     -44.707  39.786  27.634  1.00  0.00     0.076 A 
ATOM     12  C   UNL     1     -45.572  40.340  26.672  1.00  0.00     0.001 A 
ATOM     13  H   UNL     1     -45.918  42.102  25.460  1.00  0.00     0.063 H 
ATOM     14  C   UNL     1     -44.986  38.515  28.124  1.00  0.00     0.007 A 
ATOM     15  C   UNL     1     -46.688  39.619  26.225  1.00  0.00    -0.049 A 
ATOM     16  H   UNL     1     -44.297  38.116  28.863  1.00  0.00     0.069 H 
ATOM     17  C   UNL     1     -46.944  38.346  26.732  1.00  0.00    -0.019 A 
ATOM     18  H   UNL     1     -47.362  40.040  25.482  1.00  0.00     0.063 H 
ATOM     19  H   UNL     1     -47.810  37.788  26.384  1.00  0.00     0.066 H 
BRANCH   6  20
ATOM     20  N   UNL     1     -42.235  42.389  28.099  1.00  0.00    -0.373 N 
ATOM     21  H   UNL     1     -41.552  42.479  27.352  1.00  0.00     0.161 HD
BRANCH  20  22
ATOM     22  C   UNL     1     -41.645  41.836  29.307  1.00  0.00     0.005 C 
ATOM     23  H   UNL     1     -41.466  40.760  29.213  1.00  0.00     0.045 H 
ATOM     24  H   UNL     1     -42.270  42.032  30.185  1.00  0.00     0.045 H 
ATOM     25  H   UNL     1     -40.678  42.319  29.481  1.00  0.00     0.045 H 
ENDBRANCH  20  22
ENDBRANCH   6  20
ENDBRANCH   4   5
ENDBRANCH   1   4
BRANCH   1  26
ATOM     26  C   UNL     1     -46.126  34.322  27.386  1.00  0.00     0.156 A 
ATOM     27  N   UNL     1     -46.308  33.158  27.979  1.00  0.00    -0.138 NA
ATOM     28  S   UNL     1     -46.754  34.393  25.784  1.00  0.00    -0.075 S 
ATOM     29  N   UNL     1     -46.953  32.252  27.158  1.00  0.00    -0.119 NA
ATOM     30  C   UNL     1     -47.233  32.775  25.983  1.00  0.00     0.218 A 
BRANCH  30  31
ATOM     31  N   UNL     1     -47.882  32.048  24.976  1.00  0.00    -0.274 N 
ATOM     32  C   UNL     1     -49.262  31.894  24.924  1.00  0.00     0.033 A 
ATOM     33  C   UNL     1     -47.353  31.363  23.882  1.00  0.00     0.153 A 
ATOM     34  C   UNL     1     -49.596  31.138  23.830  1.00  0.00     0.072 A 
ATOM     35  H   UNL     1     -49.887  32.344  25.686  1.00  0.00     0.084 H 
ATOM     36  C   UNL     1     -48.400  30.796  23.156  1.00  0.00     0.080 A 
ATOM     37  N   UNL     1     -46.047  31.258  23.562  1.00  0.00    -0.218 NA
ATOM     38  Cl  UNL     1     -51.170  30.689  23.375  1.00  0.00    -0.082 Cl
ATOM     39  C   UNL     1     -48.056  30.067  22.007  1.00  0.00     0.137 A 
ATOM     40  C   UNL     1     -45.840  30.536  22.454  1.00  0.00     0.120 A 
ATOM     41  N   UNL     1     -46.759  29.940  21.677  1.00  0.00    -0.219 NA
ATOM     42  H   UNL     1     -44.805  30.414  22.146  1.00  0.00     0.106 H 
BRANCH  39  43
ATOM     43  N   UNL     1     -48.975  29.450  21.176  1.00  0.00    -0.383 N 
ATOM     44  H   UNL     1     -48.681  29.460  20.208  1.00  0.00     0.158 HD
ATOM     45  H   UNL     1     -49.398  28.600  21.526  1.00  0.00     0.158 HD
ENDBRANCH  39  43
ENDBRANCH  30  31
ENDBRANCH   1  26
TORSDOF 7
ENDMDL
MODEL 3
REMARK VINA RESULT:      -9.5      3.315     10.851
REMARK SMILES CNc1ccc2ccc(OCc3nnc(-n4cc(Cl)c5c(N)ncnc54)s3)cc2n1
REMARK SMILES IDX 11 1 10 4 9 5 3 6 4 7 30 8 5 9 29 11 6 12 28 14 7 15 8 17
REMARK SMILES IDX 2 20 1 22 12 26 13 27 27 28 14 29 15 30 16 31 17 32 26 33
REMARK SMILES IDX 18 34 20 36 25 37 19 38 21 39 24 40 23 41 22 43
REMARK H PARENT 11 2 11 3 4 10 5 13 28 16 7 18 8 19 2 21 1 23 1 24 1 25 17 35
REMARK H PARENT 24 42 22 44 22 45
REMARK Flexibility Score: inf
ROOT
ATOM      1  C   UNL     1     -48.914  34.091  26.519  1.00  0.00     0.142 C 
ATOM      2  H   UNL     1     -49.138  34.173  25.449  1.00  0.00     0.078 H 
ATOM      3  H   UNL     1     -49.833  33.873  27.076  1.00  0.00     0.078 H 
ENDROOT
BRANCH   1   4
ATOM      4  O   UNL     1     -47.934  33.074  26.739  1.00  0.00    -0.486 OA
BRANCH   4   5
ATOM      5  C   UNL     1     -47.913  32.028  25.859  1.00  0.00     0.122 A 
ATOM      6  C   UNL     1     -49.039  27.658  24.350  1.00  0.00     0.126 A 
ATOM      7  C   UNL     1     -48.298  27.818  23.185  1.00  0.00    -0.019 A 
ATOM      8  N   UNL     1     -49.113  28.633  25.279  1.00  0.00    -0.231 NA
ATOM      9  C   UNL     1     -47.634  29.018  22.956  1.00  0.00    -0.049 A 
ATOM     10  H   UNL     1     -48.227  27.010  22.464  1.00  0.00     0.066 H 
ATOM     11  C   UNL     1     -48.472  29.796  25.066  1.00  0.00     0.076 A 
ATOM     12  C   UNL     1     -47.714  30.038  23.905  1.00  0.00     0.001 A 
ATOM     13  H   UNL     1     -47.054  29.143  22.046  1.00  0.00     0.063 H 
ATOM     14  C   UNL     1     -48.558  30.800  26.024  1.00  0.00     0.007 A 
ATOM     15  C   UNL     1     -47.064  31.269  23.728  1.00  0.00    -0.049 A 
ATOM     16  H   UNL     1     -49.153  30.582  26.906  1.00  0.00     0.069 H 
ATOM     17  C   UNL     1     -47.168  32.258  24.704  1.00  0.00    -0.019 A 
ATOM     18  H   UNL     1     -46.476  31.464  22.834  1.00  0.00     0.063 H 
ATOM     19  H   UNL     1     -46.664  33.211  24.565  1.00  0.00     0.066 H 
BRANCH   6  20
ATOM     20  N   UNL     1     -49.675  26.421  24.560  1.00  0.00    -0.373 N 
ATOM     21  H   UNL     1     -50.681  26.557  24.514  1.00  0.00     0.161 HD
BRANCH  20  22
ATOM     22  C   UNL     1     -49.277  25.744  25.783  1.00  0.00     0.005 C 
ATOM     23  H   UNL     1     -49.313  24.655  25.672  1.00  0.00     0.045 H 
ATOM     24  H   UNL     1     -49.898  26.050  26.633  1.00  0.00     0.045 H 
ATOM     25  H   UNL     1     -48.244  26.018  26.020  1.00  0.00     0.045 H 
ENDBRANCH  20  22
ENDBRANCH   6  20
ENDBRANCH   4   5
ENDBRANCH   1   4
BRANCH   1  26
ATOM     26  C   UNL     1     -48.330  35.380  26.997  1.00  0.00     0.156 A 
ATOM     27  N   UNL     1     -48.856  36.150  27.930  1.00  0.00    -0.138 NA
ATOM     28  S   UNL     1     -46.840  35.973  26.367  1.00  0.00    -0.075 S 
ATOM     29  N   UNL     1     -48.089  37.273  28.173  1.00  0.00    -0.119 NA
ATOM     30  C   UNL     1     -47.013  37.299  27.415  1.00  0.00     0.218 A 
BRANCH  30  31
ATOM     31  N   UNL     1     -46.081  38.344  27.475  1.00  0.00    -0.274 N 
ATOM     32  C   UNL     1     -45.952  39.302  26.478  1.00  0.00     0.033 A 
ATOM     33  C   UNL     1     -45.140  38.650  28.459  1.00  0.00     0.153 A 
ATOM     34  C   UNL     1     -44.963  40.188  26.820  1.00  0.00     0.072 A 
ATOM     35  H   UNL     1     -46.588  39.261  25.601  1.00  0.00     0.084 H 
ATOM     36  C   UNL     1     -44.440  39.793  28.074  1.00  0.00     0.080 A 
ATOM     37  N   UNL     1     -44.929  37.965  29.602  1.00  0.00    -0.218 NA
ATOM     38  Cl  UNL     1     -44.456  41.519  25.893  1.00  0.00    -0.082 Cl
ATOM     39  C   UNL     1     -43.448  40.258  28.950  1.00  0.00     0.137 A 
ATOM     40  C   UNL     1     -43.956  38.496  30.353  1.00  0.00     0.120 A 
ATOM     41  N   UNL     1     -43.214  39.583  30.090  1.00  0.00    -0.219 NA
ATOM     42  H   UNL     1     -43.739  37.986  31.288  1.00  0.00     0.106 H 
BRANCH  39  43
ATOM     43  N   UNL     1     -42.671  41.380  28.718  1.00  0.00    -0.383 N 
ATOM     44  H   UNL     1     -42.540  41.555  27.730  1.00  0.00     0.158 HD
ATOM     45  H   UNL     1     -42.846  42.178  29.313  1.00  0.00     0.158 HD
ENDBRANCH  39  43
ENDBRANCH  30  31
ENDBRANCH   1  26
TORSDOF 7
ENDMDL
MODEL 4
REMARK VINA RESULT:      -9.3      1.572      2.240
REMARK SMILES CNc1ccc2ccc(OCc3nnc(-n4cc(Cl)c5c(N)ncnc54)s3)cc2n1
REMARK SMILES IDX 11 1 10 4 9 5 3 6 4 7 30 8 5 9 29 11 6 12 28 14 7 15 8 17
REMARK SMILES IDX 2 20 1 22 12 26 13 27 27 28 14 29 15 30 16 31 17 32 26 33
REMARK SMILES IDX 18 34 20 36 25 37 19 38 21 39 24 40 23 41 22 43
REMARK H PARENT 11 2 11 3 4 10 5 13 28 16 7 18 8 19 2 21 1 23 1 24 1 25 17 35
REMARK H PARENT 24 42 22 44 22 45
REMARK Flexibility Score: inf
ROOT
ATOM      1  C   UNL     1     -47.839  36.265  27.179  1.00  0.00     0.142 C 
ATOM      2  H   UNL     1     -48.831  36.678  27.399  1.00  0.00     0.078 H 
ATOM      3  H   UNL     1     -47.327  36.898  26.444  1.00  0.00     0.078 H 
ENDROOT
BRANCH   1   4
ATOM      4  O   UNL     1     -47.073  36.160  28.380  1.00  0.00    -0.486 OA
BRANCH   4   5
ATOM      5  C   UNL     1     -46.133  37.127  28.606  1.00  0.00     0.122 A 
ATOM      6  C   UNL     1     -43.520  40.933  27.454  1.00  0.00     0.126 A 
ATOM      7  C   UNL     1     -42.864  40.914  28.679  1.00  0.00    -0.019 A 
ATOM      8  N   UNL     1     -44.458  40.017  27.140  1.00  0.00    -0.231 NA
ATOM      9  C   UNL     1     -43.195  39.941  29.616  1.00  0.00    -0.049 A 
ATOM     10  H   UNL     1     -42.092  41.643  28.901  1.00  0.00     0.066 H 
ATOM     11  C   UNL     1     -44.782  39.071  28.040  1.00  0.00     0.076 A 
ATOM     12  C   UNL     1     -44.173  38.995  29.306  1.00  0.00     0.001 A 
ATOM     13  H   UNL     1     -42.682  39.924  30.574  1.00  0.00     0.063 H 
ATOM     14  C   UNL     1     -45.755  38.133  27.713  1.00  0.00     0.007 A 
ATOM     15  C   UNL     1     -44.546  37.990  30.212  1.00  0.00    -0.049 A 
ATOM     16  H   UNL     1     -46.207  38.222  26.730  1.00  0.00     0.069 H 
ATOM     17  C   UNL     1     -45.525  37.063  29.858  1.00  0.00    -0.019 A 
ATOM     18  H   UNL     1     -44.080  37.924  31.192  1.00  0.00     0.063 H 
ATOM     19  H   UNL     1     -45.813  36.286  30.562  1.00  0.00     0.066 H 
BRANCH   6  20
ATOM     20  N   UNL     1     -43.139  41.915  26.520  1.00  0.00    -0.373 N 
ATOM     21  H   UNL     1     -42.888  42.763  27.020  1.00  0.00     0.161 HD
BRANCH  20  22
ATOM     22  C   UNL     1     -44.128  42.171  25.485  1.00  0.00     0.005 C 
ATOM     23  H   UNL     1     -45.133  41.881  25.807  1.00  0.00     0.045 H 
ATOM     24  H   UNL     1     -43.875  41.656  24.552  1.00  0.00     0.045 H 
ATOM     25  H   UNL     1     -44.145  43.245  25.270  1.00  0.00     0.045 H 
ENDBRANCH  20  22
ENDBRANCH   6  20
ENDBRANCH   4   5
ENDBRANCH   1   4
BRANCH   1  26
ATOM     26  C   UNL     1     -47.995  34.884  26.631  1.00  0.00     0.156 A 
ATOM     27  N   UNL     1     -49.048  34.111  26.817  1.00  0.00    -0.138 NA
ATOM     28  S   UNL     1     -46.778  34.174  25.641  1.00  0.00    -0.075 S 
ATOM     29  N   UNL     1     -48.917  32.891  26.181  1.00  0.00    -0.119 NA
ATOM     30  C   UNL     1     -47.772  32.800  25.537  1.00  0.00     0.218 A 
BRANCH  30  31
ATOM     31  N   UNL     1     -47.408  31.653  24.818  1.00  0.00    -0.274 N 
ATOM     32  C   UNL     1     -46.474  31.670  23.790  1.00  0.00     0.033 A 
ATOM     33  C   UNL     1     -47.852  30.337  24.946  1.00  0.00     0.153 A 
ATOM     34  C   UNL     1     -46.329  30.404  23.284  1.00  0.00     0.072 A 
ATOM     35  H   UNL     1     -45.993  32.600  23.510  1.00  0.00     0.084 H 
ATOM     36  C   UNL     1     -47.191  29.546  24.006  1.00  0.00     0.080 A 
ATOM     37  N   UNL     1     -48.767  29.885  25.827  1.00  0.00    -0.218 NA
ATOM     38  Cl  UNL     1     -45.299  29.955  22.009  1.00  0.00    -0.082 Cl
ATOM     39  C   UNL     1     -47.508  28.179  23.989  1.00  0.00     0.137 A 
ATOM     40  C   UNL     1     -48.993  28.570  25.714  1.00  0.00     0.120 A 
ATOM     41  N   UNL     1     -48.427  27.710  24.853  1.00  0.00    -0.219 NA
ATOM     42  H   UNL     1     -49.723  28.148  26.398  1.00  0.00     0.106 H 
BRANCH  39  43
ATOM     43  N   UNL     1     -46.937  27.261  23.125  1.00  0.00    -0.383 N 
ATOM     44  H   UNL     1     -46.390  26.565  23.616  1.00  0.00     0.158 HD
ATOM     45  H   UNL     1     -47.516  26.944  22.360  1.00  0.00     0.158 HD
ENDBRANCH  39  43
ENDBRANCH  30  31
ENDBRANCH   1  26
TORSDOF 7
ENDMDL
MODEL 5
REMARK VINA RESULT:      -9.0      2.175      3.204
REMARK SMILES CNc1ccc2ccc(OCc3nnc(-n4cc(Cl)c5c(N)ncnc54)s3)cc2n1
REMARK SMILES IDX 11 1 10 4 9 5 3 6 4 7 30 8 5 9 29 11 6 12 28 14 7 15 8 17
REMARK SMILES IDX 2 20 1 22 12 26 13 27 27 28 14 29 15 30 16 31 17 32 26 33
REMARK SMILES IDX 18 34 20 36 25 37 19 38 21 39 24 40 23 41 22 43
REMARK H PARENT 11 2 11 3 4 10 5 13 28 16 7 18 8 19 2 21 1 23 1 24 1 25 17 35
REMARK H PARENT 24 42 22 44 22 45
REMARK Flexibility Score: inf
ROOT
ATOM      1  C   UNL     1     -46.152  34.479  27.427  1.00  0.00     0.142 C 
ATOM      2  H   UNL     1     -45.470  34.848  26.651  1.00  0.00     0.078 H 
ATOM      3  H   UNL     1     -45.597  33.876  28.155  1.00  0.00     0.078 H 
ENDROOT
BRANCH   1   4
ATOM      4  O   UNL     1     -46.805  35.576  28.069  1.00  0.00    -0.486 OA
BRANCH   4   5
ATOM      5  C   UNL     1     -46.325  36.828  27.803  1.00  0.00     0.122 A 
ATOM      6  C   UNL     1     -43.504  40.592  28.522  1.00  0.00     0.126 A 
ATOM      7  C   UNL     1     -44.083  41.288  27.466  1.00  0.00    -0.019 A 
ATOM      8  N   UNL     1     -43.916  39.353  28.861  1.00  0.00    -0.231 NA
ATOM      9  C   UNL     1     -45.095  40.687  26.726  1.00  0.00    -0.049 A 
ATOM     10  H   UNL     1     -43.758  42.295  27.228  1.00  0.00     0.066 H 
ATOM     11  C   UNL     1     -44.896  38.767  28.151  1.00  0.00     0.076 A 
ATOM     12  C   UNL     1     -45.521  39.402  27.061  1.00  0.00     0.001 A 
ATOM     13  H   UNL     1     -45.549  41.231  25.901  1.00  0.00     0.063 H 
ATOM     14  C   UNL     1     -45.312  37.488  28.502  1.00  0.00     0.007 A 
ATOM     15  C   UNL     1     -46.539  38.748  26.350  1.00  0.00    -0.049 A 
ATOM     16  H   UNL     1     -44.807  37.026  29.346  1.00  0.00     0.069 H 
ATOM     17  C   UNL     1     -46.935  37.465  26.723  1.00  0.00    -0.019 A 
ATOM     18  H   UNL     1     -47.027  39.231  25.507  1.00  0.00     0.063 H 
ATOM     19  H   UNL     1     -47.723  36.960  26.170  1.00  0.00     0.066 H 
BRANCH   6  20
ATOM     20  N   UNL     1     -42.502  41.241  29.266  1.00  0.00    -0.373 N 
ATOM     21  H   UNL     1     -42.893  42.083  29.680  1.00  0.00     0.161 HD
BRANCH  20  22
ATOM     22  C   UNL     1     -41.289  41.522  28.516  1.00  0.00     0.005 C 
ATOM     23  H   UNL     1     -40.660  40.631  28.417  1.00  0.00     0.045 H 
ATOM     24  H   UNL     1     -40.711  42.334  28.974  1.00  0.00     0.045 H 
ATOM     25  H   UNL     1     -41.563  41.848  27.507  1.00  0.00     0.045 H 
ENDBRANCH  20  22
ENDBRANCH   6  20
ENDBRANCH   4   5
ENDBRANCH   1   4
BRANCH   1  26
ATOM     26  C   UNL     1     -47.214  33.644  26.787  1.00  0.00     0.156 A 
ATOM     27  N   UNL     1     -48.510  33.780  26.993  1.00  0.00    -0.138 NA
ATOM     28  S   UNL     1     -46.815  32.410  25.654  1.00  0.00    -0.075 S 
ATOM     29  N   UNL     1     -49.251  32.877  26.256  1.00  0.00    -0.119 NA
ATOM     30  C   UNL     1     -48.481  32.102  25.521  1.00  0.00     0.218 A 
BRANCH  30  31
ATOM     31  N   UNL     1     -49.002  31.101  24.689  1.00  0.00    -0.274 N 
ATOM     32  C   UNL     1     -49.589  31.370  23.459  1.00  0.00     0.033 A 
ATOM     33  C   UNL     1     -49.055  29.719  24.875  1.00  0.00     0.153 A 
ATOM     34  C   UNL     1     -50.000  30.195  22.883  1.00  0.00     0.072 A 
ATOM     35  H   UNL     1     -49.663  32.391  23.105  1.00  0.00     0.084 H 
ATOM     36  C   UNL     1     -49.666  29.139  23.763  1.00  0.00     0.080 A 
ATOM     37  N   UNL     1     -48.596  29.040  25.945  1.00  0.00    -0.218 NA
ATOM     38  Cl  UNL     1     -50.777  30.044  21.379  1.00  0.00    -0.082 Cl
ATOM     39  C   UNL     1     -49.804  27.743  23.769  1.00  0.00     0.137 A 
ATOM     40  C   UNL     1     -48.787  27.718  25.842  1.00  0.00     0.120 A 
ATOM     41  N   UNL     1     -49.362  27.047  24.832  1.00  0.00    -0.219 NA
ATOM     42  H   UNL     1     -48.438  27.116  26.676  1.00  0.00     0.106 H 
BRANCH  39  43
ATOM     43  N   UNL     1     -50.379  27.015  22.742  1.00  0.00    -0.383 N 
ATOM     44  H   UNL     1     -49.691  26.505  22.203  1.00  0.00     0.158 HD
ATOM     45  H   UNL     1     -51.247  26.542  22.957  1.00  0.00     0.158 HD
ENDBRANCH  39  43
ENDBRANCH  30  31
ENDBRANCH   1  26
TORSDOF 7
ENDMDL
MODEL 6
REMARK VINA RESULT:      -8.8      2.224      2.816
REMARK SMILES CNc1ccc2ccc(OCc3nnc(-n4cc(Cl)c5c(N)ncnc54)s3)cc2n1
REMARK SMILES IDX 11 1 10 4 9 5 3 6 4 7 30 8 5 9 29 11 6 12 28 14 7 15 8 17
REMARK SMILES IDX 2 20 1 22 12 26 13 27 27 28 14 29 15 30 16 31 17 32 26 33
REMARK SMILES IDX 18 34 20 36 25 37 19 38 21 39 24 40 23 41 22 43
REMARK H PARENT 11 2 11 3 4 10 5 13 28 16 7 18 8 19 2 21 1 23 1 24 1 25 17 35
REMARK H PARENT 24 42 22 44 22 45
REMARK Flexibility Score: inf
ROOT
ATOM      1  C   UNL     1     -46.191  34.566  26.695  1.00  0.00     0.142 C 
ATOM      2  H   UNL     1     -45.560  34.834  25.839  1.00  0.00     0.078 H 
ATOM      3  H   UNL     1     -45.564  34.257  27.539  1.00  0.00     0.078 H 
ENDROOT
BRANCH   1   4
ATOM      4  O   UNL     1     -47.022  35.671  27.057  1.00  0.00    -0.486 OA
BRANCH   4   5
ATOM      5  C   UNL     1     -46.417  36.890  27.186  1.00  0.00     0.122 A 
ATOM      6  C   UNL     1     -45.864  41.531  26.294  1.00  0.00     0.126 A 
ATOM      7  C   UNL     1     -44.755  41.608  27.128  1.00  0.00    -0.019 A 
ATOM      8  N   UNL     1     -46.524  40.370  26.101  1.00  0.00    -0.231 NA
ATOM      9  C   UNL     1     -44.323  40.468  27.798  1.00  0.00    -0.049 A 
ATOM     10  H   UNL     1     -44.220  42.544  27.247  1.00  0.00     0.066 H 
ATOM     11  C   UNL     1     -46.111  39.263  26.744  1.00  0.00     0.076 A 
ATOM     12  C   UNL     1     -45.005  39.265  27.615  1.00  0.00     0.001 A 
ATOM     13  H   UNL     1     -43.455  40.527  28.449  1.00  0.00     0.063 H 
ATOM     14  C   UNL     1     -46.798  38.071  26.547  1.00  0.00     0.007 A 
ATOM     15  C   UNL     1     -44.614  38.084  28.264  1.00  0.00    -0.049 A 
ATOM     16  H   UNL     1     -47.648  38.106  25.872  1.00  0.00     0.069 H 
ATOM     17  C   UNL     1     -45.321  36.903  28.048  1.00  0.00    -0.019 A 
ATOM     18  H   UNL     1     -43.760  38.076  28.938  1.00  0.00     0.063 H 
ATOM     19  H   UNL     1     -45.017  35.990  28.553  1.00  0.00     0.066 H 
BRANCH   6  20
ATOM     20  N   UNL     1     -46.256  42.697  25.612  1.00  0.00    -0.373 N 
ATOM     21  H   UNL     1     -45.505  43.380  25.671  1.00  0.00     0.161 HD
BRANCH  20  22
ATOM     22  C   UNL     1     -47.525  43.251  26.053  1.00  0.00     0.005 C 
ATOM     23  H   UNL     1     -48.345  42.962  25.386  1.00  0.00     0.045 H 
ATOM     24  H   UNL     1     -47.481  44.343  26.134  1.00  0.00     0.045 H 
ATOM     25  H   UNL     1     -47.755  42.859  27.049  1.00  0.00     0.045 H 
ENDBRANCH  20  22
ENDBRANCH   6  20
ENDBRANCH   4   5
ENDBRANCH   1   4
BRANCH   1  26
ATOM     26  C   UNL     1     -47.095  33.442  26.302  1.00  0.00     0.156 A 
ATOM     27  N   UNL     1     -48.318  33.259  26.760  1.00  0.00    -0.138 NA
ATOM     28  S   UNL     1     -46.603  32.267  25.143  1.00  0.00    -0.075 S 
ATOM     29  N   UNL     1     -48.919  32.143  26.209  1.00  0.00    -0.119 NA
ATOM     30  C   UNL     1     -48.123  31.536  25.354  1.00  0.00     0.218 A 
BRANCH  30  31
ATOM     31  N   UNL     1     -48.507  30.375  24.669  1.00  0.00    -0.274 N 
ATOM     32  C   UNL     1     -48.930  29.220  25.315  1.00  0.00     0.033 A 
ATOM     33  C   UNL     1     -48.556  30.118  23.299  1.00  0.00     0.153 A 
ATOM     34  C   UNL     1     -49.238  28.263  24.384  1.00  0.00     0.072 A 
ATOM     35  H   UNL     1     -48.970  29.189  26.398  1.00  0.00     0.084 H 
ATOM     36  C   UNL     1     -49.011  28.814  23.101  1.00  0.00     0.080 A 
ATOM     37  N   UNL     1     -48.223  30.976  22.314  1.00  0.00    -0.218 NA
ATOM     38  Cl  UNL     1     -49.788  26.690  24.720  1.00  0.00    -0.082 Cl
ATOM     39  C   UNL     1     -49.130  28.376  21.774  1.00  0.00     0.137 A 
ATOM     40  C   UNL     1     -48.370  30.447  21.092  1.00  0.00     0.120 A 
ATOM     41  N   UNL     1     -48.793  29.213  20.776  1.00  0.00    -0.219 NA
ATOM     42  H   UNL     1     -48.115  31.092  20.256  1.00  0.00     0.106 H 
BRANCH  39  43
ATOM     43  N   UNL     1     -49.573  27.116  21.409  1.00  0.00    -0.383 N 
ATOM     44  H   UNL     1     -50.579  27.081  21.304  1.00  0.00     0.158 HD
ATOM     45  H   UNL     1     -49.016  26.624  20.724  1.00  0.00     0.158 HD
ENDBRANCH  39  43
ENDBRANCH  30  31
ENDBRANCH   1  26
TORSDOF 7
ENDMDL
MODEL 7
REMARK VINA RESULT:      -8.8      3.366     10.256
REMARK SMILES CNc1ccc2ccc(OCc3nnc(-n4cc(Cl)c5c(N)ncnc54)s3)cc2n1
REMARK SMILES IDX 11 1 10 4 9 5 3 6 4 7 30 8 5 9 29 11 6 12 28 14 7 15 8 17
REMARK SMILES IDX 2 20 1 22 12 26 13 27 27 28 14 29 15 30 16 31 17 32 26 33
REMARK SMILES IDX 18 34 20 36 25 37 19 38 21 39 24 40 23 41 22 43
REMARK H PARENT 11 2 11 3 4 10 5 13 28 16 7 18 8 19 2 21 1 23 1 24 1 25 17 35
REMARK H PARENT 24 42 22 44 22 45
REMARK Flexibility Score: inf
ROOT
ATOM      1  C   UNL     1     -47.240  34.659  27.938  1.00  0.00     0.142 C 
ATOM      2  H   UNL     1     -48.149  34.929  27.386  1.00  0.00     0.078 H 
ATOM      3  H   UNL     1     -47.496  34.004  28.780  1.00  0.00     0.078 H 
ENDROOT
BRANCH   1   4
ATOM      4  O   UNL     1     -46.307  34.020  27.065  1.00  0.00    -0.486 OA
BRANCH   4   5
ATOM      5  C   UNL     1     -46.813  33.144  26.146  1.00  0.00     0.122 A 
ATOM      6  C   UNL     1     -46.913  30.890  21.956  1.00  0.00     0.126 A 
ATOM      7  C   UNL     1     -48.060  30.188  22.307  1.00  0.00    -0.019 A 
ATOM      8  N   UNL     1     -46.344  31.779  22.796  1.00  0.00    -0.231 NA
ATOM      9  C   UNL     1     -48.627  30.388  23.561  1.00  0.00    -0.049 A 
ATOM     10  H   UNL     1     -48.519  29.499  21.606  1.00  0.00     0.066 H 
ATOM     11  C   UNL     1     -46.888  31.979  24.010  1.00  0.00     0.076 A 
ATOM     12  C   UNL     1     -48.041  31.297  24.442  1.00  0.00     0.001 A 
ATOM     13  H   UNL     1     -49.525  29.840  23.836  1.00  0.00     0.063 H 
ATOM     14  C   UNL     1     -46.294  32.893  24.873  1.00  0.00     0.007 A 
ATOM     15  C   UNL     1     -48.570  31.540  25.719  1.00  0.00    -0.049 A 
ATOM     16  H   UNL     1     -45.405  33.399  24.510  1.00  0.00     0.069 H 
ATOM     17  C   UNL     1     -47.953  32.460  26.564  1.00  0.00    -0.019 A 
ATOM     18  H   UNL     1     -49.460  31.017  26.060  1.00  0.00     0.063 H 
ATOM     19  H   UNL     1     -48.365  32.646  27.553  1.00  0.00     0.066 H 
BRANCH   6  20
ATOM     20  N   UNL     1     -46.383  30.682  20.669  1.00  0.00    -0.373 N 
ATOM     21  H   UNL     1     -45.654  29.976  20.725  1.00  0.00     0.161 HD
BRANCH  20  22
ATOM     22  C   UNL     1     -45.914  31.891  20.013  1.00  0.00     0.005 C 
ATOM     23  H   UNL     1     -46.561  32.172  19.175  1.00  0.00     0.045 H 
ATOM     24  H   UNL     1     -44.881  31.785  19.665  1.00  0.00     0.045 H 
ATOM     25  H   UNL     1     -45.932  32.715  20.734  1.00  0.00     0.045 H 
ENDBRANCH  20  22
ENDBRANCH   6  20
ENDBRANCH   4   5
ENDBRANCH   1   4
BRANCH   1  26
ATOM     26  C   UNL     1     -46.590  35.903  28.448  1.00  0.00     0.156 A 
ATOM     27  N   UNL     1     -46.747  36.397  29.662  1.00  0.00    -0.138 NA
ATOM     28  S   UNL     1     -45.509  36.813  27.463  1.00  0.00    -0.075 S 
ATOM     29  N   UNL     1     -46.012  37.551  29.854  1.00  0.00    -0.119 NA
ATOM     30  C   UNL     1     -45.328  37.875  28.777  1.00  0.00     0.218 A 
BRANCH  30  31
ATOM     31  N   UNL     1     -44.510  39.012  28.726  1.00  0.00    -0.274 N 
ATOM     32  C   UNL     1     -43.495  39.256  29.643  1.00  0.00     0.033 A 
ATOM     33  C   UNL     1     -44.512  40.078  27.826  1.00  0.00     0.153 A 
ATOM     34  C   UNL     1     -42.874  40.438  29.332  1.00  0.00     0.072 A 
ATOM     35  H   UNL     1     -43.310  38.553  30.446  1.00  0.00     0.084 H 
ATOM     36  C   UNL     1     -43.502  40.971  28.182  1.00  0.00     0.080 A 
ATOM     37  N   UNL     1     -45.346  40.236  26.777  1.00  0.00    -0.218 NA
ATOM     38  Cl  UNL     1     -41.582  41.137  30.188  1.00  0.00    -0.082 Cl
ATOM     39  C   UNL     1     -43.349  42.112  27.380  1.00  0.00     0.137 A 
ATOM     40  C   UNL     1     -45.111  41.361  26.091  1.00  0.00     0.120 A 
ATOM     41  N   UNL     1     -44.177  42.294  26.336  1.00  0.00    -0.219 NA
ATOM     42  H   UNL     1     -45.753  41.544  25.234  1.00  0.00     0.106 H 
BRANCH  39  43
ATOM     43  N   UNL     1     -42.391  43.089  27.595  1.00  0.00    -0.383 N 
ATOM     44  H   UNL     1     -42.692  43.997  27.266  1.00  0.00     0.158 HD
ATOM     45  H   UNL     1     -41.902  43.052  28.479  1.00  0.00     0.158 HD
ENDBRANCH  39  43
ENDBRANCH  30  31
ENDBRANCH   1  26
TORSDOF 7
ENDMDL
