MODEL 1
REMARK VINA RESULT:     -10.3      0.000      0.000
REMARK SMILES CNc1ccc2ccc(CCc3cncc(-n4ccc5c(N)ncnc54)c3)cc2n1
REMARK SMILES IDX 10 1 9 4 3 5 4 6 30 7 5 8 29 10 6 11 28 13 7 14 8 16 2 19
REMARK SMILES IDX 1 21 11 25 12 28 13 29 27 30 14 31 16 33 15 35 17 37 18 38
REMARK SMILES IDX 26 39 19 40 20 42 25 43 21 45 24 46 23 47 22 49
REMARK H PARENT 10 2 10 3 4 9 5 12 28 15 7 17 8 18 2 20 1 22 1 23 1 24 11 26
REMARK H PARENT 11 27 13 32 27 34 15 36 18 41 19 44 24 48 22 50 22 51
REMARK Flexibility Score: inf
ROOT
ATOM      1  C   UNL     1     -46.446  37.840  27.336  1.00  0.00    -0.024 C 
ATOM      2  H   UNL     1     -45.752  38.121  26.533  1.00  0.00     0.032 H 
ATOM      3  H   UNL     1     -47.199  38.639  27.368  1.00  0.00     0.032 H 
ENDROOT
BRANCH   1   4
ATOM      4  C   UNL     1     -47.101  36.533  26.958  1.00  0.00    -0.046 A 
ATOM      5  C   UNL     1     -46.749  32.258  24.886  1.00  0.00     0.126 A 
ATOM      6  C   UNL     1     -48.054  31.926  25.223  1.00  0.00    -0.019 A 
ATOM      7  N   UNL     1     -46.201  33.446  25.207  1.00  0.00    -0.231 NA
ATOM      8  C   UNL     1     -48.820  32.842  25.934  1.00  0.00    -0.049 A 
ATOM      9  H   UNL     1     -48.479  30.976  24.920  1.00  0.00     0.066 H 
ATOM     10  C   UNL     1     -46.941  34.337  25.894  1.00  0.00     0.073 A 
ATOM     11  C   UNL     1     -48.267  34.076  26.287  1.00  0.00     0.000 A 
ATOM     12  H   UNL     1     -49.842  32.591  26.201  1.00  0.00     0.063 H 
ATOM     13  C   UNL     1     -46.385  35.562  26.239  1.00  0.00    -0.032 A 
ATOM     14  C   UNL     1     -48.997  35.036  27.007  1.00  0.00    -0.053 A 
ATOM     15  H   UNL     1     -45.359  35.760  25.934  1.00  0.00     0.065 H 
ATOM     16  C   UNL     1     -48.415  36.257  27.342  1.00  0.00    -0.058 A 
ATOM     17  H   UNL     1     -50.020  34.835  27.316  1.00  0.00     0.063 H 
ATOM     18  H   UNL     1     -48.990  36.985  27.910  1.00  0.00     0.063 H 
BRANCH   5  19
ATOM     19  N   UNL     1     -45.925  31.394  24.162  1.00  0.00    -0.373 N 
ATOM     20  H   UNL     1     -45.376  30.926  24.885  1.00  0.00     0.161 HD
BRANCH  19  21
ATOM     21  C   UNL     1     -46.650  30.433  23.348  1.00  0.00     0.005 C 
ATOM     22  H   UNL     1     -47.488  30.941  22.860  1.00  0.00     0.045 H 
ATOM     23  H   UNL     1     -46.015  30.009  22.562  1.00  0.00     0.045 H 
ATOM     24  H   UNL     1     -47.070  29.623  23.952  1.00  0.00     0.045 H 
ENDBRANCH  19  21
ENDBRANCH   5  19
ENDBRANCH   1   4
BRANCH   1  25
ATOM     25  C   UNL     1     -45.673  37.770  28.660  1.00  0.00    -0.022 C 
ATOM     26  H   UNL     1     -46.364  37.799  29.512  1.00  0.00     0.032 H 
ATOM     27  H   UNL     1     -45.166  36.798  28.723  1.00  0.00     0.032 H 
BRANCH  25  28
ATOM     28  C   UNL     1     -44.635  38.852  28.806  1.00  0.00    -0.027 A 
ATOM     29  C   UNL     1     -43.824  38.921  29.931  1.00  0.00     0.030 A 
ATOM     30  C   UNL     1     -44.472  39.838  27.823  1.00  0.00    -0.032 A 
ATOM     31  N   UNL     1     -42.887  39.873  30.121  1.00  0.00    -0.262 NA
ATOM     32  H   UNL     1     -43.911  38.197  30.738  1.00  0.00     0.084 H 
ATOM     33  C   UNL     1     -43.516  40.846  27.982  1.00  0.00     0.066 A 
ATOM     34  H   UNL     1     -45.099  39.776  26.941  1.00  0.00     0.065 H 
ATOM     35  C   UNL     1     -42.755  40.807  29.148  1.00  0.00     0.051 A 
ATOM     36  H   UNL     1     -41.996  41.543  29.385  1.00  0.00     0.086 H 
BRANCH  33  37
ATOM     37  N   UNL     1     -43.314  41.874  27.005  1.00  0.00    -0.300 N 
ATOM     38  C   UNL     1     -42.075  42.303  26.544  1.00  0.00     0.012 A 
ATOM     39  C   UNL     1     -44.283  42.632  26.338  1.00  0.00     0.150 A 
ATOM     40  C   UNL     1     -42.249  43.296  25.608  1.00  0.00    -0.031 A 
ATOM     41  H   UNL     1     -41.152  41.866  26.894  1.00  0.00     0.082 H 
ATOM     42  C   UNL     1     -43.639  43.510  25.470  1.00  0.00     0.061 A 
ATOM     43  N   UNL     1     -45.620  42.564  26.500  1.00  0.00    -0.218 NA
ATOM     44  H   UNL     1     -41.456  43.815  25.085  1.00  0.00     0.065 H 
ATOM     45  C   UNL     1     -44.443  44.367  24.703  1.00  0.00     0.136 A 
ATOM     46  C   UNL     1     -46.284  43.431  25.721  1.00  0.00     0.120 A 
ATOM     47  N   UNL     1     -45.778  44.308  24.840  1.00  0.00    -0.219 NA
ATOM     48  H   UNL     1     -47.366  43.422  25.812  1.00  0.00     0.106 H 
BRANCH  45  49
ATOM     49  N   UNL     1     -43.939  45.279  23.788  1.00  0.00    -0.383 N 
ATOM     50  H   UNL     1     -43.753  44.906  22.869  1.00  0.00     0.158 HD
ATOM     51  H   UNL     1     -44.463  46.146  23.823  1.00  0.00     0.158 HD
ENDBRANCH  45  49
ENDBRANCH  33  37
ENDBRANCH  25  28
ENDBRANCH   1  25
TORSDOF 7
ENDMDL
MODEL 2
REMARK VINA RESULT:     -10.1      1.839     10.202
REMARK SMILES CNc1ccc2ccc(CCc3cncc(-n4ccc5c(N)ncnc54)c3)cc2n1
REMARK SMILES IDX 10 1 9 4 3 5 4 6 30 7 5 8 29 10 6 11 28 13 7 14 8 16 2 19
REMARK SMILES IDX 1 21 11 25 12 28 13 29 27 30 14 31 16 33 15 35 17 37 18 38
REMARK SMILES IDX 26 39 19 40 20 42 25 43 21 45 24 46 23 47 22 49
REMARK H PARENT 10 2 10 3 4 9 5 12 28 15 7 17 8 18 2 20 1 22 1 23 1 24 11 26
REMARK H PARENT 11 27 13 32 27 34 15 36 18 41 19 44 24 48 22 50 22 51
REMARK Flexibility Score: inf
ROOT
ATOM      1  C   UNL     1     -46.878  37.480  26.611  1.00  0.00    -0.024 C 
ATOM      2  H   UNL     1     -47.550  38.222  26.160  1.00  0.00     0.032 H 
ATOM      3  H   UNL     1     -46.416  36.950  25.767  1.00  0.00     0.032 H 
ENDROOT
BRANCH   1   4
ATOM      4  C   UNL     1     -45.818  38.215  27.396  1.00  0.00    -0.046 A 
ATOM      5  C   UNL     1     -42.735  41.836  27.661  1.00  0.00     0.126 A 
ATOM      6  C   UNL     1     -42.333  41.474  28.940  1.00  0.00    -0.019 A 
ATOM      7  N   UNL     1     -43.658  41.141  26.971  1.00  0.00    -0.231 NA
ATOM      8  C   UNL     1     -42.918  40.365  29.540  1.00  0.00    -0.049 A 
ATOM      9  H   UNL     1     -41.562  42.032  29.458  1.00  0.00     0.066 H 
ATOM     10  C   UNL     1     -44.225  40.065  27.548  1.00  0.00     0.073 A 
ATOM     11  C   UNL     1     -43.887  39.636  28.845  1.00  0.00     0.000 A 
ATOM     12  H   UNL     1     -42.609  40.073  30.540  1.00  0.00     0.063 H 
ATOM     13  C   UNL     1     -45.186  39.344  26.850  1.00  0.00    -0.032 A 
ATOM     14  C   UNL     1     -44.510  38.509  29.407  1.00  0.00    -0.053 A 
ATOM     15  H   UNL     1     -45.445  39.679  25.847  1.00  0.00     0.065 H 
ATOM     16  C   UNL     1     -45.472  37.804  28.685  1.00  0.00    -0.058 A 
ATOM     17  H   UNL     1     -44.254  38.178  30.410  1.00  0.00     0.063 H 
ATOM     18  H   UNL     1     -45.953  36.941  29.139  1.00  0.00     0.063 H 
BRANCH   5  19
ATOM     19  N   UNL     1     -42.183  42.930  26.992  1.00  0.00    -0.373 N 
ATOM     20  H   UNL     1     -41.513  42.504  26.349  1.00  0.00     0.161 HD
BRANCH  19  21
ATOM     21  C   UNL     1     -43.157  43.738  26.278  1.00  0.00     0.005 C 
ATOM     22  H   UNL     1     -43.216  44.724  26.750  1.00  0.00     0.045 H 
ATOM     23  H   UNL     1     -42.869  43.887  25.231  1.00  0.00     0.045 H 
ATOM     24  H   UNL     1     -44.158  43.298  26.321  1.00  0.00     0.045 H 
ENDBRANCH  19  21
ENDBRANCH   5  19
ENDBRANCH   1   4
BRANCH   1  25
ATOM     25  C   UNL     1     -47.706  36.514  27.469  1.00  0.00    -0.022 C 
ATOM     26  H   UNL     1     -47.616  36.769  28.533  1.00  0.00     0.032 H 
ATOM     27  H   UNL     1     -48.768  36.643  27.222  1.00  0.00     0.032 H 
BRANCH  25  28
ATOM     28  C   UNL     1     -47.347  35.067  27.258  1.00  0.00    -0.027 A 
ATOM     29  C   UNL     1     -46.433  34.426  28.084  1.00  0.00     0.030 A 
ATOM     30  C   UNL     1     -47.905  34.327  26.206  1.00  0.00    -0.032 A 
ATOM     31  N   UNL     1     -46.065  33.136  27.936  1.00  0.00    -0.262 NA
ATOM     32  H   UNL     1     -45.951  34.947  28.908  1.00  0.00     0.084 H 
ATOM     33  C   UNL     1     -47.548  32.988  26.013  1.00  0.00     0.066 A 
ATOM     34  H   UNL     1     -48.626  34.826  25.569  1.00  0.00     0.065 H 
ATOM     35  C   UNL     1     -46.628  32.452  26.910  1.00  0.00     0.051 A 
ATOM     36  H   UNL     1     -46.267  31.431  26.850  1.00  0.00     0.086 H 
BRANCH  33  37
ATOM     37  N   UNL     1     -48.091  32.194  24.953  1.00  0.00    -0.300 N 
ATOM     38  C   UNL     1     -49.445  31.958  24.745  1.00  0.00     0.012 A 
ATOM     39  C   UNL     1     -47.400  31.514  23.943  1.00  0.00     0.150 A 
ATOM     40  C   UNL     1     -49.612  31.161  23.637  1.00  0.00    -0.031 A 
ATOM     41  H   UNL     1     -50.204  32.385  25.385  1.00  0.00     0.082 H 
ATOM     42  C   UNL     1     -48.328  30.876  23.123  1.00  0.00     0.061 A 
ATOM     43  N   UNL     1     -46.063  31.448  23.777  1.00  0.00    -0.218 NA
ATOM     44  H   UNL     1     -50.561  30.817  23.245  1.00  0.00     0.065 H 
ATOM     45  C   UNL     1     -47.830  30.131  22.043  1.00  0.00     0.136 A 
ATOM     46  C   UNL     1     -45.706  30.706  22.719  1.00  0.00     0.120 A 
ATOM     47  N   UNL     1     -46.502  30.062  21.852  1.00  0.00    -0.219 NA
ATOM     48  H   UNL     1     -44.638  30.616  22.538  1.00  0.00     0.106 H 
BRANCH  45  49
ATOM     49  N   UNL     1     -48.638  29.459  21.136  1.00  0.00    -0.383 N 
ATOM     50  H   UNL     1     -48.762  28.474  21.322  1.00  0.00     0.158 HD
ATOM     51  H   UNL     1     -49.479  29.991  20.947  1.00  0.00     0.158 HD
ENDBRANCH  45  49
ENDBRANCH  33  37
ENDBRANCH  25  28
ENDBRANCH   1  25
TORSDOF 7
ENDMDL
MODEL 3
REMARK VINA RESULT:     -10.1      2.049      3.516
REMARK SMILES CNc1ccc2ccc(CCc3cncc(-n4ccc5c(N)ncnc54)c3)cc2n1
REMARK SMILES IDX 10 1 9 4 3 5 4 6 30 7 5 8 29 10 6 11 28 13 7 14 8 16 2 19
REMARK SMILES IDX 1 21 11 25 12 28 13 29 27 30 14 31 16 33 15 35 17 37 18 38
REMARK SMILES IDX 26 39 19 40 20 42 25 43 21 45 24 46 23 47 22 49
REMARK H PARENT 10 2 10 3 4 9 5 12 28 15 7 17 8 18 2 20 1 22 1 23 1 24 11 26
REMARK H PARENT 11 27 13 32 27 34 15 36 18 41 19 44 24 48 22 50 22 51
REMARK Flexibility Score: inf
ROOT
ATOM      1  C   UNL     1     -46.152  34.800  26.711  1.00  0.00    -0.024 C 
ATOM      2  H   UNL     1     -45.087  34.593  26.540  1.00  0.00     0.032 H 
ATOM      3  H   UNL     1     -46.333  35.793  26.281  1.00  0.00     0.032 H 
ENDROOT
BRANCH   1   4
ATOM      4  C   UNL     1     -46.960  33.764  25.967  1.00  0.00    -0.046 A 
ATOM      5  C   UNL     1     -47.092  30.237  22.768  1.00  0.00     0.126 A 
ATOM      6  C   UNL     1     -48.447  30.023  22.977  1.00  0.00    -0.019 A 
ATOM      7  N   UNL     1     -46.403  31.191  23.422  1.00  0.00    -0.231 NA
ATOM      8  C   UNL     1     -49.118  30.807  23.909  1.00  0.00    -0.049 A 
ATOM      9  H   UNL     1     -48.984  29.271  22.410  1.00  0.00     0.066 H 
ATOM     10  C   UNL     1     -47.048  31.955  24.323  1.00  0.00     0.073 A 
ATOM     11  C   UNL     1     -48.418  31.796  24.607  1.00  0.00     0.000 A 
ATOM     12  H   UNL     1     -50.178  30.648  24.078  1.00  0.00     0.063 H 
ATOM     13  C   UNL     1     -46.347  32.937  25.011  1.00  0.00    -0.032 A 
ATOM     14  C   UNL     1     -49.047  32.614  25.560  1.00  0.00    -0.053 A 
ATOM     15  H   UNL     1     -45.289  33.056  24.790  1.00  0.00     0.065 H 
ATOM     16  C   UNL     1     -48.320  33.592  26.238  1.00  0.00    -0.058 A 
ATOM     17  H   UNL     1     -50.103  32.490  25.785  1.00  0.00     0.063 H 
ATOM     18  H   UNL     1     -48.819  34.209  26.981  1.00  0.00     0.063 H 
BRANCH   5  19
ATOM     19  N   UNL     1     -46.358  29.496  21.840  1.00  0.00    -0.373 N 
ATOM     20  H   UNL     1     -46.403  30.063  20.992  1.00  0.00     0.161 HD
BRANCH  19  21
ATOM     21  C   UNL     1     -44.981  29.252  22.237  1.00  0.00     0.005 C 
ATOM     22  H   UNL     1     -44.313  29.737  21.518  1.00  0.00     0.045 H 
ATOM     23  H   UNL     1     -44.766  29.669  23.226  1.00  0.00     0.045 H 
ATOM     24  H   UNL     1     -44.742  28.184  22.232  1.00  0.00     0.045 H 
ENDBRANCH  19  21
ENDBRANCH   5  19
ENDBRANCH   1   4
BRANCH   1  25
ATOM     25  C   UNL     1     -46.421  34.807  28.222  1.00  0.00    -0.022 C 
ATOM     26  H   UNL     1     -47.475  34.581  28.428  1.00  0.00     0.032 H 
ATOM     27  H   UNL     1     -45.848  33.994  28.688  1.00  0.00     0.032 H 
BRANCH  25  28
ATOM     28  C   UNL     1     -46.034  36.098  28.894  1.00  0.00    -0.027 A 
ATOM     29  C   UNL     1     -46.195  36.273  30.261  1.00  0.00     0.030 A 
ATOM     30  C   UNL     1     -45.522  37.175  28.154  1.00  0.00    -0.032 A 
ATOM     31  N   UNL     1     -45.878  37.410  30.914  1.00  0.00    -0.262 NA
ATOM     32  H   UNL     1     -46.602  35.484  30.890  1.00  0.00     0.084 H 
ATOM     33  C   UNL     1     -45.185  38.374  28.790  1.00  0.00     0.066 A 
ATOM     34  H   UNL     1     -45.387  37.033  27.088  1.00  0.00     0.065 H 
ATOM     35  C   UNL     1     -45.382  38.428  30.167  1.00  0.00     0.051 A 
ATOM     36  H   UNL     1     -45.170  39.309  30.763  1.00  0.00     0.086 H 
BRANCH  33  37
ATOM     37  N   UNL     1     -44.659  39.499  28.077  1.00  0.00    -0.300 N 
ATOM     38  C   UNL     1     -45.112  39.943  26.841  1.00  0.00     0.012 A 
ATOM     39  C   UNL     1     -43.619  40.354  28.461  1.00  0.00     0.150 A 
ATOM     40  C   UNL     1     -44.390  41.048  26.453  1.00  0.00    -0.031 A 
ATOM     41  H   UNL     1     -45.927  39.459  26.324  1.00  0.00     0.082 H 
ATOM     42  C   UNL     1     -43.446  41.316  27.469  1.00  0.00     0.061 A 
ATOM     43  N   UNL     1     -42.875  40.275  29.584  1.00  0.00    -0.218 NA
ATOM     44  H   UNL     1     -44.527  41.598  25.531  1.00  0.00     0.065 H 
ATOM     45  C   UNL     1     -42.440  42.275  27.666  1.00  0.00     0.136 A 
ATOM     46  C   UNL     1     -41.944  41.237  29.661  1.00  0.00     0.120 A 
ATOM     47  N   UNL     1     -41.696  42.221  28.783  1.00  0.00    -0.219 NA
ATOM     48  H   UNL     1     -41.313  41.220  30.545  1.00  0.00     0.106 H 
BRANCH  45  49
ATOM     49  N   UNL     1     -42.169  43.298  26.771  1.00  0.00    -0.383 N 
ATOM     50  H   UNL     1     -41.491  43.976  27.088  1.00  0.00     0.158 HD
ATOM     51  H   UNL     1     -42.032  42.928  25.837  1.00  0.00     0.158 HD
ENDBRANCH  45  49
ENDBRANCH  33  37
ENDBRANCH  25  28
ENDBRANCH   1  25
TORSDOF 7
ENDMDL
MODEL 4
REMARK VINA RESULT:      -9.8      1.719      3.238
REMARK SMILES CNc1ccc2ccc(CCc3cncc(-n4ccc5c(N)ncnc54)c3)cc2n1
REMARK SMILES IDX 10 1 9 4 3 5 4 6 30 7 5 8 29 10 6 11 28 13 7 14 8 16 2 19
REMARK SMILES IDX 1 21 11 25 12 28 13 29 27 30 14 31 16 33 15 35 17 37 18 38
REMARK SMILES IDX 26 39 19 40 20 42 25 43 21 45 24 46 23 47 22 49
REMARK H PARENT 10 2 10 3 4 9 5 12 28 15 7 17 8 18 2 20 1 22 1 23 1 24 11 26
REMARK H PARENT 11 27 13 32 27 34 15 36 18 41 19 44 24 48 22 50 22 51
REMARK Flexibility Score: inf
ROOT
ATOM      1  C   UNL     1     -46.751  35.280  26.356  1.00  0.00    -0.024 C 
ATOM      2  H   UNL     1     -45.724  35.163  26.726  1.00  0.00     0.032 H 
ATOM      3  H   UNL     1     -46.691  36.022  25.548  1.00  0.00     0.032 H 
ENDROOT
BRANCH   1   4
ATOM      4  C   UNL     1     -47.206  33.953  25.798  1.00  0.00    -0.046 A 
ATOM      5  C   UNL     1     -46.374  30.253  22.915  1.00  0.00     0.126 A 
ATOM      6  C   UNL     1     -47.542  29.614  23.306  1.00  0.00    -0.019 A 
ATOM      7  N   UNL     1     -46.010  31.453  23.404  1.00  0.00    -0.231 NA
ATOM      8  C   UNL     1     -48.359  30.222  24.252  1.00  0.00    -0.049 A 
ATOM      9  H   UNL     1     -47.828  28.664  22.869  1.00  0.00     0.066 H 
ATOM     10  C   UNL     1     -46.799  32.048  24.319  1.00  0.00     0.073 A 
ATOM     11  C   UNL     1     -47.993  31.463  24.781  1.00  0.00     0.000 A 
ATOM     12  H   UNL     1     -49.275  29.730  24.564  1.00  0.00     0.063 H 
ATOM     13  C   UNL     1     -46.430  33.282  24.838  1.00  0.00    -0.032 A 
ATOM     14  C   UNL     1     -48.782  32.120  25.741  1.00  0.00    -0.053 A 
ATOM     15  H   UNL     1     -45.506  33.730  24.479  1.00  0.00     0.065 H 
ATOM     16  C   UNL     1     -48.388  33.358  26.247  1.00  0.00    -0.058 A 
ATOM     17  H   UNL     1     -49.702  31.669  26.104  1.00  0.00     0.063 H 
ATOM     18  H   UNL     1     -49.003  33.848  26.999  1.00  0.00     0.063 H 
BRANCH   5  19
ATOM     19  N   UNL     1     -45.513  29.708  21.961  1.00  0.00    -0.373 N 
ATOM     20  H   UNL     1     -44.980  30.514  21.630  1.00  0.00     0.161 HD
BRANCH  19  21
ATOM     21  C   UNL     1     -44.634  28.674  22.482  1.00  0.00     0.005 C 
ATOM     22  H   UNL     1     -45.108  28.211  23.354  1.00  0.00     0.045 H 
ATOM     23  H   UNL     1     -44.454  27.886  21.743  1.00  0.00     0.045 H 
ATOM     24  H   UNL     1     -43.676  29.086  22.815  1.00  0.00     0.045 H 
ENDBRANCH  19  21
ENDBRANCH   5  19
ENDBRANCH   1   4
BRANCH   1  25
ATOM     25  C   UNL     1     -47.638  35.793  27.498  1.00  0.00    -0.022 C 
ATOM     26  H   UNL     1     -48.679  35.476  27.351  1.00  0.00     0.032 H 
ATOM     27  H   UNL     1     -47.315  35.321  28.436  1.00  0.00     0.032 H 
BRANCH  25  28
ATOM     28  C   UNL     1     -47.579  37.287  27.678  1.00  0.00    -0.027 A 
ATOM     29  C   UNL     1     -48.728  38.026  27.928  1.00  0.00     0.030 A 
ATOM     30  C   UNL     1     -46.366  37.983  27.574  1.00  0.00    -0.032 A 
ATOM     31  N   UNL     1     -48.736  39.366  28.087  1.00  0.00    -0.262 NA
ATOM     32  H   UNL     1     -49.703  37.551  28.004  1.00  0.00     0.084 H 
ATOM     33  C   UNL     1     -46.330  39.372  27.727  1.00  0.00     0.066 A 
ATOM     34  H   UNL     1     -45.469  37.402  27.390  1.00  0.00     0.065 H 
ATOM     35  C   UNL     1     -47.544  40.004  27.983  1.00  0.00     0.051 A 
ATOM     36  H   UNL     1     -47.641  41.077  28.106  1.00  0.00     0.086 H 
BRANCH  33  37
ATOM     37  N   UNL     1     -45.116  40.125  27.630  1.00  0.00    -0.300 N 
ATOM     38  C   UNL     1     -44.010  39.965  28.456  1.00  0.00     0.012 A 
ATOM     39  C   UNL     1     -44.800  41.139  26.718  1.00  0.00     0.150 A 
ATOM     40  C   UNL     1     -43.020  40.843  28.079  1.00  0.00    -0.031 A 
ATOM     41  H   UNL     1     -43.988  39.229  29.246  1.00  0.00     0.082 H 
ATOM     42  C   UNL     1     -43.509  41.588  26.983  1.00  0.00     0.061 A 
ATOM     43  N   UNL     1     -45.597  41.637  25.750  1.00  0.00    -0.218 NA
ATOM     44  H   UNL     1     -42.050  40.940  28.550  1.00  0.00     0.065 H 
ATOM     45  C   UNL     1     -43.003  42.615  26.172  1.00  0.00     0.136 A 
ATOM     46  C   UNL     1     -45.010  42.615  25.045  1.00  0.00     0.120 A 
ATOM     47  N   UNL     1     -43.775  43.117  25.194  1.00  0.00    -0.219 NA
ATOM     48  H   UNL     1     -45.608  43.055  24.251  1.00  0.00     0.106 H 
BRANCH  45  49
ATOM     49  N   UNL     1     -41.729  43.146  26.311  1.00  0.00    -0.383 N 
ATOM     50  H   UNL     1     -41.385  43.652  25.507  1.00  0.00     0.158 HD
ATOM     51  H   UNL     1     -41.632  43.609  27.208  1.00  0.00     0.158 HD
ENDBRANCH  45  49
ENDBRANCH  33  37
ENDBRANCH  25  28
ENDBRANCH   1  25
TORSDOF 7
ENDMDL
MODEL 5
REMARK VINA RESULT:      -9.8      1.773      2.709
REMARK SMILES CNc1ccc2ccc(CCc3cncc(-n4ccc5c(N)ncnc54)c3)cc2n1
REMARK SMILES IDX 10 1 9 4 3 5 4 6 30 7 5 8 29 10 6 11 28 13 7 14 8 16 2 19
REMARK SMILES IDX 1 21 11 25 12 28 13 29 27 30 14 31 16 33 15 35 17 37 18 38
REMARK SMILES IDX 26 39 19 40 20 42 25 43 21 45 24 46 23 47 22 49
REMARK H PARENT 10 2 10 3 4 9 5 12 28 15 7 17 8 18 2 20 1 22 1 23 1 24 11 26
REMARK H PARENT 11 27 13 32 27 34 15 36 18 41 19 44 24 48 22 50 22 51
REMARK Flexibility Score: inf
ROOT
ATOM      1  C   UNL     1     -48.380  35.995  27.714  1.00  0.00    -0.024 C 
ATOM      2  H   UNL     1     -49.476  36.027  27.658  1.00  0.00     0.032 H 
ATOM      3  H   UNL     1     -48.145  35.754  28.759  1.00  0.00     0.032 H 
ENDROOT
BRANCH   1   4
ATOM      4  C   UNL     1     -47.893  34.886  26.812  1.00  0.00    -0.046 A 
ATOM      5  C   UNL     1     -48.837  30.870  24.431  1.00  0.00     0.126 A 
ATOM      6  C   UNL     1     -47.551  30.808  23.913  1.00  0.00    -0.019 A 
ATOM      7  N   UNL     1     -49.234  31.852  25.261  1.00  0.00    -0.231 NA
ATOM      8  C   UNL     1     -46.643  31.807  24.245  1.00  0.00    -0.049 A 
ATOM      9  H   UNL     1     -47.249  29.986  23.275  1.00  0.00     0.066 H 
ATOM     10  C   UNL     1     -48.358  32.820  25.588  1.00  0.00     0.073 A 
ATOM     11  C   UNL     1     -47.038  32.842  25.096  1.00  0.00     0.000 A 
ATOM     12  H   UNL     1     -45.634  31.767  23.845  1.00  0.00     0.063 H 
ATOM     13  C   UNL     1     -48.757  33.845  26.436  1.00  0.00    -0.032 A 
ATOM     14  C   UNL     1     -46.161  33.877  25.461  1.00  0.00    -0.053 A 
ATOM     15  H   UNL     1     -49.778  33.824  26.814  1.00  0.00     0.065 H 
ATOM     16  C   UNL     1     -46.588  34.894  26.314  1.00  0.00    -0.058 A 
ATOM     17  H   UNL     1     -45.143  33.899  25.079  1.00  0.00     0.063 H 
ATOM     18  H   UNL     1     -45.899  35.694  26.577  1.00  0.00     0.063 H 
BRANCH   5  19
ATOM     19  N   UNL     1     -49.798  29.896  24.151  1.00  0.00    -0.373 N 
ATOM     20  H   UNL     1     -50.645  30.264  24.587  1.00  0.00     0.161 HD
BRANCH  19  21
ATOM     21  C   UNL     1     -49.997  29.655  22.732  1.00  0.00     0.005 C 
ATOM     22  H   UNL     1     -50.359  30.576  22.263  1.00  0.00     0.045 H 
ATOM     23  H   UNL     1     -49.063  29.373  22.235  1.00  0.00     0.045 H 
ATOM     24  H   UNL     1     -50.752  28.882  22.554  1.00  0.00     0.045 H 
ENDBRANCH  19  21
ENDBRANCH   5  19
ENDBRANCH   1   4
BRANCH   1  25
ATOM     25  C   UNL     1     -47.821  37.373  27.336  1.00  0.00    -0.022 C 
ATOM     26  H   UNL     1     -47.579  37.411  26.266  1.00  0.00     0.032 H 
ATOM     27  H   UNL     1     -48.604  38.127  27.490  1.00  0.00     0.032 H 
BRANCH  25  28
ATOM     28  C   UNL     1     -46.616  37.773  28.147  1.00  0.00    -0.027 A 
ATOM     29  C   UNL     1     -46.287  37.108  29.321  1.00  0.00     0.030 A 
ATOM     30  C   UNL     1     -45.803  38.847  27.756  1.00  0.00    -0.032 A 
ATOM     31  N   UNL     1     -45.228  37.430  30.092  1.00  0.00    -0.262 NA
ATOM     32  H   UNL     1     -46.885  36.278  29.689  1.00  0.00     0.084 H 
ATOM     33  C   UNL     1     -44.698  39.218  28.529  1.00  0.00     0.066 A 
ATOM     34  H   UNL     1     -46.056  39.358  26.834  1.00  0.00     0.065 H 
ATOM     35  C   UNL     1     -44.463  38.471  29.680  1.00  0.00     0.051 A 
ATOM     36  H   UNL     1     -43.646  38.675  30.363  1.00  0.00     0.086 H 
BRANCH  33  37
ATOM     37  N   UNL     1     -43.840  40.306  28.169  1.00  0.00    -0.300 N 
ATOM     38  C   UNL     1     -42.798  40.792  28.949  1.00  0.00     0.012 A 
ATOM     39  C   UNL     1     -43.870  41.079  27.003  1.00  0.00     0.150 A 
ATOM     40  C   UNL     1     -42.180  41.835  28.299  1.00  0.00    -0.031 A 
ATOM     41  H   UNL     1     -42.550  40.357  29.907  1.00  0.00     0.082 H 
ATOM     42  C   UNL     1     -42.849  42.023  27.069  1.00  0.00     0.061 A 
ATOM     43  N   UNL     1     -44.742  40.970  25.978  1.00  0.00    -0.218 NA
ATOM     44  H   UNL     1     -41.339  42.403  28.676  1.00  0.00     0.065 H 
ATOM     45  C   UNL     1     -42.712  42.904  25.986  1.00  0.00     0.136 A 
ATOM     46  C   UNL     1     -44.517  41.866  25.006  1.00  0.00     0.120 A 
ATOM     47  N   UNL     1     -43.561  42.805  24.950  1.00  0.00    -0.219 NA
ATOM     48  H   UNL     1     -45.192  41.825  24.156  1.00  0.00     0.106 H 
BRANCH  45  49
ATOM     49  N   UNL     1     -41.730  43.882  25.910  1.00  0.00    -0.383 N 
ATOM     50  H   UNL     1     -42.065  44.832  25.981  1.00  0.00     0.158 HD
ATOM     51  H   UNL     1     -40.940  43.639  26.497  1.00  0.00     0.158 HD
ENDBRANCH  45  49
ENDBRANCH  33  37
ENDBRANCH  25  28
ENDBRANCH   1  25
TORSDOF 7
ENDMDL
MODEL 6
REMARK VINA RESULT:      -9.6      2.479      4.742
REMARK SMILES CNc1ccc2ccc(CCc3cncc(-n4ccc5c(N)ncnc54)c3)cc2n1
REMARK SMILES IDX 10 1 9 4 3 5 4 6 30 7 5 8 29 10 6 11 28 13 7 14 8 16 2 19
REMARK SMILES IDX 1 21 11 25 12 28 13 29 27 30 14 31 16 33 15 35 17 37 18 38
REMARK SMILES IDX 26 39 19 40 20 42 25 43 21 45 24 46 23 47 22 49
REMARK H PARENT 10 2 10 3 4 9 5 12 28 15 7 17 8 18 2 20 1 22 1 23 1 24 11 26
REMARK H PARENT 11 27 13 32 27 34 15 36 18 41 19 44 24 48 22 50 22 51
REMARK Flexibility Score: inf
ROOT
ATOM      1  C   UNL     1     -48.334  34.164  26.516  1.00  0.00    -0.024 C 
ATOM      2  H   UNL     1     -48.794  34.903  25.847  1.00  0.00     0.032 H 
ATOM      3  H   UNL     1     -49.129  33.854  27.207  1.00  0.00     0.032 H 
ENDROOT
BRANCH   1   4
ATOM      4  C   UNL     1     -47.891  32.984  25.684  1.00  0.00    -0.046 A 
ATOM      5  C   UNL     1     -48.790  28.610  24.027  1.00  0.00     0.126 A 
ATOM      6  C   UNL     1     -47.611  28.584  23.295  1.00  0.00    -0.019 A 
ATOM      7  N   UNL     1     -49.144  29.663  24.788  1.00  0.00    -0.231 NA
ATOM      8  C   UNL     1     -46.771  29.691  23.331  1.00  0.00    -0.049 A 
ATOM      9  H   UNL     1     -47.335  27.709  22.719  1.00  0.00     0.066 H 
ATOM     10  C   UNL     1     -48.333  30.736  24.828  1.00  0.00     0.073 A 
ATOM     11  C   UNL     1     -47.125  30.799  24.106  1.00  0.00     0.000 A 
ATOM     12  H   UNL     1     -45.846  29.679  22.763  1.00  0.00     0.063 H 
ATOM     13  C   UNL     1     -48.690  31.833  25.602  1.00  0.00    -0.032 A 
ATOM     14  C   UNL     1     -46.314  31.944  24.176  1.00  0.00    -0.053 A 
ATOM     15  H   UNL     1     -49.624  31.781  26.158  1.00  0.00     0.065 H 
ATOM     16  C   UNL     1     -46.697  33.031  24.960  1.00  0.00    -0.058 A 
ATOM     17  H   UNL     1     -45.384  31.997  23.616  1.00  0.00     0.063 H 
ATOM     18  H   UNL     1     -46.063  33.914  24.994  1.00  0.00     0.063 H 
BRANCH   5  19
ATOM     19  N   UNL     1     -49.675  27.530  24.048  1.00  0.00    -0.373 N 
ATOM     20  H   UNL     1     -49.528  27.083  23.141  1.00  0.00     0.161 HD
BRANCH  19  21
ATOM     21  C   UNL     1     -49.444  26.599  25.138  1.00  0.00     0.005 C 
ATOM     22  H   UNL     1     -48.977  25.692  24.739  1.00  0.00     0.045 H 
ATOM     23  H   UNL     1     -48.766  27.018  25.890  1.00  0.00     0.045 H 
ATOM     24  H   UNL     1     -50.379  26.296  25.619  1.00  0.00     0.045 H 
ENDBRANCH  19  21
ENDBRANCH   5  19
ENDBRANCH   1   4
BRANCH   1  25
ATOM     25  C   UNL     1     -47.183  34.832  27.280  1.00  0.00    -0.022 C 
ATOM     26  H   UNL     1     -47.018  34.334  28.244  1.00  0.00     0.032 H 
ATOM     27  H   UNL     1     -46.253  34.693  26.712  1.00  0.00     0.032 H 
BRANCH  25  28
ATOM     28  C   UNL     1     -47.385  36.309  27.496  1.00  0.00    -0.027 A 
ATOM     29  C   UNL     1     -48.646  36.832  27.749  1.00  0.00     0.030 A 
ATOM     30  C   UNL     1     -46.310  37.207  27.423  1.00  0.00    -0.032 A 
ATOM     31  N   UNL     1     -48.888  38.146  27.939  1.00  0.00    -0.262 NA
ATOM     32  H   UNL     1     -49.525  36.193  27.802  1.00  0.00     0.084 H 
ATOM     33  C   UNL     1     -46.517  38.577  27.608  1.00  0.00     0.066 A 
ATOM     34  H   UNL     1     -45.324  36.795  27.235  1.00  0.00     0.065 H 
ATOM     35  C   UNL     1     -47.824  38.983  27.865  1.00  0.00     0.051 A 
ATOM     36  H   UNL     1     -48.106  40.019  28.011  1.00  0.00     0.086 H 
BRANCH  33  37
ATOM     37  N   UNL     1     -45.451  39.531  27.543  1.00  0.00    -0.300 N 
ATOM     38  C   UNL     1     -45.285  40.476  26.537  1.00  0.00     0.012 A 
ATOM     39  C   UNL     1     -44.392  39.704  28.442  1.00  0.00     0.150 A 
ATOM     40  C   UNL     1     -44.163  41.230  26.791  1.00  0.00    -0.031 A 
ATOM     41  H   UNL     1     -45.982  40.565  25.717  1.00  0.00     0.082 H 
ATOM     42  C   UNL     1     -43.593  40.751  27.991  1.00  0.00     0.061 A 
ATOM     43  N   UNL     1     -44.145  38.981  29.555  1.00  0.00    -0.218 NA
ATOM     44  H   UNL     1     -43.793  42.037  26.172  1.00  0.00     0.065 H 
ATOM     45  C   UNL     1     -42.468  41.083  28.761  1.00  0.00     0.136 A 
ATOM     46  C   UNL     1     -43.043  39.384  30.204  1.00  0.00     0.120 A 
ATOM     47  N   UNL     1     -42.210  40.384  29.879  1.00  0.00    -0.219 NA
ATOM     48  H   UNL     1     -42.795  38.835  31.107  1.00  0.00     0.106 H 
BRANCH  45  49
ATOM     49  N   UNL     1     -41.595  42.113  28.441  1.00  0.00    -0.383 N 
ATOM     50  H   UNL     1     -41.714  42.504  27.518  1.00  0.00     0.158 HD
ATOM     51  H   UNL     1     -41.531  42.776  29.205  1.00  0.00     0.158 HD
ENDBRANCH  45  49
ENDBRANCH  33  37
ENDBRANCH  25  28
ENDBRANCH   1  25
TORSDOF 7
ENDMDL
MODEL 7
REMARK VINA RESULT:      -9.5      2.610     11.066
REMARK SMILES CNc1ccc2ccc(CCc3cncc(-n4ccc5c(N)ncnc54)c3)cc2n1
REMARK SMILES IDX 10 1 9 4 3 5 4 6 30 7 5 8 29 10 6 11 28 13 7 14 8 16 2 19
REMARK SMILES IDX 1 21 11 25 12 28 13 29 27 30 14 31 16 33 15 35 17 37 18 38
REMARK SMILES IDX 26 39 19 40 20 42 25 43 21 45 24 46 23 47 22 49
REMARK H PARENT 10 2 10 3 4 9 5 12 28 15 7 17 8 18 2 20 1 22 1 23 1 24 11 26
REMARK H PARENT 11 27 13 32 27 34 15 36 18 41 19 44 24 48 22 50 22 51
REMARK Flexibility Score: inf
ROOT
ATOM      1  C   UNL     1     -47.694  36.683  26.970  1.00  0.00    -0.024 C 
ATOM      2  H   UNL     1     -48.567  37.345  27.039  1.00  0.00     0.032 H 
ATOM      3  H   UNL     1     -47.417  36.669  25.908  1.00  0.00     0.032 H 
ENDROOT
BRANCH   1   4
ATOM      4  C   UNL     1     -46.575  37.290  27.783  1.00  0.00    -0.046 A 
ATOM      5  C   UNL     1     -43.368  40.770  28.324  1.00  0.00     0.126 A 
ATOM      6  C   UNL     1     -42.918  40.245  29.528  1.00  0.00    -0.019 A 
ATOM      7  N   UNL     1     -44.345  40.188  27.603  1.00  0.00    -0.231 NA
ATOM      8  C   UNL     1     -43.509  39.087  30.020  1.00  0.00    -0.049 A 
ATOM      9  H   UNL     1     -42.106  40.715  30.069  1.00  0.00     0.066 H 
ATOM     10  C   UNL     1     -44.918  39.065  28.074  1.00  0.00     0.073 A 
ATOM     11  C   UNL     1     -44.533  38.473  29.292  1.00  0.00     0.000 A 
ATOM     12  H   UNL     1     -43.163  38.668  30.960  1.00  0.00     0.063 H 
ATOM     13  C   UNL     1     -45.933  38.460  27.345  1.00  0.00    -0.032 A 
ATOM     14  C   UNL     1     -45.165  37.303  29.746  1.00  0.00    -0.053 A 
ATOM     15  H   UNL     1     -46.229  38.920  26.404  1.00  0.00     0.065 H 
ATOM     16  C   UNL     1     -46.182  36.716  28.995  1.00  0.00    -0.058 A 
ATOM     17  H   UNL     1     -44.873  36.847  30.688  1.00  0.00     0.063 H 
ATOM     18  H   UNL     1     -46.669  35.817  29.365  1.00  0.00     0.063 H 
BRANCH   5  19
ATOM     19  N   UNL     1     -42.813  41.922  27.763  1.00  0.00    -0.373 N 
ATOM     20  H   UNL     1     -41.808  41.743  27.793  1.00  0.00     0.161 HD
BRANCH  19  21
ATOM     21  C   UNL     1     -43.260  42.192  26.407  1.00  0.00     0.005 C 
ATOM     22  H   UNL     1     -42.976  43.214  26.136  1.00  0.00     0.045 H 
ATOM     23  H   UNL     1     -42.792  41.514  25.685  1.00  0.00     0.045 H 
ATOM     24  H   UNL     1     -44.349  42.124  26.318  1.00  0.00     0.045 H 
ENDBRANCH  19  21
ENDBRANCH   5  19
ENDBRANCH   1   4
BRANCH   1  25
ATOM     25  C   UNL     1     -48.093  35.279  27.444  1.00  0.00    -0.022 C 
ATOM     26  H   UNL     1     -47.642  35.058  28.420  1.00  0.00     0.032 H 
ATOM     27  H   UNL     1     -49.179  35.256  27.608  1.00  0.00     0.032 H 
BRANCH  25  28
ATOM     28  C   UNL     1     -47.743  34.192  26.462  1.00  0.00    -0.027 A 
ATOM     29  C   UNL     1     -46.457  34.072  25.952  1.00  0.00     0.030 A 
ATOM     30  C   UNL     1     -48.711  33.283  26.010  1.00  0.00    -0.032 A 
ATOM     31  N   UNL     1     -46.089  33.127  25.062  1.00  0.00    -0.262 NA
ATOM     32  H   UNL     1     -45.664  34.755  26.248  1.00  0.00     0.084 H 
ATOM     33  C   UNL     1     -48.374  32.291  25.084  1.00  0.00     0.066 A 
ATOM     34  H   UNL     1     -49.712  33.372  26.418  1.00  0.00     0.065 H 
ATOM     35  C   UNL     1     -47.051  32.264  24.652  1.00  0.00     0.051 A 
ATOM     36  H   UNL     1     -46.679  31.549  23.926  1.00  0.00     0.086 H 
BRANCH  33  37
ATOM     37  N   UNL     1     -49.328  31.341  24.596  1.00  0.00    -0.300 N 
ATOM     38  C   UNL     1     -50.395  31.641  23.757  1.00  0.00     0.012 A 
ATOM     39  C   UNL     1     -49.384  29.966  24.850  1.00  0.00     0.150 A 
ATOM     40  C   UNL     1     -51.103  30.494  23.481  1.00  0.00    -0.031 A 
ATOM     41  H   UNL     1     -50.574  32.643  23.396  1.00  0.00     0.082 H 
ATOM     42  C   UNL     1     -50.472  29.432  24.165  1.00  0.00     0.061 A 
ATOM     43  N   UNL     1     -48.554  29.252  25.639  1.00  0.00    -0.218 NA
ATOM     44  H   UNL     1     -51.985  30.433  22.856  1.00  0.00     0.065 H 
ATOM     45  C   UNL     1     -50.704  28.053  24.294  1.00  0.00     0.136 A 
ATOM     46  C   UNL     1     -48.876  27.951  25.690  1.00  0.00     0.120 A 
ATOM     47  N   UNL     1     -49.882  27.322  25.065  1.00  0.00    -0.219 NA
ATOM     48  H   UNL     1     -48.241  27.327  26.313  1.00  0.00     0.106 H 
BRANCH  45  49
ATOM     49  N   UNL     1     -51.739  27.386  23.657  1.00  0.00    -0.383 N 
ATOM     50  H   UNL     1     -52.295  26.789  24.252  1.00  0.00     0.158 HD
ATOM     51  H   UNL     1     -52.249  28.017  23.050  1.00  0.00     0.158 HD
ENDBRANCH  45  49
ENDBRANCH  33  37
ENDBRANCH  25  28
ENDBRANCH   1  25
TORSDOF 7
ENDMDL
