MODEL 1
REMARK VINA RESULT:     -11.2      0.000      0.000
REMARK SMILES c1cc(-c2cn(Cc3ccc4cc(CNCC5CCC5)[nH]c4c3)nn2)c2[nH]ncc2c1
REMARK SMILES IDX 8 1 9 2 10 3 11 4 12 5 13 6 21 7 22 8 23 9 7 15 6 18 4 19
REMARK SMILES IDX 5 20 25 21 24 23 3 24 1 25 2 26 31 27 30 30 26 32 29 33
REMARK SMILES IDX 27 34 28 35 14 38 15 41 16 43 17 46 18 47 20 48 19 50
REMARK H PARENT 9 10 10 11 12 12 21 13 23 14 7 16 7 17 5 22 1 28 2 29 31 31
REMARK H PARENT 29 36 27 37 14 39 14 40 15 42 16 44 16 45 17 49 18 51 18 52
REMARK H PARENT 20 53 20 54 19 55 19 56
REMARK Flexibility Score: inf
ROOT
ATOM      1  C   UNL     1     -47.868  34.892  26.641  1.00  0.00    -0.024 A 
ATOM      2  C   UNL     1     -46.607  34.834  26.032  1.00  0.00    -0.056 A 
ATOM      3  C   UNL     1     -46.239  33.745  25.231  1.00  0.00    -0.052 A 
ATOM      4  C   UNL     1     -47.151  32.693  25.033  1.00  0.00    -0.000 A 
ATOM      5  C   UNL     1     -47.111  31.471  24.309  1.00  0.00    -0.032 A 
ATOM      6  C   UNL     1     -48.320  30.825  24.487  1.00  0.00     0.030 A 
ATOM      7  N   UNL     1     -49.089  31.625  25.298  1.00  0.00    -0.357 N 
ATOM      8  C   UNL     1     -48.402  32.768  25.641  1.00  0.00     0.046 A 
ATOM      9  C   UNL     1     -48.791  33.848  26.442  1.00  0.00    -0.033 A 
ATOM     10  H   UNL     1     -45.887  35.638  26.172  1.00  0.00     0.063 H 
ATOM     11  H   UNL     1     -45.258  33.713  24.766  1.00  0.00     0.063 H 
ATOM     12  H   UNL     1     -46.283  31.093  23.725  1.00  0.00     0.065 H 
ATOM     13  H   UNL     1     -50.025  31.408  25.610  1.00  0.00     0.166 HD
ATOM     14  H   UNL     1     -49.776  33.872  26.904  1.00  0.00     0.065 H 
ENDROOT
BRANCH   1  15
ATOM     15  C   UNL     1     -48.241  36.075  27.502  1.00  0.00     0.068 C 
ATOM     16  H   UNL     1     -49.004  36.700  27.024  1.00  0.00     0.057 H 
ATOM     17  H   UNL     1     -48.647  35.730  28.461  1.00  0.00     0.057 H 
BRANCH  15  18
ATOM     18  N   UNL     1     -47.100  36.935  27.761  1.00  0.00    -0.247 N 
ATOM     19  C   UNL     1     -45.603  38.494  27.760  1.00  0.00     0.115 A 
ATOM     20  C   UNL     1     -46.732  38.071  27.098  1.00  0.00     0.054 A 
ATOM     21  N   UNL     1     -45.343  37.625  28.795  1.00  0.00    -0.130 NA
ATOM     22  H   UNL     1     -47.281  38.443  26.246  1.00  0.00     0.086 H 
ATOM     23  N   UNL     1     -46.270  36.678  28.789  1.00  0.00    -0.066 NA
BRANCH  19  24
ATOM     24  C   UNL     1     -44.792  39.654  27.460  1.00  0.00     0.029 A 
ATOM     25  C   UNL     1     -44.079  41.505  26.030  1.00  0.00    -0.061 A 
ATOM     26  C   UNL     1     -44.889  40.391  26.268  1.00  0.00    -0.050 A 
ATOM     27  C   UNL     1     -43.140  41.925  26.979  1.00  0.00    -0.051 A 
ATOM     28  H   UNL     1     -44.178  42.054  25.096  1.00  0.00     0.062 H 
ATOM     29  H   UNL     1     -45.602  40.102  25.498  1.00  0.00     0.063 H 
ATOM     30  C   UNL     1     -43.023  41.203  28.178  1.00  0.00     0.020 A 
ATOM     31  H   UNL     1     -42.514  42.792  26.787  1.00  0.00     0.063 H 
ATOM     32  C   UNL     1     -43.839  40.098  28.392  1.00  0.00     0.075 A 
ATOM     33  C   UNL     1     -42.231  41.293  29.345  1.00  0.00     0.057 A 
ATOM     34  N   UNL     1     -43.481  39.627  29.632  1.00  0.00    -0.277 N 
ATOM     35  N   UNL     1     -42.506  40.335  30.233  1.00  0.00    -0.183 NA
ATOM     36  H   UNL     1     -41.464  42.019  29.580  1.00  0.00     0.087 H 
ATOM     37  H   UNL     1     -43.876  38.821  30.109  1.00  0.00     0.190 HD
ENDBRANCH  19  24
ENDBRANCH  15  18
ENDBRANCH   1  15
BRANCH   6  38
ATOM     38  C   UNL     1     -48.815  29.522  23.962  1.00  0.00     0.036 C 
ATOM     39  H   UNL     1     -48.066  29.107  23.277  1.00  0.00     0.049 H 
ATOM     40  H   UNL     1     -49.731  29.685  23.389  1.00  0.00     0.049 H 
BRANCH  38  41
ATOM     41  N   UNL     1     -49.029  28.619  25.078  1.00  0.00    -0.311 NA
ATOM     42  H   UNL     1     -50.011  28.374  25.174  1.00  0.00     0.123 HD
BRANCH  41  43
ATOM     43  C   UNL     1     -48.165  27.445  25.080  1.00  0.00    -0.002 C 
ATOM     44  H   UNL     1     -48.491  26.714  24.329  1.00  0.00     0.043 H 
ATOM     45  H   UNL     1     -47.178  27.788  24.743  1.00  0.00     0.043 H 
BRANCH  43  46
ATOM     46  C   UNL     1     -47.970  26.750  26.434  1.00  0.00    -0.029 C 
ATOM     47  C   UNL     1     -46.643  26.039  26.803  1.00  0.00    -0.049 C 
ATOM     48  C   UNL     1     -48.686  25.400  26.710  1.00  0.00    -0.049 C 
ATOM     49  H   UNL     1     -48.229  27.498  27.199  1.00  0.00     0.032 H 
ATOM     50  C   UNL     1     -47.330  24.693  26.511  1.00  0.00    -0.053 C 
ATOM     51  H   UNL     1     -46.371  26.161  27.859  1.00  0.00     0.027 H 
ATOM     52  H   UNL     1     -45.765  26.277  26.200  1.00  0.00     0.027 H 
ATOM     53  H   UNL     1     -49.071  25.316  27.733  1.00  0.00     0.027 H 
ATOM     54  H   UNL     1     -49.480  25.108  26.018  1.00  0.00     0.027 H 
ATOM     55  H   UNL     1     -47.111  23.890  27.220  1.00  0.00     0.027 H 
ATOM     56  H   UNL     1     -47.166  24.317  25.496  1.00  0.00     0.027 H 
ENDBRANCH  43  46
ENDBRANCH  41  43
ENDBRANCH  38  41
ENDBRANCH   6  38
TORSDOF 7
ENDMDL
MODEL 2
REMARK VINA RESULT:     -11.0      1.602      2.170
REMARK SMILES c1cc(-c2cn(Cc3ccc4cc(CNCC5CCC5)[nH]c4c3)nn2)c2[nH]ncc2c1
REMARK SMILES IDX 8 1 9 2 10 3 11 4 12 5 13 6 21 7 22 8 23 9 7 15 6 18 4 19
REMARK SMILES IDX 5 20 25 21 24 23 3 24 1 25 2 26 31 27 30 30 26 32 29 33
REMARK SMILES IDX 27 34 28 35 14 38 15 41 16 43 17 46 18 47 20 48 19 50
REMARK H PARENT 9 10 10 11 12 12 21 13 23 14 7 16 7 17 5 22 1 28 2 29 31 31
REMARK H PARENT 29 36 27 37 14 39 14 40 15 42 16 44 16 45 17 49 18 51 18 52
REMARK H PARENT 20 53 20 54 19 55 19 56
REMARK Flexibility Score: inf
ROOT
ATOM      1  C   UNL     1     -47.693  35.811  27.109  1.00  0.00    -0.024 A 
ATOM      2  C   UNL     1     -46.388  35.520  26.686  1.00  0.00    -0.056 A 
ATOM      3  C   UNL     1     -46.089  34.312  26.043  1.00  0.00    -0.052 A 
ATOM      4  C   UNL     1     -47.114  33.377  25.816  1.00  0.00    -0.000 A 
ATOM      5  C   UNL     1     -47.165  32.090  25.215  1.00  0.00    -0.032 A 
ATOM      6  C   UNL     1     -48.469  31.635  25.281  1.00  0.00     0.030 A 
ATOM      7  N   UNL     1     -49.205  32.613  25.905  1.00  0.00    -0.357 N 
ATOM      8  C   UNL     1     -48.405  33.684  26.237  1.00  0.00     0.046 A 
ATOM      9  C   UNL     1     -48.727  34.885  26.879  1.00  0.00    -0.033 A 
ATOM     10  H   UNL     1     -45.581  36.230  26.853  1.00  0.00     0.063 H 
ATOM     11  H   UNL     1     -45.073  34.099  25.722  1.00  0.00     0.063 H 
ATOM     12  H   UNL     1     -46.336  31.544  24.785  1.00  0.00     0.065 H 
ATOM     13  H   UNL     1     -50.195  32.559  26.104  1.00  0.00     0.166 HD
ATOM     14  H   UNL     1     -49.747  35.091  27.197  1.00  0.00     0.065 H 
ENDROOT
BRANCH   1  15
ATOM     15  C   UNL     1     -47.991  37.119  27.803  1.00  0.00     0.068 C 
ATOM     16  H   UNL     1     -48.922  37.568  27.439  1.00  0.00     0.057 H 
ATOM     17  H   UNL     1     -48.099  36.957  28.882  1.00  0.00     0.057 H 
BRANCH  15  18
ATOM     18  N   UNL     1     -46.942  38.099  27.582  1.00  0.00    -0.247 N 
ATOM     19  C   UNL     1     -45.218  39.396  27.719  1.00  0.00     0.115 A 
ATOM     20  C   UNL     1     -45.926  38.451  28.425  1.00  0.00     0.054 A 
ATOM     21  N   UNL     1     -45.808  39.565  26.488  1.00  0.00    -0.130 NA
ATOM     22  H   UNL     1     -45.821  38.021  29.410  1.00  0.00     0.086 H 
ATOM     23  N   UNL     1     -46.860  38.761  26.414  1.00  0.00    -0.066 NA
BRANCH  19  24
ATOM     24  C   UNL     1     -44.041  40.117  28.154  1.00  0.00     0.029 A 
ATOM     25  C   UNL     1     -42.225  40.581  29.724  1.00  0.00    -0.061 A 
ATOM     26  C   UNL     1     -43.359  39.852  29.354  1.00  0.00    -0.050 A 
ATOM     27  C   UNL     1     -41.730  41.603  28.907  1.00  0.00    -0.051 A 
ATOM     28  H   UNL     1     -41.719  40.352  30.660  1.00  0.00     0.062 H 
ATOM     29  H   UNL     1     -43.707  39.069  30.024  1.00  0.00     0.063 H 
ATOM     30  C   UNL     1     -42.396  41.887  27.703  1.00  0.00     0.020 A 
ATOM     31  H   UNL     1     -40.849  42.165  29.202  1.00  0.00     0.063 H 
ATOM     32  C   UNL     1     -43.522  41.150  27.356  1.00  0.00     0.075 A 
ATOM     33  C   UNL     1     -42.228  42.803  26.640  1.00  0.00     0.057 A 
ATOM     34  N   UNL     1     -43.928  41.667  26.150  1.00  0.00    -0.277 N 
ATOM     35  N   UNL     1     -43.158  42.672  25.692  1.00  0.00    -0.183 NA
ATOM     36  H   UNL     1     -41.463  43.560  26.522  1.00  0.00     0.087 H 
ATOM     37  H   UNL     1     -44.727  41.364  25.600  1.00  0.00     0.190 HD
ENDBRANCH  19  24
ENDBRANCH  15  18
ENDBRANCH   1  15
BRANCH   6  38
ATOM     38  C   UNL     1     -49.081  30.362  24.811  1.00  0.00     0.036 C 
ATOM     39  H   UNL     1     -49.251  30.428  23.729  1.00  0.00     0.049 H 
ATOM     40  H   UNL     1     -50.054  30.228  25.289  1.00  0.00     0.049 H 
BRANCH  38  41
ATOM     41  N   UNL     1     -48.176  29.268  25.112  1.00  0.00    -0.311 NA
ATOM     42  H   UNL     1     -47.336  29.599  25.578  1.00  0.00     0.123 HD
BRANCH  41  43
ATOM     43  C   UNL     1     -48.794  28.149  25.813  1.00  0.00    -0.002 C 
ATOM     44  H   UNL     1     -48.748  28.292  26.900  1.00  0.00     0.043 H 
ATOM     45  H   UNL     1     -49.861  28.177  25.560  1.00  0.00     0.043 H 
BRANCH  43  46
ATOM     46  C   UNL     1     -48.274  26.752  25.449  1.00  0.00    -0.029 C 
ATOM     47  C   UNL     1     -48.334  25.572  26.453  1.00  0.00    -0.049 C 
ATOM     48  C   UNL     1     -46.742  26.505  25.362  1.00  0.00    -0.049 C 
ATOM     49  H   UNL     1     -48.773  26.479  24.507  1.00  0.00     0.032 H 
ATOM     50  C   UNL     1     -46.830  25.773  26.716  1.00  0.00    -0.053 C 
ATOM     51  H   UNL     1     -48.560  24.612  25.973  1.00  0.00     0.027 H 
ATOM     52  H   UNL     1     -48.996  25.682  27.314  1.00  0.00     0.027 H 
ATOM     53  H   UNL     1     -46.458  25.847  24.532  1.00  0.00     0.027 H 
ATOM     54  H   UNL     1     -46.098  27.387  25.340  1.00  0.00     0.027 H 
ATOM     55  H   UNL     1     -46.240  24.855  26.792  1.00  0.00     0.027 H 
ATOM     56  H   UNL     1     -46.607  26.404  27.582  1.00  0.00     0.027 H 
ENDBRANCH  43  46
ENDBRANCH  41  43
ENDBRANCH  38  41
ENDBRANCH   6  38
TORSDOF 7
ENDMDL
MODEL 3
REMARK VINA RESULT:     -10.1      2.401     11.118
REMARK SMILES c1cc(-c2cn(Cc3ccc4cc(CNCC5CCC5)[nH]c4c3)nn2)c2[nH]ncc2c1
REMARK SMILES IDX 8 1 9 2 10 3 11 4 12 5 13 6 21 7 22 8 23 9 7 15 6 18 4 19
REMARK SMILES IDX 5 20 25 21 24 23 3 24 1 25 2 26 31 27 30 30 26 32 29 33
REMARK SMILES IDX 27 34 28 35 14 38 15 41 16 43 17 46 18 47 20 48 19 50
REMARK H PARENT 9 10 10 11 12 12 21 13 23 14 7 16 7 17 5 22 1 28 2 29 31 31
REMARK H PARENT 29 36 27 37 14 39 14 40 15 42 16 44 16 45 17 49 18 51 18 52
REMARK H PARENT 20 53 20 54 19 55 19 56
REMARK Flexibility Score: inf
ROOT
ATOM      1  C   UNL     1     -47.002  37.014  28.069  1.00  0.00    -0.024 A 
ATOM      2  C   UNL     1     -46.474  36.527  29.273  1.00  0.00    -0.056 A 
ATOM      3  C   UNL     1     -45.399  37.166  29.904  1.00  0.00    -0.052 A 
ATOM      4  C   UNL     1     -44.841  38.317  29.320  1.00  0.00    -0.000 A 
ATOM      5  C   UNL     1     -43.775  39.189  29.673  1.00  0.00    -0.032 A 
ATOM      6  C   UNL     1     -43.678  40.166  28.701  1.00  0.00     0.030 A 
ATOM      7  N   UNL     1     -44.657  39.909  27.771  1.00  0.00    -0.357 N 
ATOM      8  C   UNL     1     -45.379  38.791  28.127  1.00  0.00     0.046 A 
ATOM      9  C   UNL     1     -46.455  38.170  27.482  1.00  0.00    -0.033 A 
ATOM     10  H   UNL     1     -46.893  35.638  29.741  1.00  0.00     0.063 H 
ATOM     11  H   UNL     1     -45.000  36.777  30.836  1.00  0.00     0.063 H 
ATOM     12  H   UNL     1     -43.136  39.109  30.542  1.00  0.00     0.065 H 
ATOM     13  H   UNL     1     -44.824  40.453  26.937  1.00  0.00     0.166 HD
ATOM     14  H   UNL     1     -46.849  38.568  26.549  1.00  0.00     0.065 H 
ENDROOT
BRANCH   1  15
ATOM     15  C   UNL     1     -48.160  36.307  27.406  1.00  0.00     0.068 C 
ATOM     16  H   UNL     1     -48.888  35.945  28.140  1.00  0.00     0.057 H 
ATOM     17  H   UNL     1     -48.682  36.993  26.729  1.00  0.00     0.057 H 
BRANCH  15  18
ATOM     18  N   UNL     1     -47.721  35.148  26.648  1.00  0.00    -0.247 N 
ATOM     19  C   UNL     1     -47.536  33.240  25.648  1.00  0.00     0.115 A 
ATOM     20  C   UNL     1     -48.386  33.972  26.446  1.00  0.00     0.054 A 
ATOM     21  N   UNL     1     -46.416  33.994  25.384  1.00  0.00    -0.130 NA
ATOM     22  H   UNL     1     -49.353  33.774  26.884  1.00  0.00     0.086 H 
ATOM     23  N   UNL     1     -46.543  35.163  25.997  1.00  0.00    -0.066 NA
BRANCH  19  24
ATOM     24  C   UNL     1     -47.743  31.901  25.142  1.00  0.00     0.029 A 
ATOM     25  C   UNL     1     -48.718  29.661  25.237  1.00  0.00    -0.061 A 
ATOM     26  C   UNL     1     -48.554  30.942  25.772  1.00  0.00    -0.050 A 
ATOM     27  C   UNL     1     -48.076  29.290  24.051  1.00  0.00    -0.051 A 
ATOM     28  H   UNL     1     -49.353  28.940  25.750  1.00  0.00     0.062 H 
ATOM     29  H   UNL     1     -49.072  31.181  26.698  1.00  0.00     0.063 H 
ATOM     30  C   UNL     1     -47.258  30.231  23.404  1.00  0.00     0.020 A 
ATOM     31  H   UNL     1     -48.209  28.293  23.642  1.00  0.00     0.063 H 
ATOM     32  C   UNL     1     -47.110  31.499  23.954  1.00  0.00     0.075 A 
ATOM     33  C   UNL     1     -46.464  30.255  22.235  1.00  0.00     0.057 A 
ATOM     34  N   UNL     1     -46.263  32.161  23.098  1.00  0.00    -0.277 N 
ATOM     35  N   UNL     1     -45.857  31.428  22.045  1.00  0.00    -0.183 NA
ATOM     36  H   UNL     1     -46.306  29.461  21.516  1.00  0.00     0.087 H 
ATOM     37  H   UNL     1     -45.935  33.118  23.194  1.00  0.00     0.190 HD
ENDBRANCH  19  24
ENDBRANCH  15  18
ENDBRANCH   1  15
BRANCH   6  38
ATOM     38  C   UNL     1     -42.745  41.319  28.569  1.00  0.00     0.036 C 
ATOM     39  H   UNL     1     -41.894  41.019  27.945  1.00  0.00     0.049 H 
ATOM     40  H   UNL     1     -42.352  41.584  29.554  1.00  0.00     0.049 H 
BRANCH  38  41
ATOM     41  N   UNL     1     -43.453  42.427  27.955  1.00  0.00    -0.311 NA
ATOM     42  H   UNL     1     -43.681  43.145  28.636  1.00  0.00     0.123 HD
BRANCH  41  43
ATOM     43  C   UNL     1     -42.804  42.976  26.770  1.00  0.00    -0.002 C 
ATOM     44  H   UNL     1     -42.724  44.068  26.834  1.00  0.00     0.043 H 
ATOM     45  H   UNL     1     -41.771  42.606  26.784  1.00  0.00     0.043 H 
BRANCH  43  46
ATOM     46  C   UNL     1     -43.414  42.577  25.419  1.00  0.00    -0.029 C 
ATOM     47  C   UNL     1     -43.476  43.567  24.228  1.00  0.00    -0.049 C 
ATOM     48  C   UNL     1     -44.955  42.435  25.288  1.00  0.00    -0.049 C 
ATOM     49  H   UNL     1     -42.904  41.648  25.118  1.00  0.00     0.032 H 
ATOM     50  C   UNL     1     -44.969  43.781  24.538  1.00  0.00    -0.053 C 
ATOM     51  H   UNL     1     -43.305  43.083  23.258  1.00  0.00     0.027 H 
ATOM     52  H   UNL     1     -42.838  44.451  24.279  1.00  0.00     0.027 H 
ATOM     53  H   UNL     1     -45.259  41.588  24.662  1.00  0.00     0.027 H 
ATOM     54  H   UNL     1     -45.531  42.402  26.216  1.00  0.00     0.027 H 
ATOM     55  H   UNL     1     -45.628  43.827  23.666  1.00  0.00     0.027 H 
ATOM     56  H   UNL     1     -45.174  44.647  25.175  1.00  0.00     0.027 H 
ENDBRANCH  43  46
ENDBRANCH  41  43
ENDBRANCH  38  41
ENDBRANCH   6  38
TORSDOF 7
ENDMDL
MODEL 4
REMARK VINA RESULT:     -10.0      1.613      2.338
REMARK SMILES c1cc(-c2cn(Cc3ccc4cc(CNCC5CCC5)[nH]c4c3)nn2)c2[nH]ncc2c1
REMARK SMILES IDX 8 1 9 2 10 3 11 4 12 5 13 6 21 7 22 8 23 9 7 15 6 18 4 19
REMARK SMILES IDX 5 20 25 21 24 23 3 24 1 25 2 26 31 27 30 30 26 32 29 33
REMARK SMILES IDX 27 34 28 35 14 38 15 41 16 43 17 46 18 47 20 48 19 50
REMARK H PARENT 9 10 10 11 12 12 21 13 23 14 7 16 7 17 5 22 1 28 2 29 31 31
REMARK H PARENT 29 36 27 37 14 39 14 40 15 42 16 44 16 45 17 49 18 51 18 52
REMARK H PARENT 20 53 20 54 19 55 19 56
REMARK Flexibility Score: inf
ROOT
ATOM      1  C   UNL     1     -47.166  35.321  27.767  1.00  0.00    -0.024 A 
ATOM      2  C   UNL     1     -48.505  35.117  27.408  1.00  0.00    -0.056 A 
ATOM      3  C   UNL     1     -48.856  34.194  26.415  1.00  0.00    -0.052 A 
ATOM      4  C   UNL     1     -47.848  33.458  25.768  1.00  0.00    -0.000 A 
ATOM      5  C   UNL     1     -47.844  32.472  24.744  1.00  0.00    -0.032 A 
ATOM      6  C   UNL     1     -46.533  32.104  24.507  1.00  0.00     0.030 A 
ATOM      7  N   UNL     1     -45.746  32.840  25.360  1.00  0.00    -0.357 N 
ATOM      8  C   UNL     1     -46.522  33.669  26.140  1.00  0.00     0.046 A 
ATOM      9  C   UNL     1     -46.150  34.583  27.131  1.00  0.00    -0.033 A 
ATOM     10  H   UNL     1     -49.300  35.677  27.898  1.00  0.00     0.063 H 
ATOM     11  H   UNL     1     -49.898  34.047  26.147  1.00  0.00     0.063 H 
ATOM     12  H   UNL     1     -48.706  32.077  24.225  1.00  0.00     0.065 H 
ATOM     13  H   UNL     1     -44.738  32.792  25.409  1.00  0.00     0.166 HD
ATOM     14  H   UNL     1     -45.104  34.724  27.395  1.00  0.00     0.065 H 
ENDROOT
BRANCH   1  15
ATOM     15  C   UNL     1     -46.811  36.324  28.840  1.00  0.00     0.068 C 
ATOM     16  H   UNL     1     -47.662  36.532  29.498  1.00  0.00     0.057 H 
ATOM     17  H   UNL     1     -45.996  35.937  29.463  1.00  0.00     0.057 H 
BRANCH  15  18
ATOM     18  N   UNL     1     -46.401  37.597  28.273  1.00  0.00    -0.247 N 
ATOM     19  C   UNL     1     -45.324  39.351  27.613  1.00  0.00     0.115 A 
ATOM     20  C   UNL     1     -45.165  38.178  28.314  1.00  0.00     0.054 A 
ATOM     21  N   UNL     1     -46.623  39.428  27.165  1.00  0.00    -0.130 NA
ATOM     22  H   UNL     1     -44.331  37.723  28.828  1.00  0.00     0.086 H 
ATOM     23  N   UNL     1     -47.271  38.345  27.571  1.00  0.00    -0.066 NA
BRANCH  19  24
ATOM     24  C   UNL     1     -44.323  40.365  27.360  1.00  0.00     0.029 A 
ATOM     25  C   UNL     1     -43.251  42.072  25.976  1.00  0.00    -0.061 A 
ATOM     26  C   UNL     1     -44.241  41.103  26.167  1.00  0.00    -0.050 A 
ATOM     27  C   UNL     1     -42.306  42.339  26.972  1.00  0.00    -0.051 A 
ATOM     28  H   UNL     1     -43.214  42.626  25.040  1.00  0.00     0.062 H 
ATOM     29  H   UNL     1     -44.951  40.930  25.361  1.00  0.00     0.063 H 
ATOM     30  C   UNL     1     -42.367  41.613  28.173  1.00  0.00     0.020 A 
ATOM     31  H   UNL     1     -41.540  43.093  26.815  1.00  0.00     0.063 H 
ATOM     32  C   UNL     1     -43.360  40.654  28.340  1.00  0.00     0.075 A 
ATOM     33  C   UNL     1     -41.631  41.578  29.378  1.00  0.00     0.057 A 
ATOM     34  N   UNL     1     -43.145  40.135  29.594  1.00  0.00    -0.277 N 
ATOM     35  N   UNL     1     -42.101  40.680  30.247  1.00  0.00    -0.183 NA
ATOM     36  H   UNL     1     -40.770  42.173  29.655  1.00  0.00     0.087 H 
ATOM     37  H   UNL     1     -43.688  39.406  30.048  1.00  0.00     0.190 HD
ENDBRANCH  19  24
ENDBRANCH  15  18
ENDBRANCH   1  15
BRANCH   6  38
ATOM     38  C   UNL     1     -45.956  31.122  23.547  1.00  0.00     0.036 C 
ATOM     39  H   UNL     1     -44.870  31.074  23.697  1.00  0.00     0.049 H 
ATOM     40  H   UNL     1     -46.132  31.466  22.525  1.00  0.00     0.049 H 
BRANCH  38  41
ATOM     41  N   UNL     1     -46.555  29.822  23.790  1.00  0.00    -0.311 NA
ATOM     42  H   UNL     1     -46.895  29.743  24.744  1.00  0.00     0.123 HD
BRANCH  41  43
ATOM     43  C   UNL     1     -47.560  29.429  22.810  1.00  0.00    -0.002 C 
ATOM     44  H   UNL     1     -47.722  30.223  22.071  1.00  0.00     0.043 H 
ATOM     45  H   UNL     1     -47.132  28.589  22.248  1.00  0.00     0.043 H 
BRANCH  43  46
ATOM     46  C   UNL     1     -48.908  28.961  23.376  1.00  0.00    -0.029 C 
ATOM     47  C   UNL     1     -49.152  28.831  24.901  1.00  0.00    -0.049 C 
ATOM     48  C   UNL     1     -49.310  27.465  23.257  1.00  0.00    -0.049 C 
ATOM     49  H   UNL     1     -49.671  29.613  22.921  1.00  0.00     0.032 H 
ATOM     50  C   UNL     1     -48.985  27.308  24.756  1.00  0.00    -0.053 C 
ATOM     51  H   UNL     1     -50.166  29.125  25.200  1.00  0.00     0.027 H 
ATOM     52  H   UNL     1     -48.447  29.336  25.565  1.00  0.00     0.027 H 
ATOM     53  H   UNL     1     -50.372  27.320  23.027  1.00  0.00     0.027 H 
ATOM     54  H   UNL     1     -48.721  26.846  22.576  1.00  0.00     0.027 H 
ATOM     55  H   UNL     1     -49.693  26.701  25.329  1.00  0.00     0.027 H 
ATOM     56  H   UNL     1     -47.973  26.946  24.960  1.00  0.00     0.027 H 
ENDBRANCH  43  46
ENDBRANCH  41  43
ENDBRANCH  38  41
ENDBRANCH   6  38
TORSDOF 7
ENDMDL
MODEL 5
REMARK VINA RESULT:      -9.7      2.465      3.708
REMARK SMILES c1cc(-c2cn(Cc3ccc4cc(CNCC5CCC5)[nH]c4c3)nn2)c2[nH]ncc2c1
REMARK SMILES IDX 8 1 9 2 10 3 11 4 12 5 13 6 21 7 22 8 23 9 7 15 6 18 4 19
REMARK SMILES IDX 5 20 25 21 24 23 3 24 1 25 2 26 31 27 30 30 26 32 29 33
REMARK SMILES IDX 27 34 28 35 14 38 15 41 16 43 17 46 18 47 20 48 19 50
REMARK H PARENT 9 10 10 11 12 12 21 13 23 14 7 16 7 17 5 22 1 28 2 29 31 31
REMARK H PARENT 29 36 27 37 14 39 14 40 15 42 16 44 16 45 17 49 18 51 18 52
REMARK H PARENT 20 53 20 54 19 55 19 56
REMARK Flexibility Score: inf
ROOT
ATOM      1  C   UNL     1     -47.780  35.723  27.035  1.00  0.00    -0.024 A 
ATOM      2  C   UNL     1     -46.525  35.528  26.441  1.00  0.00    -0.056 A 
ATOM      3  C   UNL     1     -46.235  34.357  25.728  1.00  0.00    -0.052 A 
ATOM      4  C   UNL     1     -47.220  33.361  25.605  1.00  0.00    -0.000 A 
ATOM      5  C   UNL     1     -47.266  32.087  24.977  1.00  0.00    -0.032 A 
ATOM      6  C   UNL     1     -48.519  31.545  25.195  1.00  0.00     0.030 A 
ATOM      7  N   UNL     1     -49.230  32.458  25.937  1.00  0.00    -0.357 N 
ATOM      8  C   UNL     1     -48.463  33.572  26.197  1.00  0.00     0.046 A 
ATOM      9  C   UNL     1     -48.775  34.735  26.910  1.00  0.00    -0.033 A 
ATOM     10  H   UNL     1     -45.750  36.287  26.525  1.00  0.00     0.063 H 
ATOM     11  H   UNL     1     -45.258  34.220  25.274  1.00  0.00     0.063 H 
ATOM     12  H   UNL     1     -46.467  31.608  24.429  1.00  0.00     0.065 H 
ATOM     13  H   UNL     1     -50.180  32.333  26.258  1.00  0.00     0.166 HD
ATOM     14  H   UNL     1     -49.756  34.865  27.361  1.00  0.00     0.065 H 
ENDROOT
BRANCH   1  15
ATOM     15  C   UNL     1     -48.068  36.992  27.801  1.00  0.00     0.068 C 
ATOM     16  H   UNL     1     -49.009  37.454  27.481  1.00  0.00     0.057 H 
ATOM     17  H   UNL     1     -48.151  36.775  28.872  1.00  0.00     0.057 H 
BRANCH  15  18
ATOM     18  N   UNL     1     -47.028  37.987  27.607  1.00  0.00    -0.247 N 
ATOM     19  C   UNL     1     -45.308  39.286  27.773  1.00  0.00     0.115 A 
ATOM     20  C   UNL     1     -45.998  38.304  28.446  1.00  0.00     0.054 A 
ATOM     21  N   UNL     1     -45.924  39.511  26.563  1.00  0.00    -0.130 NA
ATOM     22  H   UNL     1     -45.870  37.827  29.406  1.00  0.00     0.086 H 
ATOM     23  N   UNL     1     -46.973  38.706  26.470  1.00  0.00    -0.066 NA
BRANCH  19  24
ATOM     24  C   UNL     1     -44.126  39.991  28.218  1.00  0.00     0.029 A 
ATOM     25  C   UNL     1     -42.318  40.432  29.805  1.00  0.00    -0.061 A 
ATOM     26  C   UNL     1     -43.458  39.717  29.424  1.00  0.00    -0.050 A 
ATOM     27  C   UNL     1     -41.803  41.448  28.993  1.00  0.00    -0.051 A 
ATOM     28  H   UNL     1     -41.824  40.196  30.745  1.00  0.00     0.062 H 
ATOM     29  H   UNL     1     -43.822  38.939  30.090  1.00  0.00     0.063 H 
ATOM     30  C   UNL     1     -42.454  41.741  27.783  1.00  0.00     0.020 A 
ATOM     31  H   UNL     1     -40.917  41.998  29.296  1.00  0.00     0.063 H 
ATOM     32  C   UNL     1     -43.587  41.018  27.425  1.00  0.00     0.075 A 
ATOM     33  C   UNL     1     -42.265  42.655  26.722  1.00  0.00     0.057 A 
ATOM     34  N   UNL     1     -43.975  41.541  26.215  1.00  0.00    -0.277 N 
ATOM     35  N   UNL     1     -43.188  42.536  25.765  1.00  0.00    -0.183 NA
ATOM     36  H   UNL     1     -41.489  43.401  26.611  1.00  0.00     0.087 H 
ATOM     37  H   UNL     1     -44.773  41.248  25.659  1.00  0.00     0.190 HD
ENDBRANCH  19  24
ENDBRANCH  15  18
ENDBRANCH   1  15
BRANCH   6  38
ATOM     38  C   UNL     1     -49.105  30.245  24.768  1.00  0.00     0.036 C 
ATOM     39  H   UNL     1     -49.438  29.696  25.657  1.00  0.00     0.049 H 
ATOM     40  H   UNL     1     -48.336  29.643  24.278  1.00  0.00     0.049 H 
BRANCH  38  41
ATOM     41  N   UNL     1     -50.229  30.504  23.887  1.00  0.00    -0.311 NA
ATOM     42  H   UNL     1     -50.481  31.488  23.887  1.00  0.00     0.123 HD
BRANCH  41  43
ATOM     43  C   UNL     1     -50.074  29.974  22.538  1.00  0.00    -0.002 C 
ATOM     44  H   UNL     1     -49.380  29.124  22.526  1.00  0.00     0.043 H 
ATOM     45  H   UNL     1     -51.050  29.557  22.255  1.00  0.00     0.043 H 
BRANCH  43  46
ATOM     46  C   UNL     1     -49.679  30.986  21.455  1.00  0.00    -0.029 C 
ATOM     47  C   UNL     1     -50.386  31.023  20.075  1.00  0.00    -0.049 C 
ATOM     48  C   UNL     1     -48.343  30.799  20.684  1.00  0.00    -0.049 C 
ATOM     49  H   UNL     1     -49.724  31.976  21.934  1.00  0.00     0.032 H 
ATOM     50  C   UNL     1     -49.163  30.305  19.475  1.00  0.00    -0.053 C 
ATOM     51  H   UNL     1     -50.518  32.041  19.688  1.00  0.00     0.027 H 
ATOM     52  H   UNL     1     -51.343  30.505  19.991  1.00  0.00     0.027 H 
ATOM     53  H   UNL     1     -47.818  31.743  20.493  1.00  0.00     0.027 H 
ATOM     54  H   UNL     1     -47.628  30.083  21.097  1.00  0.00     0.027 H 
ATOM     55  H   UNL     1     -48.833  30.674  18.500  1.00  0.00     0.027 H 
ATOM     56  H   UNL     1     -49.266  29.217  19.419  1.00  0.00     0.027 H 
ENDBRANCH  43  46
ENDBRANCH  41  43
ENDBRANCH  38  41
ENDBRANCH   6  38
TORSDOF 7
ENDMDL
MODEL 6
REMARK VINA RESULT:      -9.7      2.490      3.352
REMARK SMILES c1cc(-c2cn(Cc3ccc4cc(CNCC5CCC5)[nH]c4c3)nn2)c2[nH]ncc2c1
REMARK SMILES IDX 8 1 9 2 10 3 11 4 12 5 13 6 21 7 22 8 23 9 7 15 6 18 4 19
REMARK SMILES IDX 5 20 25 21 24 23 3 24 1 25 2 26 31 27 30 30 26 32 29 33
REMARK SMILES IDX 27 34 28 35 14 38 15 41 16 43 17 46 18 47 20 48 19 50
REMARK H PARENT 9 10 10 11 12 12 21 13 23 14 7 16 7 17 5 22 1 28 2 29 31 31
REMARK H PARENT 29 36 27 37 14 39 14 40 15 42 16 44 16 45 17 49 18 51 18 52
REMARK H PARENT 20 53 20 54 19 55 19 56
REMARK Flexibility Score: inf
ROOT
ATOM      1  C   UNL     1     -46.914  35.223  27.760  1.00  0.00    -0.024 A 
ATOM      2  C   UNL     1     -48.278  35.105  27.458  1.00  0.00    -0.056 A 
ATOM      3  C   UNL     1     -48.729  34.210  26.480  1.00  0.00    -0.052 A 
ATOM      4  C   UNL     1     -47.798  33.415  25.789  1.00  0.00    -0.000 A 
ATOM      5  C   UNL     1     -47.900  32.436  24.764  1.00  0.00    -0.032 A 
ATOM      6  C   UNL     1     -46.626  31.986  24.470  1.00  0.00     0.030 A 
ATOM      7  N   UNL     1     -45.759  32.667  25.290  1.00  0.00    -0.357 N 
ATOM      8  C   UNL     1     -46.447  33.540  26.103  1.00  0.00     0.046 A 
ATOM      9  C   UNL     1     -45.975  34.425  27.080  1.00  0.00    -0.033 A 
ATOM     10  H   UNL     1     -49.014  35.712  27.982  1.00  0.00     0.063 H 
ATOM     11  H   UNL     1     -49.789  34.131  26.256  1.00  0.00     0.063 H 
ATOM     12  H   UNL     1     -48.807  32.097  24.281  1.00  0.00     0.065 H 
ATOM     13  H   UNL     1     -44.755  32.556  25.295  1.00  0.00     0.166 HD
ATOM     14  H   UNL     1     -44.912  34.498  27.298  1.00  0.00     0.065 H 
ENDROOT
BRANCH   1  15
ATOM     15  C   UNL     1     -46.451  36.196  28.818  1.00  0.00     0.068 C 
ATOM     16  H   UNL     1     -47.259  36.456  29.511  1.00  0.00     0.057 H 
ATOM     17  H   UNL     1     -45.637  35.755  29.405  1.00  0.00     0.057 H 
BRANCH  15  18
ATOM     18  N   UNL     1     -45.984  37.443  28.236  1.00  0.00    -0.247 N 
ATOM     19  C   UNL     1     -44.920  39.256  27.733  1.00  0.00     0.115 A 
ATOM     20  C   UNL     1     -44.927  38.213  28.631  1.00  0.00     0.054 A 
ATOM     21  N   UNL     1     -45.943  39.072  26.832  1.00  0.00    -0.130 NA
ATOM     22  H   UNL     1     -44.317  37.959  29.485  1.00  0.00     0.086 H 
ATOM     23  N   UNL     1     -46.584  37.956  27.147  1.00  0.00    -0.066 NA
BRANCH  19  24
ATOM     24  C   UNL     1     -44.008  40.378  27.699  1.00  0.00     0.029 A 
ATOM     25  C   UNL     1     -42.251  41.790  28.648  1.00  0.00    -0.061 A 
ATOM     26  C   UNL     1     -43.111  40.691  28.735  1.00  0.00    -0.050 A 
ATOM     27  C   UNL     1     -42.255  42.617  27.520  1.00  0.00    -0.051 A 
ATOM     28  H   UNL     1     -41.569  42.006  29.468  1.00  0.00     0.062 H 
ATOM     29  H   UNL     1     -43.073  40.079  29.634  1.00  0.00     0.063 H 
ATOM     30  C   UNL     1     -43.144  42.325  26.472  1.00  0.00     0.020 A 
ATOM     31  H   UNL     1     -41.584  43.469  27.460  1.00  0.00     0.063 H 
ATOM     32  C   UNL     1     -43.990  41.228  26.580  1.00  0.00     0.075 A 
ATOM     33  C   UNL     1     -43.451  42.889  25.213  1.00  0.00     0.057 A 
ATOM     34  N   UNL     1     -44.716  41.222  25.414  1.00  0.00    -0.277 N 
ATOM     35  N   UNL     1     -44.407  42.220  24.565  1.00  0.00    -0.183 NA
ATOM     36  H   UNL     1     -43.013  43.761  24.744  1.00  0.00     0.087 H 
ATOM     37  H   UNL     1     -45.436  40.553  25.154  1.00  0.00     0.190 HD
ENDBRANCH  19  24
ENDBRANCH  15  18
ENDBRANCH   1  15
BRANCH   6  38
ATOM     38  C   UNL     1     -46.154  30.974  23.485  1.00  0.00     0.036 C 
ATOM     39  H   UNL     1     -46.333  29.971  23.891  1.00  0.00     0.049 H 
ATOM     40  H   UNL     1     -45.077  31.083  23.340  1.00  0.00     0.049 H 
BRANCH  38  41
ATOM     41  N   UNL     1     -46.886  31.151  22.244  1.00  0.00    -0.311 NA
ATOM     42  H   UNL     1     -46.287  31.516  21.509  1.00  0.00     0.123 HD
BRANCH  41  43
ATOM     43  C   UNL     1     -47.637  29.978  21.813  1.00  0.00    -0.002 C 
ATOM     44  H   UNL     1     -48.296  30.219  20.970  1.00  0.00     0.043 H 
ATOM     45  H   UNL     1     -46.900  29.269  21.415  1.00  0.00     0.043 H 
BRANCH  43  46
ATOM     46  C   UNL     1     -48.432  29.247  22.903  1.00  0.00    -0.029 C 
ATOM     47  C   UNL     1     -49.020  27.831  22.673  1.00  0.00    -0.049 C 
ATOM     48  C   UNL     1     -49.876  29.712  23.239  1.00  0.00    -0.049 C 
ATOM     49  H   UNL     1     -47.795  29.256  23.801  1.00  0.00     0.032 H 
ATOM     50  C   UNL     1     -50.401  28.481  22.474  1.00  0.00    -0.053 C 
ATOM     51  H   UNL     1     -48.970  27.196  23.567  1.00  0.00     0.027 H 
ATOM     52  H   UNL     1     -48.626  27.258  21.831  1.00  0.00     0.027 H 
ATOM     53  H   UNL     1     -50.101  29.683  24.311  1.00  0.00     0.027 H 
ATOM     54  H   UNL     1     -50.188  30.683  22.846  1.00  0.00     0.027 H 
ATOM     55  H   UNL     1     -51.239  27.958  22.944  1.00  0.00     0.027 H 
ATOM     56  H   UNL     1     -50.656  28.678  21.428  1.00  0.00     0.027 H 
ENDBRANCH  43  46
ENDBRANCH  41  43
ENDBRANCH  38  41
ENDBRANCH   6  38
TORSDOF 7
ENDMDL
MODEL 7
REMARK VINA RESULT:      -9.6      2.477      4.453
REMARK SMILES c1cc(-c2cn(Cc3ccc4cc(CNCC5CCC5)[nH]c4c3)nn2)c2[nH]ncc2c1
REMARK SMILES IDX 8 1 9 2 10 3 11 4 12 5 13 6 21 7 22 8 23 9 7 15 6 18 4 19
REMARK SMILES IDX 5 20 25 21 24 23 3 24 1 25 2 26 31 27 30 30 26 32 29 33
REMARK SMILES IDX 27 34 28 35 14 38 15 41 16 43 17 46 18 47 20 48 19 50
REMARK H PARENT 9 10 10 11 12 12 21 13 23 14 7 16 7 17 5 22 1 28 2 29 31 31
REMARK H PARENT 29 36 27 37 14 39 14 40 15 42 16 44 16 45 17 49 18 51 18 52
REMARK H PARENT 20 53 20 54 19 55 19 56
REMARK Flexibility Score: inf
ROOT
ATOM      1  C   UNL     1     -45.544  37.507  28.767  1.00  0.00    -0.024 A 
ATOM      2  C   UNL     1     -46.554  38.050  27.961  1.00  0.00    -0.056 A 
ATOM      3  C   UNL     1     -47.175  37.286  26.965  1.00  0.00    -0.052 A 
ATOM      4  C   UNL     1     -46.780  35.951  26.772  1.00  0.00    -0.000 A 
ATOM      5  C   UNL     1     -47.180  34.919  25.879  1.00  0.00    -0.032 A 
ATOM      6  C   UNL     1     -46.424  33.795  26.154  1.00  0.00     0.030 A 
ATOM      7  N   UNL     1     -45.579  34.120  27.188  1.00  0.00    -0.357 N 
ATOM      8  C   UNL     1     -45.778  35.424  27.584  1.00  0.00     0.046 A 
ATOM      9  C   UNL     1     -45.147  36.169  28.587  1.00  0.00    -0.033 A 
ATOM     10  H   UNL     1     -46.874  39.082  28.096  1.00  0.00     0.063 H 
ATOM     11  H   UNL     1     -47.955  37.721  26.348  1.00  0.00     0.063 H 
ATOM     12  H   UNL     1     -47.935  34.989  25.108  1.00  0.00     0.065 H 
ATOM     13  H   UNL     1     -44.899  33.498  27.601  1.00  0.00     0.166 HD
ATOM     14  H   UNL     1     -44.367  35.726  29.201  1.00  0.00     0.065 H 
ENDROOT
BRANCH   1  15
ATOM     15  C   UNL     1     -44.887  38.352  29.833  1.00  0.00     0.068 C 
ATOM     16  H   UNL     1     -45.626  38.846  30.473  1.00  0.00     0.057 H 
ATOM     17  H   UNL     1     -44.257  37.724  30.476  1.00  0.00     0.057 H 
BRANCH  15  18
ATOM     18  N   UNL     1     -44.064  39.402  29.259  1.00  0.00    -0.247 N 
ATOM     19  C   UNL     1     -43.176  40.926  28.010  1.00  0.00     0.115 A 
ATOM     20  C   UNL     1     -44.188  39.995  28.034  1.00  0.00     0.054 A 
ATOM     21  N   UNL     1     -42.500  40.879  29.207  1.00  0.00    -0.130 NA
ATOM     22  H   UNL     1     -44.946  39.697  27.325  1.00  0.00     0.086 H 
ATOM     23  N   UNL     1     -43.056  39.945  29.966  1.00  0.00    -0.066 NA
BRANCH  19  24
ATOM     24  C   UNL     1     -42.841  41.831  26.932  1.00  0.00     0.029 A 
ATOM     25  C   UNL     1     -41.261  43.000  25.477  1.00  0.00    -0.061 A 
ATOM     26  C   UNL     1     -41.526  42.116  26.527  1.00  0.00    -0.050 A 
ATOM     27  C   UNL     1     -42.303  43.633  24.791  1.00  0.00    -0.051 A 
ATOM     28  H   UNL     1     -40.231  43.200  25.188  1.00  0.00     0.062 H 
ATOM     29  H   UNL     1     -40.682  41.651  27.032  1.00  0.00     0.063 H 
ATOM     30  C   UNL     1     -43.627  43.365  25.179  1.00  0.00     0.020 A 
ATOM     31  H   UNL     1     -42.089  44.318  23.977  1.00  0.00     0.063 H 
ATOM     32  C   UNL     1     -43.866  42.483  26.226  1.00  0.00     0.075 A 
ATOM     33  C   UNL     1     -44.911  43.782  24.763  1.00  0.00     0.057 A 
ATOM     34  N   UNL     1     -45.234  42.443  26.352  1.00  0.00    -0.277 N 
ATOM     35  N   UNL     1     -45.893  43.223  25.474  1.00  0.00    -0.183 NA
ATOM     36  H   UNL     1     -45.168  44.472  23.969  1.00  0.00     0.087 H 
ATOM     37  H   UNL     1     -45.763  41.897  27.025  1.00  0.00     0.190 HD
ENDBRANCH  19  24
ENDBRANCH  15  18
ENDBRANCH   1  15
BRANCH   6  38
ATOM     38  C   UNL     1     -46.425  32.444  25.528  1.00  0.00     0.036 C 
ATOM     39  H   UNL     1     -46.911  31.736  26.211  1.00  0.00     0.049 H 
ATOM     40  H   UNL     1     -45.395  32.109  25.385  1.00  0.00     0.049 H 
BRANCH  38  41
ATOM     41  N   UNL     1     -47.151  32.510  24.273  1.00  0.00    -0.311 NA
ATOM     42  H   UNL     1     -46.526  32.689  23.492  1.00  0.00     0.123 HD
BRANCH  41  43
ATOM     43  C   UNL     1     -48.034  31.376  24.026  1.00  0.00    -0.002 C 
ATOM     44  H   UNL     1     -48.115  30.738  24.915  1.00  0.00     0.043 H 
ATOM     45  H   UNL     1     -49.037  31.793  23.873  1.00  0.00     0.043 H 
BRANCH  43  46
ATOM     46  C   UNL     1     -47.703  30.517  22.798  1.00  0.00    -0.029 C 
ATOM     47  C   UNL     1     -47.562  28.976  22.894  1.00  0.00    -0.049 C 
ATOM     48  C   UNL     1     -46.264  30.539  22.214  1.00  0.00    -0.049 C 
ATOM     49  H   UNL     1     -48.446  30.786  22.031  1.00  0.00     0.032 H 
ATOM     50  C   UNL     1     -46.034  29.154  22.850  1.00  0.00    -0.053 C 
ATOM     51  H   UNL     1     -47.959  28.454  22.014  1.00  0.00     0.027 H 
ATOM     52  H   UNL     1     -47.970  28.492  23.784  1.00  0.00     0.027 H 
ATOM     53  H   UNL     1     -46.242  30.521  21.118  1.00  0.00     0.027 H 
ATOM     54  H   UNL     1     -45.601  31.336  22.559  1.00  0.00     0.027 H 
ATOM     55  H   UNL     1     -45.495  28.435  22.227  1.00  0.00     0.027 H 
ATOM     56  H   UNL     1     -45.559  29.187  23.835  1.00  0.00     0.027 H 
ENDBRANCH  43  46
ENDBRANCH  41  43
ENDBRANCH  38  41
ENDBRANCH   6  38
TORSDOF 7
ENDMDL
