MODEL 1
REMARK VINA RESULT:     -10.7      0.000      0.000
REMARK SMILES O[C@@H]1CCC[C@@H]1NCc1cc2ccc(Cn3cc(-c4cccc5[nH]ncc45)nn3)cc2[nH]1
REMARK SMILES IDX 9 1 10 2 11 3 12 4 13 5 14 6 30 7 31 8 32 9 8 15 7 18 6 20
REMARK SMILES IDX 2 21 3 22 4 24 5 27 1 33 15 35 16 38 17 39 29 40 18 41 28 43
REMARK SMILES IDX 19 44 20 45 27 46 21 47 23 49 26 50 22 51 24 53 25 54
REMARK H PARENT 10 10 12 11 13 12 30 13 32 14 8 16 8 17 7 19 2 23 3 25 3 26
REMARK H PARENT 6 28 4 29 4 30 5 31 5 32 1 34 15 36 15 37 17 42 20 48 21 52
REMARK H PARENT 26 55 22 56 24 57
REMARK Flexibility Score: inf
ROOT
ATOM      1  C   UNL     1     -48.069  30.631  24.275  1.00  0.00     0.030 A 
ATOM      2  C   UNL     1     -46.896  31.349  24.155  1.00  0.00    -0.032 A 
ATOM      3  C   UNL     1     -47.033  32.544  24.914  1.00  0.00    -0.000 A 
ATOM      4  C   UNL     1     -46.188  33.637  25.177  1.00  0.00    -0.052 A 
ATOM      5  C   UNL     1     -46.645  34.677  25.994  1.00  0.00    -0.056 A 
ATOM      6  C   UNL     1     -47.929  34.647  26.558  1.00  0.00    -0.024 A 
ATOM      7  C   UNL     1     -48.785  33.563  26.297  1.00  0.00    -0.033 A 
ATOM      8  C   UNL     1     -48.308  32.533  25.476  1.00  0.00     0.046 A 
ATOM      9  N   UNL     1     -48.920  31.374  25.058  1.00  0.00    -0.357 N 
ATOM     10  H   UNL     1     -46.025  31.044  23.590  1.00  0.00     0.065 H 
ATOM     11  H   UNL     1     -45.189  33.676  24.753  1.00  0.00     0.063 H 
ATOM     12  H   UNL     1     -45.978  35.517  26.192  1.00  0.00     0.063 H 
ATOM     13  H   UNL     1     -49.787  33.516  26.715  1.00  0.00     0.065 H 
ATOM     14  H   UNL     1     -49.852  31.070  25.307  1.00  0.00     0.166 HD
ENDROOT
BRANCH   1  15
ATOM     15  C   UNL     1     -48.474  29.315  23.705  1.00  0.00     0.036 C 
ATOM     16  H   UNL     1     -47.615  28.764  23.310  1.00  0.00     0.049 H 
ATOM     17  H   UNL     1     -49.117  29.526  22.841  1.00  0.00     0.049 H 
BRANCH  15  18
ATOM     18  N   UNL     1     -49.258  28.548  24.672  1.00  0.00    -0.306 NA
ATOM     19  H   UNL     1     -50.129  28.284  24.211  1.00  0.00     0.123 HD
BRANCH  18  20
ATOM     20  C   UNL     1     -48.645  27.314  25.180  1.00  0.00     0.033 C 
ATOM     21  C   UNL     1     -48.679  26.935  26.677  1.00  0.00     0.069 C 
ATOM     22  C   UNL     1     -47.804  25.683  26.692  1.00  0.00    -0.025 C 
ATOM     23  H   UNL     1     -49.689  26.730  27.045  1.00  0.00     0.062 H 
ATOM     24  C   UNL     1     -46.681  25.973  25.687  1.00  0.00    -0.049 C 
ATOM     25  H   UNL     1     -48.381  24.816  26.349  1.00  0.00     0.029 H 
ATOM     26  H   UNL     1     -47.396  25.457  27.682  1.00  0.00     0.029 H 
ATOM     27  C   UNL     1     -47.166  27.136  24.813  1.00  0.00    -0.035 C 
ATOM     28  H   UNL     1     -49.189  26.515  24.657  1.00  0.00     0.049 H 
ATOM     29  H   UNL     1     -46.464  25.085  25.085  1.00  0.00     0.027 H 
ATOM     30  H   UNL     1     -45.758  26.253  26.205  1.00  0.00     0.027 H 
ATOM     31  H   UNL     1     -46.576  28.030  25.041  1.00  0.00     0.028 H 
ATOM     32  H   UNL     1     -47.033  26.919  23.747  1.00  0.00     0.028 H 
BRANCH  21  33
ATOM     33  O   UNL     1     -48.053  27.890  27.527  1.00  0.00    -0.392 OA
ATOM     34  H   UNL     1     -47.250  27.465  27.878  1.00  0.00     0.211 HD
ENDBRANCH  21  33
ENDBRANCH  18  20
ENDBRANCH  15  18
ENDBRANCH   1  15
BRANCH   6  35
ATOM     35  C   UNL     1     -48.396  35.781  27.441  1.00  0.00     0.068 C 
ATOM     36  H   UNL     1     -49.292  36.244  27.014  1.00  0.00     0.057 H 
ATOM     37  H   UNL     1     -48.650  35.431  28.449  1.00  0.00     0.057 H 
BRANCH  35  38
ATOM     38  N   UNL     1     -47.375  36.801  27.601  1.00  0.00    -0.247 N 
ATOM     39  C   UNL     1     -47.209  37.952  26.885  1.00  0.00     0.054 A 
ATOM     40  N   UNL     1     -46.394  36.645  28.508  1.00  0.00    -0.066 NA
ATOM     41  C   UNL     1     -46.076  38.521  27.425  1.00  0.00     0.113 A 
ATOM     42  H   UNL     1     -47.885  38.247  26.098  1.00  0.00     0.086 H 
ATOM     43  N   UNL     1     -45.596  37.700  28.413  1.00  0.00    -0.130 NA
BRANCH  41  44
ATOM     44  C   UNL     1     -45.469  39.774  27.031  1.00  0.00     0.015 A 
ATOM     45  C   UNL     1     -44.071  39.950  26.986  1.00  0.00    -0.052 A 
ATOM     46  C   UNL     1     -46.288  40.869  26.672  1.00  0.00     0.029 A 
ATOM     47  C   UNL     1     -43.504  41.169  26.604  1.00  0.00    -0.059 A 
ATOM     48  H   UNL     1     -43.406  39.128  27.237  1.00  0.00     0.063 H 
ATOM     49  C   UNL     1     -45.689  42.071  26.298  1.00  0.00     0.066 A 
ATOM     50  C   UNL     1     -47.677  41.140  26.579  1.00  0.00     0.057 A 
ATOM     51  C   UNL     1     -44.305  42.258  26.252  1.00  0.00    -0.036 A 
ATOM     52  H   UNL     1     -42.422  41.269  26.574  1.00  0.00     0.062 H 
ATOM     53  N   UNL     1     -46.724  42.925  26.017  1.00  0.00    -0.278 N 
ATOM     54  N   UNL     1     -47.942  42.389  26.187  1.00  0.00    -0.183 NA
ATOM     55  H   UNL     1     -48.504  40.471  26.784  1.00  0.00     0.087 H 
ATOM     56  H   UNL     1     -43.864  43.203  25.954  1.00  0.00     0.065 H 
ATOM     57  H   UNL     1     -46.663  43.888  25.709  1.00  0.00     0.190 HD
ENDBRANCH  41  44
ENDBRANCH  35  38
ENDBRANCH   6  35
TORSDOF 7
ENDMDL
MODEL 2
REMARK VINA RESULT:     -10.5      1.746      2.231
REMARK SMILES O[C@@H]1CCC[C@@H]1NCc1cc2ccc(Cn3cc(-c4cccc5[nH]ncc45)nn3)cc2[nH]1
REMARK SMILES IDX 9 1 10 2 11 3 12 4 13 5 14 6 30 7 31 8 32 9 8 15 7 18 6 20
REMARK SMILES IDX 2 21 3 22 4 24 5 27 1 33 15 35 16 38 17 39 29 40 18 41 28 43
REMARK SMILES IDX 19 44 20 45 27 46 21 47 23 49 26 50 22 51 24 53 25 54
REMARK H PARENT 10 10 12 11 13 12 30 13 32 14 8 16 8 17 7 19 2 23 3 25 3 26
REMARK H PARENT 6 28 4 29 4 30 5 31 5 32 1 34 15 36 15 37 17 42 20 48 21 52
REMARK H PARENT 26 55 22 56 24 57
REMARK Flexibility Score: inf
ROOT
ATOM      1  C   UNL     1     -48.237  31.615  24.855  1.00  0.00     0.030 A 
ATOM      2  C   UNL     1     -46.946  32.103  24.879  1.00  0.00    -0.032 A 
ATOM      3  C   UNL     1     -46.954  33.332  25.595  1.00  0.00    -0.000 A 
ATOM      4  C   UNL     1     -45.961  34.263  25.950  1.00  0.00    -0.052 A 
ATOM      5  C   UNL     1     -46.318  35.400  26.684  1.00  0.00    -0.056 A 
ATOM      6  C   UNL     1     -47.646  35.625  27.075  1.00  0.00    -0.024 A 
ATOM      7  C   UNL     1     -48.648  34.705  26.721  1.00  0.00    -0.033 A 
ATOM      8  C   UNL     1     -48.270  33.574  25.986  1.00  0.00     0.046 A 
ATOM      9  N   UNL     1     -49.027  32.530  25.509  1.00  0.00    -0.357 N 
ATOM     10  H   UNL     1     -46.082  31.623  24.438  1.00  0.00     0.065 H 
ATOM     11  H   UNL     1     -44.927  34.103  25.659  1.00  0.00     0.063 H 
ATOM     12  H   UNL     1     -45.537  36.112  26.955  1.00  0.00     0.063 H 
ATOM     13  H   UNL     1     -49.685  34.857  27.005  1.00  0.00     0.065 H 
ATOM     14  H   UNL     1     -50.023  32.410  25.638  1.00  0.00     0.166 HD
ENDROOT
BRANCH   1  15
ATOM     15  C   UNL     1     -48.804  30.373  24.258  1.00  0.00     0.036 C 
ATOM     16  H   UNL     1     -48.111  29.914  23.546  1.00  0.00     0.049 H 
ATOM     17  H   UNL     1     -49.681  30.673  23.670  1.00  0.00     0.049 H 
BRANCH  15  18
ATOM     18  N   UNL     1     -49.255  29.453  25.300  1.00  0.00    -0.306 NA
ATOM     19  H   UNL     1     -50.152  29.072  24.998  1.00  0.00     0.123 HD
BRANCH  18  20
ATOM     20  C   UNL     1     -48.376  28.312  25.592  1.00  0.00     0.033 C 
ATOM     21  C   UNL     1     -47.585  27.580  24.485  1.00  0.00     0.069 C 
ATOM     22  C   UNL     1     -46.971  26.422  25.269  1.00  0.00    -0.025 C 
ATOM     23  H   UNL     1     -46.820  28.206  24.017  1.00  0.00     0.062 H 
ATOM     24  C   UNL     1     -48.057  25.999  26.267  1.00  0.00    -0.049 C 
ATOM     25  H   UNL     1     -46.088  26.767  25.820  1.00  0.00     0.029 H 
ATOM     26  H   UNL     1     -46.674  25.583  24.632  1.00  0.00     0.029 H 
ATOM     27  C   UNL     1     -49.051  27.163  26.352  1.00  0.00    -0.035 C 
ATOM     28  H   UNL     1     -47.620  28.729  26.272  1.00  0.00     0.049 H 
ATOM     29  H   UNL     1     -47.616  25.778  27.245  1.00  0.00     0.027 H 
ATOM     30  H   UNL     1     -48.568  25.093  25.924  1.00  0.00     0.027 H 
ATOM     31  H   UNL     1     -49.998  26.865  25.889  1.00  0.00     0.028 H 
ATOM     32  H   UNL     1     -49.265  27.433  27.392  1.00  0.00     0.028 H 
BRANCH  21  33
ATOM     33  O   UNL     1     -48.408  27.007  23.474  1.00  0.00    -0.392 OA
ATOM     34  H   UNL     1     -47.928  26.230  23.133  1.00  0.00     0.211 HD
ENDBRANCH  21  33
ENDBRANCH  18  20
ENDBRANCH  15  18
ENDBRANCH   1  15
BRANCH   6  35
ATOM     35  C   UNL     1     -48.002  36.859  27.872  1.00  0.00     0.068 C 
ATOM     36  H   UNL     1     -48.508  37.587  27.228  1.00  0.00     0.057 H 
ATOM     37  H   UNL     1     -48.678  36.623  28.703  1.00  0.00     0.057 H 
BRANCH  35  38
ATOM     38  N   UNL     1     -46.830  37.487  28.455  1.00  0.00    -0.247 N 
ATOM     39  C   UNL     1     -46.059  38.487  27.936  1.00  0.00     0.054 A 
ATOM     40  N   UNL     1     -46.337  37.050  29.628  1.00  0.00    -0.066 NA
ATOM     41  C   UNL     1     -45.068  38.668  28.877  1.00  0.00     0.113 A 
ATOM     42  H   UNL     1     -46.281  38.958  26.992  1.00  0.00     0.086 H 
ATOM     43  N   UNL     1     -45.260  37.774  29.899  1.00  0.00    -0.130 NA
BRANCH  41  44
ATOM     44  C   UNL     1     -43.989  39.631  28.819  1.00  0.00     0.015 A 
ATOM     45  C   UNL     1     -43.012  39.726  29.830  1.00  0.00    -0.052 A 
ATOM     46  C   UNL     1     -43.894  40.512  27.717  1.00  0.00     0.029 A 
ATOM     47  C   UNL     1     -41.979  40.663  29.755  1.00  0.00    -0.059 A 
ATOM     48  H   UNL     1     -43.039  39.055  30.684  1.00  0.00     0.063 H 
ATOM     49  C   UNL     1     -42.852  41.437  27.676  1.00  0.00     0.066 A 
ATOM     50  C   UNL     1     -44.620  40.768  26.526  1.00  0.00     0.057 A 
ATOM     51  C   UNL     1     -41.878  41.542  28.674  1.00  0.00    -0.036 A 
ATOM     52  H   UNL     1     -41.237  40.706  30.550  1.00  0.00     0.062 H 
ATOM     53  N   UNL     1     -43.028  42.137  26.512  1.00  0.00    -0.278 N 
ATOM     54  N   UNL     1     -44.098  41.758  25.797  1.00  0.00    -0.183 NA
ATOM     55  H   UNL     1     -45.512  40.270  26.167  1.00  0.00     0.087 H 
ATOM     56  H   UNL     1     -41.075  42.268  28.616  1.00  0.00     0.065 H 
ATOM     57  H   UNL     1     -42.452  42.889  26.150  1.00  0.00     0.190 HD
ENDBRANCH  41  44
ENDBRANCH  35  38
ENDBRANCH   6  35
TORSDOF 7
ENDMDL
MODEL 3
REMARK VINA RESULT:     -10.5      2.534      3.986
REMARK SMILES O[C@@H]1CCC[C@@H]1NCc1cc2ccc(Cn3cc(-c4cccc5[nH]ncc45)nn3)cc2[nH]1
REMARK SMILES IDX 9 1 10 2 11 3 12 4 13 5 14 6 30 7 31 8 32 9 8 15 7 18 6 20
REMARK SMILES IDX 2 21 3 22 4 24 5 27 1 33 15 35 16 38 17 39 29 40 18 41 28 43
REMARK SMILES IDX 19 44 20 45 27 46 21 47 23 49 26 50 22 51 24 53 25 54
REMARK H PARENT 10 10 12 11 13 12 30 13 32 14 8 16 8 17 7 19 2 23 3 25 3 26
REMARK H PARENT 6 28 4 29 4 30 5 31 5 32 1 34 15 36 15 37 17 42 20 48 21 52
REMARK H PARENT 26 55 22 56 24 57
REMARK Flexibility Score: inf
ROOT
ATOM      1  C   UNL     1     -48.071  32.826  26.102  1.00  0.00     0.030 A 
ATOM      2  C   UNL     1     -46.769  33.136  26.442  1.00  0.00    -0.032 A 
ATOM      3  C   UNL     1     -46.751  34.468  26.941  1.00  0.00    -0.000 A 
ATOM      4  C   UNL     1     -45.741  35.310  27.440  1.00  0.00    -0.052 A 
ATOM      5  C   UNL     1     -46.073  36.602  27.865  1.00  0.00    -0.056 A 
ATOM      6  C   UNL     1     -47.394  37.069  27.804  1.00  0.00    -0.024 A 
ATOM      7  C   UNL     1     -48.410  36.238  27.301  1.00  0.00    -0.033 A 
ATOM      8  C   UNL     1     -48.057  34.949  26.881  1.00  0.00     0.046 A 
ATOM      9  N   UNL     1     -48.831  33.943  26.353  1.00  0.00    -0.357 N 
ATOM     10  H   UNL     1     -45.918  32.472  26.353  1.00  0.00     0.065 H 
ATOM     11  H   UNL     1     -44.713  34.964  27.499  1.00  0.00     0.063 H 
ATOM     12  H   UNL     1     -45.281  37.243  28.253  1.00  0.00     0.063 H 
ATOM     13  H   UNL     1     -49.441  36.576  27.236  1.00  0.00     0.065 H 
ATOM     14  H   UNL     1     -49.829  33.981  26.193  1.00  0.00     0.166 HD
ENDROOT
BRANCH   1  15
ATOM     15  C   UNL     1     -48.667  31.578  25.545  1.00  0.00     0.036 C 
ATOM     16  H   UNL     1     -49.299  31.785  24.676  1.00  0.00     0.049 H 
ATOM     17  H   UNL     1     -49.338  31.176  26.315  1.00  0.00     0.049 H 
BRANCH  15  18
ATOM     18  N   UNL     1     -47.633  30.579  25.283  1.00  0.00    -0.306 NA
ATOM     19  H   UNL     1     -47.956  29.699  25.688  1.00  0.00     0.123 HD
BRANCH  18  20
ATOM     20  C   UNL     1     -47.318  30.318  23.873  1.00  0.00     0.033 C 
ATOM     21  C   UNL     1     -46.085  30.938  23.178  1.00  0.00     0.069 C 
ATOM     22  C   UNL     1     -46.294  30.486  21.734  1.00  0.00    -0.025 C 
ATOM     23  H   UNL     1     -45.135  30.576  23.584  1.00  0.00     0.062 H 
ATOM     24  C   UNL     1     -47.809  30.575  21.506  1.00  0.00    -0.049 C 
ATOM     25  H   UNL     1     -45.971  29.445  21.615  1.00  0.00     0.029 H 
ATOM     26  H   UNL     1     -45.751  31.101  21.010  1.00  0.00     0.029 H 
ATOM     27  C   UNL     1     -48.457  30.627  22.894  1.00  0.00    -0.035 C 
ATOM     28  H   UNL     1     -47.166  29.230  23.834  1.00  0.00     0.049 H 
ATOM     29  H   UNL     1     -48.163  29.714  20.931  1.00  0.00     0.027 H 
ATOM     30  H   UNL     1     -48.064  31.477  20.939  1.00  0.00     0.027 H 
ATOM     31  H   UNL     1     -48.881  31.624  23.059  1.00  0.00     0.028 H 
ATOM     32  H   UNL     1     -49.277  29.905  22.981  1.00  0.00     0.028 H 
BRANCH  21  33
ATOM     33  O   UNL     1     -46.083  32.361  23.172  1.00  0.00    -0.392 OA
ATOM     34  H   UNL     1     -45.612  32.635  22.364  1.00  0.00     0.211 HD
ENDBRANCH  21  33
ENDBRANCH  18  20
ENDBRANCH  15  18
ENDBRANCH   1  15
BRANCH   6  35
ATOM     35  C   UNL     1     -47.726  38.466  28.274  1.00  0.00     0.068 C 
ATOM     36  H   UNL     1     -48.804  38.645  28.185  1.00  0.00     0.057 H 
ATOM     37  H   UNL     1     -47.449  38.616  29.325  1.00  0.00     0.057 H 
BRANCH  35  38
ATOM     38  N   UNL     1     -47.020  39.479  27.510  1.00  0.00    -0.247 N 
ATOM     39  C   UNL     1     -45.711  39.855  27.609  1.00  0.00     0.054 A 
ATOM     40  N   UNL     1     -47.676  40.232  26.609  1.00  0.00    -0.066 NA
ATOM     41  C   UNL     1     -45.584  40.871  26.687  1.00  0.00     0.113 A 
ATOM     42  H   UNL     1     -45.022  39.381  28.291  1.00  0.00     0.086 H 
ATOM     43  N   UNL     1     -46.802  41.084  26.093  1.00  0.00    -0.130 NA
BRANCH  41  44
ATOM     44  C   UNL     1     -44.379  41.612  26.382  1.00  0.00     0.015 A 
ATOM     45  C   UNL     1     -44.252  42.390  25.214  1.00  0.00    -0.052 A 
ATOM     46  C   UNL     1     -43.283  41.569  27.274  1.00  0.00     0.029 A 
ATOM     47  C   UNL     1     -43.079  43.098  24.936  1.00  0.00    -0.059 A 
ATOM     48  H   UNL     1     -45.078  42.465  24.511  1.00  0.00     0.063 H 
ATOM     49  C   UNL     1     -42.128  42.284  26.964  1.00  0.00     0.066 A 
ATOM     50  C   UNL     1     -42.973  40.944  28.509  1.00  0.00     0.057 A 
ATOM     51  C   UNL     1     -41.989  43.058  25.808  1.00  0.00    -0.036 A 
ATOM     52  H   UNL     1     -43.016  43.694  24.028  1.00  0.00     0.062 H 
ATOM     53  N   UNL     1     -41.260  42.046  27.998  1.00  0.00    -0.278 N 
ATOM     54  N   UNL     1     -41.744  41.229  28.946  1.00  0.00    -0.183 NA
ATOM     55  H   UNL     1     -43.601  40.291  29.103  1.00  0.00     0.087 H 
ATOM     56  H   UNL     1     -41.080  43.608  25.593  1.00  0.00     0.065 H 
ATOM     57  H   UNL     1     -40.321  42.408  28.112  1.00  0.00     0.190 HD
ENDBRANCH  41  44
ENDBRANCH  35  38
ENDBRANCH   6  35
TORSDOF 7
ENDMDL
MODEL 4
REMARK VINA RESULT:     -10.3      3.874     11.303
REMARK SMILES O[C@@H]1CCC[C@@H]1NCc1cc2ccc(Cn3cc(-c4cccc5[nH]ncc45)nn3)cc2[nH]1
REMARK SMILES IDX 9 1 10 2 11 3 12 4 13 5 14 6 30 7 31 8 32 9 8 15 7 18 6 20
REMARK SMILES IDX 2 21 3 22 4 24 5 27 1 33 15 35 16 38 17 39 29 40 18 41 28 43
REMARK SMILES IDX 19 44 20 45 27 46 21 47 23 49 26 50 22 51 24 53 25 54
REMARK H PARENT 10 10 12 11 13 12 30 13 32 14 8 16 8 17 7 19 2 23 3 25 3 26
REMARK H PARENT 6 28 4 29 4 30 5 31 5 32 1 34 15 36 15 37 17 42 20 48 21 52
REMARK H PARENT 26 55 22 56 24 57
REMARK Flexibility Score: inf
ROOT
ATOM      1  C   UNL     1     -44.055  40.020  28.220  1.00  0.00     0.030 A 
ATOM      2  C   UNL     1     -44.089  39.079  29.229  1.00  0.00    -0.032 A 
ATOM      3  C   UNL     1     -45.116  38.143  28.922  1.00  0.00    -0.000 A 
ATOM      4  C   UNL     1     -45.602  36.984  29.554  1.00  0.00    -0.052 A 
ATOM      5  C   UNL     1     -46.652  36.271  28.964  1.00  0.00    -0.056 A 
ATOM      6  C   UNL     1     -47.224  36.688  27.753  1.00  0.00    -0.024 A 
ATOM      7  C   UNL     1     -46.749  37.848  27.115  1.00  0.00    -0.033 A 
ATOM      8  C   UNL     1     -45.699  38.548  27.723  1.00  0.00     0.046 A 
ATOM      9  N   UNL     1     -45.051  39.695  27.330  1.00  0.00    -0.357 N 
ATOM     10  H   UNL     1     -43.439  39.056  30.094  1.00  0.00     0.065 H 
ATOM     11  H   UNL     1     -45.170  36.643  30.490  1.00  0.00     0.063 H 
ATOM     12  H   UNL     1     -47.018  35.373  29.463  1.00  0.00     0.063 H 
ATOM     13  H   UNL     1     -47.177  38.198  26.181  1.00  0.00     0.065 H 
ATOM     14  H   UNL     1     -45.238  40.227  26.490  1.00  0.00     0.166 HD
ENDROOT
BRANCH   1  15
ATOM     15  C   UNL     1     -43.181  41.211  28.021  1.00  0.00     0.036 C 
ATOM     16  H   UNL     1     -42.225  40.939  27.564  1.00  0.00     0.049 H 
ATOM     17  H   UNL     1     -42.937  41.597  29.019  1.00  0.00     0.049 H 
BRANCH  15  18
ATOM     18  N   UNL     1     -43.891  42.262  27.295  1.00  0.00    -0.306 NA
ATOM     19  H   UNL     1     -43.748  43.132  27.808  1.00  0.00     0.123 HD
BRANCH  18  20
ATOM     20  C   UNL     1     -43.465  42.502  25.909  1.00  0.00     0.033 C 
ATOM     21  C   UNL     1     -42.415  43.576  25.547  1.00  0.00     0.069 C 
ATOM     22  C   UNL     1     -42.445  43.522  24.020  1.00  0.00    -0.025 C 
ATOM     23  H   UNL     1     -41.420  43.355  25.943  1.00  0.00     0.062 H 
ATOM     24  C   UNL     1     -43.920  43.303  23.660  1.00  0.00    -0.049 C 
ATOM     25  H   UNL     1     -41.854  42.671  23.662  1.00  0.00     0.029 H 
ATOM     26  H   UNL     1     -42.057  44.433  23.552  1.00  0.00     0.029 H 
ATOM     27  C   UNL     1     -44.610  42.794  24.931  1.00  0.00    -0.035 C 
ATOM     28  H   UNL     1     -43.030  41.543  25.597  1.00  0.00     0.049 H 
ATOM     29  H   UNL     1     -44.013  42.585  22.839  1.00  0.00     0.027 H 
ATOM     30  H   UNL     1     -44.383  44.239  23.331  1.00  0.00     0.027 H 
ATOM     31  H   UNL     1     -45.287  43.568  25.309  1.00  0.00     0.028 H 
ATOM     32  H   UNL     1     -45.212  41.901  24.729  1.00  0.00     0.028 H 
BRANCH  21  33
ATOM     33  O   UNL     1     -42.790  44.897  25.923  1.00  0.00    -0.392 OA
ATOM     34  H   UNL     1     -42.267  45.118  26.715  1.00  0.00     0.211 HD
ENDBRANCH  21  33
ENDBRANCH  18  20
ENDBRANCH  15  18
ENDBRANCH   1  15
BRANCH   6  35
ATOM     35  C   UNL     1     -48.352  35.896  27.135  1.00  0.00     0.068 C 
ATOM     36  H   UNL     1     -49.039  35.551  27.916  1.00  0.00     0.057 H 
ATOM     37  H   UNL     1     -48.931  36.501  26.427  1.00  0.00     0.057 H 
BRANCH  35  38
ATOM     38  N   UNL     1     -47.868  34.743  26.397  1.00  0.00    -0.247 N 
ATOM     39  C   UNL     1     -48.490  33.545  26.195  1.00  0.00     0.054 A 
ATOM     40  N   UNL     1     -46.635  34.749  25.861  1.00  0.00    -0.066 NA
ATOM     41  C   UNL     1     -47.576  32.812  25.469  1.00  0.00     0.113 A 
ATOM     42  H   UNL     1     -49.482  33.338  26.565  1.00  0.00     0.086 H 
ATOM     43  N   UNL     1     -46.449  33.570  25.282  1.00  0.00    -0.130 NA
BRANCH  41  44
ATOM     44  C   UNL     1     -47.749  31.461  24.979  1.00  0.00     0.015 A 
ATOM     45  C   UNL     1     -48.582  30.528  25.627  1.00  0.00    -0.052 A 
ATOM     46  C   UNL     1     -47.070  31.047  23.810  1.00  0.00     0.029 A 
ATOM     47  C   UNL     1     -48.735  29.228  25.138  1.00  0.00    -0.059 A 
ATOM     48  H   UNL     1     -49.136  30.812  26.518  1.00  0.00     0.063 H 
ATOM     49  C   UNL     1     -47.243  29.742  23.351  1.00  0.00     0.066 A 
ATOM     50  C   UNL     1     -46.168  31.617  22.876  1.00  0.00     0.057 A 
ATOM     51  C   UNL     1     -48.065  28.807  23.987  1.00  0.00    -0.036 A 
ATOM     52  H   UNL     1     -49.390  28.533  25.659  1.00  0.00     0.062 H 
ATOM     53  N   UNL     1     -46.468  29.643  22.225  1.00  0.00    -0.278 N 
ATOM     54  N   UNL     1     -45.797  30.764  21.917  1.00  0.00    -0.183 NA
ATOM     55  H   UNL     1     -45.766  32.623  22.863  1.00  0.00     0.087 H 
ATOM     56  H   UNL     1     -48.184  27.798  23.608  1.00  0.00     0.065 H 
ATOM     57  H   UNL     1     -46.352  28.835  21.625  1.00  0.00     0.190 HD
ENDBRANCH  41  44
ENDBRANCH  35  38
ENDBRANCH   6  35
TORSDOF 7
ENDMDL
MODEL 5
REMARK VINA RESULT:     -10.3      2.126      3.318
REMARK SMILES O[C@@H]1CCC[C@@H]1NCc1cc2ccc(Cn3cc(-c4cccc5[nH]ncc45)nn3)cc2[nH]1
REMARK SMILES IDX 9 1 10 2 11 3 12 4 13 5 14 6 30 7 31 8 32 9 8 15 7 18 6 20
REMARK SMILES IDX 2 21 3 22 4 24 5 27 1 33 15 35 16 38 17 39 29 40 18 41 28 43
REMARK SMILES IDX 19 44 20 45 27 46 21 47 23 49 26 50 22 51 24 53 25 54
REMARK H PARENT 10 10 12 11 13 12 30 13 32 14 8 16 8 17 7 19 2 23 3 25 3 26
REMARK H PARENT 6 28 4 29 4 30 5 31 5 32 1 34 15 36 15 37 17 42 20 48 21 52
REMARK H PARENT 26 55 22 56 24 57
REMARK Flexibility Score: inf
ROOT
ATOM      1  C   UNL     1     -46.560  33.373  25.480  1.00  0.00     0.030 A 
ATOM      2  C   UNL     1     -47.746  34.029  25.745  1.00  0.00    -0.032 A 
ATOM      3  C   UNL     1     -47.535  34.880  26.865  1.00  0.00    -0.000 A 
ATOM      4  C   UNL     1     -48.351  35.782  27.573  1.00  0.00    -0.052 A 
ATOM      5  C   UNL     1     -47.813  36.486  28.657  1.00  0.00    -0.056 A 
ATOM      6  C   UNL     1     -46.477  36.310  29.047  1.00  0.00    -0.024 A 
ATOM      7  C   UNL     1     -45.656  35.407  28.350  1.00  0.00    -0.033 A 
ATOM      8  C   UNL     1     -46.213  34.712  27.269  1.00  0.00     0.046 A 
ATOM      9  N   UNL     1     -45.652  33.782  26.427  1.00  0.00    -0.357 N 
ATOM     10  H   UNL     1     -48.667  33.918  25.187  1.00  0.00     0.065 H 
ATOM     11  H   UNL     1     -49.386  35.935  27.283  1.00  0.00     0.063 H 
ATOM     12  H   UNL     1     -48.455  37.184  29.195  1.00  0.00     0.063 H 
ATOM     13  H   UNL     1     -44.619  35.246  28.635  1.00  0.00     0.065 H 
ATOM     14  H   UNL     1     -44.696  33.452  26.455  1.00  0.00     0.166 HD
ENDROOT
BRANCH   1  15
ATOM     15  C   UNL     1     -46.204  32.381  24.426  1.00  0.00     0.036 C 
ATOM     16  H   UNL     1     -45.499  31.631  24.798  1.00  0.00     0.049 H 
ATOM     17  H   UNL     1     -45.671  32.930  23.639  1.00  0.00     0.049 H 
BRANCH  15  18
ATOM     18  N   UNL     1     -47.406  31.799  23.832  1.00  0.00    -0.306 NA
ATOM     19  H   UNL     1     -47.350  31.954  22.825  1.00  0.00     0.123 HD
BRANCH  18  20
ATOM     20  C   UNL     1     -47.606  30.358  24.037  1.00  0.00     0.033 C 
ATOM     21  C   UNL     1     -47.094  29.306  23.028  1.00  0.00     0.069 C 
ATOM     22  C   UNL     1     -47.672  28.019  23.615  1.00  0.00    -0.025 C 
ATOM     23  H   UNL     1     -46.003  29.269  22.962  1.00  0.00     0.062 H 
ATOM     24  C   UNL     1     -49.058  28.412  24.142  1.00  0.00    -0.049 C 
ATOM     25  H   UNL     1     -47.051  27.676  24.452  1.00  0.00     0.029 H 
ATOM     26  H   UNL     1     -47.744  27.209  22.883  1.00  0.00     0.029 H 
ATOM     27  C   UNL     1     -49.064  29.940  24.261  1.00  0.00    -0.035 C 
ATOM     28  H   UNL     1     -47.078  30.150  24.978  1.00  0.00     0.049 H 
ATOM     29  H   UNL     1     -49.253  27.934  25.107  1.00  0.00     0.027 H 
ATOM     30  H   UNL     1     -49.843  28.086  23.450  1.00  0.00     0.027 H 
ATOM     31  H   UNL     1     -49.734  30.360  23.502  1.00  0.00     0.028 H 
ATOM     32  H   UNL     1     -49.436  30.264  25.240  1.00  0.00     0.028 H 
BRANCH  21  33
ATOM     33  O   UNL     1     -47.641  29.448  21.721  1.00  0.00    -0.392 OA
ATOM     34  H   UNL     1     -47.339  28.677  21.208  1.00  0.00     0.211 HD
ENDBRANCH  21  33
ENDBRANCH  18  20
ENDBRANCH  15  18
ENDBRANCH   1  15
BRANCH   6  35
ATOM     35  C   UNL     1     -45.921  37.087  30.218  1.00  0.00     0.068 C 
ATOM     36  H   UNL     1     -46.741  37.511  30.809  1.00  0.00     0.057 H 
ATOM     37  H   UNL     1     -45.328  36.447  30.883  1.00  0.00     0.057 H 
BRANCH  35  38
ATOM     38  N   UNL     1     -45.048  38.165  29.791  1.00  0.00    -0.247 N 
ATOM     39  C   UNL     1     -45.124  38.915  28.652  1.00  0.00     0.054 A 
ATOM     40  N   UNL     1     -43.967  38.494  30.520  1.00  0.00    -0.066 NA
ATOM     41  C   UNL     1     -44.036  39.757  28.733  1.00  0.00     0.113 A 
ATOM     42  H   UNL     1     -45.913  38.789  27.927  1.00  0.00     0.086 H 
ATOM     43  N   UNL     1     -43.343  39.475  29.883  1.00  0.00    -0.130 NA
BRANCH  41  44
ATOM     44  C   UNL     1     -43.660  40.774  27.775  1.00  0.00     0.015 A 
ATOM     45  C   UNL     1     -42.336  41.241  27.657  1.00  0.00    -0.052 A 
ATOM     46  C   UNL     1     -44.639  41.328  26.918  1.00  0.00     0.029 A 
ATOM     47  C   UNL     1     -41.993  42.226  26.726  1.00  0.00    -0.059 A 
ATOM     48  H   UNL     1     -41.550  40.829  28.285  1.00  0.00     0.063 H 
ATOM     49  C   UNL     1     -44.263  42.310  26.003  1.00  0.00     0.066 A 
ATOM     50  C   UNL     1     -46.031  41.174  26.696  1.00  0.00     0.057 A 
ATOM     51  C   UNL     1     -42.953  42.783  25.879  1.00  0.00    -0.036 A 
ATOM     52  H   UNL     1     -40.960  42.560  26.657  1.00  0.00     0.062 H 
ATOM     53  N   UNL     1     -45.409  42.645  25.332  1.00  0.00    -0.278 N 
ATOM     54  N   UNL     1     -46.501  41.977  25.737  1.00  0.00    -0.183 NA
ATOM     55  H   UNL     1     -46.719  40.506  27.201  1.00  0.00     0.087 H 
ATOM     56  H   UNL     1     -42.686  43.546  25.156  1.00  0.00     0.065 H 
ATOM     57  H   UNL     1     -45.513  43.326  24.589  1.00  0.00     0.190 HD
ENDBRANCH  41  44
ENDBRANCH  35  38
ENDBRANCH   6  35
TORSDOF 7
ENDMDL
MODEL 6
REMARK VINA RESULT:     -10.3      1.800      2.399
REMARK SMILES O[C@@H]1CCC[C@@H]1NCc1cc2ccc(Cn3cc(-c4cccc5[nH]ncc45)nn3)cc2[nH]1
REMARK SMILES IDX 9 1 10 2 11 3 12 4 13 5 14 6 30 7 31 8 32 9 8 15 7 18 6 20
REMARK SMILES IDX 2 21 3 22 4 24 5 27 1 33 15 35 16 38 17 39 29 40 18 41 28 43
REMARK SMILES IDX 19 44 20 45 27 46 21 47 23 49 26 50 22 51 24 53 25 54
REMARK H PARENT 10 10 12 11 13 12 30 13 32 14 8 16 8 17 7 19 2 23 3 25 3 26
REMARK H PARENT 6 28 4 29 4 30 5 31 5 32 1 34 15 36 15 37 17 42 20 48 21 52
REMARK H PARENT 26 55 22 56 24 57
REMARK Flexibility Score: inf
ROOT
ATOM      1  C   UNL     1     -47.196  30.334  24.031  1.00  0.00     0.030 A 
ATOM      2  C   UNL     1     -46.272  31.358  23.975  1.00  0.00    -0.032 A 
ATOM      3  C   UNL     1     -46.779  32.449  24.735  1.00  0.00    -0.000 A 
ATOM      4  C   UNL     1     -46.292  33.732  25.046  1.00  0.00    -0.052 A 
ATOM      5  C   UNL     1     -47.064  34.581  25.847  1.00  0.00    -0.056 A 
ATOM      6  C   UNL     1     -48.311  34.175  26.347  1.00  0.00    -0.024 A 
ATOM      7  C   UNL     1     -48.808  32.898  26.037  1.00  0.00    -0.033 A 
ATOM      8  C   UNL     1     -48.021  32.064  25.233  1.00  0.00     0.046 A 
ATOM      9  N   UNL     1     -48.257  30.788  24.777  1.00  0.00    -0.357 N 
ATOM     10  H   UNL     1     -45.325  31.326  23.451  1.00  0.00     0.065 H 
ATOM     11  H   UNL     1     -45.328  34.062  24.672  1.00  0.00     0.063 H 
ATOM     12  H   UNL     1     -46.674  35.572  26.084  1.00  0.00     0.063 H 
ATOM     13  H   UNL     1     -49.773  32.559  26.404  1.00  0.00     0.065 H 
ATOM     14  H   UNL     1     -49.074  30.225  24.977  1.00  0.00     0.166 HD
ENDROOT
BRANCH   1  15
ATOM     15  C   UNL     1     -47.182  28.969  23.433  1.00  0.00     0.036 C 
ATOM     16  H   UNL     1     -46.191  28.510  23.496  1.00  0.00     0.049 H 
ATOM     17  H   UNL     1     -47.389  29.088  22.362  1.00  0.00     0.049 H 
BRANCH  15  18
ATOM     18  N   UNL     1     -48.240  28.139  24.005  1.00  0.00    -0.306 NA
ATOM     19  H   UNL     1     -48.537  27.486  23.280  1.00  0.00     0.123 HD
BRANCH  18  20
ATOM     20  C   UNL     1     -47.880  27.341  25.185  1.00  0.00     0.033 C 
ATOM     21  C   UNL     1     -46.481  26.708  25.354  1.00  0.00     0.069 C 
ATOM     22  C   UNL     1     -46.673  25.890  26.630  1.00  0.00    -0.025 C 
ATOM     23  H   UNL     1     -45.684  27.449  25.461  1.00  0.00     0.062 H 
ATOM     24  C   UNL     1     -48.097  25.329  26.531  1.00  0.00    -0.049 C 
ATOM     25  H   UNL     1     -46.601  26.542  27.509  1.00  0.00     0.029 H 
ATOM     26  H   UNL     1     -45.939  25.085  26.736  1.00  0.00     0.029 H 
ATOM     27  C   UNL     1     -48.827  26.170  25.478  1.00  0.00    -0.035 C 
ATOM     28  H   UNL     1     -47.992  28.044  26.023  1.00  0.00     0.049 H 
ATOM     29  H   UNL     1     -48.599  25.379  27.502  1.00  0.00     0.027 H 
ATOM     30  H   UNL     1     -48.080  24.277  26.224  1.00  0.00     0.027 H 
ATOM     31  H   UNL     1     -49.010  25.557  24.588  1.00  0.00     0.028 H 
ATOM     32  H   UNL     1     -49.801  26.514  25.844  1.00  0.00     0.028 H 
BRANCH  21  33
ATOM     33  O   UNL     1     -46.137  25.791  24.320  1.00  0.00    -0.392 OA
ATOM     34  H   UNL     1     -46.688  24.999  24.457  1.00  0.00     0.211 HD
ENDBRANCH  21  33
ENDBRANCH  18  20
ENDBRANCH  15  18
ENDBRANCH   1  15
BRANCH   6  35
ATOM     35  C   UNL     1     -49.121  35.111  27.214  1.00  0.00     0.068 C 
ATOM     36  H   UNL     1     -50.017  35.438  26.676  1.00  0.00     0.057 H 
ATOM     37  H   UNL     1     -49.447  34.623  28.141  1.00  0.00     0.057 H 
BRANCH  35  38
ATOM     38  N   UNL     1     -48.359  36.283  27.608  1.00  0.00    -0.247 N 
ATOM     39  C   UNL     1     -47.071  36.344  28.057  1.00  0.00     0.054 A 
ATOM     40  N   UNL     1     -48.937  37.497  27.618  1.00  0.00    -0.066 NA
ATOM     41  C   UNL     1     -46.871  37.682  28.319  1.00  0.00     0.113 A 
ATOM     42  H   UNL     1     -46.444  35.470  28.139  1.00  0.00     0.086 H 
ATOM     43  N   UNL     1     -48.030  38.364  28.046  1.00  0.00    -0.130 NA
BRANCH  41  44
ATOM     44  C   UNL     1     -45.654  38.293  28.808  1.00  0.00     0.015 A 
ATOM     45  C   UNL     1     -45.032  37.876  30.001  1.00  0.00    -0.052 A 
ATOM     46  C   UNL     1     -45.052  39.342  28.076  1.00  0.00     0.029 A 
ATOM     47  C   UNL     1     -43.857  38.479  30.457  1.00  0.00    -0.059 A 
ATOM     48  H   UNL     1     -45.452  37.060  30.584  1.00  0.00     0.063 H 
ATOM     49  C   UNL     1     -43.882  39.924  28.561  1.00  0.00     0.066 A 
ATOM     50  C   UNL     1     -45.316  40.059  26.881  1.00  0.00     0.057 A 
ATOM     51  C   UNL     1     -43.257  39.520  29.745  1.00  0.00    -0.036 A 
ATOM     52  H   UNL     1     -43.398  38.129  31.379  1.00  0.00     0.062 H 
ATOM     53  N   UNL     1     -43.551  40.895  27.653  1.00  0.00    -0.278 N 
ATOM     54  N   UNL     1     -44.408  41.005  26.626  1.00  0.00    -0.183 NA
ATOM     55  H   UNL     1     -46.138  39.925  26.189  1.00  0.00     0.087 H 
ATOM     56  H   UNL     1     -42.345  39.987  30.098  1.00  0.00     0.065 H 
ATOM     57  H   UNL     1     -42.753  41.519  27.680  1.00  0.00     0.190 HD
ENDBRANCH  41  44
ENDBRANCH  35  38
ENDBRANCH   6  35
TORSDOF 7
ENDMDL
MODEL 7
REMARK VINA RESULT:     -10.2      2.629      4.256
REMARK SMILES O[C@@H]1CCC[C@@H]1NCc1cc2ccc(Cn3cc(-c4cccc5[nH]ncc45)nn3)cc2[nH]1
REMARK SMILES IDX 9 1 10 2 11 3 12 4 13 5 14 6 30 7 31 8 32 9 8 15 7 18 6 20
REMARK SMILES IDX 2 21 3 22 4 24 5 27 1 33 15 35 16 38 17 39 29 40 18 41 28 43
REMARK SMILES IDX 19 44 20 45 27 46 21 47 23 49 26 50 22 51 24 53 25 54
REMARK H PARENT 10 10 12 11 13 12 30 13 32 14 8 16 8 17 7 19 2 23 3 25 3 26
REMARK H PARENT 6 28 4 29 4 30 5 31 5 32 1 34 15 36 15 37 17 42 20 48 21 52
REMARK H PARENT 26 55 22 56 24 57
REMARK Flexibility Score: inf
ROOT
ATOM      1  C   UNL     1     -46.561  33.810  26.536  1.00  0.00     0.030 A 
ATOM      2  C   UNL     1     -47.056  34.982  26.001  1.00  0.00    -0.032 A 
ATOM      3  C   UNL     1     -46.579  36.063  26.794  1.00  0.00    -0.000 A 
ATOM      4  C   UNL     1     -46.734  37.460  26.736  1.00  0.00    -0.052 A 
ATOM      5  C   UNL     1     -46.107  38.260  27.699  1.00  0.00    -0.056 A 
ATOM      6  C   UNL     1     -45.325  37.693  28.716  1.00  0.00    -0.024 A 
ATOM      7  C   UNL     1     -45.168  36.298  28.787  1.00  0.00    -0.033 A 
ATOM      8  C   UNL     1     -45.804  35.516  27.815  1.00  0.00     0.046 A 
ATOM      9  N   UNL     1     -45.826  34.152  27.646  1.00  0.00    -0.357 N 
ATOM     10  H   UNL     1     -47.687  35.060  25.125  1.00  0.00     0.065 H 
ATOM     11  H   UNL     1     -47.333  37.917  25.954  1.00  0.00     0.063 H 
ATOM     12  H   UNL     1     -46.233  39.341  27.640  1.00  0.00     0.063 H 
ATOM     13  H   UNL     1     -44.574  35.832  29.567  1.00  0.00     0.065 H 
ATOM     14  H   UNL     1     -45.347  33.473  28.223  1.00  0.00     0.166 HD
ENDROOT
BRANCH   1  15
ATOM     15  C   UNL     1     -46.730  32.392  26.111  1.00  0.00     0.036 C 
ATOM     16  H   UNL     1     -47.782  32.141  25.947  1.00  0.00     0.049 H 
ATOM     17  H   UNL     1     -46.400  31.766  26.950  1.00  0.00     0.049 H 
BRANCH  15  18
ATOM     18  N   UNL     1     -45.878  32.088  24.962  1.00  0.00    -0.306 NA
ATOM     19  H   UNL     1     -45.211  31.376  25.262  1.00  0.00     0.123 HD
BRANCH  18  20
ATOM     20  C   UNL     1     -46.554  31.572  23.764  1.00  0.00     0.033 C 
ATOM     21  C   UNL     1     -47.765  30.617  23.851  1.00  0.00     0.069 C 
ATOM     22  C   UNL     1     -47.985  30.276  22.379  1.00  0.00    -0.025 C 
ATOM     23  H   UNL     1     -48.648  31.083  24.298  1.00  0.00     0.062 H 
ATOM     24  C   UNL     1     -46.576  30.166  21.782  1.00  0.00    -0.049 C 
ATOM     25  H   UNL     1     -48.526  31.089  21.881  1.00  0.00     0.029 H 
ATOM     26  H   UNL     1     -48.547  29.347  22.234  1.00  0.00     0.029 H 
ATOM     27  C   UNL     1     -45.630  30.868  22.763  1.00  0.00    -0.035 C 
ATOM     28  H   UNL     1     -46.922  32.476  23.260  1.00  0.00     0.049 H 
ATOM     29  H   UNL     1     -46.540  30.628  20.791  1.00  0.00     0.027 H 
ATOM     30  H   UNL     1     -46.284  29.116  21.666  1.00  0.00     0.027 H 
ATOM     31  H   UNL     1     -44.991  30.121  23.247  1.00  0.00     0.028 H 
ATOM     32  H   UNL     1     -44.971  31.576  22.247  1.00  0.00     0.028 H 
BRANCH  21  33
ATOM     33  O   UNL     1     -47.486  29.394  24.524  1.00  0.00    -0.392 OA
ATOM     34  H   UNL     1     -46.904  28.880  23.936  1.00  0.00     0.211 HD
ENDBRANCH  21  33
ENDBRANCH  18  20
ENDBRANCH  15  18
ENDBRANCH   1  15
BRANCH   6  35
ATOM     35  C   UNL     1     -44.654  38.581  29.739  1.00  0.00     0.068 C 
ATOM     36  H   UNL     1     -45.403  38.993  30.425  1.00  0.00     0.057 H 
ATOM     37  H   UNL     1     -43.922  38.026  30.338  1.00  0.00     0.057 H 
BRANCH  35  38
ATOM     38  N   UNL     1     -43.936  39.680  29.118  1.00  0.00    -0.247 N 
ATOM     39  C   UNL     1     -44.128  40.225  27.881  1.00  0.00     0.054 A 
ATOM     40  N   UNL     1     -42.896  40.254  29.748  1.00  0.00    -0.066 NA
ATOM     41  C   UNL     1     -43.159  41.200  27.792  1.00  0.00     0.113 A 
ATOM     42  H   UNL     1     -44.905  39.887  27.214  1.00  0.00     0.086 H 
ATOM     43  N   UNL     1     -42.416  41.194  28.945  1.00  0.00    -0.130 NA
BRANCH  41  44
ATOM     44  C   UNL     1     -42.935  42.093  26.675  1.00  0.00     0.015 A 
ATOM     45  C   UNL     1     -41.641  42.408  26.214  1.00  0.00    -0.052 A 
ATOM     46  C   UNL     1     -44.038  42.676  26.010  1.00  0.00     0.029 A 
ATOM     47  C   UNL     1     -41.445  43.274  25.134  1.00  0.00    -0.059 A 
ATOM     48  H   UNL     1     -40.767  41.967  26.686  1.00  0.00     0.063 H 
ATOM     49  C   UNL     1     -43.806  43.537  24.939  1.00  0.00     0.066 A 
ATOM     50  C   UNL     1     -45.451  42.652  26.125  1.00  0.00     0.057 A 
ATOM     51  C   UNL     1     -42.528  43.859  24.474  1.00  0.00    -0.036 A 
ATOM     52  H   UNL     1     -40.434  43.491  24.799  1.00  0.00     0.062 H 
ATOM     53  N   UNL     1     -45.047  43.936  24.514  1.00  0.00    -0.278 N 
ATOM     54  N   UNL     1     -46.064  43.421  25.221  1.00  0.00    -0.183 NA
ATOM     55  H   UNL     1     -46.054  42.102  26.838  1.00  0.00     0.087 H 
ATOM     56  H   UNL     1     -42.376  44.530  23.635  1.00  0.00     0.065 H 
ATOM     57  H   UNL     1     -45.265  44.563  23.748  1.00  0.00     0.190 HD
ENDBRANCH  41  44
ENDBRANCH  35  38
ENDBRANCH   6  35
TORSDOF 7
ENDMDL
