MODEL 1
REMARK VINA RESULT:     -11.0      0.000      0.000
REMARK SMILES C[C@@H]1CCN1c1ccc2ccc(OCc3cncc(-n4cc(C5CCCC5)c5c(N)ncnc54)c3)cc2n1
REMARK SMILES IDX 14 1 13 4 12 5 6 6 7 7 38 8 8 9 37 11 9 12 36 14 10 15 11 17
REMARK SMILES IDX 5 20 2 21 3 22 4 24 1 29 15 33 16 34 35 35 17 36 19 38 18 40
REMARK SMILES IDX 20 42 21 43 34 44 22 45 28 47 33 48 29 49 32 50 31 51 23 53
REMARK SMILES IDX 24 54 27 55 25 57 26 60 30 67
REMARK H PARENT 14 2 14 3 7 10 8 13 36 16 10 18 11 19 2 23 3 25 3 26 4 27 4 28
REMARK H PARENT 1 30 1 31 1 32 16 37 35 39 18 41 21 46 32 52 23 56 24 58 24 59
REMARK H PARENT 27 61 27 62 25 63 25 64 26 65 26 66 30 68 30 69
REMARK Flexibility Score: inf
ROOT
ATOM      1  C   UNL     1     -46.490  34.482  27.333  1.00  0.00     0.115 C 
ATOM      2  H   UNL     1     -45.965  34.088  28.211  1.00  0.00     0.076 H 
ATOM      3  H   UNL     1     -45.788  34.400  26.493  1.00  0.00     0.076 H 
ENDROOT
BRANCH   1   4
ATOM      4  O   UNL     1     -47.601  33.644  26.994  1.00  0.00    -0.489 OA
BRANCH   4   5
ATOM      5  C   UNL     1     -47.459  32.727  25.989  1.00  0.00     0.122 A 
ATOM      6  C   UNL     1     -48.556  28.241  24.786  1.00  0.00     0.129 A 
ATOM      7  C   UNL     1     -47.801  28.328  23.623  1.00  0.00    -0.019 A 
ATOM      8  N   UNL     1     -48.666  29.298  25.625  1.00  0.00    -0.231 NA
ATOM      9  C   UNL     1     -47.141  29.517  23.317  1.00  0.00    -0.049 A 
ATOM     10  H   UNL     1     -47.714  27.487  22.947  1.00  0.00     0.066 H 
ATOM     11  C   UNL     1     -48.031  30.447  25.336  1.00  0.00     0.076 A 
ATOM     12  C   UNL     1     -47.246  30.606  24.183  1.00  0.00     0.001 A 
ATOM     13  H   UNL     1     -46.551  29.579  22.407  1.00  0.00     0.063 H 
ATOM     14  C   UNL     1     -48.131  31.519  26.211  1.00  0.00     0.007 A 
ATOM     15  C   UNL     1     -46.592  31.824  23.932  1.00  0.00    -0.049 A 
ATOM     16  H   UNL     1     -48.730  31.400  27.111  1.00  0.00     0.069 H 
ATOM     17  C   UNL     1     -46.698  32.883  24.835  1.00  0.00    -0.019 A 
ATOM     18  H   UNL     1     -45.986  31.950  23.037  1.00  0.00     0.063 H 
ATOM     19  H   UNL     1     -46.165  33.800  24.613  1.00  0.00     0.066 H 
BRANCH   6  20
ATOM     20  N   UNL     1     -49.238  27.055  25.125  1.00  0.00    -0.354 N 
ATOM     21  C   UNL     1     -49.175  26.316  26.359  1.00  0.00     0.029 C 
ATOM     22  C   UNL     1     -50.578  25.782  26.024  1.00  0.00    -0.015 C 
ATOM     23  H   UNL     1     -49.158  26.976  27.236  1.00  0.00     0.053 H 
ATOM     24  C   UNL     1     -50.667  26.934  25.029  1.00  0.00     0.021 C 
ATOM     25  H   UNL     1     -51.300  25.813  26.844  1.00  0.00     0.031 H 
ATOM     26  H   UNL     1     -50.606  24.790  25.558  1.00  0.00     0.031 H 
ATOM     27  H   UNL     1     -51.201  27.815  25.402  1.00  0.00     0.049 H 
ATOM     28  H   UNL     1     -51.010  26.672  24.026  1.00  0.00     0.049 H 
BRANCH  21  29
ATOM     29  C   UNL     1     -48.094  25.253  26.369  1.00  0.00    -0.045 C 
ATOM     30  H   UNL     1     -47.804  24.963  25.355  1.00  0.00     0.025 H 
ATOM     31  H   UNL     1     -47.195  25.633  26.865  1.00  0.00     0.025 H 
ATOM     32  H   UNL     1     -48.411  24.349  26.900  1.00  0.00     0.025 H 
ENDBRANCH  21  29
ENDBRANCH   6  20
ENDBRANCH   4   5
ENDBRANCH   1   4
BRANCH   1  33
ATOM     33  C   UNL     1     -46.821  35.946  27.498  1.00  0.00     0.010 A 
ATOM     34  C   UNL     1     -48.147  36.343  27.623  1.00  0.00     0.034 A 
ATOM     35  C   UNL     1     -45.850  36.955  27.552  1.00  0.00    -0.028 A 
ATOM     36  N   UNL     1     -48.543  37.625  27.770  1.00  0.00    -0.262 NA
ATOM     37  H   UNL     1     -48.958  35.620  27.610  1.00  0.00     0.084 H 
ATOM     38  C   UNL     1     -46.220  38.302  27.664  1.00  0.00     0.066 A 
ATOM     39  H   UNL     1     -44.804  36.668  27.517  1.00  0.00     0.065 H 
ATOM     40  C   UNL     1     -47.575  38.578  27.784  1.00  0.00     0.051 A 
ATOM     41  H   UNL     1     -47.973  39.583  27.863  1.00  0.00     0.086 H 
BRANCH  38  42
ATOM     42  N   UNL     1     -45.234  39.335  27.611  1.00  0.00    -0.299 N 
ATOM     43  C   UNL     1     -45.140  40.280  26.603  1.00  0.00     0.015 A 
ATOM     44  C   UNL     1     -44.232  39.616  28.533  1.00  0.00     0.150 A 
ATOM     45  C   UNL     1     -44.132  41.185  26.883  1.00  0.00    -0.013 A 
ATOM     46  H   UNL     1     -45.837  40.290  25.777  1.00  0.00     0.083 H 
ATOM     47  C   UNL     1     -43.517  40.732  28.093  1.00  0.00     0.065 A 
ATOM     48  N   UNL     1     -43.964  38.914  29.653  1.00  0.00    -0.218 NA
ATOM     49  C   UNL     1     -42.431  41.134  28.893  1.00  0.00     0.136 A 
ATOM     50  C   UNL     1     -42.924  39.405  30.336  1.00  0.00     0.120 A 
ATOM     51  N   UNL     1     -42.153  40.457  30.021  1.00  0.00    -0.219 NA
ATOM     52  H   UNL     1     -42.669  38.887  31.256  1.00  0.00     0.106 H 
BRANCH  45  53
ATOM     53  C   UNL     1     -43.784  42.397  26.062  1.00  0.00    -0.014 C 
ATOM     54  C   UNL     1     -44.302  43.724  26.654  1.00  0.00    -0.046 C 
ATOM     55  C   UNL     1     -44.368  42.324  24.639  1.00  0.00    -0.046 C 
ATOM     56  H   UNL     1     -42.693  42.485  26.000  1.00  0.00     0.035 H 
ATOM     57  C   UNL     1     -45.412  44.182  25.718  1.00  0.00    -0.053 C 
ATOM     58  H   UNL     1     -43.492  44.465  26.633  1.00  0.00     0.027 H 
ATOM     59  H   UNL     1     -44.644  43.655  27.691  1.00  0.00     0.027 H 
ATOM     60  C   UNL     1     -44.929  43.712  24.357  1.00  0.00    -0.053 C 
ATOM     61  H   UNL     1     -43.606  42.045  23.902  1.00  0.00     0.027 H 
ATOM     62  H   UNL     1     -45.173  41.583  24.568  1.00  0.00     0.027 H 
ATOM     63  H   UNL     1     -46.357  43.692  25.978  1.00  0.00     0.027 H 
ATOM     64  H   UNL     1     -45.562  45.264  25.755  1.00  0.00     0.027 H 
ATOM     65  H   UNL     1     -45.733  43.692  23.614  1.00  0.00     0.027 H 
ATOM     66  H   UNL     1     -44.137  44.372  23.986  1.00  0.00     0.027 H 
ENDBRANCH  45  53
BRANCH  49  67
ATOM     67  N   UNL     1     -41.571  42.183  28.586  1.00  0.00    -0.383 N 
ATOM     68  H   UNL     1     -41.508  42.372  27.594  1.00  0.00     0.158 HD
ATOM     69  H   UNL     1     -40.681  42.027  29.047  1.00  0.00     0.158 HD
ENDBRANCH  49  67
ENDBRANCH  38  42
ENDBRANCH   1  33
TORSDOF 8
ENDMDL
MODEL 2
REMARK VINA RESULT:     -10.5      1.972     12.837
REMARK SMILES C[C@@H]1CCN1c1ccc2ccc(OCc3cncc(-n4cc(C5CCCC5)c5c(N)ncnc54)c3)cc2n1
REMARK SMILES IDX 14 1 13 4 12 5 6 6 7 7 38 8 8 9 37 11 9 12 36 14 10 15 11 17
REMARK SMILES IDX 5 20 2 21 3 22 4 24 1 29 15 33 16 34 35 35 17 36 19 38 18 40
REMARK SMILES IDX 20 42 21 43 34 44 22 45 28 47 33 48 29 49 32 50 31 51 23 53
REMARK SMILES IDX 24 54 27 55 25 57 26 60 30 67
REMARK H PARENT 14 2 14 3 7 10 8 13 36 16 10 18 11 19 2 23 3 25 3 26 4 27 4 28
REMARK H PARENT 1 30 1 31 1 32 16 37 35 39 18 41 21 46 32 52 23 56 24 58 24 59
REMARK H PARENT 27 61 27 62 25 63 25 64 26 65 26 66 30 68 30 69
REMARK Flexibility Score: inf
ROOT
ATOM      1  C   UNL     1     -48.264  34.701  27.251  1.00  0.00     0.115 C 
ATOM      2  H   UNL     1     -47.871  34.450  28.243  1.00  0.00     0.076 H 
ATOM      3  H   UNL     1     -49.355  34.602  27.319  1.00  0.00     0.076 H 
ENDROOT
BRANCH   1   4
ATOM      4  O   UNL     1     -48.018  36.079  26.947  1.00  0.00    -0.489 OA
BRANCH   4   5
ATOM      5  C   UNL     1     -47.133  36.782  27.719  1.00  0.00     0.122 A 
ATOM      6  C   UNL     1     -43.955  40.337  27.533  1.00  0.00     0.129 A 
ATOM      7  C   UNL     1     -43.559  40.102  28.844  1.00  0.00    -0.019 A 
ATOM      8  N   UNL     1     -44.932  39.597  26.958  1.00  0.00    -0.231 NA
ATOM      9  C   UNL     1     -44.169  39.086  29.577  1.00  0.00    -0.049 A 
ATOM     10  H   UNL     1     -42.782  40.695  29.309  1.00  0.00     0.066 H 
ATOM     11  C   UNL     1     -45.524  38.614  27.659  1.00  0.00     0.076 A 
ATOM     12  C   UNL     1     -45.171  38.316  28.985  1.00  0.00     0.001 A 
ATOM     13  H   UNL     1     -43.855  38.905  30.601  1.00  0.00     0.063 H 
ATOM     14  C   UNL     1     -46.510  37.846  27.056  1.00  0.00     0.007 A 
ATOM     15  C   UNL     1     -45.812  37.270  29.672  1.00  0.00    -0.049 A 
ATOM     16  H   UNL     1     -46.781  38.066  26.027  1.00  0.00     0.069 H 
ATOM     17  C   UNL     1     -46.791  36.503  29.038  1.00  0.00    -0.019 A 
ATOM     18  H   UNL     1     -45.542  37.040  30.701  1.00  0.00     0.063 H 
ATOM     19  H   UNL     1     -47.249  35.696  29.597  1.00  0.00     0.066 H 
BRANCH   6  20
ATOM     20  N   UNL     1     -43.361  41.357  26.764  1.00  0.00    -0.354 N 
ATOM     21  C   UNL     1     -43.856  42.686  26.515  1.00  0.00     0.029 C 
ATOM     22  C   UNL     1     -42.395  43.108  26.284  1.00  0.00    -0.015 C 
ATOM     23  H   UNL     1     -44.303  43.135  27.412  1.00  0.00     0.053 H 
ATOM     24  C   UNL     1     -42.016  41.813  26.995  1.00  0.00     0.021 C 
ATOM     25  H   UNL     1     -42.087  44.027  26.789  1.00  0.00     0.031 H 
ATOM     26  H   UNL     1     -42.076  43.148  25.236  1.00  0.00     0.031 H 
ATOM     27  H   UNL     1     -41.778  41.932  28.058  1.00  0.00     0.049 H 
ATOM     28  H   UNL     1     -41.263  41.198  26.498  1.00  0.00     0.049 H 
BRANCH  21  29
ATOM     29  C   UNL     1     -44.730  42.780  25.279  1.00  0.00    -0.045 C 
ATOM     30  H   UNL     1     -45.161  43.778  25.165  1.00  0.00     0.025 H 
ATOM     31  H   UNL     1     -44.137  42.578  24.382  1.00  0.00     0.025 H 
ATOM     32  H   UNL     1     -45.554  42.058  25.304  1.00  0.00     0.025 H 
ENDBRANCH  21  29
ENDBRANCH   6  20
ENDBRANCH   4   5
ENDBRANCH   1   4
BRANCH   1  33
ATOM     33  C   UNL     1     -47.790  33.721  26.204  1.00  0.00     0.010 A 
ATOM     34  C   UNL     1     -46.708  34.047  25.396  1.00  0.00     0.034 A 
ATOM     35  C   UNL     1     -48.376  32.465  26.002  1.00  0.00    -0.028 A 
ATOM     36  N   UNL     1     -46.214  33.242  24.431  1.00  0.00    -0.262 NA
ATOM     37  H   UNL     1     -46.187  34.995  25.501  1.00  0.00     0.084 H 
ATOM     38  C   UNL     1     -47.920  31.615  24.987  1.00  0.00     0.066 A 
ATOM     39  H   UNL     1     -49.184  32.161  26.660  1.00  0.00     0.065 H 
ATOM     40  C   UNL     1     -46.830  32.046  24.243  1.00  0.00     0.051 A 
ATOM     41  H   UNL     1     -46.404  31.476  23.426  1.00  0.00     0.086 H 
BRANCH  38  42
ATOM     42  N   UNL     1     -48.587  30.381  24.714  1.00  0.00    -0.299 N 
ATOM     43  C   UNL     1     -48.024  29.128  24.887  1.00  0.00     0.015 A 
ATOM     44  C   UNL     1     -49.891  30.188  24.271  1.00  0.00     0.150 A 
ATOM     45  C   UNL     1     -48.951  28.140  24.610  1.00  0.00    -0.013 A 
ATOM     46  H   UNL     1     -47.014  29.013  25.257  1.00  0.00     0.083 H 
ATOM     47  C   UNL     1     -50.131  28.816  24.166  1.00  0.00     0.065 A 
ATOM     48  N   UNL     1     -50.775  31.157  23.958  1.00  0.00    -0.218 NA
ATOM     49  C   UNL     1     -51.400  28.438  23.690  1.00  0.00     0.136 A 
ATOM     50  C   UNL     1     -51.948  30.672  23.537  1.00  0.00     0.120 A 
ATOM     51  N   UNL     1     -52.302  29.387  23.384  1.00  0.00    -0.219 NA
ATOM     52  H   UNL     1     -52.706  31.408  23.283  1.00  0.00     0.106 H 
BRANCH  45  53
ATOM     53  C   UNL     1     -48.731  26.658  24.761  1.00  0.00    -0.014 C 
ATOM     54  C   UNL     1     -49.400  26.052  26.013  1.00  0.00    -0.046 C 
ATOM     55  C   UNL     1     -47.238  26.299  24.876  1.00  0.00    -0.046 C 
ATOM     56  H   UNL     1     -49.160  26.143  23.895  1.00  0.00     0.035 H 
ATOM     57  C   UNL     1     -48.255  25.685  26.947  1.00  0.00    -0.053 C 
ATOM     58  H   UNL     1     -49.930  25.135  25.725  1.00  0.00     0.027 H 
ATOM     59  H   UNL     1     -50.131  26.706  26.498  1.00  0.00     0.027 H 
ATOM     60  C   UNL     1     -47.151  25.267  25.993  1.00  0.00    -0.053 C 
ATOM     61  H   UNL     1     -46.843  25.903  23.934  1.00  0.00     0.027 H 
ATOM     62  H   UNL     1     -46.629  27.173  25.139  1.00  0.00     0.027 H 
ATOM     63  H   UNL     1     -47.944  26.558  27.532  1.00  0.00     0.027 H 
ATOM     64  H   UNL     1     -48.530  24.886  27.641  1.00  0.00     0.027 H 
ATOM     65  H   UNL     1     -46.168  25.255  26.472  1.00  0.00     0.027 H 
ATOM     66  H   UNL     1     -47.350  24.265  25.597  1.00  0.00     0.027 H 
ENDBRANCH  45  53
BRANCH  49  67
ATOM     67  N   UNL     1     -51.799  27.125  23.465  1.00  0.00    -0.383 N 
ATOM     68  H   UNL     1     -52.269  26.707  24.257  1.00  0.00     0.158 HD
ATOM     69  H   UNL     1     -51.009  26.595  23.110  1.00  0.00     0.158 HD
ENDBRANCH  49  67
ENDBRANCH  38  42
ENDBRANCH   1  33
TORSDOF 8
ENDMDL
MODEL 3
REMARK VINA RESULT:     -10.0      1.494      2.072
REMARK SMILES C[C@@H]1CCN1c1ccc2ccc(OCc3cncc(-n4cc(C5CCCC5)c5c(N)ncnc54)c3)cc2n1
REMARK SMILES IDX 14 1 13 4 12 5 6 6 7 7 38 8 8 9 37 11 9 12 36 14 10 15 11 17
REMARK SMILES IDX 5 20 2 21 3 22 4 24 1 29 15 33 16 34 35 35 17 36 19 38 18 40
REMARK SMILES IDX 20 42 21 43 34 44 22 45 28 47 33 48 29 49 32 50 31 51 23 53
REMARK SMILES IDX 24 54 27 55 25 57 26 60 30 67
REMARK H PARENT 14 2 14 3 7 10 8 13 36 16 10 18 11 19 2 23 3 25 3 26 4 27 4 28
REMARK H PARENT 1 30 1 31 1 32 16 37 35 39 18 41 21 46 32 52 23 56 24 58 24 59
REMARK H PARENT 27 61 27 62 25 63 25 64 26 65 26 66 30 68 30 69
REMARK Flexibility Score: inf
ROOT
ATOM      1  C   UNL     1     -48.473  36.034  27.229  1.00  0.00     0.115 C 
ATOM      2  H   UNL     1     -48.527  36.305  26.168  1.00  0.00     0.076 H 
ATOM      3  H   UNL     1     -49.406  36.390  27.684  1.00  0.00     0.076 H 
ENDROOT
BRANCH   1   4
ATOM      4  O   UNL     1     -48.483  34.610  27.385  1.00  0.00    -0.489 OA
BRANCH   4   5
ATOM      5  C   UNL     1     -47.956  33.829  26.393  1.00  0.00     0.122 A 
ATOM      6  C   UNL     1     -48.714  29.796  23.957  1.00  0.00     0.129 A 
ATOM      7  C   UNL     1     -47.493  29.915  23.305  1.00  0.00    -0.019 A 
ATOM      8  N   UNL     1     -49.122  30.731  24.847  1.00  0.00    -0.231 NA
ATOM      9  C   UNL     1     -46.672  31.008  23.575  1.00  0.00    -0.049 A 
ATOM     10  H   UNL     1     -47.165  29.172  22.589  1.00  0.00     0.066 H 
ATOM     11  C   UNL     1     -48.335  31.788  25.112  1.00  0.00     0.076 A 
ATOM     12  C   UNL     1     -47.086  31.970  24.497  1.00  0.00     0.001 A 
ATOM     13  H   UNL     1     -45.717  31.096  23.063  1.00  0.00     0.063 H 
ATOM     14  C   UNL     1     -48.750  32.731  26.041  1.00  0.00     0.007 A 
ATOM     15  C   UNL     1     -46.293  33.086  24.818  1.00  0.00    -0.049 A 
ATOM     16  H   UNL     1     -49.712  32.591  26.528  1.00  0.00     0.069 H 
ATOM     17  C   UNL     1     -46.728  34.014  25.766  1.00  0.00    -0.019 A 
ATOM     18  H   UNL     1     -45.327  33.231  24.339  1.00  0.00     0.063 H 
ATOM     19  H   UNL     1     -46.080  34.851  25.996  1.00  0.00     0.066 H 
BRANCH   6  20
ATOM     20  N   UNL     1     -49.570  28.705  23.707  1.00  0.00    -0.354 N 
ATOM     21  C   UNL     1     -49.328  27.558  22.871  1.00  0.00     0.029 C 
ATOM     22  C   UNL     1     -50.340  26.798  23.746  1.00  0.00    -0.015 C 
ATOM     23  H   UNL     1     -48.300  27.185  22.969  1.00  0.00     0.053 H 
ATOM     24  C   UNL     1     -50.142  27.915  24.765  1.00  0.00     0.021 C 
ATOM     25  H   UNL     1     -50.024  25.804  24.072  1.00  0.00     0.031 H 
ATOM     26  H   UNL     1     -51.358  26.739  23.345  1.00  0.00     0.031 H 
ATOM     27  H   UNL     1     -49.427  27.681  25.562  1.00  0.00     0.049 H 
ATOM     28  H   UNL     1     -51.054  28.349  25.180  1.00  0.00     0.049 H 
BRANCH  21  29
ATOM     29  C   UNL     1     -49.776  27.756  21.436  1.00  0.00    -0.045 C 
ATOM     30  H   UNL     1     -49.503  28.747  21.061  1.00  0.00     0.025 H 
ATOM     31  H   UNL     1     -49.293  27.021  20.785  1.00  0.00     0.025 H 
ATOM     32  H   UNL     1     -50.860  27.640  21.324  1.00  0.00     0.025 H 
ENDBRANCH  21  29
ENDBRANCH   6  20
ENDBRANCH   4   5
ENDBRANCH   1   4
BRANCH   1  33
ATOM     33  C   UNL     1     -47.336  36.745  27.924  1.00  0.00     0.010 A 
ATOM     34  C   UNL     1     -46.892  36.291  29.159  1.00  0.00     0.034 A 
ATOM     35  C   UNL     1     -46.672  37.853  27.381  1.00  0.00    -0.028 A 
ATOM     36  N   UNL     1     -45.888  36.860  29.860  1.00  0.00    -0.262 NA
ATOM     37  H   UNL     1     -47.342  35.426  29.640  1.00  0.00     0.084 H 
ATOM     38  C   UNL     1     -45.652  38.498  28.091  1.00  0.00     0.066 A 
ATOM     39  H   UNL     1     -46.959  38.192  26.390  1.00  0.00     0.065 H 
ATOM     40  C   UNL     1     -45.291  37.952  29.315  1.00  0.00     0.051 A 
ATOM     41  H   UNL     1     -44.526  38.377  29.955  1.00  0.00     0.086 H 
BRANCH  38  42
ATOM     42  N   UNL     1     -45.050  39.690  27.582  1.00  0.00    -0.299 N 
ATOM     43  C   UNL     1     -45.486  40.372  26.458  1.00  0.00     0.015 A 
ATOM     44  C   UNL     1     -43.974  40.400  28.102  1.00  0.00     0.150 A 
ATOM     45  C   UNL     1     -44.744  41.525  26.276  1.00  0.00    -0.013 A 
ATOM     46  H   UNL     1     -46.339  40.029  25.890  1.00  0.00     0.083 H 
ATOM     47  C   UNL     1     -43.742  41.518  27.298  1.00  0.00     0.065 A 
ATOM     48  N   UNL     1     -43.245  40.057  29.184  1.00  0.00    -0.218 NA
ATOM     49  C   UNL     1     -42.654  42.334  27.660  1.00  0.00     0.136 A 
ATOM     50  C   UNL     1     -42.254  40.920  29.436  1.00  0.00     0.120 A 
ATOM     51  N   UNL     1     -41.922  42.019  28.742  1.00  0.00    -0.219 NA
ATOM     52  H   UNL     1     -41.640  40.702  30.305  1.00  0.00     0.106 H 
BRANCH  45  53
ATOM     53  C   UNL     1     -44.974  42.561  25.208  1.00  0.00    -0.014 C 
ATOM     54  C   UNL     1     -43.910  42.554  24.091  1.00  0.00    -0.046 C 
ATOM     55  C   UNL     1     -44.969  43.993  25.775  1.00  0.00    -0.046 C 
ATOM     56  H   UNL     1     -45.938  42.367  24.726  1.00  0.00     0.035 H 
ATOM     57  C   UNL     1     -43.111  43.835  24.283  1.00  0.00    -0.053 C 
ATOM     58  H   UNL     1     -44.416  42.595  23.117  1.00  0.00     0.027 H 
ATOM     59  H   UNL     1     -43.269  41.668  24.081  1.00  0.00     0.027 H 
ATOM     60  C   UNL     1     -44.151  44.818  24.790  1.00  0.00    -0.053 C 
ATOM     61  H   UNL     1     -45.984  44.390  25.882  1.00  0.00     0.027 H 
ATOM     62  H   UNL     1     -44.499  44.036  26.765  1.00  0.00     0.027 H 
ATOM     63  H   UNL     1     -42.327  43.687  25.035  1.00  0.00     0.027 H 
ATOM     64  H   UNL     1     -42.640  44.170  23.355  1.00  0.00     0.027 H 
ATOM     65  H   UNL     1     -43.700  45.698  25.259  1.00  0.00     0.027 H 
ATOM     66  H   UNL     1     -44.785  45.159  23.964  1.00  0.00     0.027 H 
ENDBRANCH  45  53
BRANCH  49  67
ATOM     67  N   UNL     1     -42.237  43.453  26.947  1.00  0.00    -0.383 N 
ATOM     68  H   UNL     1     -42.736  43.584  26.078  1.00  0.00     0.158 HD
ATOM     69  H   UNL     1     -41.226  43.430  26.858  1.00  0.00     0.158 HD
ENDBRANCH  49  67
ENDBRANCH  38  42
ENDBRANCH   1  33
TORSDOF 8
ENDMDL
MODEL 4
REMARK VINA RESULT:     -10.0      2.598     12.168
REMARK SMILES C[C@@H]1CCN1c1ccc2ccc(OCc3cncc(-n4cc(C5CCCC5)c5c(N)ncnc54)c3)cc2n1
REMARK SMILES IDX 14 1 13 4 12 5 6 6 7 7 38 8 8 9 37 11 9 12 36 14 10 15 11 17
REMARK SMILES IDX 5 20 2 21 3 22 4 24 1 29 15 33 16 34 35 35 17 36 19 38 18 40
REMARK SMILES IDX 20 42 21 43 34 44 22 45 28 47 33 48 29 49 32 50 31 51 23 53
REMARK SMILES IDX 24 54 27 55 25 57 26 60 30 67
REMARK H PARENT 14 2 14 3 7 10 8 13 36 16 10 18 11 19 2 23 3 25 3 26 4 27 4 28
REMARK H PARENT 1 30 1 31 1 32 16 37 35 39 18 41 21 46 32 52 23 56 24 58 24 59
REMARK H PARENT 27 61 27 62 25 63 25 64 26 65 26 66 30 68 30 69
REMARK Flexibility Score: inf
ROOT
ATOM      1  C   UNL     1     -48.532  35.488  27.184  1.00  0.00     0.115 C 
ATOM      2  H   UNL     1     -49.624  35.468  27.281  1.00  0.00     0.076 H 
ATOM      3  H   UNL     1     -48.288  36.412  26.646  1.00  0.00     0.076 H 
ENDROOT
BRANCH   1   4
ATOM      4  O   UNL     1     -47.916  35.614  28.472  1.00  0.00    -0.489 OA
BRANCH   4   5
ATOM      5  C   UNL     1     -46.951  36.566  28.656  1.00  0.00     0.122 A 
ATOM      6  C   UNL     1     -45.262  40.637  26.827  1.00  0.00     0.129 A 
ATOM      7  C   UNL     1     -44.200  40.644  27.723  1.00  0.00    -0.019 A 
ATOM      8  N   UNL     1     -46.192  39.653  26.857  1.00  0.00    -0.231 NA
ATOM      9  C   UNL     1     -44.085  39.621  28.662  1.00  0.00    -0.049 A 
ATOM     10  H   UNL     1     -43.458  41.431  27.706  1.00  0.00     0.066 H 
ATOM     11  C   UNL     1     -46.086  38.663  27.760  1.00  0.00     0.076 A 
ATOM     12  C   UNL     1     -45.037  38.601  28.691  1.00  0.00     0.001 A 
ATOM     13  H   UNL     1     -43.252  39.630  29.361  1.00  0.00     0.063 H 
ATOM     14  C   UNL     1     -47.031  37.647  27.770  1.00  0.00     0.007 A 
ATOM     15  C   UNL     1     -44.964  37.538  29.607  1.00  0.00    -0.049 A 
ATOM     16  H   UNL     1     -47.840  37.683  27.045  1.00  0.00     0.069 H 
ATOM     17  C   UNL     1     -45.920  36.520  29.589  1.00  0.00    -0.019 A 
ATOM     18  H   UNL     1     -44.154  37.490  30.333  1.00  0.00     0.063 H 
ATOM     19  H   UNL     1     -45.818  35.710  30.301  1.00  0.00     0.066 H 
BRANCH   6  20
ATOM     20  N   UNL     1     -45.411  41.656  25.865  1.00  0.00    -0.354 N 
ATOM     21  C   UNL     1     -45.818  43.021  26.073  1.00  0.00     0.029 C 
ATOM     22  C   UNL     1     -45.048  43.369  24.787  1.00  0.00    -0.015 C 
ATOM     23  H   UNL     1     -45.372  43.453  26.978  1.00  0.00     0.053 H 
ATOM     24  C   UNL     1     -44.354  42.023  24.961  1.00  0.00     0.021 C 
ATOM     25  H   UNL     1     -44.397  44.245  24.853  1.00  0.00     0.031 H 
ATOM     26  H   UNL     1     -45.657  43.440  23.878  1.00  0.00     0.031 H 
ATOM     27  H   UNL     1     -43.372  42.078  25.445  1.00  0.00     0.049 H 
ATOM     28  H   UNL     1     -44.310  41.390  24.072  1.00  0.00     0.049 H 
BRANCH  21  29
ATOM     29  C   UNL     1     -47.318  43.223  25.970  1.00  0.00    -0.045 C 
ATOM     30  H   UNL     1     -47.826  42.311  25.641  1.00  0.00     0.025 H 
ATOM     31  H   UNL     1     -47.731  43.487  26.949  1.00  0.00     0.025 H 
ATOM     32  H   UNL     1     -47.578  44.024  25.270  1.00  0.00     0.025 H 
ENDBRANCH  21  29
ENDBRANCH   6  20
ENDBRANCH   4   5
ENDBRANCH   1   4
BRANCH   1  33
ATOM     33  C   UNL     1     -48.031  34.336  26.346  1.00  0.00     0.010 A 
ATOM     34  C   UNL     1     -46.690  34.279  25.985  1.00  0.00     0.034 A 
ATOM     35  C   UNL     1     -48.849  33.285  25.912  1.00  0.00    -0.028 A 
ATOM     36  N   UNL     1     -46.149  33.295  25.236  1.00  0.00    -0.262 NA
ATOM     37  H   UNL     1     -45.987  35.046  26.297  1.00  0.00     0.084 H 
ATOM     38  C   UNL     1     -48.337  32.264  25.100  1.00  0.00     0.066 A 
ATOM     39  H   UNL     1     -49.887  33.273  26.230  1.00  0.00     0.065 H 
ATOM     40  C   UNL     1     -46.981  32.311  24.806  1.00  0.00     0.051 A 
ATOM     41  H   UNL     1     -46.483  31.583  24.177  1.00  0.00     0.086 H 
BRANCH  38  42
ATOM     42  N   UNL     1     -49.196  31.253  24.572  1.00  0.00    -0.299 N 
ATOM     43  C   UNL     1     -50.126  31.458  23.566  1.00  0.00     0.015 A 
ATOM     44  C   UNL     1     -49.253  29.907  24.916  1.00  0.00     0.150 A 
ATOM     45  C   UNL     1     -50.741  30.266  23.227  1.00  0.00    -0.013 A 
ATOM     46  H   UNL     1     -50.250  32.429  23.106  1.00  0.00     0.083 H 
ATOM     47  C   UNL     1     -50.221  29.282  24.126  1.00  0.00     0.065 A 
ATOM     48  N   UNL     1     -48.525  29.301  25.876  1.00  0.00    -0.218 NA
ATOM     49  C   UNL     1     -50.440  27.914  24.371  1.00  0.00     0.136 A 
ATOM     50  C   UNL     1     -48.811  28.000  26.000  1.00  0.00     0.120 A 
ATOM     51  N   UNL     1     -49.716  27.286  25.315  1.00  0.00    -0.219 NA
ATOM     52  H   UNL     1     -48.244  27.456  26.750  1.00  0.00     0.106 H 
BRANCH  45  53
ATOM     53  C   UNL     1     -51.749  30.078  22.125  1.00  0.00    -0.014 C 
ATOM     54  C   UNL     1     -51.159  29.464  20.838  1.00  0.00    -0.046 C 
ATOM     55  C   UNL     1     -52.394  31.407  21.691  1.00  0.00    -0.046 C 
ATOM     56  H   UNL     1     -52.531  29.393  22.470  1.00  0.00     0.035 H 
ATOM     57  C   UNL     1     -51.173  30.586  19.809  1.00  0.00    -0.053 C 
ATOM     58  H   UNL     1     -51.819  28.658  20.492  1.00  0.00     0.027 H 
ATOM     59  H   UNL     1     -50.161  29.031  20.958  1.00  0.00     0.027 H 
ATOM     60  C   UNL     1     -52.425  31.367  20.168  1.00  0.00    -0.053 C 
ATOM     61  H   UNL     1     -53.400  31.524  22.108  1.00  0.00     0.027 H 
ATOM     62  H   UNL     1     -51.804  32.271  22.021  1.00  0.00     0.027 H 
ATOM     63  H   UNL     1     -50.284  31.218  19.919  1.00  0.00     0.027 H 
ATOM     64  H   UNL     1     -51.200  30.205  18.785  1.00  0.00     0.027 H 
ATOM     65  H   UNL     1     -52.433  32.368  19.726  1.00  0.00     0.027 H 
ATOM     66  H   UNL     1     -53.317  30.834  19.823  1.00  0.00     0.027 H 
ENDBRANCH  45  53
BRANCH  49  67
ATOM     67  N   UNL     1     -51.400  27.141  23.727  1.00  0.00    -0.383 N 
ATOM     68  H   UNL     1     -51.773  27.577  22.894  1.00  0.00     0.158 HD
ATOM     69  H   UNL     1     -52.097  26.847  24.403  1.00  0.00     0.158 HD
ENDBRANCH  49  67
ENDBRANCH  38  42
ENDBRANCH   1  33
TORSDOF 8
ENDMDL
MODEL 5
REMARK VINA RESULT:      -9.9      2.004     12.450
REMARK SMILES C[C@@H]1CCN1c1ccc2ccc(OCc3cncc(-n4cc(C5CCCC5)c5c(N)ncnc54)c3)cc2n1
REMARK SMILES IDX 14 1 13 4 12 5 6 6 7 7 38 8 8 9 37 11 9 12 36 14 10 15 11 17
REMARK SMILES IDX 5 20 2 21 3 22 4 24 1 29 15 33 16 34 35 35 17 36 19 38 18 40
REMARK SMILES IDX 20 42 21 43 34 44 22 45 28 47 33 48 29 49 32 50 31 51 23 53
REMARK SMILES IDX 24 54 27 55 25 57 26 60 30 67
REMARK H PARENT 14 2 14 3 7 10 8 13 36 16 10 18 11 19 2 23 3 25 3 26 4 27 4 28
REMARK H PARENT 1 30 1 31 1 32 16 37 35 39 18 41 21 46 32 52 23 56 24 58 24 59
REMARK H PARENT 27 61 27 62 25 63 25 64 26 65 26 66 30 68 30 69
REMARK Flexibility Score: inf
ROOT
ATOM      1  C   UNL     1     -46.140  35.537  27.579  1.00  0.00     0.115 C 
ATOM      2  H   UNL     1     -45.407  35.820  26.815  1.00  0.00     0.076 H 
ATOM      3  H   UNL     1     -45.599  34.924  28.311  1.00  0.00     0.076 H 
ENDROOT
BRANCH   1   4
ATOM      4  O   UNL     1     -46.589  36.693  28.297  1.00  0.00    -0.489 OA
BRANCH   4   5
ATOM      5  C   UNL     1     -45.673  37.632  28.684  1.00  0.00     0.122 A 
ATOM      6  C   UNL     1     -43.333  41.491  27.133  1.00  0.00     0.129 A 
ATOM      7  C   UNL     1     -42.575  41.546  28.296  1.00  0.00    -0.019 A 
ATOM      8  N   UNL     1     -44.279  40.538  26.963  1.00  0.00    -0.231 NA
ATOM      9  C   UNL     1     -42.785  40.603  29.300  1.00  0.00    -0.049 A 
ATOM     10  H   UNL     1     -41.822  42.311  28.439  1.00  0.00     0.066 H 
ATOM     11  C   UNL     1     -44.485  39.624  27.927  1.00  0.00     0.076 A 
ATOM     12  C   UNL     1     -43.753  39.614  29.125  1.00  0.00     0.001 A 
ATOM     13  H   UNL     1     -42.188  40.649  30.208  1.00  0.00     0.063 H 
ATOM     14  C   UNL     1     -45.441  38.637  27.737  1.00  0.00     0.007 A 
ATOM     15  C   UNL     1     -43.998  38.630  30.098  1.00  0.00    -0.049 A 
ATOM     16  H   UNL     1     -46.005  38.633  26.807  1.00  0.00     0.069 H 
ATOM     17  C   UNL     1     -44.957  37.639  29.876  1.00  0.00    -0.019 A 
ATOM     18  H   UNL     1     -43.435  38.622  31.029  1.00  0.00     0.063 H 
ATOM     19  H   UNL     1     -45.104  36.889  30.645  1.00  0.00     0.066 H 
BRANCH   6  20
ATOM     20  N   UNL     1     -43.149  42.430  26.098  1.00  0.00    -0.354 N 
ATOM     21  C   UNL     1     -43.852  43.669  25.886  1.00  0.00     0.029 C 
ATOM     22  C   UNL     1     -42.608  44.159  25.126  1.00  0.00    -0.015 C 
ATOM     23  H   UNL     1     -44.030  44.209  26.825  1.00  0.00     0.053 H 
ATOM     24  C   UNL     1     -41.867  43.013  25.805  1.00  0.00     0.021 C 
ATOM     25  H   UNL     1     -42.263  45.162  25.389  1.00  0.00     0.031 H 
ATOM     26  H   UNL     1     -42.658  44.070  24.034  1.00  0.00     0.031 H 
ATOM     27  H   UNL     1     -41.309  43.301  26.703  1.00  0.00     0.049 H 
ATOM     28  H   UNL     1     -41.251  42.390  25.153  1.00  0.00     0.049 H 
BRANCH  21  29
ATOM     29  C   UNL     1     -45.088  43.517  25.020  1.00  0.00    -0.045 C 
ATOM     30  H   UNL     1     -45.877  42.963  25.537  1.00  0.00     0.025 H 
ATOM     31  H   UNL     1     -45.495  44.501  24.769  1.00  0.00     0.025 H 
ATOM     32  H   UNL     1     -44.870  42.996  24.081  1.00  0.00     0.025 H 
ENDBRANCH  21  29
ENDBRANCH   6  20
ENDBRANCH   4   5
ENDBRANCH   1   4
BRANCH   1  33
ATOM     33  C   UNL     1     -47.239  34.678  27.000  1.00  0.00     0.010 A 
ATOM     34  C   UNL     1     -48.567  35.043  27.182  1.00  0.00     0.034 A 
ATOM     35  C   UNL     1     -46.997  33.515  26.256  1.00  0.00    -0.028 A 
ATOM     36  N   UNL     1     -49.617  34.340  26.708  1.00  0.00    -0.262 NA
ATOM     37  H   UNL     1     -48.838  35.941  27.731  1.00  0.00     0.084 H 
ATOM     38  C   UNL     1     -48.058  32.735  25.780  1.00  0.00     0.066 A 
ATOM     39  H   UNL     1     -45.968  33.240  26.048  1.00  0.00     0.065 H 
ATOM     40  C   UNL     1     -49.344  33.201  26.020  1.00  0.00     0.051 A 
ATOM     41  H   UNL     1     -50.237  32.671  25.709  1.00  0.00     0.086 H 
BRANCH  38  42
ATOM     42  N   UNL     1     -47.810  31.495  25.115  1.00  0.00    -0.299 N 
ATOM     43  C   UNL     1     -48.312  30.270  25.522  1.00  0.00     0.015 A 
ATOM     44  C   UNL     1     -47.075  31.272  23.956  1.00  0.00     0.150 A 
ATOM     45  C   UNL     1     -47.955  29.280  24.626  1.00  0.00    -0.013 A 
ATOM     46  H   UNL     1     -48.948  30.187  26.393  1.00  0.00     0.083 H 
ATOM     47  C   UNL     1     -47.120  29.910  23.650  1.00  0.00     0.065 A 
ATOM     48  N   UNL     1     -46.398  32.204  23.254  1.00  0.00    -0.218 NA
ATOM     49  C   UNL     1     -46.389  29.499  22.520  1.00  0.00     0.136 A 
ATOM     50  C   UNL     1     -45.762  31.693  22.194  1.00  0.00     0.120 A 
ATOM     51  N   UNL     1     -45.717  30.413  21.797  1.00  0.00    -0.219 NA
ATOM     52  H   UNL     1     -45.209  32.400  21.582  1.00  0.00     0.106 H 
BRANCH  45  53
ATOM     53  C   UNL     1     -48.382  27.837  24.690  1.00  0.00    -0.014 C 
ATOM     54  C   UNL     1     -49.416  27.541  25.796  1.00  0.00    -0.046 C 
ATOM     55  C   UNL     1     -47.198  26.891  24.966  1.00  0.00    -0.046 C 
ATOM     56  H   UNL     1     -48.850  27.561  23.739  1.00  0.00     0.035 H 
ATOM     57  C   UNL     1     -48.671  26.717  26.838  1.00  0.00    -0.053 C 
ATOM     58  H   UNL     1     -50.224  26.930  25.374  1.00  0.00     0.027 H 
ATOM     59  H   UNL     1     -49.880  28.430  26.233  1.00  0.00     0.027 H 
ATOM     60  C   UNL     1     -47.705  25.896  26.003  1.00  0.00    -0.053 C 
ATOM     61  H   UNL     1     -46.865  26.383  24.055  1.00  0.00     0.027 H 
ATOM     62  H   UNL     1     -46.333  27.431  25.370  1.00  0.00     0.027 H 
ATOM     63  H   UNL     1     -48.122  27.373  27.523  1.00  0.00     0.027 H 
ATOM     64  H   UNL     1     -49.347  26.092  27.428  1.00  0.00     0.027 H 
ATOM     65  H   UNL     1     -46.894  25.471  26.601  1.00  0.00     0.027 H 
ATOM     66  H   UNL     1     -48.234  25.073  25.510  1.00  0.00     0.027 H 
ENDBRANCH  45  53
BRANCH  49  67
ATOM     67  N   UNL     1     -46.269  28.180  22.095  1.00  0.00    -0.383 N 
ATOM     68  H   UNL     1     -46.155  27.523  22.856  1.00  0.00     0.158 HD
ATOM     69  H   UNL     1     -45.556  28.127  21.376  1.00  0.00     0.158 HD
ENDBRANCH  49  67
ENDBRANCH  38  42
ENDBRANCH   1  33
TORSDOF 8
ENDMDL
MODEL 6
REMARK VINA RESULT:      -9.9      1.957      3.201
REMARK SMILES C[C@@H]1CCN1c1ccc2ccc(OCc3cncc(-n4cc(C5CCCC5)c5c(N)ncnc54)c3)cc2n1
REMARK SMILES IDX 14 1 13 4 12 5 6 6 7 7 38 8 8 9 37 11 9 12 36 14 10 15 11 17
REMARK SMILES IDX 5 20 2 21 3 22 4 24 1 29 15 33 16 34 35 35 17 36 19 38 18 40
REMARK SMILES IDX 20 42 21 43 34 44 22 45 28 47 33 48 29 49 32 50 31 51 23 53
REMARK SMILES IDX 24 54 27 55 25 57 26 60 30 67
REMARK H PARENT 14 2 14 3 7 10 8 13 36 16 10 18 11 19 2 23 3 25 3 26 4 27 4 28
REMARK H PARENT 1 30 1 31 1 32 16 37 35 39 18 41 21 46 32 52 23 56 24 58 24 59
REMARK H PARENT 27 61 27 62 25 63 25 64 26 65 26 66 30 68 30 69
REMARK Flexibility Score: inf
ROOT
ATOM      1  C   UNL     1     -47.694  35.640  26.578  1.00  0.00     0.115 C 
ATOM      2  H   UNL     1     -47.750  35.698  25.485  1.00  0.00     0.076 H 
ATOM      3  H   UNL     1     -48.708  35.838  26.948  1.00  0.00     0.076 H 
ENDROOT
BRANCH   1   4
ATOM      4  O   UNL     1     -47.384  34.305  26.994  1.00  0.00    -0.489 OA
BRANCH   4   5
ATOM      5  C   UNL     1     -47.264  33.324  26.047  1.00  0.00     0.122 A 
ATOM      6  C   UNL     1     -48.638  28.870  25.027  1.00  0.00     0.129 A 
ATOM      7  C   UNL     1     -47.823  28.836  23.902  1.00  0.00    -0.019 A 
ATOM      8  N   UNL     1     -48.708  29.978  25.802  1.00  0.00    -0.231 NA
ATOM      9  C   UNL     1     -47.061  29.954  23.569  1.00  0.00    -0.049 A 
ATOM     10  H   UNL     1     -47.769  27.954  23.276  1.00  0.00     0.066 H 
ATOM     11  C   UNL     1     -47.975  31.060  25.487  1.00  0.00     0.076 A 
ATOM     12  C   UNL     1     -47.125  31.095  24.370  1.00  0.00     0.001 A 
ATOM     13  H   UNL     1     -46.425  29.921  22.688  1.00  0.00     0.063 H 
ATOM     14  C   UNL     1     -48.035  32.184  26.297  1.00  0.00     0.007 A 
ATOM     15  C   UNL     1     -46.369  32.246  24.089  1.00  0.00    -0.049 A 
ATOM     16  H   UNL     1     -48.684  32.160  27.170  1.00  0.00     0.069 H 
ATOM     17  C   UNL     1     -46.438  33.359  24.928  1.00  0.00    -0.019 A 
ATOM     18  H   UNL     1     -45.713  32.277  23.221  1.00  0.00     0.063 H 
ATOM     19  H   UNL     1     -45.826  34.221  24.686  1.00  0.00     0.066 H 
BRANCH   6  20
ATOM     20  N   UNL     1     -49.424  27.758  25.392  1.00  0.00    -0.354 N 
ATOM     21  C   UNL     1     -50.156  26.866  24.532  1.00  0.00     0.029 C 
ATOM     22  C   UNL     1     -50.021  25.806  25.638  1.00  0.00    -0.015 C 
ATOM     23  H   UNL     1     -49.595  26.618  23.621  1.00  0.00     0.053 H 
ATOM     24  C   UNL     1     -48.913  26.687  26.205  1.00  0.00     0.021 C 
ATOM     25  H   UNL     1     -49.707  24.815  25.303  1.00  0.00     0.031 H 
ATOM     26  H   UNL     1     -50.888  25.704  26.301  1.00  0.00     0.031 H 
ATOM     27  H   UNL     1     -47.899  26.379  25.924  1.00  0.00     0.049 H 
ATOM     28  H   UNL     1     -48.969  26.896  27.276  1.00  0.00     0.049 H 
BRANCH  21  29
ATOM     29  C   UNL     1     -51.581  27.315  24.274  1.00  0.00    -0.045 C 
ATOM     30  H   UNL     1     -52.305  26.662  24.770  1.00  0.00     0.025 H 
ATOM     31  H   UNL     1     -51.735  28.325  24.666  1.00  0.00     0.025 H 
ATOM     32  H   UNL     1     -51.820  27.332  23.205  1.00  0.00     0.025 H 
ENDBRANCH  21  29
ENDBRANCH   6  20
ENDBRANCH   4   5
ENDBRANCH   1   4
BRANCH   1  33
ATOM     33  C   UNL     1     -46.793  36.711  27.144  1.00  0.00     0.010 A 
ATOM     34  C   UNL     1     -45.913  36.399  28.172  1.00  0.00     0.034 A 
ATOM     35  C   UNL     1     -46.775  38.031  26.674  1.00  0.00    -0.028 A 
ATOM     36  N   UNL     1     -45.073  37.286  28.746  1.00  0.00    -0.262 NA
ATOM     37  H   UNL     1     -45.852  35.394  28.580  1.00  0.00     0.084 H 
ATOM     38  C   UNL     1     -45.947  38.993  27.266  1.00  0.00     0.066 A 
ATOM     39  H   UNL     1     -47.409  38.288  25.831  1.00  0.00     0.065 H 
ATOM     40  C   UNL     1     -45.108  38.564  28.285  1.00  0.00     0.051 A 
ATOM     41  H   UNL     1     -44.437  39.225  28.823  1.00  0.00     0.086 H 
BRANCH  38  42
ATOM     42  N   UNL     1     -46.009  40.361  26.856  1.00  0.00    -0.299 N 
ATOM     43  C   UNL     1     -44.905  41.145  26.567  1.00  0.00     0.015 A 
ATOM     44  C   UNL     1     -47.137  41.144  26.640  1.00  0.00     0.150 A 
ATOM     45  C   UNL     1     -45.302  42.394  26.126  1.00  0.00    -0.013 A 
ATOM     46  H   UNL     1     -43.902  40.746  26.633  1.00  0.00     0.083 H 
ATOM     47  C   UNL     1     -46.730  42.412  26.221  1.00  0.00     0.065 A 
ATOM     48  N   UNL     1     -48.417  40.763  26.832  1.00  0.00    -0.218 NA
ATOM     49  C   UNL     1     -47.751  43.353  25.992  1.00  0.00     0.136 A 
ATOM     50  C   UNL     1     -49.293  41.737  26.563  1.00  0.00     0.120 A 
ATOM     51  N   UNL     1     -49.035  42.992  26.165  1.00  0.00    -0.219 NA
ATOM     52  H   UNL     1     -50.342  41.484  26.688  1.00  0.00     0.106 H 
BRANCH  45  53
ATOM     53  C   UNL     1     -44.389  43.490  25.645  1.00  0.00    -0.014 C 
ATOM     54  C   UNL     1     -44.395  43.680  24.114  1.00  0.00    -0.046 C 
ATOM     55  C   UNL     1     -42.919  43.232  26.024  1.00  0.00    -0.046 C 
ATOM     56  H   UNL     1     -44.713  44.441  26.081  1.00  0.00     0.035 H 
ATOM     57  C   UNL     1     -43.033  43.192  23.639  1.00  0.00    -0.053 C 
ATOM     58  H   UNL     1     -44.486  44.750  23.888  1.00  0.00     0.027 H 
ATOM     59  H   UNL     1     -45.215  43.173  23.597  1.00  0.00     0.027 H 
ATOM     60  C   UNL     1     -42.111  43.580  24.780  1.00  0.00    -0.053 C 
ATOM     61  H   UNL     1     -42.610  43.837  26.883  1.00  0.00     0.027 H 
ATOM     62  H   UNL     1     -42.747  42.182  26.290  1.00  0.00     0.027 H 
ATOM     63  H   UNL     1     -43.041  42.104  23.507  1.00  0.00     0.027 H 
ATOM     64  H   UNL     1     -42.739  43.652  22.691  1.00  0.00     0.027 H 
ATOM     65  H   UNL     1     -41.155  43.047  24.744  1.00  0.00     0.027 H 
ATOM     66  H   UNL     1     -41.904  44.655  24.753  1.00  0.00     0.027 H 
ENDBRANCH  45  53
BRANCH  49  67
ATOM     67  N   UNL     1     -47.536  44.678  25.628  1.00  0.00    -0.383 N 
ATOM     68  H   UNL     1     -48.202  45.021  24.950  1.00  0.00     0.158 HD
ATOM     69  H   UNL     1     -46.562  44.795  25.366  1.00  0.00     0.158 HD
ENDBRANCH  49  67
ENDBRANCH  38  42
ENDBRANCH   1  33
TORSDOF 8
ENDMDL
MODEL 7
REMARK VINA RESULT:      -9.8      2.350      4.040
REMARK SMILES C[C@@H]1CCN1c1ccc2ccc(OCc3cncc(-n4cc(C5CCCC5)c5c(N)ncnc54)c3)cc2n1
REMARK SMILES IDX 14 1 13 4 12 5 6 6 7 7 38 8 8 9 37 11 9 12 36 14 10 15 11 17
REMARK SMILES IDX 5 20 2 21 3 22 4 24 1 29 15 33 16 34 35 35 17 36 19 38 18 40
REMARK SMILES IDX 20 42 21 43 34 44 22 45 28 47 33 48 29 49 32 50 31 51 23 53
REMARK SMILES IDX 24 54 27 55 25 57 26 60 30 67
REMARK H PARENT 14 2 14 3 7 10 8 13 36 16 10 18 11 19 2 23 3 25 3 26 4 27 4 28
REMARK H PARENT 1 30 1 31 1 32 16 37 35 39 18 41 21 46 32 52 23 56 24 58 24 59
REMARK H PARENT 27 61 27 62 25 63 25 64 26 65 26 66 30 68 30 69
REMARK Flexibility Score: inf
ROOT
ATOM      1  C   UNL     1     -46.849  32.707  24.828  1.00  0.00     0.115 C 
ATOM      2  H   UNL     1     -46.563  31.652  24.914  1.00  0.00     0.076 H 
ATOM      3  H   UNL     1     -46.176  33.147  24.081  1.00  0.00     0.076 H 
ENDROOT
BRANCH   1   4
ATOM      4  O   UNL     1     -48.167  32.826  24.280  1.00  0.00    -0.489 OA
BRANCH   4   5
ATOM      5  C   UNL     1     -48.970  31.719  24.231  1.00  0.00     0.122 A 
ATOM      6  C   UNL     1     -48.970  27.016  25.040  1.00  0.00     0.129 A 
ATOM      7  C   UNL     1     -50.257  26.890  24.531  1.00  0.00    -0.019 A 
ATOM      8  N   UNL     1     -48.363  28.224  25.104  1.00  0.00    -0.231 NA
ATOM      9  C   UNL     1     -50.931  28.021  24.074  1.00  0.00    -0.049 A 
ATOM     10  H   UNL     1     -50.749  25.926  24.482  1.00  0.00     0.066 H 
ATOM     11  C   UNL     1     -49.006  29.319  24.664  1.00  0.00     0.076 A 
ATOM     12  C   UNL     1     -50.304  29.266  24.132  1.00  0.00     0.001 A 
ATOM     13  H   UNL     1     -51.937  27.917  23.676  1.00  0.00     0.063 H 
ATOM     14  C   UNL     1     -48.369  30.550  24.714  1.00  0.00     0.007 A 
ATOM     15  C   UNL     1     -50.931  30.438  23.673  1.00  0.00    -0.049 A 
ATOM     16  H   UNL     1     -47.360  30.596  25.116  1.00  0.00     0.069 H 
ATOM     17  C   UNL     1     -50.263  31.663  23.722  1.00  0.00    -0.019 A 
ATOM     18  H   UNL     1     -51.939  30.400  23.264  1.00  0.00     0.063 H 
ATOM     19  H   UNL     1     -50.775  32.540  23.343  1.00  0.00     0.066 H 
BRANCH   6  20
ATOM     20  N   UNL     1     -48.260  25.894  25.512  1.00  0.00    -0.354 N 
ATOM     21  C   UNL     1     -46.877  25.817  25.904  1.00  0.00     0.029 C 
ATOM     22  C   UNL     1     -47.272  24.627  26.795  1.00  0.00    -0.015 C 
ATOM     23  H   UNL     1     -46.559  26.701  26.472  1.00  0.00     0.053 H 
ATOM     24  C   UNL     1     -48.707  25.117  26.638  1.00  0.00     0.021 C 
ATOM     25  H   UNL     1     -46.876  24.653  27.814  1.00  0.00     0.031 H 
ATOM     26  H   UNL     1     -47.092  23.635  26.364  1.00  0.00     0.031 H 
ATOM     27  H   UNL     1     -49.070  25.732  27.469  1.00  0.00     0.049 H 
ATOM     28  H   UNL     1     -49.444  24.357  26.370  1.00  0.00     0.049 H 
BRANCH  21  29
ATOM     29  C   UNL     1     -45.949  25.453  24.761  1.00  0.00    -0.045 C 
ATOM     30  H   UNL     1     -46.386  25.706  23.790  1.00  0.00     0.025 H 
ATOM     31  H   UNL     1     -45.010  26.009  24.846  1.00  0.00     0.025 H 
ATOM     32  H   UNL     1     -45.705  24.385  24.753  1.00  0.00     0.025 H 
ENDBRANCH  21  29
ENDBRANCH   6  20
ENDBRANCH   4   5
ENDBRANCH   1   4
BRANCH   1  33
ATOM     33  C   UNL     1     -46.626  33.448  26.124  1.00  0.00     0.010 A 
ATOM     34  C   UNL     1     -46.253  32.746  27.264  1.00  0.00     0.034 A 
ATOM     35  C   UNL     1     -46.758  34.837  26.251  1.00  0.00    -0.028 A 
ATOM     36  N   UNL     1     -46.036  33.317  28.468  1.00  0.00    -0.262 NA
ATOM     37  H   UNL     1     -46.112  31.669  27.245  1.00  0.00     0.084 H 
ATOM     38  C   UNL     1     -46.579  35.466  27.490  1.00  0.00     0.066 A 
ATOM     39  H   UNL     1     -46.989  35.417  25.362  1.00  0.00     0.065 H 
ATOM     40  C   UNL     1     -46.206  34.662  28.558  1.00  0.00     0.051 A 
ATOM     41  H   UNL     1     -46.055  35.040  29.563  1.00  0.00     0.086 H 
BRANCH  38  42
ATOM     42  N   UNL     1     -46.819  36.866  27.638  1.00  0.00    -0.299 N 
ATOM     43  C   UNL     1     -45.836  37.841  27.586  1.00  0.00     0.015 A 
ATOM     44  C   UNL     1     -48.034  37.517  27.823  1.00  0.00     0.150 A 
ATOM     45  C   UNL     1     -46.400  39.100  27.687  1.00  0.00    -0.013 A 
ATOM     46  H   UNL     1     -44.799  37.584  27.419  1.00  0.00     0.083 H 
ATOM     47  C   UNL     1     -47.801  38.892  27.889  1.00  0.00     0.065 A 
ATOM     48  N   UNL     1     -49.239  36.926  27.952  1.00  0.00    -0.218 NA
ATOM     49  C   UNL     1     -48.926  39.706  28.116  1.00  0.00     0.136 A 
ATOM     50  C   UNL     1     -50.229  37.805  28.143  1.00  0.00     0.120 A 
ATOM     51  N   UNL     1     -50.140  39.140  28.235  1.00  0.00    -0.219 NA
ATOM     52  H   UNL     1     -51.227  37.387  28.241  1.00  0.00     0.106 H 
BRANCH  45  53
ATOM     53  C   UNL     1     -45.659  40.407  27.591  1.00  0.00    -0.014 C 
ATOM     54  C   UNL     1     -45.728  41.064  26.197  1.00  0.00    -0.046 C 
ATOM     55  C   UNL     1     -44.159  40.250  27.900  1.00  0.00    -0.046 C 
ATOM     56  H   UNL     1     -46.100  41.120  28.297  1.00  0.00     0.035 H 
ATOM     57  C   UNL     1     -44.324  40.943  25.621  1.00  0.00    -0.053 C 
ATOM     58  H   UNL     1     -45.972  42.128  26.316  1.00  0.00     0.027 H 
ATOM     59  H   UNL     1     -46.482  40.635  25.531  1.00  0.00     0.027 H 
ATOM     60  C   UNL     1     -43.436  41.078  26.845  1.00  0.00    -0.053 C 
ATOM     61  H   UNL     1     -43.916  40.593  28.912  1.00  0.00     0.027 H 
ATOM     62  H   UNL     1     -43.836  39.204  27.828  1.00  0.00     0.027 H 
ATOM     63  H   UNL     1     -44.185  39.961  25.155  1.00  0.00     0.027 H 
ATOM     64  H   UNL     1     -44.119  41.712  24.872  1.00  0.00     0.027 H 
ATOM     65  H   UNL     1     -42.418  40.722  26.663  1.00  0.00     0.027 H 
ATOM     66  H   UNL     1     -43.381  42.126  27.160  1.00  0.00     0.027 H 
ENDBRANCH  45  53
BRANCH  49  67
ATOM     67  N   UNL     1     -48.882  41.088  28.269  1.00  0.00    -0.383 N 
ATOM     68  H   UNL     1     -48.165  41.531  27.711  1.00  0.00     0.158 HD
ATOM     69  H   UNL     1     -48.849  41.310  29.259  1.00  0.00     0.158 HD
ENDBRANCH  49  67
ENDBRANCH  38  42
ENDBRANCH   1  33
TORSDOF 8
ENDMDL
