MODEL 1
REMARK VINA RESULT:     -10.8      0.000      0.000
REMARK SMILES F[C@]12C[C@](CNCc3cc4ccc(Cn5cc(-c6cccn7cncc67)nn5)cc4[nH]3)(C1)C2
REMARK SMILES IDX 8 1 9 2 10 3 11 4 12 5 13 6 29 7 30 8 31 9 7 15 6 18 5 20
REMARK SMILES IDX 4 23 1 24 2 25 3 26 33 27 32 28 14 35 15 38 16 39 28 40
REMARK SMILES IDX 17 41 27 43 18 44 19 45 26 46 20 47 22 49 25 50 21 51 23 53
REMARK SMILES IDX 24 54
REMARK H PARENT 9 10 11 11 12 12 29 13 31 14 7 16 7 17 6 19 5 21 5 22 3 29
REMARK H PARENT 3 30 33 31 33 32 32 33 32 34 14 36 14 37 16 42 19 48 20 52
REMARK H PARENT 25 55 21 56 23 57
REMARK Flexibility Score: inf
ROOT
ATOM      1  C   UNL     1     -47.783  31.940  24.882  1.00  0.00     0.030 A 
ATOM      2  C   UNL     1     -46.512  32.432  25.100  1.00  0.00    -0.032 A 
ATOM      3  C   UNL     1     -46.624  33.600  25.905  1.00  0.00    -0.000 A 
ATOM      4  C   UNL     1     -45.695  34.514  26.435  1.00  0.00    -0.052 A 
ATOM      5  C   UNL     1     -46.155  35.588  27.206  1.00  0.00    -0.056 A 
ATOM      6  C   UNL     1     -47.522  35.768  27.461  1.00  0.00    -0.024 A 
ATOM      7  C   UNL     1     -48.459  34.862  26.933  1.00  0.00    -0.033 A 
ATOM      8  C   UNL     1     -47.979  33.793  26.165  1.00  0.00     0.046 A 
ATOM      9  N   UNL     1     -48.658  32.775  25.538  1.00  0.00    -0.357 N 
ATOM     10  H   UNL     1     -45.595  32.002  24.720  1.00  0.00     0.065 H 
ATOM     11  H   UNL     1     -44.633  34.390  26.250  1.00  0.00     0.063 H 
ATOM     12  H   UNL     1     -45.424  36.288  27.613  1.00  0.00     0.063 H 
ATOM     13  H   UNL     1     -49.525  34.979  27.110  1.00  0.00     0.065 H 
ATOM     14  H   UNL     1     -49.662  32.660  25.518  1.00  0.00     0.166 HD
ENDROOT
BRANCH   1  15
ATOM     15  C   UNL     1     -48.262  30.751  24.128  1.00  0.00     0.036 C 
ATOM     16  H   UNL     1     -47.916  30.828  23.090  1.00  0.00     0.049 H 
ATOM     17  H   UNL     1     -49.359  30.733  24.121  1.00  0.00     0.049 H 
BRANCH  15  18
ATOM     18  N   UNL     1     -47.735  29.539  24.756  1.00  0.00    -0.311 NA
ATOM     19  H   UNL     1     -47.533  29.763  25.731  1.00  0.00     0.123 HD
BRANCH  18  20
ATOM     20  C   UNL     1     -48.718  28.459  24.706  1.00  0.00     0.002 C 
ATOM     21  H   UNL     1     -48.890  28.159  23.665  1.00  0.00     0.043 H 
ATOM     22  H   UNL     1     -49.675  28.798  25.116  1.00  0.00     0.043 H 
BRANCH  20  23
ATOM     23  C   UNL     1     -48.214  27.294  25.478  1.00  0.00    -0.008 C 
ATOM     24  F   UNL     1     -47.173  24.683  27.144  1.00  0.00    -0.244 F 
ATOM     25  C   UNL     1     -47.592  25.742  26.470  1.00  0.00     0.112 C 
ATOM     26  C   UNL     1     -47.934  27.144  27.032  1.00  0.00    -0.012 C 
ATOM     27  C   UNL     1     -48.883  25.864  25.622  1.00  0.00    -0.012 C 
ATOM     28  C   UNL     1     -46.867  26.472  25.313  1.00  0.00    -0.012 C 
ATOM     29  H   UNL     1     -47.107  27.730  27.445  1.00  0.00     0.031 H 
ATOM     30  H   UNL     1     -48.799  27.218  27.699  1.00  0.00     0.031 H 
ATOM     31  H   UNL     1     -49.838  25.816  26.155  1.00  0.00     0.031 H 
ATOM     32  H   UNL     1     -48.944  25.254  24.715  1.00  0.00     0.031 H 
ATOM     33  H   UNL     1     -45.937  26.994  25.559  1.00  0.00     0.031 H 
ATOM     34  H   UNL     1     -46.737  25.921  24.376  1.00  0.00     0.031 H 
ENDBRANCH  20  23
ENDBRANCH  18  20
ENDBRANCH  15  18
ENDBRANCH   1  15
BRANCH   6  35
ATOM     35  C   UNL     1     -47.990  36.934  28.300  1.00  0.00     0.068 C 
ATOM     36  H   UNL     1     -47.842  36.749  29.370  1.00  0.00     0.057 H 
ATOM     37  H   UNL     1     -49.060  37.108  28.137  1.00  0.00     0.057 H 
BRANCH  35  38
ATOM     38  N   UNL     1     -47.265  38.153  27.985  1.00  0.00    -0.247 N 
ATOM     39  C   UNL     1     -45.915  38.355  27.974  1.00  0.00     0.054 A 
ATOM     40  N   UNL     1     -47.932  39.289  27.711  1.00  0.00    -0.066 NA
ATOM     41  C   UNL     1     -45.783  39.686  27.647  1.00  0.00     0.115 A 
ATOM     42  H   UNL     1     -45.208  37.566  28.183  1.00  0.00     0.086 H 
ATOM     43  N   UNL     1     -47.029  40.237  27.497  1.00  0.00    -0.130 NA
BRANCH  41  44
ATOM     44  C   UNL     1     -44.583  40.460  27.477  1.00  0.00     0.029 A 
ATOM     45  C   UNL     1     -44.388  41.215  26.362  1.00  0.00    -0.049 A 
ATOM     46  C   UNL     1     -43.526  40.490  28.459  1.00  0.00     0.074 A 
ATOM     47  C   UNL     1     -43.197  42.022  26.132  1.00  0.00    -0.045 A 
ATOM     48  H   UNL     1     -45.139  41.264  25.577  1.00  0.00     0.063 H 
ATOM     49  N   UNL     1     -42.405  41.269  28.212  1.00  0.00    -0.306 N 
ATOM     50  C   UNL     1     -43.283  39.908  29.687  1.00  0.00     0.053 A 
ATOM     51  C   UNL     1     -42.234  42.031  27.064  1.00  0.00     0.010 A 
ATOM     52  H   UNL     1     -43.120  42.600  25.218  1.00  0.00     0.064 H 
ATOM     53  C   UNL     1     -41.568  41.113  29.289  1.00  0.00     0.099 A 
ATOM     54  N   UNL     1     -42.065  40.299  30.192  1.00  0.00    -0.244 NA
ATOM     55  H   UNL     1     -43.921  39.228  30.236  1.00  0.00     0.086 H 
ATOM     56  H   UNL     1     -41.320  42.604  26.970  1.00  0.00     0.082 H 
ATOM     57  H   UNL     1     -40.614  41.617  29.355  1.00  0.00     0.105 H 
ENDBRANCH  41  44
ENDBRANCH  35  38
ENDBRANCH   6  35
TORSDOF 7
ENDMDL
MODEL 2
REMARK VINA RESULT:     -10.5      1.595      2.513
REMARK SMILES F[C@]12C[C@](CNCc3cc4ccc(Cn5cc(-c6cccn7cncc67)nn5)cc4[nH]3)(C1)C2
REMARK SMILES IDX 8 1 9 2 10 3 11 4 12 5 13 6 29 7 30 8 31 9 7 15 6 18 5 20
REMARK SMILES IDX 4 23 1 24 2 25 3 26 33 27 32 28 14 35 15 38 16 39 28 40
REMARK SMILES IDX 17 41 27 43 18 44 19 45 26 46 20 47 22 49 25 50 21 51 23 53
REMARK SMILES IDX 24 54
REMARK H PARENT 9 10 11 11 12 12 29 13 31 14 7 16 7 17 6 19 5 21 5 22 3 29
REMARK H PARENT 3 30 33 31 33 32 32 33 32 34 14 36 14 37 16 42 19 48 20 52
REMARK H PARENT 25 55 21 56 23 57
REMARK Flexibility Score: inf
ROOT
ATOM      1  C   UNL     1     -46.519  31.689  24.137  1.00  0.00     0.030 A 
ATOM      2  C   UNL     1     -47.803  32.130  24.385  1.00  0.00    -0.032 A 
ATOM      3  C   UNL     1     -47.748  33.069  25.452  1.00  0.00    -0.000 A 
ATOM      4  C   UNL     1     -48.713  33.834  26.131  1.00  0.00    -0.052 A 
ATOM      5  C   UNL     1     -48.310  34.684  27.168  1.00  0.00    -0.056 A 
ATOM      6  C   UNL     1     -46.961  34.789  27.538  1.00  0.00    -0.024 A 
ATOM      7  C   UNL     1     -45.988  34.026  26.868  1.00  0.00    -0.033 A 
ATOM      8  C   UNL     1     -46.413  33.183  25.833  1.00  0.00     0.046 A 
ATOM      9  N   UNL     1     -45.690  32.340  25.021  1.00  0.00    -0.357 N 
ATOM     10  H   UNL     1     -48.693  31.812  23.858  1.00  0.00     0.065 H 
ATOM     11  H   UNL     1     -49.762  33.767  25.858  1.00  0.00     0.063 H 
ATOM     12  H   UNL     1     -49.068  35.272  27.685  1.00  0.00     0.063 H 
ATOM     13  H   UNL     1     -44.937  34.083  27.137  1.00  0.00     0.065 H 
ATOM     14  H   UNL     1     -44.693  32.179  25.076  1.00  0.00     0.166 HD
ENDROOT
BRANCH   1  15
ATOM     15  C   UNL     1     -45.986  30.722  23.140  1.00  0.00     0.036 C 
ATOM     16  H   UNL     1     -44.918  30.923  22.990  1.00  0.00     0.049 H 
ATOM     17  H   UNL     1     -46.496  30.861  22.179  1.00  0.00     0.049 H 
BRANCH  15  18
ATOM     18  N   UNL     1     -46.187  29.361  23.635  1.00  0.00    -0.311 NA
ATOM     19  H   UNL     1     -46.268  29.414  24.651  1.00  0.00     0.123 HD
BRANCH  18  20
ATOM     20  C   UNL     1     -47.414  28.786  23.087  1.00  0.00     0.002 C 
ATOM     21  H   UNL     1     -47.168  28.048  22.314  1.00  0.00     0.043 H 
ATOM     22  H   UNL     1     -48.022  29.567  22.617  1.00  0.00     0.043 H 
BRANCH  20  23
ATOM     23  C   UNL     1     -48.181  28.125  24.173  1.00  0.00    -0.008 C 
ATOM     24  F   UNL     1     -49.924  26.639  26.504  1.00  0.00    -0.244 F 
ATOM     25  C   UNL     1     -49.217  27.241  25.562  1.00  0.00     0.112 C 
ATOM     26  C   UNL     1     -48.837  28.741  25.480  1.00  0.00    -0.012 C 
ATOM     27  C   UNL     1     -49.550  27.334  24.052  1.00  0.00    -0.012 C 
ATOM     28  C   UNL     1     -47.761  26.934  25.133  1.00  0.00    -0.012 C 
ATOM     29  H   UNL     1     -48.153  29.124  26.244  1.00  0.00     0.031 H 
ATOM     30  H   UNL     1     -49.653  29.456  25.334  1.00  0.00     0.031 H 
ATOM     31  H   UNL     1     -50.433  27.915  23.769  1.00  0.00     0.031 H 
ATOM     32  H   UNL     1     -49.531  26.402  23.478  1.00  0.00     0.031 H 
ATOM     33  H   UNL     1     -46.972  27.142  25.863  1.00  0.00     0.031 H 
ATOM     34  H   UNL     1     -47.572  25.964  24.662  1.00  0.00     0.031 H 
ENDBRANCH  20  23
ENDBRANCH  18  20
ENDBRANCH  15  18
ENDBRANCH   1  15
BRANCH   6  35
ATOM     35  C   UNL     1     -46.552  35.717  28.659  1.00  0.00     0.068 C 
ATOM     36  H   UNL     1     -45.751  35.286  29.270  1.00  0.00     0.057 H 
ATOM     37  H   UNL     1     -47.407  35.908  29.318  1.00  0.00     0.057 H 
BRANCH  35  38
ATOM     38  N   UNL     1     -46.056  36.986  28.156  1.00  0.00    -0.247 N 
ATOM     39  C   UNL     1     -45.110  37.802  28.706  1.00  0.00     0.054 A 
ATOM     40  N   UNL     1     -46.580  37.527  27.041  1.00  0.00    -0.066 NA
ATOM     41  C   UNL     1     -45.059  38.875  27.845  1.00  0.00     0.115 A 
ATOM     42  H   UNL     1     -44.583  37.550  29.614  1.00  0.00     0.086 H 
ATOM     43  N   UNL     1     -45.969  38.687  26.838  1.00  0.00    -0.130 NA
BRANCH  41  44
ATOM     44  C   UNL     1     -44.227  40.047  27.910  1.00  0.00     0.029 A 
ATOM     45  C   UNL     1     -43.327  40.212  28.917  1.00  0.00    -0.049 A 
ATOM     46  C   UNL     1     -44.286  41.104  26.929  1.00  0.00     0.074 A 
ATOM     47  C   UNL     1     -42.454  41.373  29.037  1.00  0.00    -0.045 A 
ATOM     48  H   UNL     1     -43.203  39.459  29.691  1.00  0.00     0.063 H 
ATOM     49  N   UNL     1     -43.443  42.196  27.070  1.00  0.00    -0.306 N 
ATOM     50  C   UNL     1     -45.014  41.370  25.787  1.00  0.00     0.053 A 
ATOM     51  C   UNL     1     -42.532  42.337  28.109  1.00  0.00     0.010 A 
ATOM     52  H   UNL     1     -41.761  41.428  29.868  1.00  0.00     0.064 H 
ATOM     53  C   UNL     1     -43.706  43.040  26.021  1.00  0.00     0.099 A 
ATOM     54  N   UNL     1     -44.648  42.574  25.232  1.00  0.00    -0.244 NA
ATOM     55  H   UNL     1     -45.782  40.758  25.332  1.00  0.00     0.086 H 
ATOM     56  H   UNL     1     -41.919  43.229  28.126  1.00  0.00     0.082 H 
ATOM     57  H   UNL     1     -43.182  43.975  25.886  1.00  0.00     0.105 H 
ENDBRANCH  41  44
ENDBRANCH  35  38
ENDBRANCH   6  35
TORSDOF 7
ENDMDL
MODEL 3
REMARK VINA RESULT:     -10.4      1.611      2.412
REMARK SMILES F[C@]12C[C@](CNCc3cc4ccc(Cn5cc(-c6cccn7cncc67)nn5)cc4[nH]3)(C1)C2
REMARK SMILES IDX 8 1 9 2 10 3 11 4 12 5 13 6 29 7 30 8 31 9 7 15 6 18 5 20
REMARK SMILES IDX 4 23 1 24 2 25 3 26 33 27 32 28 14 35 15 38 16 39 28 40
REMARK SMILES IDX 17 41 27 43 18 44 19 45 26 46 20 47 22 49 25 50 21 51 23 53
REMARK SMILES IDX 24 54
REMARK H PARENT 9 10 11 11 12 12 29 13 31 14 7 16 7 17 6 19 5 21 5 22 3 29
REMARK H PARENT 3 30 33 31 33 32 32 33 32 34 14 36 14 37 16 42 19 48 20 52
REMARK H PARENT 25 55 21 56 23 57
REMARK Flexibility Score: inf
ROOT
ATOM      1  C   UNL     1     -48.359  31.301  24.333  1.00  0.00     0.030 A 
ATOM      2  C   UNL     1     -47.098  31.862  24.366  1.00  0.00    -0.032 A 
ATOM      3  C   UNL     1     -47.142  32.996  25.224  1.00  0.00    -0.000 A 
ATOM      4  C   UNL     1     -46.191  33.947  25.636  1.00  0.00    -0.052 A 
ATOM      5  C   UNL     1     -46.578  34.968  26.512  1.00  0.00    -0.056 A 
ATOM      6  C   UNL     1     -47.894  35.058  26.988  1.00  0.00    -0.024 A 
ATOM      7  C   UNL     1     -48.854  34.114  26.580  1.00  0.00    -0.033 A 
ATOM      8  C   UNL     1     -48.446  33.100  25.704  1.00  0.00     0.046 A 
ATOM      9  N   UNL     1     -49.161  32.062  25.152  1.00  0.00    -0.357 N 
ATOM     10  H   UNL     1     -46.232  31.499  23.829  1.00  0.00     0.065 H 
ATOM     11  H   UNL     1     -45.167  33.893  25.280  1.00  0.00     0.063 H 
ATOM     12  H   UNL     1     -45.830  35.697  26.825  1.00  0.00     0.063 H 
ATOM     13  H   UNL     1     -49.882  34.162  26.928  1.00  0.00     0.065 H 
ATOM     14  H   UNL     1     -50.148  31.888  25.287  1.00  0.00     0.166 HD
ENDROOT
BRANCH   1  15
ATOM     15  C   UNL     1     -48.887  30.109  23.619  1.00  0.00     0.036 C 
ATOM     16  H   UNL     1     -48.724  30.242  22.542  1.00  0.00     0.049 H 
ATOM     17  H   UNL     1     -49.967  30.023  23.791  1.00  0.00     0.049 H 
BRANCH  15  18
ATOM     18  N   UNL     1     -48.195  28.914  24.100  1.00  0.00    -0.311 NA
ATOM     19  H   UNL     1     -47.201  29.140  24.161  1.00  0.00     0.123 HD
BRANCH  18  20
ATOM     20  C   UNL     1     -48.681  28.530  25.424  1.00  0.00     0.002 C 
ATOM     21  H   UNL     1     -49.777  28.540  25.437  1.00  0.00     0.043 H 
ATOM     22  H   UNL     1     -48.335  29.246  26.177  1.00  0.00     0.043 H 
BRANCH  20  23
ATOM     23  C   UNL     1     -48.195  27.166  25.754  1.00  0.00    -0.008 C 
ATOM     24  F   UNL     1     -47.201  24.131  26.446  1.00  0.00    -0.244 F 
ATOM     25  C   UNL     1     -47.602  25.361  26.166  1.00  0.00     0.112 C 
ATOM     26  C   UNL     1     -47.722  26.558  27.141  1.00  0.00    -0.012 C 
ATOM     27  C   UNL     1     -48.977  25.795  25.601  1.00  0.00    -0.012 C 
ATOM     28  C   UNL     1     -46.972  26.352  25.157  1.00  0.00    -0.012 C 
ATOM     29  H   UNL     1     -46.793  26.953  27.562  1.00  0.00     0.031 H 
ATOM     30  H   UNL     1     -48.477  26.485  27.931  1.00  0.00     0.031 H 
ATOM     31  H   UNL     1     -49.850  25.650  26.244  1.00  0.00     0.031 H 
ATOM     32  H   UNL     1     -49.222  25.477  24.582  1.00  0.00     0.031 H 
ATOM     33  H   UNL     1     -45.969  26.727  25.386  1.00  0.00     0.031 H 
ATOM     34  H   UNL     1     -47.026  26.088  24.096  1.00  0.00     0.031 H 
ENDBRANCH  20  23
ENDBRANCH  18  20
ENDBRANCH  15  18
ENDBRANCH   1  15
BRANCH   6  35
ATOM     35  C   UNL     1     -48.284  36.168  27.936  1.00  0.00     0.068 C 
ATOM     36  H   UNL     1     -48.385  35.805  28.965  1.00  0.00     0.057 H 
ATOM     37  H   UNL     1     -49.248  36.595  27.637  1.00  0.00     0.057 H 
BRANCH  35  38
ATOM     38  N   UNL     1     -47.292  37.229  27.963  1.00  0.00    -0.247 N 
ATOM     39  C   UNL     1     -47.117  38.247  27.070  1.00  0.00     0.054 A 
ATOM     40  N   UNL     1     -46.351  37.255  28.926  1.00  0.00    -0.066 NA
ATOM     41  C   UNL     1     -46.023  38.927  27.556  1.00  0.00     0.115 A 
ATOM     42  H   UNL     1     -47.763  38.388  26.217  1.00  0.00     0.086 H 
ATOM     43  N   UNL     1     -45.569  38.300  28.687  1.00  0.00    -0.130 NA
BRANCH  41  44
ATOM     44  C   UNL     1     -45.385  40.104  27.030  1.00  0.00     0.029 A 
ATOM     45  C   UNL     1     -44.031  40.178  26.920  1.00  0.00    -0.049 A 
ATOM     46  C   UNL     1     -46.123  41.263  26.588  1.00  0.00     0.074 A 
ATOM     47  C   UNL     1     -43.326  41.338  26.392  1.00  0.00    -0.045 A 
ATOM     48  H   UNL     1     -43.396  39.346  27.214  1.00  0.00     0.063 H 
ATOM     49  N   UNL     1     -45.425  42.352  26.090  1.00  0.00    -0.306 N 
ATOM     50  C   UNL     1     -47.450  41.637  26.518  1.00  0.00     0.053 A 
ATOM     51  C   UNL     1     -44.040  42.399  25.989  1.00  0.00     0.010 A 
ATOM     52  H   UNL     1     -42.244  41.317  26.334  1.00  0.00     0.064 H 
ATOM     53  C   UNL     1     -46.356  43.302  25.753  1.00  0.00     0.099 A 
ATOM     54  N   UNL     1     -47.584  42.904  26.000  1.00  0.00    -0.244 NA
ATOM     55  H   UNL     1     -48.318  41.061  26.811  1.00  0.00     0.086 H 
ATOM     56  H   UNL     1     -43.593  43.298  25.585  1.00  0.00     0.082 H 
ATOM     57  H   UNL     1     -46.079  44.259  25.335  1.00  0.00     0.105 H 
ENDBRANCH  41  44
ENDBRANCH  35  38
ENDBRANCH   6  35
TORSDOF 7
ENDMDL
MODEL 4
REMARK VINA RESULT:     -10.1      4.160     11.331
REMARK SMILES F[C@]12C[C@](CNCc3cc4ccc(Cn5cc(-c6cccn7cncc67)nn5)cc4[nH]3)(C1)C2
REMARK SMILES IDX 8 1 9 2 10 3 11 4 12 5 13 6 29 7 30 8 31 9 7 15 6 18 5 20
REMARK SMILES IDX 4 23 1 24 2 25 3 26 33 27 32 28 14 35 15 38 16 39 28 40
REMARK SMILES IDX 17 41 27 43 18 44 19 45 26 46 20 47 22 49 25 50 21 51 23 53
REMARK SMILES IDX 24 54
REMARK H PARENT 9 10 11 11 12 12 29 13 31 14 7 16 7 17 6 19 5 21 5 22 3 29
REMARK H PARENT 3 30 33 31 33 32 32 33 32 34 14 36 14 37 16 42 19 48 20 52
REMARK H PARENT 25 55 21 56 23 57
REMARK Flexibility Score: inf
ROOT
ATOM      1  C   UNL     1     -46.848  39.958  26.976  1.00  0.00     0.030 A 
ATOM      2  C   UNL     1     -46.813  39.558  28.296  1.00  0.00    -0.032 A 
ATOM      3  C   UNL     1     -46.658  38.144  28.324  1.00  0.00    -0.000 A 
ATOM      4  C   UNL     1     -46.565  37.192  29.355  1.00  0.00    -0.052 A 
ATOM      5  C   UNL     1     -46.417  35.839  29.027  1.00  0.00    -0.056 A 
ATOM      6  C   UNL     1     -46.356  35.417  27.691  1.00  0.00    -0.024 A 
ATOM      7  C   UNL     1     -46.452  36.360  26.652  1.00  0.00    -0.033 A 
ATOM      8  C   UNL     1     -46.599  37.709  27.002  1.00  0.00     0.046 A 
ATOM      9  N   UNL     1     -46.714  38.825  26.206  1.00  0.00    -0.357 N 
ATOM     10  H   UNL     1     -46.892  40.210  29.156  1.00  0.00     0.065 H 
ATOM     11  H   UNL     1     -46.609  37.499  30.395  1.00  0.00     0.063 H 
ATOM     12  H   UNL     1     -46.344  35.111  29.836  1.00  0.00     0.063 H 
ATOM     13  H   UNL     1     -46.413  36.062  25.609  1.00  0.00     0.065 H 
ATOM     14  H   UNL     1     -46.736  38.830  25.196  1.00  0.00     0.166 HD
ENDROOT
BRANCH   1  15
ATOM     15  C   UNL     1     -46.983  41.304  26.358  1.00  0.00     0.036 C 
ATOM     16  H   UNL     1     -47.959  41.723  26.633  1.00  0.00     0.049 H 
ATOM     17  H   UNL     1     -46.946  41.216  25.266  1.00  0.00     0.049 H 
BRANCH  15  18
ATOM     18  N   UNL     1     -45.902  42.164  26.839  1.00  0.00    -0.311 NA
ATOM     19  H   UNL     1     -45.763  41.955  27.829  1.00  0.00     0.123 HD
BRANCH  18  20
ATOM     20  C   UNL     1     -44.662  41.893  26.114  1.00  0.00     0.002 C 
ATOM     21  H   UNL     1     -44.468  42.696  25.393  1.00  0.00     0.043 H 
ATOM     22  H   UNL     1     -44.748  40.956  25.553  1.00  0.00     0.043 H 
BRANCH  20  23
ATOM     23  C   UNL     1     -43.533  41.811  27.076  1.00  0.00    -0.008 C 
ATOM     24  F   UNL     1     -41.074  41.710  29.226  1.00  0.00    -0.244 F 
ATOM     25  C   UNL     1     -42.069  41.749  28.355  1.00  0.00     0.112 C 
ATOM     26  C   UNL     1     -41.982  41.602  26.815  1.00  0.00    -0.012 C 
ATOM     27  C   UNL     1     -43.049  42.921  28.100  1.00  0.00    -0.012 C 
ATOM     28  C   UNL     1     -43.304  40.818  28.291  1.00  0.00    -0.012 C 
ATOM     29  H   UNL     1     -41.674  40.628  26.424  1.00  0.00     0.031 H 
ATOM     30  H   UNL     1     -41.462  42.394  26.266  1.00  0.00     0.031 H 
ATOM     31  H   UNL     1     -42.631  43.838  27.673  1.00  0.00     0.031 H 
ATOM     32  H   UNL     1     -43.739  43.181  28.909  1.00  0.00     0.031 H 
ATOM     33  H   UNL     1     -43.125  39.767  28.043  1.00  0.00     0.031 H 
ATOM     34  H   UNL     1     -44.019  40.877  29.118  1.00  0.00     0.031 H 
ENDBRANCH  20  23
ENDBRANCH  18  20
ENDBRANCH  15  18
ENDBRANCH   1  15
BRANCH   6  35
ATOM     35  C   UNL     1     -46.192  33.951  27.365  1.00  0.00     0.068 C 
ATOM     36  H   UNL     1     -46.087  33.344  28.272  1.00  0.00     0.057 H 
ATOM     37  H   UNL     1     -45.292  33.800  26.757  1.00  0.00     0.057 H 
BRANCH  35  38
ATOM     38  N   UNL     1     -47.337  33.425  26.643  1.00  0.00    -0.247 N 
ATOM     39  C   UNL     1     -47.345  32.596  25.558  1.00  0.00     0.054 A 
ATOM     40  N   UNL     1     -48.585  33.797  26.984  1.00  0.00    -0.066 NA
ATOM     41  C   UNL     1     -48.683  32.451  25.264  1.00  0.00     0.115 A 
ATOM     42  H   UNL     1     -46.440  32.200  25.124  1.00  0.00     0.086 H 
ATOM     43  N   UNL     1     -49.420  33.198  26.144  1.00  0.00    -0.130 NA
BRANCH  41  44
ATOM     44  C   UNL     1     -49.299  31.674  24.221  1.00  0.00     0.029 A 
ATOM     45  C   UNL     1     -50.652  31.633  24.085  1.00  0.00    -0.049 A 
ATOM     46  C   UNL     1     -48.539  30.905  23.265  1.00  0.00     0.074 A 
ATOM     47  C   UNL     1     -51.335  30.870  23.049  1.00  0.00    -0.045 A 
ATOM     48  H   UNL     1     -51.303  32.194  24.751  1.00  0.00     0.063 H 
ATOM     49  N   UNL     1     -49.218  30.190  22.291  1.00  0.00    -0.306 N 
ATOM     50  C   UNL     1     -47.205  30.647  23.022  1.00  0.00     0.053 A 
ATOM     51  C   UNL     1     -50.602  30.166  22.176  1.00  0.00     0.010 A 
ATOM     52  H   UNL     1     -52.419  30.891  23.007  1.00  0.00     0.064 H 
ATOM     53  C   UNL     1     -48.268  29.554  21.530  1.00  0.00     0.099 A 
ATOM     54  N   UNL     1     -47.048  29.807  21.946  1.00  0.00    -0.244 NA
ATOM     55  H   UNL     1     -46.347  31.023  23.565  1.00  0.00     0.086 H 
ATOM     56  H   UNL     1     -51.032  29.575  21.378  1.00  0.00     0.082 H 
ATOM     57  H   UNL     1     -48.528  28.924  20.691  1.00  0.00     0.105 H 
ENDBRANCH  41  44
ENDBRANCH  35  38
ENDBRANCH   6  35
TORSDOF 7
ENDMDL
MODEL 5
REMARK VINA RESULT:     -10.1      1.533      2.397
REMARK SMILES F[C@]12C[C@](CNCc3cc4ccc(Cn5cc(-c6cccn7cncc67)nn5)cc4[nH]3)(C1)C2
REMARK SMILES IDX 8 1 9 2 10 3 11 4 12 5 13 6 29 7 30 8 31 9 7 15 6 18 5 20
REMARK SMILES IDX 4 23 1 24 2 25 3 26 33 27 32 28 14 35 15 38 16 39 28 40
REMARK SMILES IDX 17 41 27 43 18 44 19 45 26 46 20 47 22 49 25 50 21 51 23 53
REMARK SMILES IDX 24 54
REMARK H PARENT 9 10 11 11 12 12 29 13 31 14 7 16 7 17 6 19 5 21 5 22 3 29
REMARK H PARENT 3 30 33 31 33 32 32 33 32 34 14 36 14 37 16 42 19 48 20 52
REMARK H PARENT 25 55 21 56 23 57
REMARK Flexibility Score: inf
ROOT
ATOM      1  C   UNL     1     -48.971  29.874  24.004  1.00  0.00     0.030 A 
ATOM      2  C   UNL     1     -47.981  30.607  23.382  1.00  0.00    -0.032 A 
ATOM      3  C   UNL     1     -47.447  31.521  24.332  1.00  0.00    -0.000 A 
ATOM      4  C   UNL     1     -46.443  32.506  24.284  1.00  0.00    -0.052 A 
ATOM      5  C   UNL     1     -46.160  33.254  25.433  1.00  0.00    -0.056 A 
ATOM      6  C   UNL     1     -46.857  33.037  26.631  1.00  0.00    -0.024 A 
ATOM      7  C   UNL     1     -47.864  32.058  26.690  1.00  0.00    -0.033 A 
ATOM      8  C   UNL     1     -48.131  31.320  25.529  1.00  0.00     0.046 A 
ATOM      9  N   UNL     1     -49.045  30.317  25.305  1.00  0.00    -0.357 N 
ATOM     10  H   UNL     1     -47.671  30.502  22.351  1.00  0.00     0.065 H 
ATOM     11  H   UNL     1     -45.893  32.687  23.366  1.00  0.00     0.063 H 
ATOM     12  H   UNL     1     -45.379  34.013  25.382  1.00  0.00     0.063 H 
ATOM     13  H   UNL     1     -48.423  31.872  27.602  1.00  0.00     0.065 H 
ATOM     14  H   UNL     1     -49.713  29.966  25.978  1.00  0.00     0.166 HD
ENDROOT
BRANCH   1  15
ATOM     15  C   UNL     1     -49.850  28.784  23.503  1.00  0.00     0.036 C 
ATOM     16  H   UNL     1     -50.183  29.037  22.489  1.00  0.00     0.049 H 
ATOM     17  H   UNL     1     -50.738  28.702  24.142  1.00  0.00     0.049 H 
BRANCH  15  18
ATOM     18  N   UNL     1     -49.104  27.527  23.501  1.00  0.00    -0.311 NA
ATOM     19  H   UNL     1     -48.115  27.758  23.609  1.00  0.00     0.123 HD
BRANCH  18  20
ATOM     20  C   UNL     1     -49.520  26.673  24.611  1.00  0.00     0.002 C 
ATOM     21  H   UNL     1     -49.891  25.715  24.227  1.00  0.00     0.043 H 
ATOM     22  H   UNL     1     -50.337  27.146  25.167  1.00  0.00     0.043 H 
BRANCH  20  23
ATOM     23  C   UNL     1     -48.364  26.430  25.511  1.00  0.00    -0.008 C 
ATOM     24  F   UNL     1     -45.855  25.950  27.550  1.00  0.00    -0.244 F 
ATOM     25  C   UNL     1     -46.871  26.143  26.723  1.00  0.00     0.112 C 
ATOM     26  C   UNL     1     -46.809  26.601  25.245  1.00  0.00    -0.012 C 
ATOM     27  C   UNL     1     -48.044  27.140  26.892  1.00  0.00    -0.012 C 
ATOM     28  C   UNL     1     -47.930  25.107  26.272  1.00  0.00    -0.012 C 
ATOM     29  H   UNL     1     -46.351  25.912  24.528  1.00  0.00     0.031 H 
ATOM     30  H   UNL     1     -46.450  27.617  25.051  1.00  0.00     0.031 H 
ATOM     31  H   UNL     1     -47.802  28.207  26.855  1.00  0.00     0.031 H 
ATOM     32  H   UNL     1     -48.741  26.955  27.715  1.00  0.00     0.031 H 
ATOM     33  H   UNL     1     -47.581  24.273  25.655  1.00  0.00     0.031 H 
ATOM     34  H   UNL     1     -48.617  24.730  27.036  1.00  0.00     0.031 H 
ENDBRANCH  20  23
ENDBRANCH  18  20
ENDBRANCH  15  18
ENDBRANCH   1  15
BRANCH   6  35
ATOM     35  C   UNL     1     -46.529  33.857  27.858  1.00  0.00     0.068 C 
ATOM     36  H   UNL     1     -45.538  33.611  28.256  1.00  0.00     0.057 H 
ATOM     37  H   UNL     1     -47.263  33.660  28.647  1.00  0.00     0.057 H 
BRANCH  35  38
ATOM     38  N   UNL     1     -46.521  35.280  27.571  1.00  0.00    -0.247 N 
ATOM     39  C   UNL     1     -45.512  36.178  27.771  1.00  0.00     0.054 A 
ATOM     40  N   UNL     1     -47.627  35.885  27.098  1.00  0.00    -0.066 NA
ATOM     41  C   UNL     1     -46.052  37.378  27.365  1.00  0.00     0.115 A 
ATOM     42  H   UNL     1     -44.547  35.889  28.159  1.00  0.00     0.086 H 
ATOM     43  N   UNL     1     -47.346  37.175  26.963  1.00  0.00    -0.130 NA
BRANCH  41  44
ATOM     44  C   UNL     1     -45.441  38.680  27.336  1.00  0.00     0.029 A 
ATOM     45  C   UNL     1     -45.716  39.561  26.337  1.00  0.00    -0.049 A 
ATOM     46  C   UNL     1     -44.518  39.133  28.349  1.00  0.00     0.074 A 
ATOM     47  C   UNL     1     -45.134  40.894  26.254  1.00  0.00    -0.045 A 
ATOM     48  H   UNL     1     -46.412  39.310  25.540  1.00  0.00     0.063 H 
ATOM     49  N   UNL     1     -43.981  40.407  28.243  1.00  0.00    -0.306 N 
ATOM     50  C   UNL     1     -43.957  38.612  29.497  1.00  0.00     0.053 A 
ATOM     51  C   UNL     1     -44.280  41.286  27.211  1.00  0.00     0.010 A 
ATOM     52  H   UNL     1     -45.407  41.538  25.426  1.00  0.00     0.064 H 
ATOM     53  C   UNL     1     -43.144  40.576  29.317  1.00  0.00     0.099 A 
ATOM     54  N   UNL     1     -43.105  39.514  30.090  1.00  0.00    -0.244 NA
ATOM     55  H   UNL     1     -44.123  37.634  29.932  1.00  0.00     0.086 H 
ATOM     56  H   UNL     1     -43.806  42.259  27.222  1.00  0.00     0.082 H 
ATOM     57  H   UNL     1     -42.593  41.491  29.481  1.00  0.00     0.105 H 
ENDBRANCH  41  44
ENDBRANCH  35  38
ENDBRANCH   6  35
TORSDOF 7
ENDMDL
MODEL 6
REMARK VINA RESULT:      -9.9      4.541     11.697
REMARK SMILES F[C@]12C[C@](CNCc3cc4ccc(Cn5cc(-c6cccn7cncc67)nn5)cc4[nH]3)(C1)C2
REMARK SMILES IDX 8 1 9 2 10 3 11 4 12 5 13 6 29 7 30 8 31 9 7 15 6 18 5 20
REMARK SMILES IDX 4 23 1 24 2 25 3 26 33 27 32 28 14 35 15 38 16 39 28 40
REMARK SMILES IDX 17 41 27 43 18 44 19 45 26 46 20 47 22 49 25 50 21 51 23 53
REMARK SMILES IDX 24 54
REMARK H PARENT 9 10 11 11 12 12 29 13 31 14 7 16 7 17 6 19 5 21 5 22 3 29
REMARK H PARENT 3 30 33 31 33 32 32 33 32 34 14 36 14 37 16 42 19 48 20 52
REMARK H PARENT 25 55 21 56 23 57
REMARK Flexibility Score: inf
ROOT
ATOM      1  C   UNL     1     -43.877  40.830  27.553  1.00  0.00     0.030 A 
ATOM      2  C   UNL     1     -44.824  40.627  26.570  1.00  0.00    -0.032 A 
ATOM      3  C   UNL     1     -45.572  39.467  26.912  1.00  0.00    -0.000 A 
ATOM      4  C   UNL     1     -46.641  38.779  26.308  1.00  0.00    -0.052 A 
ATOM      5  C   UNL     1     -47.157  37.634  26.926  1.00  0.00    -0.056 A 
ATOM      6  C   UNL     1     -46.631  37.163  28.138  1.00  0.00    -0.024 A 
ATOM      7  C   UNL     1     -45.561  37.840  28.749  1.00  0.00    -0.033 A 
ATOM      8  C   UNL     1     -45.060  38.984  28.115  1.00  0.00     0.046 A 
ATOM      9  N   UNL     1     -44.037  39.828  28.482  1.00  0.00    -0.357 N 
ATOM     10  H   UNL     1     -44.965  41.244  25.693  1.00  0.00     0.065 H 
ATOM     11  H   UNL     1     -47.062  39.130  25.371  1.00  0.00     0.063 H 
ATOM     12  H   UNL     1     -47.986  37.113  26.448  1.00  0.00     0.063 H 
ATOM     13  H   UNL     1     -45.130  37.495  29.685  1.00  0.00     0.065 H 
ATOM     14  H   UNL     1     -43.448  39.721  29.297  1.00  0.00     0.166 HD
ENDROOT
BRANCH   1  15
ATOM     15  C   UNL     1     -42.839  41.883  27.718  1.00  0.00     0.036 C 
ATOM     16  H   UNL     1     -41.868  41.471  27.419  1.00  0.00     0.049 H 
ATOM     17  H   UNL     1     -42.774  42.177  28.773  1.00  0.00     0.049 H 
BRANCH  15  18
ATOM     18  N   UNL     1     -43.186  43.034  26.886  1.00  0.00    -0.311 NA
ATOM     19  H   UNL     1     -43.229  43.851  27.497  1.00  0.00     0.123 HD
BRANCH  18  20
ATOM     20  C   UNL     1     -42.171  43.257  25.858  1.00  0.00     0.002 C 
ATOM     21  H   UNL     1     -41.591  42.341  25.701  1.00  0.00     0.043 H 
ATOM     22  H   UNL     1     -41.475  44.040  26.178  1.00  0.00     0.043 H 
BRANCH  20  23
ATOM     23  C   UNL     1     -42.831  43.648  24.586  1.00  0.00    -0.008 C 
ATOM     24  F   UNL     1     -44.344  44.445  21.802  1.00  0.00    -0.244 F 
ATOM     25  C   UNL     1     -43.730  44.124  22.929  1.00  0.00     0.112 C 
ATOM     26  C   UNL     1     -42.242  43.739  23.116  1.00  0.00    -0.012 C 
ATOM     27  C   UNL     1     -44.063  42.946  23.878  1.00  0.00    -0.012 C 
ATOM     28  C   UNL     1     -43.580  44.993  24.202  1.00  0.00    -0.012 C 
ATOM     29  H   UNL     1     -41.498  44.520  22.929  1.00  0.00     0.031 H 
ATOM     30  H   UNL     1     -41.907  42.802  22.659  1.00  0.00     0.031 H 
ATOM     31  H   UNL     1     -43.902  41.934  23.494  1.00  0.00     0.031 H 
ATOM     32  H   UNL     1     -45.022  42.984  24.404  1.00  0.00     0.031 H 
ATOM     33  H   UNL     1     -42.966  45.895  24.121  1.00  0.00     0.031 H 
ATOM     34  H   UNL     1     -44.493  45.225  24.760  1.00  0.00     0.031 H 
ENDBRANCH  20  23
ENDBRANCH  18  20
ENDBRANCH  15  18
ENDBRANCH   1  15
BRANCH   6  35
ATOM     35  C   UNL     1     -47.210  35.927  28.786  1.00  0.00     0.068 C 
ATOM     36  H   UNL     1     -48.247  36.084  29.103  1.00  0.00     0.057 H 
ATOM     37  H   UNL     1     -46.627  35.661  29.675  1.00  0.00     0.057 H 
BRANCH  35  38
ATOM     38  N   UNL     1     -47.219  34.794  27.878  1.00  0.00    -0.247 N 
ATOM     39  C   UNL     1     -48.125  34.501  26.899  1.00  0.00     0.054 A 
ATOM     40  N   UNL     1     -46.282  33.832  27.980  1.00  0.00    -0.066 NA
ATOM     41  C   UNL     1     -47.675  33.308  26.379  1.00  0.00     0.115 A 
ATOM     42  H   UNL     1     -48.962  35.144  26.672  1.00  0.00     0.086 H 
ATOM     43  N   UNL     1     -46.552  32.917  27.059  1.00  0.00    -0.130 NA
BRANCH  41  44
ATOM     44  C   UNL     1     -48.229  32.524  25.308  1.00  0.00     0.029 A 
ATOM     45  C   UNL     1     -49.574  32.376  25.170  1.00  0.00    -0.049 A 
ATOM     46  C   UNL     1     -47.411  31.858  24.322  1.00  0.00     0.074 A 
ATOM     47  C   UNL     1     -50.195  31.600  24.105  1.00  0.00    -0.045 A 
ATOM     48  H   UNL     1     -50.267  32.855  25.857  1.00  0.00     0.063 H 
ATOM     49  N   UNL     1     -48.031  31.127  23.321  1.00  0.00    -0.306 N 
ATOM     50  C   UNL     1     -46.061  31.720  24.070  1.00  0.00     0.053 A 
ATOM     51  C   UNL     1     -49.409  30.994  23.204  1.00  0.00     0.010 A 
ATOM     52  H   UNL     1     -51.277  31.534  24.063  1.00  0.00     0.064 H 
ATOM     53  C   UNL     1     -47.035  30.602  22.536  1.00  0.00     0.099 A 
ATOM     54  N   UNL     1     -45.838  30.938  22.961  1.00  0.00    -0.244 NA
ATOM     55  H   UNL     1     -45.235  32.144  24.627  1.00  0.00     0.086 H 
ATOM     56  H   UNL     1     -49.792  30.400  22.384  1.00  0.00     0.082 H 
ATOM     57  H   UNL     1     -47.244  29.986  21.673  1.00  0.00     0.105 H 
ENDBRANCH  41  44
ENDBRANCH  35  38
ENDBRANCH   6  35
TORSDOF 7
ENDMDL
MODEL 7
REMARK VINA RESULT:      -9.9      1.145      2.182
REMARK SMILES F[C@]12C[C@](CNCc3cc4ccc(Cn5cc(-c6cccn7cncc67)nn5)cc4[nH]3)(C1)C2
REMARK SMILES IDX 8 1 9 2 10 3 11 4 12 5 13 6 29 7 30 8 31 9 7 15 6 18 5 20
REMARK SMILES IDX 4 23 1 24 2 25 3 26 33 27 32 28 14 35 15 38 16 39 28 40
REMARK SMILES IDX 17 41 27 43 18 44 19 45 26 46 20 47 22 49 25 50 21 51 23 53
REMARK SMILES IDX 24 54
REMARK H PARENT 9 10 11 11 12 12 29 13 31 14 7 16 7 17 6 19 5 21 5 22 3 29
REMARK H PARENT 3 30 33 31 33 32 32 33 32 34 14 36 14 37 16 42 19 48 20 52
REMARK H PARENT 25 55 21 56 23 57
REMARK Flexibility Score: inf
ROOT
ATOM      1  C   UNL     1     -47.726  30.922  23.723  1.00  0.00     0.030 A 
ATOM      2  C   UNL     1     -46.579  31.681  23.833  1.00  0.00    -0.032 A 
ATOM      3  C   UNL     1     -46.824  32.715  24.779  1.00  0.00    -0.000 A 
ATOM      4  C   UNL     1     -46.052  33.774  25.291  1.00  0.00    -0.052 A 
ATOM      5  C   UNL     1     -46.615  34.638  26.237  1.00  0.00    -0.056 A 
ATOM      6  C   UNL     1     -47.933  34.465  26.686  1.00  0.00    -0.024 A 
ATOM      7  C   UNL     1     -48.715  33.412  26.179  1.00  0.00    -0.033 A 
ATOM      8  C   UNL     1     -48.131  32.558  25.233  1.00  0.00     0.046 A 
ATOM      9  N   UNL     1     -48.655  31.466  24.581  1.00  0.00    -0.357 N 
ATOM     10  H   UNL     1     -45.659  31.516  23.289  1.00  0.00     0.065 H 
ATOM     11  H   UNL     1     -45.030  33.923  24.956  1.00  0.00     0.063 H 
ATOM     12  H   UNL     1     -46.005  35.453  26.627  1.00  0.00     0.063 H 
ATOM     13  H   UNL     1     -49.739  33.257  26.504  1.00  0.00     0.065 H 
ATOM     14  H   UNL     1     -49.599  31.117  24.678  1.00  0.00     0.166 HD
ENDROOT
BRANCH   1  15
ATOM     15  C   UNL     1     -48.038  29.723  22.901  1.00  0.00     0.036 C 
ATOM     16  H   UNL     1     -47.155  29.464  22.305  1.00  0.00     0.049 H 
ATOM     17  H   UNL     1     -48.860  29.950  22.211  1.00  0.00     0.049 H 
BRANCH  15  18
ATOM     18  N   UNL     1     -48.403  28.616  23.784  1.00  0.00    -0.311 NA
ATOM     19  H   UNL     1     -48.948  27.951  23.233  1.00  0.00     0.123 HD
BRANCH  18  20
ATOM     20  C   UNL     1     -47.210  27.946  24.298  1.00  0.00     0.002 C 
ATOM     21  H   UNL     1     -46.533  28.682  24.748  1.00  0.00     0.043 H 
ATOM     22  H   UNL     1     -46.670  27.455  23.481  1.00  0.00     0.043 H 
BRANCH  20  23
ATOM     23  C   UNL     1     -47.605  26.947  25.323  1.00  0.00    -0.008 C 
ATOM     24  F   UNL     1     -48.396  24.706  27.567  1.00  0.00    -0.244 F 
ATOM     25  C   UNL     1     -48.077  25.615  26.659  1.00  0.00     0.112 C 
ATOM     26  C   UNL     1     -48.900  26.035  25.416  1.00  0.00    -0.012 C 
ATOM     27  C   UNL     1     -46.837  25.621  25.731  1.00  0.00    -0.012 C 
ATOM     28  C   UNL     1     -47.805  27.122  26.887  1.00  0.00    -0.012 C 
ATOM     29  H   UNL     1     -49.851  26.546  25.597  1.00  0.00     0.031 H 
ATOM     30  H   UNL     1     -49.035  25.287  24.628  1.00  0.00     0.031 H 
ATOM     31  H   UNL     1     -46.775  24.833  24.974  1.00  0.00     0.031 H 
ATOM     32  H   UNL     1     -45.858  25.743  26.206  1.00  0.00     0.031 H 
ATOM     33  H   UNL     1     -48.650  27.738  27.211  1.00  0.00     0.031 H 
ATOM     34  H   UNL     1     -46.919  27.387  27.471  1.00  0.00     0.031 H 
ENDBRANCH  20  23
ENDBRANCH  18  20
ENDBRANCH  15  18
ENDBRANCH   1  15
BRANCH   6  35
ATOM     35  C   UNL     1     -48.515  35.410  27.712  1.00  0.00     0.068 C 
ATOM     36  H   UNL     1     -48.539  34.959  28.710  1.00  0.00     0.057 H 
ATOM     37  H   UNL     1     -49.544  35.671  27.439  1.00  0.00     0.057 H 
BRANCH  35  38
ATOM     38  N   UNL     1     -47.737  36.631  27.824  1.00  0.00    -0.247 N 
ATOM     39  C   UNL     1     -46.478  36.789  28.329  1.00  0.00     0.054 A 
ATOM     40  N   UNL     1     -48.270  37.813  27.460  1.00  0.00    -0.066 NA
ATOM     41  C   UNL     1     -46.250  38.143  28.229  1.00  0.00     0.115 A 
ATOM     42  H   UNL     1     -45.889  35.959  28.689  1.00  0.00     0.086 H 
ATOM     43  N   UNL     1     -47.360  38.748  27.700  1.00  0.00    -0.130 NA
BRANCH  41  44
ATOM     44  C   UNL     1     -45.078  38.891  28.597  1.00  0.00     0.029 A 
ATOM     45  C   UNL     1     -44.381  38.591  29.727  1.00  0.00    -0.049 A 
ATOM     46  C   UNL     1     -44.568  39.986  27.806  1.00  0.00     0.074 A 
ATOM     47  C   UNL     1     -43.186  39.308  30.151  1.00  0.00    -0.045 A 
ATOM     48  H   UNL     1     -44.684  37.772  30.374  1.00  0.00     0.063 H 
ATOM     49  N   UNL     1     -43.428  40.648  28.236  1.00  0.00    -0.306 N 
ATOM     50  C   UNL     1     -44.926  40.629  26.639  1.00  0.00     0.053 A 
ATOM     51  C   UNL     1     -42.737  40.319  29.395  1.00  0.00     0.010 A 
ATOM     52  H   UNL     1     -42.686  39.004  31.064  1.00  0.00     0.064 H 
ATOM     53  C   UNL     1     -43.170  41.634  27.317  1.00  0.00     0.099 A 
ATOM     54  N   UNL     1     -44.054  41.651  26.345  1.00  0.00    -0.244 NA
ATOM     55  H   UNL     1     -45.766  40.411  25.992  1.00  0.00     0.086 H 
ATOM     56  H   UNL     1     -41.857  40.900  29.641  1.00  0.00     0.082 H 
ATOM     57  H   UNL     1     -42.327  42.304  27.411  1.00  0.00     0.105 H 
ENDBRANCH  41  44
ENDBRANCH  35  38
ENDBRANCH   6  35
TORSDOF 7
ENDMDL
