MODEL 1
REMARK VINA RESULT:     -10.5      0.000      0.000
REMARK SMILES CC(C)c1cc(N)c2ccc(CCc3cncc(-n4ccc5c(N)ncnc54)c3)cc2n1
REMARK SMILES IDX 12 1 11 4 4 5 5 6 32 7 6 8 31 10 8 11 30 12 9 13 10 15 2 18
REMARK SMILES IDX 1 20 3 24 7 28 13 31 14 34 15 35 29 36 16 37 18 39 17 41
REMARK SMILES IDX 19 43 20 44 28 45 21 46 22 48 27 49 23 51 26 52 25 53 24 55
REMARK H PARENT 12 2 12 3 5 9 30 14 9 16 10 17 2 19 1 21 1 22 1 23 3 25 3 26
REMARK H PARENT 3 27 7 29 7 30 13 32 13 33 15 38 29 40 17 42 20 47 21 50 26 54
REMARK H PARENT 24 56 24 57
REMARK Flexibility Score: inf
ROOT
ATOM      1  C   UNL     1     -48.435  35.188  27.251  1.00  0.00    -0.024 C 
ATOM      2  H   UNL     1     -49.530  35.246  27.217  1.00  0.00     0.032 H 
ATOM      3  H   UNL     1     -48.183  34.884  28.275  1.00  0.00     0.032 H 
ENDROOT
BRANCH   1   4
ATOM      4  C   UNL     1     -47.949  34.115  26.305  1.00  0.00    -0.045 A 
ATOM      5  C   UNL     1     -48.733  29.895  24.237  1.00  0.00     0.046 A 
ATOM      6  C   UNL     1     -47.503  29.898  23.594  1.00  0.00    -0.017 A 
ATOM      7  N   UNL     1     -49.113  30.892  25.067  1.00  0.00    -0.252 NA
ATOM      8  C   UNL     1     -46.606  30.940  23.832  1.00  0.00     0.043 A 
ATOM      9  H   UNL     1     -47.239  29.092  22.917  1.00  0.00     0.066 H 
ATOM     10  C   UNL     1     -48.293  31.939  25.242  1.00  0.00     0.073 A 
ATOM     11  C   UNL     1     -47.024  32.032  24.632  1.00  0.00     0.023 A 
ATOM     12  C   UNL     1     -48.727  32.974  26.061  1.00  0.00    -0.032 A 
ATOM     13  C   UNL     1     -46.250  33.194  24.859  1.00  0.00    -0.050 A 
ATOM     14  H   UNL     1     -49.707  32.879  26.526  1.00  0.00     0.065 H 
ATOM     15  C   UNL     1     -46.705  34.220  25.687  1.00  0.00    -0.058 A 
ATOM     16  H   UNL     1     -45.278  33.315  24.387  1.00  0.00     0.063 H 
ATOM     17  H   UNL     1     -46.074  35.091  25.853  1.00  0.00     0.063 H 
BRANCH   5  18
ATOM     18  C   UNL     1     -49.708  28.756  24.017  1.00  0.00    -0.004 C 
ATOM     19  H   UNL     1     -49.704  28.102  24.899  1.00  0.00     0.036 H 
BRANCH  18  20
ATOM     20  C   UNL     1     -49.292  27.911  22.813  1.00  0.00    -0.057 C 
ATOM     21  H   UNL     1     -48.606  28.454  22.152  1.00  0.00     0.024 H 
ATOM     22  H   UNL     1     -50.167  27.621  22.222  1.00  0.00     0.024 H 
ATOM     23  H   UNL     1     -48.785  26.994  23.135  1.00  0.00     0.024 H 
ENDBRANCH  18  20
BRANCH  18  24
ATOM     24  C   UNL     1     -51.133  29.286  23.842  1.00  0.00    -0.057 C 
ATOM     25  H   UNL     1     -51.862  28.574  24.242  1.00  0.00     0.024 H 
ATOM     26  H   UNL     1     -51.264  30.236  24.373  1.00  0.00     0.024 H 
ATOM     27  H   UNL     1     -51.377  29.458  22.788  1.00  0.00     0.024 H 
ENDBRANCH  18  24
ENDBRANCH   5  18
BRANCH   8  28
ATOM     28  N   UNL     1     -45.400  30.961  23.101  1.00  0.00    -0.398 N 
ATOM     29  H   UNL     1     -44.686  30.338  23.468  1.00  0.00     0.156 HD
ATOM     30  H   UNL     1     -45.032  31.893  22.942  1.00  0.00     0.156 HD
ENDBRANCH   8  28
ENDBRANCH   1   4
BRANCH   1  31
ATOM     31  C   UNL     1     -47.826  36.571  26.972  1.00  0.00    -0.022 C 
ATOM     32  H   UNL     1     -48.614  37.329  26.878  1.00  0.00     0.032 H 
ATOM     33  H   UNL     1     -47.322  36.547  25.998  1.00  0.00     0.032 H 
BRANCH  31  34
ATOM     34  C   UNL     1     -46.835  37.006  28.020  1.00  0.00    -0.027 A 
ATOM     35  C   UNL     1     -46.792  36.402  29.269  1.00  0.00     0.030 A 
ATOM     36  C   UNL     1     -45.952  38.070  27.784  1.00  0.00    -0.032 A 
ATOM     37  N   UNL     1     -45.952  36.777  30.253  1.00  0.00    -0.262 NA
ATOM     38  H   UNL     1     -47.452  35.578  29.523  1.00  0.00     0.084 H 
ATOM     39  C   UNL     1     -45.070  38.501  28.784  1.00  0.00     0.066 A 
ATOM     40  H   UNL     1     -45.983  38.540  26.806  1.00  0.00     0.065 H 
ATOM     41  C   UNL     1     -45.111  37.813  29.992  1.00  0.00     0.051 A 
ATOM     42  H   UNL     1     -44.486  38.060  30.841  1.00  0.00     0.086 H 
BRANCH  39  43
ATOM     43  N   UNL     1     -44.190  39.608  28.566  1.00  0.00    -0.300 N 
ATOM     44  C   UNL     1     -43.189  40.017  29.440  1.00  0.00     0.012 A 
ATOM     45  C   UNL     1     -44.148  40.472  27.467  1.00  0.00     0.150 A 
ATOM     46  C   UNL     1     -42.537  41.110  28.919  1.00  0.00    -0.031 A 
ATOM     47  H   UNL     1     -42.996  39.498  30.368  1.00  0.00     0.082 H 
ATOM     48  C   UNL     1     -43.134  41.404  27.671  1.00  0.00     0.061 A 
ATOM     49  N   UNL     1     -44.954  40.445  26.386  1.00  0.00    -0.218 NA
ATOM     50  H   UNL     1     -41.719  41.639  29.390  1.00  0.00     0.065 H 
ATOM     51  C   UNL     1     -42.936  42.369  26.674  1.00  0.00     0.136 A 
ATOM     52  C   UNL     1     -44.676  41.416  25.505  1.00  0.00     0.120 A 
ATOM     53  N   UNL     1     -43.720  42.356  25.583  1.00  0.00    -0.219 NA
ATOM     54  H   UNL     1     -45.298  41.445  24.616  1.00  0.00     0.106 H 
BRANCH  51  55
ATOM     55  N   UNL     1     -41.953  43.348  26.736  1.00  0.00    -0.383 N 
ATOM     56  H   UNL     1     -41.018  43.032  26.524  1.00  0.00     0.158 HD
ATOM     57  H   UNL     1     -42.262  44.194  26.271  1.00  0.00     0.158 HD
ENDBRANCH  51  55
ENDBRANCH  39  43
ENDBRANCH  31  34
ENDBRANCH   1  31
TORSDOF 9
ENDMDL
MODEL 2
REMARK VINA RESULT:     -10.4      1.774     10.704
REMARK SMILES CC(C)c1cc(N)c2ccc(CCc3cncc(-n4ccc5c(N)ncnc54)c3)cc2n1
REMARK SMILES IDX 12 1 11 4 4 5 5 6 32 7 6 8 31 10 8 11 30 12 9 13 10 15 2 18
REMARK SMILES IDX 1 20 3 24 7 28 13 31 14 34 15 35 29 36 16 37 18 39 17 41
REMARK SMILES IDX 19 43 20 44 28 45 21 46 22 48 27 49 23 51 26 52 25 53 24 55
REMARK H PARENT 12 2 12 3 5 9 30 14 9 16 10 17 2 19 1 21 1 22 1 23 3 25 3 26
REMARK H PARENT 3 27 7 29 7 30 13 32 13 33 15 38 29 40 17 42 20 47 21 50 26 54
REMARK H PARENT 24 56 24 57
REMARK Flexibility Score: inf
ROOT
ATOM      1  C   UNL     1     -46.933  37.480  27.811  1.00  0.00    -0.024 C 
ATOM      2  H   UNL     1     -47.204  36.792  28.622  1.00  0.00     0.032 H 
ATOM      3  H   UNL     1     -47.816  38.109  27.644  1.00  0.00     0.032 H 
ENDROOT
BRANCH   1   4
ATOM      4  C   UNL     1     -45.795  38.370  28.254  1.00  0.00    -0.045 A 
ATOM      5  C   UNL     1     -43.205  42.296  27.496  1.00  0.00     0.046 A 
ATOM      6  C   UNL     1     -42.349  42.026  28.556  1.00  0.00    -0.017 A 
ATOM      7  N   UNL     1     -44.212  41.462  27.154  1.00  0.00    -0.252 NA
ATOM      8  C   UNL     1     -42.502  40.840  29.276  1.00  0.00     0.043 A 
ATOM      9  H   UNL     1     -41.565  42.729  28.816  1.00  0.00     0.066 H 
ATOM     10  C   UNL     1     -44.419  40.358  27.889  1.00  0.00     0.073 A 
ATOM     11  C   UNL     1     -43.603  39.999  28.983  1.00  0.00     0.023 A 
ATOM     12  C   UNL     1     -45.490  39.542  27.548  1.00  0.00    -0.032 A 
ATOM     13  C   UNL     1     -43.925  38.830  29.710  1.00  0.00    -0.050 A 
ATOM     14  H   UNL     1     -46.103  39.836  26.697  1.00  0.00     0.065 H 
ATOM     15  C   UNL     1     -45.005  38.024  29.348  1.00  0.00    -0.058 A 
ATOM     16  H   UNL     1     -43.337  38.533  30.574  1.00  0.00     0.063 H 
ATOM     17  H   UNL     1     -45.212  37.121  29.920  1.00  0.00     0.063 H 
BRANCH   5  18
ATOM     18  C   UNL     1     -43.037  43.563  26.681  1.00  0.00    -0.004 C 
ATOM     19  H   UNL     1     -42.583  44.339  27.311  1.00  0.00     0.036 H 
BRANCH  18  20
ATOM     20  C   UNL     1     -44.393  44.085  26.206  1.00  0.00    -0.057 C 
ATOM     21  H   UNL     1     -44.931  44.607  27.006  1.00  0.00     0.024 H 
ATOM     22  H   UNL     1     -45.025  43.261  25.858  1.00  0.00     0.024 H 
ATOM     23  H   UNL     1     -44.272  44.789  25.374  1.00  0.00     0.024 H 
ENDBRANCH  18  20
BRANCH  18  24
ATOM     24  C   UNL     1     -42.100  43.325  25.495  1.00  0.00    -0.057 C 
ATOM     25  H   UNL     1     -42.637  42.846  24.669  1.00  0.00     0.024 H 
ATOM     26  H   UNL     1     -41.689  44.271  25.125  1.00  0.00     0.024 H 
ATOM     27  H   UNL     1     -41.257  42.679  25.765  1.00  0.00     0.024 H 
ENDBRANCH  18  24
ENDBRANCH   5  18
BRANCH   8  28
ATOM     28  N   UNL     1     -41.673  40.633  30.398  1.00  0.00    -0.398 N 
ATOM     29  H   UNL     1     -41.060  39.827  30.314  1.00  0.00     0.156 HD
ATOM     30  H   UNL     1     -42.172  40.627  31.282  1.00  0.00     0.156 HD
ENDBRANCH   8  28
ENDBRANCH   1   4
BRANCH   1  31
ATOM     31  C   UNL     1     -46.629  36.689  26.531  1.00  0.00    -0.022 C 
ATOM     32  H   UNL     1     -45.648  36.969  26.126  1.00  0.00     0.032 H 
ATOM     33  H   UNL     1     -47.358  36.969  25.759  1.00  0.00     0.032 H 
BRANCH  31  34
ATOM     34  C   UNL     1     -46.682  35.196  26.727  1.00  0.00    -0.027 A 
ATOM     35  C   UNL     1     -46.094  34.592  27.830  1.00  0.00     0.030 A 
ATOM     36  C   UNL     1     -47.288  34.361  25.777  1.00  0.00    -0.032 A 
ATOM     37  N   UNL     1     -46.080  33.260  28.035  1.00  0.00    -0.262 NA
ATOM     38  H   UNL     1     -45.600  35.176  28.601  1.00  0.00     0.084 H 
ATOM     39  C   UNL     1     -47.285  32.970  25.945  1.00  0.00     0.066 A 
ATOM     40  H   UNL     1     -47.751  34.834  24.917  1.00  0.00     0.065 H 
ATOM     41  C   UNL     1     -46.675  32.480  27.093  1.00  0.00     0.051 A 
ATOM     42  H   UNL     1     -46.601  31.425  27.327  1.00  0.00     0.086 H 
BRANCH  39  43
ATOM     43  N   UNL     1     -47.869  32.107  24.963  1.00  0.00    -0.300 N 
ATOM     44  C   UNL     1     -49.162  31.597  25.016  1.00  0.00     0.012 A 
ATOM     45  C   UNL     1     -47.288  31.622  23.787  1.00  0.00     0.150 A 
ATOM     46  C   UNL     1     -49.393  30.807  23.914  1.00  0.00    -0.031 A 
ATOM     47  H   UNL     1     -49.837  31.838  25.824  1.00  0.00     0.082 H 
ATOM     48  C   UNL     1     -48.216  30.818  23.130  1.00  0.00     0.061 A 
ATOM     49  N   UNL     1     -46.036  31.859  23.346  1.00  0.00    -0.218 NA
ATOM     50  H   UNL     1     -50.312  30.277  23.701  1.00  0.00     0.065 H 
ATOM     51  C   UNL     1     -47.817  30.228  21.922  1.00  0.00     0.136 A 
ATOM     52  C   UNL     1     -45.766  31.241  22.188  1.00  0.00     0.120 A 
ATOM     53  N   UNL     1     -46.578  30.458  21.458  1.00  0.00    -0.219 NA
ATOM     54  H   UNL     1     -44.768  31.393  21.788  1.00  0.00     0.106 H 
BRANCH  51  55
ATOM     55  N   UNL     1     -48.641  29.418  21.154  1.00  0.00    -0.383 N 
ATOM     56  H   UNL     1     -49.464  29.071  21.625  1.00  0.00     0.158 HD
ATOM     57  H   UNL     1     -48.782  29.821  20.235  1.00  0.00     0.158 HD
ENDBRANCH  51  55
ENDBRANCH  39  43
ENDBRANCH  31  34
ENDBRANCH   1  31
TORSDOF 9
ENDMDL
MODEL 3
REMARK VINA RESULT:     -10.2      1.307      2.052
REMARK SMILES CC(C)c1cc(N)c2ccc(CCc3cncc(-n4ccc5c(N)ncnc54)c3)cc2n1
REMARK SMILES IDX 12 1 11 4 4 5 5 6 32 7 6 8 31 10 8 11 30 12 9 13 10 15 2 18
REMARK SMILES IDX 1 20 3 24 7 28 13 31 14 34 15 35 29 36 16 37 18 39 17 41
REMARK SMILES IDX 19 43 20 44 28 45 21 46 22 48 27 49 23 51 26 52 25 53 24 55
REMARK H PARENT 12 2 12 3 5 9 30 14 9 16 10 17 2 19 1 21 1 22 1 23 3 25 3 26
REMARK H PARENT 3 27 7 29 7 30 13 32 13 33 15 38 29 40 17 42 20 47 21 50 26 54
REMARK H PARENT 24 56 24 57
REMARK Flexibility Score: inf
ROOT
ATOM      1  C   UNL     1     -47.268  34.191  26.865  1.00  0.00    -0.024 C 
ATOM      2  H   UNL     1     -47.670  35.093  26.387  1.00  0.00     0.032 H 
ATOM      3  H   UNL     1     -47.970  33.940  27.670  1.00  0.00     0.032 H 
ENDROOT
BRANCH   1   4
ATOM      4  C   UNL     1     -47.255  33.050  25.876  1.00  0.00    -0.045 A 
ATOM      5  C   UNL     1     -48.923  28.765  24.626  1.00  0.00     0.046 A 
ATOM      6  C   UNL     1     -48.090  28.681  23.519  1.00  0.00    -0.017 A 
ATOM      7  N   UNL     1     -48.892  29.820  25.471  1.00  0.00    -0.252 NA
ATOM      8  C   UNL     1     -47.161  29.695  23.281  1.00  0.00     0.043 A 
ATOM      9  H   UNL     1     -48.157  27.831  22.849  1.00  0.00     0.066 H 
ATOM     10  C   UNL     1     -48.060  30.839  25.208  1.00  0.00     0.073 A 
ATOM     11  C   UNL     1     -47.175  30.844  24.109  1.00  0.00     0.023 A 
ATOM     12  C   UNL     1     -48.081  31.932  26.064  1.00  0.00    -0.032 A 
ATOM     13  C   UNL     1     -46.359  31.981  23.904  1.00  0.00    -0.050 A 
ATOM     14  H   UNL     1     -48.767  31.904  26.909  1.00  0.00     0.065 H 
ATOM     15  C   UNL     1     -46.397  33.068  24.778  1.00  0.00    -0.058 A 
ATOM     16  H   UNL     1     -45.684  32.035  23.055  1.00  0.00     0.063 H 
ATOM     17  H   UNL     1     -45.741  33.918  24.600  1.00  0.00     0.063 H 
BRANCH   5  18
ATOM     18  C   UNL     1     -49.917  27.660  24.921  1.00  0.00    -0.004 C 
ATOM     19  H   UNL     1     -50.640  28.014  25.667  1.00  0.00     0.036 H 
BRANCH  18  20
ATOM     20  C   UNL     1     -49.210  26.437  25.505  1.00  0.00    -0.057 C 
ATOM     21  H   UNL     1     -48.136  26.446  25.288  1.00  0.00     0.024 H 
ATOM     22  H   UNL     1     -49.628  25.513  25.092  1.00  0.00     0.024 H 
ATOM     23  H   UNL     1     -49.327  26.401  26.595  1.00  0.00     0.024 H 
ENDBRANCH  18  20
BRANCH  18  24
ATOM     24  C   UNL     1     -50.701  27.284  23.661  1.00  0.00    -0.057 C 
ATOM     25  H   UNL     1     -50.019  27.002  22.852  1.00  0.00     0.024 H 
ATOM     26  H   UNL     1     -51.365  26.434  23.853  1.00  0.00     0.024 H 
ATOM     27  H   UNL     1     -51.319  28.116  23.303  1.00  0.00     0.024 H 
ENDBRANCH  18  24
ENDBRANCH   5  18
BRANCH   8  28
ATOM     28  N   UNL     1     -46.386  29.625  22.103  1.00  0.00    -0.398 N 
ATOM     29  H   UNL     1     -45.389  29.538  22.272  1.00  0.00     0.156 HD
ATOM     30  H   UNL     1     -46.586  30.362  21.436  1.00  0.00     0.156 HD
ENDBRANCH   8  28
ENDBRANCH   1   4
BRANCH   1  31
ATOM     31  C   UNL     1     -45.890  34.489  27.474  1.00  0.00    -0.022 C 
ATOM     32  H   UNL     1     -45.123  34.538  26.691  1.00  0.00     0.032 H 
ATOM     33  H   UNL     1     -45.599  33.651  28.122  1.00  0.00     0.032 H 
BRANCH  31  34
ATOM     34  C   UNL     1     -45.860  35.760  28.284  1.00  0.00    -0.027 A 
ATOM     35  C   UNL     1     -46.411  35.818  29.557  1.00  0.00     0.030 A 
ATOM     36  C   UNL     1     -45.314  36.940  27.760  1.00  0.00    -0.032 A 
ATOM     37  N   UNL     1     -46.444  36.936  30.307  1.00  0.00    -0.262 NA
ATOM     38  H   UNL     1     -46.858  34.944  30.021  1.00  0.00     0.084 H 
ATOM     39  C   UNL     1     -45.338  38.129  28.502  1.00  0.00     0.066 A 
ATOM     40  H   UNL     1     -44.880  36.893  26.766  1.00  0.00     0.065 H 
ATOM     41  C   UNL     1     -45.908  38.063  29.768  1.00  0.00     0.051 A 
ATOM     42  H   UNL     1     -45.993  38.916  30.429  1.00  0.00     0.086 H 
BRANCH  39  43
ATOM     43  N   UNL     1     -44.816  39.347  27.962  1.00  0.00    -0.300 N 
ATOM     44  C   UNL     1     -45.259  39.957  26.793  1.00  0.00     0.012 A 
ATOM     45  C   UNL     1     -43.798  40.153  28.481  1.00  0.00     0.150 A 
ATOM     46  C   UNL     1     -44.540  41.109  26.572  1.00  0.00    -0.031 A 
ATOM     47  H   UNL     1     -46.063  39.542  26.203  1.00  0.00     0.082 H 
ATOM     48  C   UNL     1     -43.616  41.243  27.634  1.00  0.00     0.061 A 
ATOM     49  N   UNL     1     -43.081  39.928  29.601  1.00  0.00    -0.218 NA
ATOM     50  H   UNL     1     -44.668  41.779  25.732  1.00  0.00     0.065 H 
ATOM     51  C   UNL     1     -42.626  42.172  27.982  1.00  0.00     0.136 A 
ATOM     52  C   UNL     1     -42.162  40.877  29.829  1.00  0.00     0.120 A 
ATOM     53  N   UNL     1     -41.905  41.974  29.099  1.00  0.00    -0.219 NA
ATOM     54  H   UNL     1     -41.551  40.745  30.717  1.00  0.00     0.106 H 
BRANCH  51  55
ATOM     55  N   UNL     1     -42.346  43.311  27.241  1.00  0.00    -0.383 N 
ATOM     56  H   UNL     1     -41.862  43.149  26.370  1.00  0.00     0.158 HD
ATOM     57  H   UNL     1     -43.155  43.920  27.203  1.00  0.00     0.158 HD
ENDBRANCH  51  55
ENDBRANCH  39  43
ENDBRANCH  31  34
ENDBRANCH   1  31
TORSDOF 9
ENDMDL
MODEL 4
REMARK VINA RESULT:     -10.0      1.755     10.384
REMARK SMILES CC(C)c1cc(N)c2ccc(CCc3cncc(-n4ccc5c(N)ncnc54)c3)cc2n1
REMARK SMILES IDX 12 1 11 4 4 5 5 6 32 7 6 8 31 10 8 11 30 12 9 13 10 15 2 18
REMARK SMILES IDX 1 20 3 24 7 28 13 31 14 34 15 35 29 36 16 37 18 39 17 41
REMARK SMILES IDX 19 43 20 44 28 45 21 46 22 48 27 49 23 51 26 52 25 53 24 55
REMARK H PARENT 12 2 12 3 5 9 30 14 9 16 10 17 2 19 1 21 1 22 1 23 3 25 3 26
REMARK H PARENT 3 27 7 29 7 30 13 32 13 33 15 38 29 40 17 42 20 47 21 50 26 54
REMARK H PARENT 24 56 24 57
REMARK Flexibility Score: inf
ROOT
ATOM      1  C   UNL     1     -47.765  36.942  28.499  1.00  0.00    -0.024 C 
ATOM      2  H   UNL     1     -47.131  36.280  29.103  1.00  0.00     0.032 H 
ATOM      3  H   UNL     1     -48.457  37.420  29.204  1.00  0.00     0.032 H 
ENDROOT
BRANCH   1   4
ATOM      4  C   UNL     1     -46.919  38.020  27.863  1.00  0.00    -0.045 A 
ATOM      5  C   UNL     1     -43.195  40.970  28.219  1.00  0.00     0.046 A 
ATOM      6  C   UNL     1     -43.454  41.565  26.991  1.00  0.00    -0.017 A 
ATOM      7  N   UNL     1     -43.988  40.003  28.731  1.00  0.00    -0.252 NA
ATOM      8  C   UNL     1     -44.588  41.186  26.271  1.00  0.00     0.043 A 
ATOM      9  H   UNL     1     -42.784  42.323  26.600  1.00  0.00     0.066 H 
ATOM     10  C   UNL     1     -45.035  39.573  28.011  1.00  0.00     0.073 A 
ATOM     11  C   UNL     1     -45.379  40.116  26.755  1.00  0.00     0.023 A 
ATOM     12  C   UNL     1     -45.806  38.544  28.537  1.00  0.00    -0.032 A 
ATOM     13  C   UNL     1     -46.486  39.571  26.064  1.00  0.00    -0.050 A 
ATOM     14  H   UNL     1     -45.526  38.144  29.510  1.00  0.00     0.065 H 
ATOM     15  C   UNL     1     -47.248  38.538  26.613  1.00  0.00    -0.058 A 
ATOM     16  H   UNL     1     -46.768  39.944  25.083  1.00  0.00     0.063 H 
ATOM     17  H   UNL     1     -48.104  38.156  26.061  1.00  0.00     0.063 H 
BRANCH   5  18
ATOM     18  C   UNL     1     -41.987  41.390  29.032  1.00  0.00    -0.004 C 
ATOM     19  H   UNL     1     -42.163  42.390  29.449  1.00  0.00     0.036 H 
BRANCH  18  20
ATOM     20  C   UNL     1     -40.740  41.469  28.150  1.00  0.00    -0.057 C 
ATOM     21  H   UNL     1     -40.928  42.037  27.231  1.00  0.00     0.024 H 
ATOM     22  H   UNL     1     -40.406  40.467  27.862  1.00  0.00     0.024 H 
ATOM     23  H   UNL     1     -39.916  41.959  28.681  1.00  0.00     0.024 H 
ENDBRANCH  18  20
BRANCH  18  24
ATOM     24  C   UNL     1     -41.763  40.434  30.206  1.00  0.00    -0.057 C 
ATOM     25  H   UNL     1     -40.849  40.697  30.748  1.00  0.00     0.024 H 
ATOM     26  H   UNL     1     -42.599  40.480  30.912  1.00  0.00     0.024 H 
ATOM     27  H   UNL     1     -41.666  39.395  29.871  1.00  0.00     0.024 H 
ENDBRANCH  18  24
ENDBRANCH   5  18
BRANCH   8  28
ATOM     28  N   UNL     1     -44.780  41.746  24.990  1.00  0.00    -0.398 N 
ATOM     29  H   UNL     1     -44.287  42.623  24.847  1.00  0.00     0.156 HD
ATOM     30  H   UNL     1     -45.754  41.820  24.717  1.00  0.00     0.156 HD
ENDBRANCH   8  28
ENDBRANCH   1   4
BRANCH   1  31
ATOM     31  C   UNL     1     -48.571  36.117  27.485  1.00  0.00    -0.022 C 
ATOM     32  H   UNL     1     -48.727  36.687  26.560  1.00  0.00     0.032 H 
ATOM     33  H   UNL     1     -49.574  35.935  27.892  1.00  0.00     0.032 H 
BRANCH  31  34
ATOM     34  C   UNL     1     -47.933  34.792  27.155  1.00  0.00    -0.027 A 
ATOM     35  C   UNL     1     -46.794  34.355  27.816  1.00  0.00     0.030 A 
ATOM     36  C   UNL     1     -48.445  33.976  26.135  1.00  0.00    -0.032 A 
ATOM     37  N   UNL     1     -46.164  33.198  27.535  1.00  0.00    -0.262 NA
ATOM     38  H   UNL     1     -46.339  34.940  28.610  1.00  0.00     0.084 H 
ATOM     39  C   UNL     1     -47.813  32.771  25.802  1.00  0.00     0.066 A 
ATOM     40  H   UNL     1     -49.338  34.317  25.621  1.00  0.00     0.065 H 
ATOM     41  C   UNL     1     -46.685  32.432  26.540  1.00  0.00     0.051 A 
ATOM     42  H   UNL     1     -46.107  31.532  26.368  1.00  0.00     0.086 H 
BRANCH  39  43
ATOM     43  N   UNL     1     -48.306  31.948  24.740  1.00  0.00    -0.300 N 
ATOM     44  C   UNL     1     -49.607  31.469  24.638  1.00  0.00     0.012 A 
ATOM     45  C   UNL     1     -47.611  31.480  23.619  1.00  0.00     0.150 A 
ATOM     46  C   UNL     1     -49.734  30.714  23.496  1.00  0.00    -0.031 A 
ATOM     47  H   UNL     1     -50.361  31.706  25.375  1.00  0.00     0.082 H 
ATOM     48  C   UNL     1     -48.479  30.717  22.843  1.00  0.00     0.061 A 
ATOM     49  N   UNL     1     -46.314  31.698  23.323  1.00  0.00    -0.218 NA
ATOM     50  H   UNL     1     -50.636  30.213  23.169  1.00  0.00     0.065 H 
ATOM     51  C   UNL     1     -47.965  30.148  21.669  1.00  0.00     0.136 A 
ATOM     52  C   UNL     1     -45.933  31.103  22.184  1.00  0.00     0.120 A 
ATOM     53  N   UNL     1     -46.678  30.360  21.349  1.00  0.00    -0.219 NA
ATOM     54  H   UNL     1     -44.894  31.241  21.898  1.00  0.00     0.106 H 
BRANCH  51  55
ATOM     55  N   UNL     1     -48.718  29.379  20.794  1.00  0.00    -0.383 N 
ATOM     56  H   UNL     1     -49.069  28.513  21.177  1.00  0.00     0.158 HD
ATOM     57  H   UNL     1     -49.383  29.956  20.293  1.00  0.00     0.158 HD
ENDBRANCH  51  55
ENDBRANCH  39  43
ENDBRANCH  31  34
ENDBRANCH   1  31
TORSDOF 9
ENDMDL
MODEL 5
REMARK VINA RESULT:      -9.9      1.367      2.735
REMARK SMILES CC(C)c1cc(N)c2ccc(CCc3cncc(-n4ccc5c(N)ncnc54)c3)cc2n1
REMARK SMILES IDX 12 1 11 4 4 5 5 6 32 7 6 8 31 10 8 11 30 12 9 13 10 15 2 18
REMARK SMILES IDX 1 20 3 24 7 28 13 31 14 34 15 35 29 36 16 37 18 39 17 41
REMARK SMILES IDX 19 43 20 44 28 45 21 46 22 48 27 49 23 51 26 52 25 53 24 55
REMARK H PARENT 12 2 12 3 5 9 30 14 9 16 10 17 2 19 1 21 1 22 1 23 3 25 3 26
REMARK H PARENT 3 27 7 29 7 30 13 32 13 33 15 38 29 40 17 42 20 47 21 50 26 54
REMARK H PARENT 24 56 24 57
REMARK Flexibility Score: inf
ROOT
ATOM      1  C   UNL     1     -46.460  34.848  26.399  1.00  0.00    -0.024 C 
ATOM      2  H   UNL     1     -45.604  35.091  25.757  1.00  0.00     0.032 H 
ATOM      3  H   UNL     1     -47.126  35.719  26.353  1.00  0.00     0.032 H 
ENDROOT
BRANCH   1   4
ATOM      4  C   UNL     1     -47.200  33.657  25.835  1.00  0.00    -0.045 A 
ATOM      5  C   UNL     1     -47.012  29.562  23.408  1.00  0.00     0.046 A 
ATOM      6  C   UNL     1     -48.388  29.385  23.455  1.00  0.00    -0.017 A 
ATOM      7  N   UNL     1     -46.408  30.648  23.939  1.00  0.00    -0.252 NA
ATOM      8  C   UNL     1     -49.188  30.371  24.034  1.00  0.00     0.043 A 
ATOM      9  H   UNL     1     -48.837  28.489  23.038  1.00  0.00     0.066 H 
ATOM     10  C   UNL     1     -47.159  31.564  24.570  1.00  0.00     0.073 A 
ATOM     11  C   UNL     1     -48.563  31.472  24.668  1.00  0.00     0.023 A 
ATOM     12  C   UNL     1     -46.510  32.647  25.150  1.00  0.00    -0.032 A 
ATOM     13  C   UNL     1     -49.257  32.478  25.381  1.00  0.00    -0.050 A 
ATOM     14  H   UNL     1     -45.426  32.701  25.057  1.00  0.00     0.065 H 
ATOM     15  C   UNL     1     -48.585  33.557  25.954  1.00  0.00    -0.058 A 
ATOM     16  H   UNL     1     -50.336  32.429  25.501  1.00  0.00     0.063 H 
ATOM     17  H   UNL     1     -49.153  34.322  26.479  1.00  0.00     0.063 H 
BRANCH   5  18
ATOM     18  C   UNL     1     -46.128  28.518  22.755  1.00  0.00    -0.004 C 
ATOM     19  H   UNL     1     -46.637  28.119  21.868  1.00  0.00     0.036 H 
BRANCH  18  20
ATOM     20  C   UNL     1     -45.875  27.349  23.708  1.00  0.00    -0.057 C 
ATOM     21  H   UNL     1     -46.656  26.584  23.630  1.00  0.00     0.024 H 
ATOM     22  H   UNL     1     -45.848  27.696  24.747  1.00  0.00     0.024 H 
ATOM     23  H   UNL     1     -44.915  26.867  23.490  1.00  0.00     0.024 H 
ENDBRANCH  18  20
BRANCH  18  24
ATOM     24  C   UNL     1     -44.808  29.137  22.291  1.00  0.00    -0.057 C 
ATOM     25  H   UNL     1     -44.704  30.157  22.676  1.00  0.00     0.024 H 
ATOM     26  H   UNL     1     -43.954  28.552  22.651  1.00  0.00     0.024 H 
ATOM     27  H   UNL     1     -44.742  29.183  21.198  1.00  0.00     0.024 H 
ENDBRANCH  18  24
ENDBRANCH   5  18
BRANCH   8  28
ATOM     28  N   UNL     1     -50.573  30.125  24.143  1.00  0.00    -0.398 N 
ATOM     29  H   UNL     1     -51.142  30.702  23.530  1.00  0.00     0.156 HD
ATOM     30  H   UNL     1     -50.919  30.144  25.096  1.00  0.00     0.156 HD
ENDBRANCH   8  28
ENDBRANCH   1   4
BRANCH   1  31
ATOM     31  C   UNL     1     -45.992  34.648  27.848  1.00  0.00    -0.022 C 
ATOM     32  H   UNL     1     -45.055  34.078  27.877  1.00  0.00     0.032 H 
ATOM     33  H   UNL     1     -46.730  34.031  28.378  1.00  0.00     0.032 H 
BRANCH  31  34
ATOM     34  C   UNL     1     -45.814  35.943  28.599  1.00  0.00    -0.027 A 
ATOM     35  C   UNL     1     -46.191  36.062  29.930  1.00  0.00     0.030 A 
ATOM     36  C   UNL     1     -45.305  37.085  27.964  1.00  0.00    -0.032 A 
ATOM     37  N   UNL     1     -46.088  37.204  30.636  1.00  0.00    -0.262 NA
ATOM     38  H   UNL     1     -46.601  35.221  30.481  1.00  0.00     0.084 H 
ATOM     39  C   UNL     1     -45.193  38.296  28.659  1.00  0.00     0.066 A 
ATOM     40  H   UNL     1     -45.007  36.990  26.925  1.00  0.00     0.065 H 
ATOM     41  C   UNL     1     -45.592  38.293  29.990  1.00  0.00     0.051 A 
ATOM     42  H   UNL     1     -45.562  39.170  30.625  1.00  0.00     0.086 H 
BRANCH  39  43
ATOM     43  N   UNL     1     -44.707  39.477  28.010  1.00  0.00    -0.300 N 
ATOM     44  C   UNL     1     -45.191  39.985  26.810  1.00  0.00     0.012 A 
ATOM     45  C   UNL     1     -43.692  40.338  28.437  1.00  0.00     0.150 A 
ATOM     46  C   UNL     1     -44.500  41.127  26.479  1.00  0.00    -0.031 A 
ATOM     47  H   UNL     1     -46.001  39.510  26.275  1.00  0.00     0.082 H 
ATOM     48  C   UNL     1     -43.552  41.360  27.502  1.00  0.00     0.061 A 
ATOM     49  N   UNL     1     -42.943  40.215  29.552  1.00  0.00    -0.218 NA
ATOM     50  H   UNL     1     -44.661  41.726  25.592  1.00  0.00     0.065 H 
ATOM     51  C   UNL     1     -42.570  42.331  27.749  1.00  0.00     0.136 A 
ATOM     52  C   UNL     1     -42.037  41.195  29.680  1.00  0.00     0.120 A 
ATOM     53  N   UNL     1     -41.819  42.235  28.858  1.00  0.00    -0.219 NA
ATOM     54  H   UNL     1     -41.400  41.144  30.559  1.00  0.00     0.106 H 
BRANCH  51  55
ATOM     55  N   UNL     1     -42.331  43.412  26.913  1.00  0.00    -0.383 N 
ATOM     56  H   UNL     1     -42.731  44.288  27.218  1.00  0.00     0.158 HD
ATOM     57  H   UNL     1     -41.359  43.433  26.626  1.00  0.00     0.158 HD
ENDBRANCH  51  55
ENDBRANCH  39  43
ENDBRANCH  31  34
ENDBRANCH   1  31
TORSDOF 9
ENDMDL
MODEL 6
REMARK VINA RESULT:      -9.8      1.340      2.136
REMARK SMILES CC(C)c1cc(N)c2ccc(CCc3cncc(-n4ccc5c(N)ncnc54)c3)cc2n1
REMARK SMILES IDX 12 1 11 4 4 5 5 6 32 7 6 8 31 10 8 11 30 12 9 13 10 15 2 18
REMARK SMILES IDX 1 20 3 24 7 28 13 31 14 34 15 35 29 36 16 37 18 39 17 41
REMARK SMILES IDX 19 43 20 44 28 45 21 46 22 48 27 49 23 51 26 52 25 53 24 55
REMARK H PARENT 12 2 12 3 5 9 30 14 9 16 10 17 2 19 1 21 1 22 1 23 3 25 3 26
REMARK H PARENT 3 27 7 29 7 30 13 32 13 33 15 38 29 40 17 42 20 47 21 50 26 54
REMARK H PARENT 24 56 24 57
REMARK Flexibility Score: inf
ROOT
ATOM      1  C   UNL     1     -48.278  35.451  27.146  1.00  0.00    -0.024 C 
ATOM      2  H   UNL     1     -48.998  36.089  26.616  1.00  0.00     0.032 H 
ATOM      3  H   UNL     1     -48.821  35.036  28.005  1.00  0.00     0.032 H 
ENDROOT
BRANCH   1   4
ATOM      4  C   UNL     1     -47.855  34.307  26.256  1.00  0.00    -0.045 A 
ATOM      5  C   UNL     1     -48.838  30.004  24.462  1.00  0.00     0.046 A 
ATOM      6  C   UNL     1     -47.624  29.924  23.791  1.00  0.00    -0.017 A 
ATOM      7  N   UNL     1     -49.161  31.061  25.240  1.00  0.00    -0.252 NA
ATOM      8  C   UNL     1     -46.686  30.946  23.946  1.00  0.00     0.043 A 
ATOM      9  H   UNL     1     -47.407  29.072  23.158  1.00  0.00     0.066 H 
ATOM     10  C   UNL     1     -48.301  32.087  25.332  1.00  0.00     0.073 A 
ATOM     11  C   UNL     1     -47.045  32.097  24.689  1.00  0.00     0.023 A 
ATOM     12  C   UNL     1     -48.677  33.183  26.098  1.00  0.00    -0.032 A 
ATOM     13  C   UNL     1     -46.226  33.241  24.827  1.00  0.00    -0.050 A 
ATOM     14  H   UNL     1     -49.648  33.151  26.590  1.00  0.00     0.065 H 
ATOM     15  C   UNL     1     -46.624  34.330  25.603  1.00  0.00    -0.058 A 
ATOM     16  H   UNL     1     -45.263  33.299  24.327  1.00  0.00     0.063 H 
ATOM     17  H   UNL     1     -45.959  35.186  25.702  1.00  0.00     0.063 H 
BRANCH   5  18
ATOM     18  C   UNL     1     -49.857  28.890  24.333  1.00  0.00    -0.004 C 
ATOM     19  H   UNL     1     -50.141  28.543  25.336  1.00  0.00     0.036 H 
BRANCH  18  20
ATOM     20  C   UNL     1     -49.265  27.698  23.581  1.00  0.00    -0.057 C 
ATOM     21  H   UNL     1     -48.576  27.122  24.210  1.00  0.00     0.024 H 
ATOM     22  H   UNL     1     -48.711  28.034  22.698  1.00  0.00     0.024 H 
ATOM     23  H   UNL     1     -50.055  27.017  23.244  1.00  0.00     0.024 H 
ENDBRANCH  18  20
BRANCH  18  24
ATOM     24  C   UNL     1     -51.126  29.393  23.642  1.00  0.00    -0.057 C 
ATOM     25  H   UNL     1     -51.372  28.763  22.781  1.00  0.00     0.024 H 
ATOM     26  H   UNL     1     -51.980  29.372  24.329  1.00  0.00     0.024 H 
ATOM     27  H   UNL     1     -51.013  30.422  23.283  1.00  0.00     0.024 H 
ENDBRANCH  18  24
ENDBRANCH   5  18
BRANCH   8  28
ATOM     28  N   UNL     1     -45.499  30.879  23.187  1.00  0.00    -0.398 N 
ATOM     29  H   UNL     1     -44.856  31.646  23.361  1.00  0.00     0.156 HD
ATOM     30  H   UNL     1     -45.654  30.744  22.193  1.00  0.00     0.156 HD
ENDBRANCH   8  28
ENDBRANCH   1   4
BRANCH   1  31
ATOM     31  C   UNL     1     -47.103  36.298  27.656  1.00  0.00    -0.022 C 
ATOM     32  H   UNL     1     -46.201  36.108  27.059  1.00  0.00     0.032 H 
ATOM     33  H   UNL     1     -46.853  35.981  28.677  1.00  0.00     0.032 H 
BRANCH  31  34
ATOM     34  C   UNL     1     -47.394  37.777  27.666  1.00  0.00    -0.027 A 
ATOM     35  C   UNL     1     -48.631  38.265  28.063  1.00  0.00     0.030 A 
ATOM     36  C   UNL     1     -46.439  38.706  27.230  1.00  0.00    -0.032 A 
ATOM     37  N   UNL     1     -48.956  39.573  28.055  1.00  0.00    -0.262 NA
ATOM     38  H   UNL     1     -49.420  37.602  28.404  1.00  0.00     0.084 H 
ATOM     39  C   UNL     1     -46.740  40.074  27.194  1.00  0.00     0.066 A 
ATOM     40  H   UNL     1     -45.471  38.324  26.924  1.00  0.00     0.065 H 
ATOM     41  C   UNL     1     -48.008  40.447  27.625  1.00  0.00     0.051 A 
ATOM     42  H   UNL     1     -48.359  41.471  27.634  1.00  0.00     0.086 H 
BRANCH  39  43
ATOM     43  N   UNL     1     -45.785  41.028  26.717  1.00  0.00    -0.300 N 
ATOM     44  C   UNL     1     -46.002  41.923  25.676  1.00  0.00     0.012 A 
ATOM     45  C   UNL     1     -44.488  41.258  27.187  1.00  0.00     0.150 A 
ATOM     46  C   UNL     1     -44.878  42.691  25.483  1.00  0.00    -0.031 A 
ATOM     47  H   UNL     1     -46.944  41.966  25.148  1.00  0.00     0.082 H 
ATOM     48  C   UNL     1     -43.916  42.280  26.435  1.00  0.00     0.061 A 
ATOM     49  N   UNL     1     -43.862  40.602  28.185  1.00  0.00    -0.218 NA
ATOM     50  H   UNL     1     -44.763  43.463  24.734  1.00  0.00     0.065 H 
ATOM     51  C   UNL     1     -42.602  42.655  26.751  1.00  0.00     0.136 A 
ATOM     52  C   UNL     1     -42.613  41.041  28.393  1.00  0.00     0.120 A 
ATOM     53  N   UNL     1     -41.962  42.023  27.748  1.00  0.00    -0.219 NA
ATOM     54  H   UNL     1     -42.058  40.545  29.184  1.00  0.00     0.106 H 
BRANCH  51  55
ATOM     55  N   UNL     1     -41.913  43.666  26.096  1.00  0.00    -0.383 N 
ATOM     56  H   UNL     1     -42.447  44.505  25.918  1.00  0.00     0.158 HD
ATOM     57  H   UNL     1     -40.994  43.793  26.502  1.00  0.00     0.158 HD
ENDBRANCH  51  55
ENDBRANCH  39  43
ENDBRANCH  31  34
ENDBRANCH   1  31
TORSDOF 9
ENDMDL
MODEL 7
REMARK VINA RESULT:      -9.7      1.183      2.244
REMARK SMILES CC(C)c1cc(N)c2ccc(CCc3cncc(-n4ccc5c(N)ncnc54)c3)cc2n1
REMARK SMILES IDX 12 1 11 4 4 5 5 6 32 7 6 8 31 10 8 11 30 12 9 13 10 15 2 18
REMARK SMILES IDX 1 20 3 24 7 28 13 31 14 34 15 35 29 36 16 37 18 39 17 41
REMARK SMILES IDX 19 43 20 44 28 45 21 46 22 48 27 49 23 51 26 52 25 53 24 55
REMARK H PARENT 12 2 12 3 5 9 30 14 9 16 10 17 2 19 1 21 1 22 1 23 3 25 3 26
REMARK H PARENT 3 27 7 29 7 30 13 32 13 33 15 38 29 40 17 42 20 47 21 50 26 54
REMARK H PARENT 24 56 24 57
REMARK Flexibility Score: inf
ROOT
ATOM      1  C   UNL     1     -46.647  35.912  26.317  1.00  0.00    -0.024 C 
ATOM      2  H   UNL     1     -45.557  36.026  26.375  1.00  0.00     0.032 H 
ATOM      3  H   UNL     1     -46.966  36.516  25.458  1.00  0.00     0.032 H 
ENDROOT
BRANCH   1   4
ATOM      4  C   UNL     1     -46.995  34.469  26.035  1.00  0.00    -0.045 A 
ATOM      5  C   UNL     1     -46.647  30.724  23.110  1.00  0.00     0.046 A 
ATOM      6  C   UNL     1     -47.474  29.936  23.900  1.00  0.00    -0.017 A 
ATOM      7  N   UNL     1     -46.367  32.009  23.421  1.00  0.00    -0.252 NA
ATOM      8  C   UNL     1     -48.070  30.489  25.034  1.00  0.00     0.043 A 
ATOM      9  H   UNL     1     -47.660  28.901  23.632  1.00  0.00     0.066 H 
ATOM     10  C   UNL     1     -46.869  32.528  24.552  1.00  0.00     0.073 A 
ATOM     11  C   UNL     1     -47.719  31.807  25.417  1.00  0.00     0.023 A 
ATOM     12  C   UNL     1     -46.528  33.835  24.875  1.00  0.00    -0.032 A 
ATOM     13  C   UNL     1     -48.171  32.437  26.600  1.00  0.00    -0.050 A 
ATOM     14  H   UNL     1     -45.875  34.375  24.190  1.00  0.00     0.065 H 
ATOM     15  C   UNL     1     -47.816  33.752  26.903  1.00  0.00    -0.058 A 
ATOM     16  H   UNL     1     -48.806  31.907  27.305  1.00  0.00     0.063 H 
ATOM     17  H   UNL     1     -48.198  34.211  27.813  1.00  0.00     0.063 H 
BRANCH   5  18
ATOM     18  C   UNL     1     -46.015  30.152  21.857  1.00  0.00    -0.004 C 
ATOM     19  H   UNL     1     -46.732  29.483  21.365  1.00  0.00     0.036 H 
BRANCH  18  20
ATOM     20  C   UNL     1     -44.775  29.328  22.203  1.00  0.00    -0.057 C 
ATOM     21  H   UNL     1     -44.607  28.522  21.480  1.00  0.00     0.024 H 
ATOM     22  H   UNL     1     -44.876  28.874  23.194  1.00  0.00     0.024 H 
ATOM     23  H   UNL     1     -43.877  29.957  22.212  1.00  0.00     0.024 H 
ENDBRANCH  18  20
BRANCH  18  24
ATOM     24  C   UNL     1     -45.669  31.266  20.866  1.00  0.00    -0.057 C 
ATOM     25  H   UNL     1     -44.583  31.370  20.766  1.00  0.00     0.024 H 
ATOM     26  H   UNL     1     -46.079  31.049  19.874  1.00  0.00     0.024 H 
ATOM     27  H   UNL     1     -46.069  32.235  21.187  1.00  0.00     0.024 H 
ENDBRANCH  18  24
ENDBRANCH   5  18
BRANCH   8  28
ATOM     28  N   UNL     1     -48.837  29.642  25.862  1.00  0.00    -0.398 N 
ATOM     29  H   UNL     1     -48.912  29.965  26.822  1.00  0.00     0.156 HD
ATOM     30  H   UNL     1     -48.561  28.667  25.819  1.00  0.00     0.156 HD
ENDBRANCH   8  28
ENDBRANCH   1   4
BRANCH   1  31
ATOM     31  C   UNL     1     -47.302  36.462  27.591  1.00  0.00    -0.022 C 
ATOM     32  H   UNL     1     -47.847  35.670  28.120  1.00  0.00     0.032 H 
ATOM     33  H   UNL     1     -48.061  37.204  27.309  1.00  0.00     0.032 H 
BRANCH  31  34
ATOM     34  C   UNL     1     -46.321  37.109  28.534  1.00  0.00    -0.027 A 
ATOM     35  C   UNL     1     -46.207  36.695  29.853  1.00  0.00     0.030 A 
ATOM     36  C   UNL     1     -45.520  38.184  28.120  1.00  0.00    -0.032 A 
ATOM     37  N   UNL     1     -45.373  37.263  30.746  1.00  0.00    -0.262 NA
ATOM     38  H   UNL     1     -46.802  35.875  30.244  1.00  0.00     0.084 H 
ATOM     39  C   UNL     1     -44.649  38.812  29.020  1.00  0.00     0.066 A 
ATOM     40  H   UNL     1     -45.607  38.505  27.087  1.00  0.00     0.065 H 
ATOM     41  C   UNL     1     -44.613  38.304  30.313  1.00  0.00     0.051 A 
ATOM     42  H   UNL     1     -43.988  38.712  31.098  1.00  0.00     0.086 H 
BRANCH  39  43
ATOM     43  N   UNL     1     -43.854  39.933  28.618  1.00  0.00    -0.300 N 
ATOM     44  C   UNL     1     -42.795  40.463  29.346  1.00  0.00     0.012 A 
ATOM     45  C   UNL     1     -43.966  40.694  27.450  1.00  0.00     0.150 A 
ATOM     46  C   UNL     1     -42.256  41.532  28.668  1.00  0.00    -0.031 A 
ATOM     47  H   UNL     1     -42.485  40.040  30.291  1.00  0.00     0.082 H 
ATOM     48  C   UNL     1     -42.987  41.684  27.467  1.00  0.00     0.061 A 
ATOM     49  N   UNL     1     -44.871  40.532  26.463  1.00  0.00    -0.218 NA
ATOM     50  H   UNL     1     -41.425  42.137  29.006  1.00  0.00     0.065 H 
ATOM     51  C   UNL     1     -42.939  42.562  26.375  1.00  0.00     0.136 A 
ATOM     52  C   UNL     1     -44.732  41.430  25.478  1.00  0.00     0.120 A 
ATOM     53  N   UNL     1     -43.824  42.414  25.376  1.00  0.00    -0.219 NA
ATOM     54  H   UNL     1     -45.439  41.351  24.657  1.00  0.00     0.106 H 
BRANCH  51  55
ATOM     55  N   UNL     1     -42.008  43.584  26.252  1.00  0.00    -0.383 N 
ATOM     56  H   UNL     1     -41.424  43.733  27.062  1.00  0.00     0.158 HD
ATOM     57  H   UNL     1     -41.537  43.532  25.356  1.00  0.00     0.158 HD
ENDBRANCH  51  55
ENDBRANCH  39  43
ENDBRANCH  31  34
ENDBRANCH   1  31
TORSDOF 9
ENDMDL
