MODEL 1
REMARK VINA RESULT:     -10.7      0.000      0.000
REMARK SMILES CC1(C)CN(Cc2cc3ccc(CNC(=O)c4cc(=O)n5ccccc5n4)cc3[nH]2)C1
REMARK SMILES IDX 7 1 8 2 9 3 10 4 11 5 12 6 28 7 29 8 30 9 6 15 5 18 2 19
REMARK SMILES IDX 4 20 31 21 1 26 3 30 13 34 14 37 15 38 16 40 17 41 18 42
REMARK SMILES IDX 27 43 19 44 26 46 20 47 21 48 25 49 22 50 24 51 23 53
REMARK H PARENT 8 10 10 11 11 12 28 13 30 14 6 16 6 17 4 22 4 23 31 24 31 25
REMARK H PARENT 1 27 1 28 1 29 3 31 3 32 3 33 13 35 13 36 14 39 18 45 25 52
REMARK H PARENT 22 54 24 55 23 56
REMARK Flexibility Score: inf
ROOT
ATOM      1  C   UNL     1     -48.216  30.926  24.553  1.00  0.00     0.030 A 
ATOM      2  C   UNL     1     -47.038  31.632  24.401  1.00  0.00    -0.032 A 
ATOM      3  C   UNL     1     -47.153  32.847  25.129  1.00  0.00    -0.000 A 
ATOM      4  C   UNL     1     -46.300  33.944  25.341  1.00  0.00    -0.052 A 
ATOM      5  C   UNL     1     -46.740  35.013  26.133  1.00  0.00    -0.057 A 
ATOM      6  C   UNL     1     -48.012  35.001  26.722  1.00  0.00    -0.027 A 
ATOM      7  C   UNL     1     -48.875  33.914  26.507  1.00  0.00    -0.033 A 
ATOM      8  C   UNL     1     -48.417  32.855  25.713  1.00  0.00     0.046 A 
ATOM      9  N   UNL     1     -49.041  31.685  25.346  1.00  0.00    -0.357 N 
ATOM     10  H   UNL     1     -46.185  31.305  23.820  1.00  0.00     0.065 H 
ATOM     11  H   UNL     1     -45.311  33.967  24.893  1.00  0.00     0.063 H 
ATOM     12  H   UNL     1     -46.075  35.862  26.284  1.00  0.00     0.063 H 
ATOM     13  H   UNL     1     -49.871  33.899  26.941  1.00  0.00     0.065 H 
ATOM     14  H   UNL     1     -49.979  31.431  25.622  1.00  0.00     0.166 HD
ENDROOT
BRANCH   1  15
ATOM     15  C   UNL     1     -48.632  29.596  24.016  1.00  0.00     0.039 C 
ATOM     16  H   UNL     1     -49.714  29.492  24.170  1.00  0.00     0.050 H 
ATOM     17  H   UNL     1     -48.470  29.555  22.930  1.00  0.00     0.050 H 
BRANCH  15  18
ATOM     18  N   UNL     1     -47.948  28.518  24.730  1.00  0.00    -0.296 NA
ATOM     19  C   UNL     1     -48.445  26.637  25.560  1.00  0.00    -0.010 C 
ATOM     20  C   UNL     1     -48.715  28.122  25.934  1.00  0.00     0.005 C 
ATOM     21  C   UNL     1     -48.227  27.193  24.126  1.00  0.00     0.005 C 
ATOM     22  H   UNL     1     -49.778  28.401  25.932  1.00  0.00     0.044 H 
ATOM     23  H   UNL     1     -48.278  28.460  26.879  1.00  0.00     0.044 H 
ATOM     24  H   UNL     1     -49.116  27.140  23.484  1.00  0.00     0.044 H 
ATOM     25  H   UNL     1     -47.384  26.764  23.574  1.00  0.00     0.044 H 
BRANCH  19  26
ATOM     26  C   UNL     1     -47.195  26.035  26.206  1.00  0.00    -0.057 C 
ATOM     27  H   UNL     1     -46.774  25.246  25.575  1.00  0.00     0.024 H 
ATOM     28  H   UNL     1     -47.435  25.598  27.182  1.00  0.00     0.024 H 
ATOM     29  H   UNL     1     -46.413  26.786  26.364  1.00  0.00     0.024 H 
ENDBRANCH  19  26
BRANCH  19  30
ATOM     30  C   UNL     1     -49.650  25.717  25.707  1.00  0.00    -0.057 C 
ATOM     31  H   UNL     1     -49.338  24.707  25.995  1.00  0.00     0.024 H 
ATOM     32  H   UNL     1     -50.205  25.645  24.765  1.00  0.00     0.024 H 
ATOM     33  H   UNL     1     -50.345  26.080  26.473  1.00  0.00     0.024 H 
ENDBRANCH  19  30
ENDBRANCH  15  18
ENDBRANCH   1  15
BRANCH   6  34
ATOM     34  C   UNL     1     -48.479  36.177  27.540  1.00  0.00     0.043 C 
ATOM     35  H   UNL     1     -49.425  36.570  27.151  1.00  0.00     0.054 H 
ATOM     36  H   UNL     1     -48.663  35.882  28.580  1.00  0.00     0.054 H 
BRANCH  34  37
ATOM     37  N   UNL     1     -47.492  37.225  27.536  1.00  0.00    -0.347 N 
ATOM     38  C   UNL     1     -46.656  37.442  28.601  1.00  0.00     0.270 C 
ATOM     39  H   UNL     1     -47.288  37.728  26.677  1.00  0.00     0.164 HD
ATOM     40  O   UNL     1     -46.726  36.840  29.665  1.00  0.00    -0.268 OA
BRANCH  38  41
ATOM     41  C   UNL     1     -45.624  38.506  28.313  1.00  0.00     0.136 A 
ATOM     42  C   UNL     1     -45.737  39.143  27.145  1.00  0.00     0.035 A 
ATOM     43  N   UNL     1     -44.648  38.752  29.251  1.00  0.00    -0.225 NA
ATOM     44  C   UNL     1     -44.753  40.186  26.825  1.00  0.00     0.258 A 
ATOM     45  H   UNL     1     -46.510  38.941  26.415  1.00  0.00     0.071 H 
ATOM     46  C   UNL     1     -43.781  39.674  28.963  1.00  0.00     0.140 A 
ATOM     47  O   UNL     1     -44.848  40.777  25.751  1.00  0.00    -0.269 OA
ATOM     48  N   UNL     1     -43.781  40.414  27.786  1.00  0.00    -0.268 N 
ATOM     49  C   UNL     1     -42.705  39.974  29.951  1.00  0.00    -0.019 A 
ATOM     50  C   UNL     1     -42.814  41.388  27.554  1.00  0.00     0.014 A 
ATOM     51  C   UNL     1     -41.797  40.921  29.683  1.00  0.00    -0.057 A 
ATOM     52  H   UNL     1     -42.697  39.403  30.871  1.00  0.00     0.066 H 
ATOM     53  C   UNL     1     -41.851  41.653  28.446  1.00  0.00    -0.045 A 
ATOM     54  H   UNL     1     -42.874  41.928  26.613  1.00  0.00     0.082 H 
ATOM     55  H   UNL     1     -41.006  41.153  30.389  1.00  0.00     0.062 H 
ATOM     56  H   UNL     1     -41.102  42.414  28.254  1.00  0.00     0.064 H 
ENDBRANCH  38  41
ENDBRANCH  34  37
ENDBRANCH   6  34
TORSDOF 7
ENDMDL
MODEL 2
REMARK VINA RESULT:     -10.1      2.307      3.854
REMARK SMILES CC1(C)CN(Cc2cc3ccc(CNC(=O)c4cc(=O)n5ccccc5n4)cc3[nH]2)C1
REMARK SMILES IDX 7 1 8 2 9 3 10 4 11 5 12 6 28 7 29 8 30 9 6 15 5 18 2 19
REMARK SMILES IDX 4 20 31 21 1 26 3 30 13 34 14 37 15 38 16 40 17 41 18 42
REMARK SMILES IDX 27 43 19 44 26 46 20 47 21 48 25 49 22 50 24 51 23 53
REMARK H PARENT 8 10 10 11 11 12 28 13 30 14 6 16 6 17 4 22 4 23 31 24 31 25
REMARK H PARENT 1 27 1 28 1 29 3 31 3 32 3 33 13 35 13 36 14 39 18 45 25 52
REMARK H PARENT 22 54 24 55 23 56
REMARK Flexibility Score: inf
ROOT
ATOM      1  C   UNL     1     -46.743  32.859  25.286  1.00  0.00     0.030 A 
ATOM      2  C   UNL     1     -47.929  33.482  25.624  1.00  0.00    -0.032 A 
ATOM      3  C   UNL     1     -47.633  34.533  26.534  1.00  0.00    -0.000 A 
ATOM      4  C   UNL     1     -48.411  35.490  27.210  1.00  0.00    -0.052 A 
ATOM      5  C   UNL     1     -47.784  36.407  28.063  1.00  0.00    -0.057 A 
ATOM      6  C   UNL     1     -46.395  36.391  28.247  1.00  0.00    -0.027 A 
ATOM      7  C   UNL     1     -45.610  35.433  27.584  1.00  0.00    -0.033 A 
ATOM      8  C   UNL     1     -46.256  34.525  26.735  1.00  0.00     0.046 A 
ATOM      9  N   UNL     1     -45.741  33.501  25.973  1.00  0.00    -0.357 N 
ATOM     10  H   UNL     1     -48.908  33.203  25.256  1.00  0.00     0.065 H 
ATOM     11  H   UNL     1     -49.489  35.516  27.077  1.00  0.00     0.063 H 
ATOM     12  H   UNL     1     -48.397  37.138  28.588  1.00  0.00     0.063 H 
ATOM     13  H   UNL     1     -44.534  35.395  27.730  1.00  0.00     0.065 H 
ATOM     14  H   UNL     1     -44.762  33.258  25.935  1.00  0.00     0.166 HD
ENDROOT
BRANCH   1  15
ATOM     15  C   UNL     1     -46.471  31.711  24.371  1.00  0.00     0.039 C 
ATOM     16  H   UNL     1     -45.464  31.844  23.952  1.00  0.00     0.050 H 
ATOM     17  H   UNL     1     -46.447  30.769  24.936  1.00  0.00     0.050 H 
BRANCH  15  18
ATOM     18  N   UNL     1     -47.439  31.689  23.275  1.00  0.00    -0.296 NA
ATOM     19  C   UNL     1     -48.510  30.238  22.170  1.00  0.00    -0.010 C 
ATOM     20  C   UNL     1     -47.031  30.712  22.239  1.00  0.00     0.005 C 
ATOM     21  C   UNL     1     -48.615  30.845  23.597  1.00  0.00     0.005 C 
ATOM     22  H   UNL     1     -46.324  29.939  22.569  1.00  0.00     0.044 H 
ATOM     23  H   UNL     1     -46.635  31.165  21.324  1.00  0.00     0.044 H 
ATOM     24  H   UNL     1     -48.472  30.117  24.406  1.00  0.00     0.044 H 
ATOM     25  H   UNL     1     -49.531  31.408  23.806  1.00  0.00     0.044 H 
BRANCH  19  26
ATOM     26  C   UNL     1     -49.359  30.947  21.113  1.00  0.00    -0.057 C 
ATOM     27  H   UNL     1     -49.690  30.242  20.343  1.00  0.00     0.024 H 
ATOM     28  H   UNL     1     -48.783  31.740  20.622  1.00  0.00     0.024 H 
ATOM     29  H   UNL     1     -50.253  31.408  21.546  1.00  0.00     0.024 H 
ENDBRANCH  19  26
BRANCH  19  30
ATOM     30  C   UNL     1     -48.689  28.726  22.110  1.00  0.00    -0.057 C 
ATOM     31  H   UNL     1     -49.750  28.459  22.063  1.00  0.00     0.024 H 
ATOM     32  H   UNL     1     -48.257  28.246  22.994  1.00  0.00     0.024 H 
ATOM     33  H   UNL     1     -48.199  28.297  21.229  1.00  0.00     0.024 H 
ENDBRANCH  19  30
ENDBRANCH  15  18
ENDBRANCH   1  15
BRANCH   6  34
ATOM     34  C   UNL     1     -45.744  37.363  29.197  1.00  0.00     0.043 C 
ATOM     35  H   UNL     1     -46.495  37.848  29.832  1.00  0.00     0.054 H 
ATOM     36  H   UNL     1     -45.048  36.847  29.869  1.00  0.00     0.054 H 
BRANCH  34  37
ATOM     37  N   UNL     1     -45.013  38.369  28.474  1.00  0.00    -0.347 N 
ATOM     38  C   UNL     1     -45.585  39.558  28.100  1.00  0.00     0.270 C 
ATOM     39  H   UNL     1     -44.007  38.285  28.362  1.00  0.00     0.164 HD
ATOM     40  O   UNL     1     -46.767  39.835  28.263  1.00  0.00    -0.268 OA
BRANCH  38  41
ATOM     41  C   UNL     1     -44.589  40.503  27.472  1.00  0.00     0.136 A 
ATOM     42  C   UNL     1     -43.454  40.704  28.145  1.00  0.00     0.035 A 
ATOM     43  N   UNL     1     -44.901  41.088  26.266  1.00  0.00    -0.225 NA
ATOM     44  C   UNL     1     -42.456  41.616  27.569  1.00  0.00     0.258 A 
ATOM     45  H   UNL     1     -43.219  40.237  29.093  1.00  0.00     0.071 H 
ATOM     46  C   UNL     1     -44.016  41.892  25.761  1.00  0.00     0.140 A 
ATOM     47  O   UNL     1     -41.409  41.809  28.183  1.00  0.00    -0.269 OA
ATOM     48  N   UNL     1     -42.795  42.192  26.354  1.00  0.00    -0.268 N 
ATOM     49  C   UNL     1     -44.313  42.549  24.456  1.00  0.00    -0.019 A 
ATOM     50  C   UNL     1     -41.900  43.067  25.746  1.00  0.00     0.014 A 
ATOM     51  C   UNL     1     -43.420  43.383  23.910  1.00  0.00    -0.057 A 
ATOM     52  H   UNL     1     -45.261  42.322  23.986  1.00  0.00     0.066 H 
ATOM     53  C   UNL     1     -42.173  43.652  24.574  1.00  0.00    -0.045 A 
ATOM     54  H   UNL     1     -40.964  43.255  26.267  1.00  0.00     0.082 H 
ATOM     55  H   UNL     1     -43.617  43.871  22.960  1.00  0.00     0.062 H 
ATOM     56  H   UNL     1     -41.467  44.333  24.108  1.00  0.00     0.064 H 
ENDBRANCH  38  41
ENDBRANCH  34  37
ENDBRANCH   6  34
TORSDOF 7
ENDMDL
MODEL 3
REMARK VINA RESULT:      -9.8      1.543      2.455
REMARK SMILES CC1(C)CN(Cc2cc3ccc(CNC(=O)c4cc(=O)n5ccccc5n4)cc3[nH]2)C1
REMARK SMILES IDX 7 1 8 2 9 3 10 4 11 5 12 6 28 7 29 8 30 9 6 15 5 18 2 19
REMARK SMILES IDX 4 20 31 21 1 26 3 30 13 34 14 37 15 38 16 40 17 41 18 42
REMARK SMILES IDX 27 43 19 44 26 46 20 47 21 48 25 49 22 50 24 51 23 53
REMARK H PARENT 8 10 10 11 11 12 28 13 30 14 6 16 6 17 4 22 4 23 31 24 31 25
REMARK H PARENT 1 27 1 28 1 29 3 31 3 32 3 33 13 35 13 36 14 39 18 45 25 52
REMARK H PARENT 22 54 24 55 23 56
REMARK Flexibility Score: inf
ROOT
ATOM      1  C   UNL     1     -48.088  30.997  24.477  1.00  0.00     0.030 A 
ATOM      2  C   UNL     1     -46.901  31.701  24.404  1.00  0.00    -0.032 A 
ATOM      3  C   UNL     1     -47.047  32.895  25.160  1.00  0.00    -0.000 A 
ATOM      4  C   UNL     1     -46.201  33.982  25.446  1.00  0.00    -0.052 A 
ATOM      5  C   UNL     1     -46.675  35.029  26.246  1.00  0.00    -0.057 A 
ATOM      6  C   UNL     1     -47.974  35.008  26.771  1.00  0.00    -0.027 A 
ATOM      7  C   UNL     1     -48.831  33.932  26.482  1.00  0.00    -0.033 A 
ATOM      8  C   UNL     1     -48.338  32.894  25.681  1.00  0.00     0.046 A 
ATOM      9  N   UNL     1     -48.948  31.738  25.251  1.00  0.00    -0.357 N 
ATOM     10  H   UNL     1     -46.022  31.387  23.856  1.00  0.00     0.065 H 
ATOM     11  H   UNL     1     -45.191  34.012  25.048  1.00  0.00     0.063 H 
ATOM     12  H   UNL     1     -46.015  35.870  26.454  1.00  0.00     0.063 H 
ATOM     13  H   UNL     1     -49.846  33.910  26.866  1.00  0.00     0.065 H 
ATOM     14  H   UNL     1     -49.899  31.482  25.472  1.00  0.00     0.166 HD
ENDROOT
BRANCH   1  15
ATOM     15  C   UNL     1     -48.482  29.686  23.882  1.00  0.00     0.039 C 
ATOM     16  H   UNL     1     -47.727  28.943  24.172  1.00  0.00     0.050 H 
ATOM     17  H   UNL     1     -49.433  29.342  24.312  1.00  0.00     0.050 H 
BRANCH  15  18
ATOM     18  N   UNL     1     -48.521  29.776  22.423  1.00  0.00    -0.296 NA
ATOM     19  C   UNL     1     -49.989  29.805  20.900  1.00  0.00    -0.010 C 
ATOM     20  C   UNL     1     -49.405  28.729  21.859  1.00  0.00     0.005 C 
ATOM     21  C   UNL     1     -49.470  30.816  21.960  1.00  0.00     0.005 C 
ATOM     22  H   UNL     1     -50.137  28.301  22.557  1.00  0.00     0.044 H 
ATOM     23  H   UNL     1     -48.874  27.902  21.377  1.00  0.00     0.044 H 
ATOM     24  H   UNL     1     -50.227  31.129  22.691  1.00  0.00     0.044 H 
ATOM     25  H   UNL     1     -48.992  31.717  21.561  1.00  0.00     0.044 H 
BRANCH  19  26
ATOM     26  C   UNL     1     -49.291  29.893  19.541  1.00  0.00    -0.057 C 
ATOM     27  H   UNL     1     -49.499  29.002  18.940  1.00  0.00     0.024 H 
ATOM     28  H   UNL     1     -48.206  29.973  19.667  1.00  0.00     0.024 H 
ATOM     29  H   UNL     1     -49.623  30.765  18.966  1.00  0.00     0.024 H 
ENDBRANCH  19  26
BRANCH  19  30
ATOM     30  C   UNL     1     -51.504  29.765  20.752  1.00  0.00    -0.057 C 
ATOM     31  H   UNL     1     -51.814  30.193  19.792  1.00  0.00     0.024 H 
ATOM     32  H   UNL     1     -51.991  30.334  21.550  1.00  0.00     0.024 H 
ATOM     33  H   UNL     1     -51.888  28.739  20.796  1.00  0.00     0.024 H 
ENDBRANCH  19  30
ENDBRANCH  15  18
ENDBRANCH   1  15
BRANCH   6  34
ATOM     34  C   UNL     1     -48.477  36.162  27.599  1.00  0.00     0.043 C 
ATOM     35  H   UNL     1     -49.427  36.539  27.204  1.00  0.00     0.054 H 
ATOM     36  H   UNL     1     -48.666  35.850  28.633  1.00  0.00     0.054 H 
BRANCH  34  37
ATOM     37  N   UNL     1     -47.514  37.231  27.619  1.00  0.00    -0.347 N 
ATOM     38  C   UNL     1     -46.613  37.381  28.642  1.00  0.00     0.270 C 
ATOM     39  H   UNL     1     -47.377  37.809  26.795  1.00  0.00     0.164 HD
ATOM     40  O   UNL     1     -46.599  36.690  29.654  1.00  0.00    -0.268 OA
BRANCH  38  41
ATOM     41  C   UNL     1     -45.623  38.490  28.379  1.00  0.00     0.136 A 
ATOM     42  C   UNL     1     -45.813  39.204  27.267  1.00  0.00     0.035 A 
ATOM     43  N   UNL     1     -44.606  38.698  29.282  1.00  0.00    -0.225 NA
ATOM     44  C   UNL     1     -44.873  40.294  26.973  1.00  0.00     0.258 A 
ATOM     45  H   UNL     1     -46.618  39.032  26.565  1.00  0.00     0.071 H 
ATOM     46  C   UNL     1     -43.779  39.662  29.018  1.00  0.00     0.140 A 
ATOM     47  O   UNL     1     -45.039  40.956  25.950  1.00  0.00    -0.269 OA
ATOM     48  N   UNL     1     -43.858  40.482  27.898  1.00  0.00    -0.268 N 
ATOM     49  C   UNL     1     -42.660  39.923  29.968  1.00  0.00    -0.019 A 
ATOM     50  C   UNL     1     -42.928  41.497  27.687  1.00  0.00     0.014 A 
ATOM     51  C   UNL     1     -41.791  40.911  29.723  1.00  0.00    -0.057 A 
ATOM     52  H   UNL     1     -42.590  39.289  30.844  1.00  0.00     0.066 H 
ATOM     53  C   UNL     1     -41.927  41.725  28.546  1.00  0.00    -0.045 A 
ATOM     54  H   UNL     1     -43.051  42.099  26.791  1.00  0.00     0.082 H 
ATOM     55  H   UNL     1     -40.970  41.116  30.403  1.00  0.00     0.062 H 
ATOM     56  H   UNL     1     -41.208  42.519  28.372  1.00  0.00     0.064 H 
ENDBRANCH  38  41
ENDBRANCH  34  37
ENDBRANCH   6  34
TORSDOF 7
ENDMDL
MODEL 4
REMARK VINA RESULT:      -9.6      2.723     11.340
REMARK SMILES CC1(C)CN(Cc2cc3ccc(CNC(=O)c4cc(=O)n5ccccc5n4)cc3[nH]2)C1
REMARK SMILES IDX 7 1 8 2 9 3 10 4 11 5 12 6 28 7 29 8 30 9 6 15 5 18 2 19
REMARK SMILES IDX 4 20 31 21 1 26 3 30 13 34 14 37 15 38 16 40 17 41 18 42
REMARK SMILES IDX 27 43 19 44 26 46 20 47 21 48 25 49 22 50 24 51 23 53
REMARK H PARENT 8 10 10 11 11 12 28 13 30 14 6 16 6 17 4 22 4 23 31 24 31 25
REMARK H PARENT 1 27 1 28 1 29 3 31 3 32 3 33 13 35 13 36 14 39 18 45 25 52
REMARK H PARENT 22 54 24 55 23 56
REMARK Flexibility Score: inf
ROOT
ATOM      1  C   UNL     1     -45.841  38.107  28.065  1.00  0.00     0.030 A 
ATOM      2  C   UNL     1     -45.103  36.939  28.111  1.00  0.00    -0.032 A 
ATOM      3  C   UNL     1     -45.922  35.879  27.636  1.00  0.00    -0.000 A 
ATOM      4  C   UNL     1     -45.728  34.498  27.458  1.00  0.00    -0.052 A 
ATOM      5  C   UNL     1     -46.777  33.716  26.957  1.00  0.00    -0.057 A 
ATOM      6  C   UNL     1     -48.011  34.289  26.625  1.00  0.00    -0.027 A 
ATOM      7  C   UNL     1     -48.219  35.666  26.809  1.00  0.00    -0.033 A 
ATOM      8  C   UNL     1     -47.158  36.431  27.310  1.00  0.00     0.046 A 
ATOM      9  N   UNL     1     -47.084  37.778  27.582  1.00  0.00    -0.357 N 
ATOM     10  H   UNL     1     -44.081  36.860  28.457  1.00  0.00     0.065 H 
ATOM     11  H   UNL     1     -44.776  34.039  27.709  1.00  0.00     0.063 H 
ATOM     12  H   UNL     1     -46.619  32.646  26.831  1.00  0.00     0.063 H 
ATOM     13  H   UNL     1     -49.176  36.122  26.574  1.00  0.00     0.065 H 
ATOM     14  H   UNL     1     -47.847  38.426  27.448  1.00  0.00     0.166 HD
ENDROOT
BRANCH   1  15
ATOM     15  C   UNL     1     -45.476  39.506  28.434  1.00  0.00     0.039 C 
ATOM     16  H   UNL     1     -46.260  40.173  28.053  1.00  0.00     0.050 H 
ATOM     17  H   UNL     1     -45.476  39.625  29.527  1.00  0.00     0.050 H 
BRANCH  15  18
ATOM     18  N   UNL     1     -44.200  39.881  27.826  1.00  0.00    -0.296 NA
ATOM     19  C   UNL     1     -42.989  41.609  27.681  1.00  0.00    -0.010 C 
ATOM     20  C   UNL     1     -44.337  41.144  27.063  1.00  0.00     0.005 C 
ATOM     21  C   UNL     1     -43.310  40.570  28.791  1.00  0.00     0.005 C 
ATOM     22  H   UNL     1     -45.198  41.770  27.334  1.00  0.00     0.044 H 
ATOM     23  H   UNL     1     -44.341  41.015  25.976  1.00  0.00     0.044 H 
ATOM     24  H   UNL     1     -43.804  40.995  29.675  1.00  0.00     0.044 H 
ATOM     25  H   UNL     1     -42.464  39.966  29.134  1.00  0.00     0.044 H 
BRANCH  19  26
ATOM     26  C   UNL     1     -41.754  41.280  26.839  1.00  0.00    -0.057 C 
ATOM     27  H   UNL     1     -42.037  41.060  25.805  1.00  0.00     0.024 H 
ATOM     28  H   UNL     1     -41.233  40.405  27.242  1.00  0.00     0.024 H 
ATOM     29  H   UNL     1     -41.040  42.110  26.817  1.00  0.00     0.024 H 
ENDBRANCH  19  26
BRANCH  19  30
ATOM     30  C   UNL     1     -42.975  43.057  28.154  1.00  0.00    -0.057 C 
ATOM     31  H   UNL     1     -42.138  43.606  27.709  1.00  0.00     0.024 H 
ATOM     32  H   UNL     1     -42.876  43.112  29.243  1.00  0.00     0.024 H 
ATOM     33  H   UNL     1     -43.898  43.580  27.879  1.00  0.00     0.024 H 
ENDBRANCH  19  30
ENDBRANCH  15  18
ENDBRANCH   1  15
BRANCH   6  34
ATOM     34  C   UNL     1     -49.138  33.424  26.122  1.00  0.00     0.043 C 
ATOM     35  H   UNL     1     -49.989  33.453  26.813  1.00  0.00     0.054 H 
ATOM     36  H   UNL     1     -49.506  33.783  25.153  1.00  0.00     0.054 H 
BRANCH  34  37
ATOM     37  N   UNL     1     -48.702  32.062  25.963  1.00  0.00    -0.347 N 
ATOM     38  C   UNL     1     -49.181  31.256  24.962  1.00  0.00     0.270 C 
ATOM     39  H   UNL     1     -47.910  31.715  26.496  1.00  0.00     0.164 HD
ATOM     40  O   UNL     1     -50.069  31.580  24.182  1.00  0.00    -0.268 OA
BRANCH  38  41
ATOM     41  C   UNL     1     -48.483  29.918  24.918  1.00  0.00     0.136 A 
ATOM     42  C   UNL     1     -47.534  29.774  23.990  1.00  0.00     0.035 A 
ATOM     43  N   UNL     1     -48.856  28.946  25.817  1.00  0.00    -0.225 NA
ATOM     44  C   UNL     1     -46.829  28.488  23.912  1.00  0.00     0.258 A 
ATOM     45  H   UNL     1     -47.248  30.546  23.288  1.00  0.00     0.071 H 
ATOM     46  C   UNL     1     -48.230  27.812  25.744  1.00  0.00     0.140 A 
ATOM     47  O   UNL     1     -45.954  28.345  23.059  1.00  0.00    -0.269 OA
ATOM     48  N   UNL     1     -47.223  27.526  24.829  1.00  0.00    -0.268 N 
ATOM     49  C   UNL     1     -48.602  26.729  26.700  1.00  0.00    -0.019 A 
ATOM     50  C   UNL     1     -46.600  26.281  24.816  1.00  0.00     0.014 A 
ATOM     51  C   UNL     1     -47.973  25.548  26.649  1.00  0.00    -0.057 A 
ATOM     52  H   UNL     1     -49.385  26.942  27.417  1.00  0.00     0.066 H 
ATOM     53  C   UNL     1     -46.939  25.314  25.678  1.00  0.00    -0.045 A 
ATOM     54  H   UNL     1     -45.821  26.128  24.074  1.00  0.00     0.082 H 
ATOM     55  H   UNL     1     -48.230  24.748  27.336  1.00  0.00     0.062 H 
ATOM     56  H   UNL     1     -46.446  24.348  25.660  1.00  0.00     0.064 H 
ENDBRANCH  38  41
ENDBRANCH  34  37
ENDBRANCH   6  34
TORSDOF 7
ENDMDL
MODEL 5
REMARK VINA RESULT:      -9.3      1.467      2.214
REMARK SMILES CC1(C)CN(Cc2cc3ccc(CNC(=O)c4cc(=O)n5ccccc5n4)cc3[nH]2)C1
REMARK SMILES IDX 7 1 8 2 9 3 10 4 11 5 12 6 28 7 29 8 30 9 6 15 5 18 2 19
REMARK SMILES IDX 4 20 31 21 1 26 3 30 13 34 14 37 15 38 16 40 17 41 18 42
REMARK SMILES IDX 27 43 19 44 26 46 20 47 21 48 25 49 22 50 24 51 23 53
REMARK H PARENT 8 10 10 11 11 12 28 13 30 14 6 16 6 17 4 22 4 23 31 24 31 25
REMARK H PARENT 1 27 1 28 1 29 3 31 3 32 3 33 13 35 13 36 14 39 18 45 25 52
REMARK H PARENT 22 54 24 55 23 56
REMARK Flexibility Score: inf
ROOT
ATOM      1  C   UNL     1     -48.075  31.228  24.773  1.00  0.00     0.030 A 
ATOM      2  C   UNL     1     -49.029  32.162  25.130  1.00  0.00    -0.032 A 
ATOM      3  C   UNL     1     -48.399  33.158  25.923  1.00  0.00    -0.000 A 
ATOM      4  C   UNL     1     -48.846  34.329  26.560  1.00  0.00    -0.052 A 
ATOM      5  C   UNL     1     -47.935  35.107  27.287  1.00  0.00    -0.057 A 
ATOM      6  C   UNL     1     -46.586  34.740  27.382  1.00  0.00    -0.027 A 
ATOM      7  C   UNL     1     -46.131  33.567  26.757  1.00  0.00    -0.033 A 
ATOM      8  C   UNL     1     -47.057  32.804  26.035  1.00  0.00     0.046 A 
ATOM      9  N   UNL     1     -46.888  31.631  25.334  1.00  0.00    -0.357 N 
ATOM     10  H   UNL     1     -50.074  32.123  24.852  1.00  0.00     0.065 H 
ATOM     11  H   UNL     1     -49.888  34.627  26.494  1.00  0.00     0.063 H 
ATOM     12  H   UNL     1     -48.294  36.006  27.784  1.00  0.00     0.063 H 
ATOM     13  H   UNL     1     -45.093  33.259  26.837  1.00  0.00     0.065 H 
ATOM     14  H   UNL     1     -46.010  31.138  25.256  1.00  0.00     0.166 HD
ENDROOT
BRANCH   1  15
ATOM     15  C   UNL     1     -48.184  29.989  23.947  1.00  0.00     0.039 C 
ATOM     16  H   UNL     1     -48.555  30.276  22.954  1.00  0.00     0.050 H 
ATOM     17  H   UNL     1     -47.190  29.548  23.788  1.00  0.00     0.050 H 
BRANCH  15  18
ATOM     18  N   UNL     1     -49.129  29.052  24.551  1.00  0.00    -0.296 NA
ATOM     19  C   UNL     1     -49.081  27.108  25.385  1.00  0.00    -0.010 C 
ATOM     20  C   UNL     1     -48.983  27.704  23.952  1.00  0.00     0.005 C 
ATOM     21  C   UNL     1     -48.631  28.523  25.844  1.00  0.00     0.005 C 
ATOM     22  H   UNL     1     -48.026  27.512  23.449  1.00  0.00     0.044 H 
ATOM     23  H   UNL     1     -49.789  27.426  23.266  1.00  0.00     0.044 H 
ATOM     24  H   UNL     1     -47.550  28.618  26.012  1.00  0.00     0.044 H 
ATOM     25  H   UNL     1     -49.147  28.923  26.723  1.00  0.00     0.044 H 
BRANCH  19  26
ATOM     26  C   UNL     1     -50.496  26.719  25.817  1.00  0.00    -0.057 C 
ATOM     27  H   UNL     1     -51.222  26.961  25.034  1.00  0.00     0.024 H 
ATOM     28  H   UNL     1     -50.786  27.258  26.726  1.00  0.00     0.024 H 
ATOM     29  H   UNL     1     -50.581  25.647  26.028  1.00  0.00     0.024 H 
ENDBRANCH  19  26
BRANCH  19  30
ATOM     30  C   UNL     1     -48.080  25.998  25.680  1.00  0.00    -0.057 C 
ATOM     31  H   UNL     1     -47.060  26.317  25.435  1.00  0.00     0.024 H 
ATOM     32  H   UNL     1     -48.305  25.102  25.094  1.00  0.00     0.024 H 
ATOM     33  H   UNL     1     -48.093  25.714  26.738  1.00  0.00     0.024 H 
ENDBRANCH  19  30
ENDBRANCH  15  18
ENDBRANCH   1  15
BRANCH   6  34
ATOM     34  C   UNL     1     -45.630  35.571  28.199  1.00  0.00     0.043 C 
ATOM     35  H   UNL     1     -45.934  35.589  29.252  1.00  0.00     0.054 H 
ATOM     36  H   UNL     1     -44.619  35.147  28.169  1.00  0.00     0.054 H 
BRANCH  34  37
ATOM     37  N   UNL     1     -45.571  36.918  27.698  1.00  0.00    -0.347 N 
ATOM     38  C   UNL     1     -45.697  38.008  28.522  1.00  0.00     0.270 C 
ATOM     39  H   UNL     1     -45.276  37.094  26.742  1.00  0.00     0.164 HD
ATOM     40  O   UNL     1     -45.955  37.941  29.717  1.00  0.00    -0.268 OA
BRANCH  38  41
ATOM     41  C   UNL     1     -45.471  39.310  27.791  1.00  0.00     0.136 A 
ATOM     42  C   UNL     1     -46.550  39.887  27.258  1.00  0.00     0.035 A 
ATOM     43  N   UNL     1     -44.194  39.815  27.720  1.00  0.00    -0.225 NA
ATOM     44  C   UNL     1     -46.375  41.156  26.539  1.00  0.00     0.258 A 
ATOM     45  H   UNL     1     -47.551  39.481  27.322  1.00  0.00     0.071 H 
ATOM     46  C   UNL     1     -44.044  40.936  27.084  1.00  0.00     0.140 A 
ATOM     47  O   UNL     1     -47.363  41.695  26.043  1.00  0.00    -0.269 OA
ATOM     48  N   UNL     1     -45.078  41.643  26.481  1.00  0.00    -0.268 N 
ATOM     49  C   UNL     1     -42.676  41.520  26.980  1.00  0.00    -0.019 A 
ATOM     50  C   UNL     1     -44.834  42.841  25.816  1.00  0.00     0.014 A 
ATOM     51  C   UNL     1     -42.490  42.676  26.331  1.00  0.00    -0.057 A 
ATOM     52  H   UNL     1     -41.864  40.977  27.446  1.00  0.00     0.066 H 
ATOM     53  C   UNL     1     -43.603  43.360  25.729  1.00  0.00    -0.045 A 
ATOM     54  H   UNL     1     -45.690  43.341  25.370  1.00  0.00     0.082 H 
ATOM     55  H   UNL     1     -41.502  43.117  26.245  1.00  0.00     0.062 H 
ATOM     56  H   UNL     1     -43.423  44.295  25.208  1.00  0.00     0.064 H 
ENDBRANCH  38  41
ENDBRANCH  34  37
ENDBRANCH   6  34
TORSDOF 7
ENDMDL
MODEL 6
REMARK VINA RESULT:      -9.1      1.569      2.286
REMARK SMILES CC1(C)CN(Cc2cc3ccc(CNC(=O)c4cc(=O)n5ccccc5n4)cc3[nH]2)C1
REMARK SMILES IDX 7 1 8 2 9 3 10 4 11 5 12 6 28 7 29 8 30 9 6 15 5 18 2 19
REMARK SMILES IDX 4 20 31 21 1 26 3 30 13 34 14 37 15 38 16 40 17 41 18 42
REMARK SMILES IDX 27 43 19 44 26 46 20 47 21 48 25 49 22 50 24 51 23 53
REMARK H PARENT 8 10 10 11 11 12 28 13 30 14 6 16 6 17 4 22 4 23 31 24 31 25
REMARK H PARENT 1 27 1 28 1 29 3 31 3 32 3 33 13 35 13 36 14 39 18 45 25 52
REMARK H PARENT 22 54 24 55 23 56
REMARK Flexibility Score: inf
ROOT
ATOM      1  C   UNL     1     -48.025  29.755  23.444  1.00  0.00     0.030 A 
ATOM      2  C   UNL     1     -46.842  30.465  23.522  1.00  0.00    -0.032 A 
ATOM      3  C   UNL     1     -47.065  31.608  24.335  1.00  0.00    -0.000 A 
ATOM      4  C   UNL     1     -46.257  32.676  24.765  1.00  0.00    -0.052 A 
ATOM      5  C   UNL     1     -46.810  33.670  25.583  1.00  0.00    -0.057 A 
ATOM      6  C   UNL     1     -48.151  33.612  25.987  1.00  0.00    -0.027 A 
ATOM      7  C   UNL     1     -48.969  32.554  25.555  1.00  0.00    -0.033 A 
ATOM      8  C   UNL     1     -48.398  31.571  24.738  1.00  0.00     0.046 A 
ATOM      9  N   UNL     1     -48.957  30.443  24.182  1.00  0.00    -0.357 N 
ATOM     10  H   UNL     1     -45.916  30.188  23.036  1.00  0.00     0.065 H 
ATOM     11  H   UNL     1     -45.216  32.734  24.461  1.00  0.00     0.063 H 
ATOM     12  H   UNL     1     -46.178  34.497  25.902  1.00  0.00     0.063 H 
ATOM     13  H   UNL     1     -50.015  32.505  25.844  1.00  0.00     0.065 H 
ATOM     14  H   UNL     1     -49.922  30.170  24.301  1.00  0.00     0.166 HD
ENDROOT
BRANCH   1  15
ATOM     15  C   UNL     1     -48.354  28.483  22.734  1.00  0.00     0.039 C 
ATOM     16  H   UNL     1     -49.421  28.505  22.476  1.00  0.00     0.050 H 
ATOM     17  H   UNL     1     -47.808  28.425  21.782  1.00  0.00     0.050 H 
BRANCH  15  18
ATOM     18  N   UNL     1     -48.102  27.332  23.601  1.00  0.00    -0.296 NA
ATOM     19  C   UNL     1     -48.101  26.913  25.674  1.00  0.00    -0.010 C 
ATOM     20  C   UNL     1     -47.179  27.700  24.700  1.00  0.00     0.005 C 
ATOM     21  C   UNL     1     -49.190  27.140  24.590  1.00  0.00     0.005 C 
ATOM     22  H   UNL     1     -47.106  28.774  24.918  1.00  0.00     0.044 H 
ATOM     23  H   UNL     1     -46.164  27.307  24.586  1.00  0.00     0.044 H 
ATOM     24  H   UNL     1     -49.830  28.013  24.772  1.00  0.00     0.044 H 
ATOM     25  H   UNL     1     -49.840  26.282  24.384  1.00  0.00     0.044 H 
BRANCH  19  26
ATOM     26  C   UNL     1     -47.705  25.450  25.884  1.00  0.00    -0.057 C 
ATOM     27  H   UNL     1     -47.100  25.337  26.789  1.00  0.00     0.024 H 
ATOM     28  H   UNL     1     -47.119  25.081  25.035  1.00  0.00     0.024 H 
ATOM     29  H   UNL     1     -48.581  24.799  25.988  1.00  0.00     0.024 H 
ENDBRANCH  19  26
BRANCH  19  30
ATOM     30  C   UNL     1     -48.370  27.616  26.999  1.00  0.00    -0.057 C 
ATOM     31  H   UNL     1     -49.435  27.579  27.252  1.00  0.00     0.024 H 
ATOM     32  H   UNL     1     -48.068  28.667  26.952  1.00  0.00     0.024 H 
ATOM     33  H   UNL     1     -47.817  27.150  27.823  1.00  0.00     0.024 H 
ENDBRANCH  19  30
ENDBRANCH  15  18
ENDBRANCH   1  15
BRANCH   6  34
ATOM     34  C   UNL     1     -48.735  34.710  26.838  1.00  0.00     0.043 C 
ATOM     35  H   UNL     1     -49.620  35.143  26.360  1.00  0.00     0.054 H 
ATOM     36  H   UNL     1     -49.059  34.321  27.810  1.00  0.00     0.054 H 
BRANCH  34  37
ATOM     37  N   UNL     1     -47.764  35.747  27.066  1.00  0.00    -0.347 N 
ATOM     38  C   UNL     1     -48.072  36.895  27.749  1.00  0.00     0.270 C 
ATOM     39  H   UNL     1     -46.783  35.581  26.861  1.00  0.00     0.164 HD
ATOM     40  O   UNL     1     -49.196  37.182  28.143  1.00  0.00    -0.268 OA
BRANCH  38  41
ATOM     41  C   UNL     1     -46.864  37.772  27.976  1.00  0.00     0.136 A 
ATOM     42  C   UNL     1     -46.172  37.551  29.096  1.00  0.00     0.035 A 
ATOM     43  N   UNL     1     -46.552  38.726  27.035  1.00  0.00    -0.225 NA
ATOM     44  C   UNL     1     -44.988  38.381  29.356  1.00  0.00     0.258 A 
ATOM     45  H   UNL     1     -46.426  36.796  29.829  1.00  0.00     0.071 H 
ATOM     46  C   UNL     1     -45.505  39.456  27.269  1.00  0.00     0.140 A 
ATOM     47  O   UNL     1     -44.345  38.186  30.386  1.00  0.00    -0.269 OA
ATOM     48  N   UNL     1     -44.696  39.334  28.393  1.00  0.00    -0.268 N 
ATOM     49  C   UNL     1     -45.130  40.504  26.276  1.00  0.00    -0.019 A 
ATOM     50  C   UNL     1     -43.588  40.159  28.569  1.00  0.00     0.014 A 
ATOM     51  C   UNL     1     -44.056  41.272  26.489  1.00  0.00    -0.057 A 
ATOM     52  H   UNL     1     -45.755  40.606  25.397  1.00  0.00     0.066 H 
ATOM     53  C   UNL     1     -43.257  41.096  27.673  1.00  0.00    -0.045 A 
ATOM     54  H   UNL     1     -43.000  40.008  29.471  1.00  0.00     0.082 H 
ATOM     55  H   UNL     1     -43.766  42.040  25.778  1.00  0.00     0.062 H 
ATOM     56  H   UNL     1     -42.391  41.734  27.820  1.00  0.00     0.064 H 
ENDBRANCH  38  41
ENDBRANCH  34  37
ENDBRANCH   6  34
TORSDOF 7
ENDMDL
MODEL 7
REMARK VINA RESULT:      -9.1      2.151      3.181
REMARK SMILES CC1(C)CN(Cc2cc3ccc(CNC(=O)c4cc(=O)n5ccccc5n4)cc3[nH]2)C1
REMARK SMILES IDX 7 1 8 2 9 3 10 4 11 5 12 6 28 7 29 8 30 9 6 15 5 18 2 19
REMARK SMILES IDX 4 20 31 21 1 26 3 30 13 34 14 37 15 38 16 40 17 41 18 42
REMARK SMILES IDX 27 43 19 44 26 46 20 47 21 48 25 49 22 50 24 51 23 53
REMARK H PARENT 8 10 10 11 11 12 28 13 30 14 6 16 6 17 4 22 4 23 31 24 31 25
REMARK H PARENT 1 27 1 28 1 29 3 31 3 32 3 33 13 35 13 36 14 39 18 45 25 52
REMARK H PARENT 22 54 24 55 23 56
REMARK Flexibility Score: inf
ROOT
ATOM      1  C   UNL     1     -48.031  31.841  25.875  1.00  0.00     0.030 A 
ATOM      2  C   UNL     1     -48.892  32.920  25.933  1.00  0.00    -0.032 A 
ATOM      3  C   UNL     1     -48.212  33.996  26.563  1.00  0.00    -0.000 A 
ATOM      4  C   UNL     1     -48.565  35.316  26.897  1.00  0.00    -0.052 A 
ATOM      5  C   UNL     1     -47.628  36.137  27.537  1.00  0.00    -0.057 A 
ATOM      6  C   UNL     1     -46.344  35.668  27.842  1.00  0.00    -0.027 A 
ATOM      7  C   UNL     1     -45.984  34.348  27.522  1.00  0.00    -0.033 A 
ATOM      8  C   UNL     1     -46.935  33.543  26.882  1.00  0.00     0.046 A 
ATOM      9  N   UNL     1     -46.852  32.235  26.459  1.00  0.00    -0.357 N 
ATOM     10  H   UNL     1     -49.910  32.926  25.564  1.00  0.00     0.065 H 
ATOM     11  H   UNL     1     -49.556  35.695  26.666  1.00  0.00     0.063 H 
ATOM     12  H   UNL     1     -47.915  37.154  27.799  1.00  0.00     0.063 H 
ATOM     13  H   UNL     1     -44.999  33.963  27.769  1.00  0.00     0.065 H 
ATOM     14  H   UNL     1     -46.035  31.653  26.574  1.00  0.00     0.166 HD
ENDROOT
BRANCH   1  15
ATOM     15  C   UNL     1     -48.221  30.470  25.315  1.00  0.00     0.039 C 
ATOM     16  H   UNL     1     -47.374  29.851  25.640  1.00  0.00     0.050 H 
ATOM     17  H   UNL     1     -49.122  30.006  25.740  1.00  0.00     0.050 H 
BRANCH  15  18
ATOM     18  N   UNL     1     -48.242  30.512  23.854  1.00  0.00    -0.296 NA
ATOM     19  C   UNL     1     -49.060  29.370  22.272  1.00  0.00    -0.010 C 
ATOM     20  C   UNL     1     -47.898  29.186  23.289  1.00  0.00     0.005 C 
ATOM     21  C   UNL     1     -49.618  30.374  23.318  1.00  0.00     0.005 C 
ATOM     22  H   UNL     1     -48.026  28.333  23.970  1.00  0.00     0.044 H 
ATOM     23  H   UNL     1     -46.894  29.127  22.857  1.00  0.00     0.044 H 
ATOM     24  H   UNL     1     -50.356  29.942  24.006  1.00  0.00     0.044 H 
ATOM     25  H   UNL     1     -50.037  31.300  22.909  1.00  0.00     0.044 H 
BRANCH  19  26
ATOM     26  C   UNL     1     -48.647  30.000  20.940  1.00  0.00    -0.057 C 
ATOM     27  H   UNL     1     -49.519  30.403  20.415  1.00  0.00     0.024 H 
ATOM     28  H   UNL     1     -48.173  29.257  20.290  1.00  0.00     0.024 H 
ATOM     29  H   UNL     1     -47.936  30.822  21.079  1.00  0.00     0.024 H 
ENDBRANCH  19  26
BRANCH  19  30
ATOM     30  C   UNL     1     -49.921  28.130  22.063  1.00  0.00    -0.057 C 
ATOM     31  H   UNL     1     -49.343  27.328  21.589  1.00  0.00     0.024 H 
ATOM     32  H   UNL     1     -50.780  28.353  21.422  1.00  0.00     0.024 H 
ATOM     33  H   UNL     1     -50.308  27.743  23.012  1.00  0.00     0.024 H 
ENDBRANCH  19  30
ENDBRANCH  15  18
ENDBRANCH   1  15
BRANCH   6  34
ATOM     34  C   UNL     1     -45.363  36.556  28.563  1.00  0.00     0.043 C 
ATOM     35  H   UNL     1     -45.655  36.687  29.611  1.00  0.00     0.054 H 
ATOM     36  H   UNL     1     -44.361  36.111  28.568  1.00  0.00     0.054 H 
BRANCH  34  37
ATOM     37  N   UNL     1     -45.282  37.845  27.929  1.00  0.00    -0.347 N 
ATOM     38  C   UNL     1     -44.671  38.915  28.530  1.00  0.00     0.270 C 
ATOM     39  H   UNL     1     -45.539  37.948  26.952  1.00  0.00     0.164 HD
ATOM     40  O   UNL     1     -44.225  38.903  29.671  1.00  0.00    -0.268 OA
BRANCH  38  41
ATOM     41  C   UNL     1     -44.595  40.119  27.621  1.00  0.00     0.136 A 
ATOM     42  C   UNL     1     -45.746  40.532  27.085  1.00  0.00     0.035 A 
ATOM     43  N   UNL     1     -43.371  40.708  27.403  1.00  0.00    -0.225 NA
ATOM     44  C   UNL     1     -45.718  41.700  26.195  1.00  0.00     0.258 A 
ATOM     45  H   UNL     1     -46.703  40.061  27.265  1.00  0.00     0.071 H 
ATOM     46  C   UNL     1     -43.351  41.739  26.616  1.00  0.00     0.140 A 
ATOM     47  O   UNL     1     -46.772  42.087  25.695  1.00  0.00    -0.269 OA
ATOM     48  N   UNL     1     -44.472  42.274  25.992  1.00  0.00    -0.268 N 
ATOM     49  C   UNL     1     -42.046  42.409  26.350  1.00  0.00    -0.019 A 
ATOM     50  C   UNL     1     -44.366  43.385  25.160  1.00  0.00     0.014 A 
ATOM     51  C   UNL     1     -41.994  43.476  25.543  1.00  0.00    -0.057 A 
ATOM     52  H   UNL     1     -41.167  42.000  26.832  1.00  0.00     0.066 H 
ATOM     53  C   UNL     1     -43.190  43.982  24.927  1.00  0.00    -0.045 A 
ATOM     54  H   UNL     1     -45.284  43.750  24.706  1.00  0.00     0.082 H 
ATOM     55  H   UNL     1     -41.053  43.977  25.338  1.00  0.00     0.062 H 
ATOM     56  H   UNL     1     -43.119  44.848  24.277  1.00  0.00     0.064 H 
ENDBRANCH  38  41
ENDBRANCH  34  37
ENDBRANCH   6  34
TORSDOF 7
ENDMDL
