MODEL 1
REMARK VINA RESULT:     -10.2      0.000      0.000
REMARK SMILES CNc1ccc2ccc(OCc3cncc(-c4c[nH]c5c(N)ncnc45)c3)cc2n1
REMARK SMILES IDX 11 1 10 4 9 5 3 6 4 7 30 8 5 9 29 11 6 12 28 14 7 15 8 17
REMARK SMILES IDX 2 20 1 22 12 26 13 27 27 28 14 29 16 31 15 33 17 35 18 36
REMARK SMILES IDX 26 37 19 38 20 40 25 41 21 43 24 44 23 45 22 47
REMARK H PARENT 11 2 11 3 4 10 5 13 28 16 7 18 8 19 2 21 1 23 1 24 1 25 13 30
REMARK H PARENT 27 32 15 34 18 39 19 42 24 46 22 48 22 49
REMARK Flexibility Score: inf
ROOT
ATOM      1  C   UNL     1     -46.741  36.743  26.702  1.00  0.00     0.115 C 
ATOM      2  H   UNL     1     -47.653  37.015  26.156  1.00  0.00     0.076 H 
ATOM      3  H   UNL     1     -45.909  37.143  26.109  1.00  0.00     0.076 H 
ENDROOT
BRANCH   1   4
ATOM      4  O   UNL     1     -46.822  37.386  27.977  1.00  0.00    -0.489 OA
BRANCH   4   5
ATOM      5  C   UNL     1     -45.773  38.164  28.384  1.00  0.00     0.122 A 
ATOM      6  C   UNL     1     -42.794  41.867  28.111  1.00  0.00     0.126 A 
ATOM      7  C   UNL     1     -42.096  41.452  29.240  1.00  0.00    -0.019 A 
ATOM      8  N   UNL     1     -43.842  41.168  27.632  1.00  0.00    -0.231 NA
ATOM      9  C   UNL     1     -42.497  40.295  29.902  1.00  0.00    -0.049 A 
ATOM     10  H   UNL     1     -41.239  42.013  29.593  1.00  0.00     0.066 H 
ATOM     11  C   UNL     1     -44.235  40.047  28.263  1.00  0.00     0.076 A 
ATOM     12  C   UNL     1     -43.585  39.568  29.417  1.00  0.00     0.001 A 
ATOM     13  H   UNL     1     -41.950  39.967  30.781  1.00  0.00     0.063 H 
ATOM     14  C   UNL     1     -45.318  39.330  27.766  1.00  0.00     0.007 A 
ATOM     15  C   UNL     1     -44.028  38.392  30.041  1.00  0.00    -0.049 A 
ATOM     16  H   UNL     1     -45.782  39.717  26.865  1.00  0.00     0.069 H 
ATOM     17  C   UNL     1     -45.118  37.696  29.522  1.00  0.00    -0.019 A 
ATOM     18  H   UNL     1     -43.529  38.012  30.929  1.00  0.00     0.063 H 
ATOM     19  H   UNL     1     -45.456  36.784  30.006  1.00  0.00     0.066 H 
BRANCH   6  20
ATOM     20  N   UNL     1     -42.344  43.024  27.449  1.00  0.00    -0.373 N 
ATOM     21  H   UNL     1     -42.936  43.806  27.714  1.00  0.00     0.161 HD
BRANCH  20  22
ATOM     22  C   UNL     1     -42.244  42.882  26.004  1.00  0.00     0.005 C 
ATOM     23  H   UNL     1     -41.201  42.690  25.739  1.00  0.00     0.045 H 
ATOM     24  H   UNL     1     -42.555  43.797  25.487  1.00  0.00     0.045 H 
ATOM     25  H   UNL     1     -42.835  42.034  25.642  1.00  0.00     0.045 H 
ENDBRANCH  20  22
ENDBRANCH   6  20
ENDBRANCH   4   5
ENDBRANCH   1   4
BRANCH   1  26
ATOM     26  C   UNL     1     -46.708  35.243  26.807  1.00  0.00     0.008 A 
ATOM     27  C   UNL     1     -46.156  34.602  27.910  1.00  0.00     0.033 A 
ATOM     28  C   UNL     1     -47.282  34.438  25.813  1.00  0.00    -0.045 A 
ATOM     29  N   UNL     1     -46.126  33.261  28.070  1.00  0.00    -0.264 NA
ATOM     30  H   UNL     1     -45.707  35.167  28.723  1.00  0.00     0.084 H 
ATOM     31  C   UNL     1     -47.265  33.044  25.928  1.00  0.00     0.004 A 
ATOM     32  H   UNL     1     -47.740  34.907  24.946  1.00  0.00     0.063 H 
ATOM     33  C   UNL     1     -46.670  32.520  27.072  1.00  0.00     0.035 A 
ATOM     34  H   UNL     1     -46.596  31.448  27.234  1.00  0.00     0.085 H 
BRANCH  31  35
ATOM     35  C   UNL     1     -47.835  32.195  24.892  1.00  0.00     0.027 A 
ATOM     36  C   UNL     1     -49.155  31.772  24.884  1.00  0.00     0.011 A 
ATOM     37  C   UNL     1     -47.234  31.658  23.710  1.00  0.00     0.101 A 
ATOM     38  N   UNL     1     -49.357  31.004  23.765  1.00  0.00    -0.356 N 
ATOM     39  H   UNL     1     -49.976  31.961  25.563  1.00  0.00     0.082 H 
ATOM     40  C   UNL     1     -48.193  30.908  23.045  1.00  0.00     0.108 A 
ATOM     41  N   UNL     1     -45.972  31.790  23.241  1.00  0.00    -0.234 NA
ATOM     42  H   UNL     1     -50.236  30.589  23.487  1.00  0.00     0.166 HD
ATOM     43  C   UNL     1     -47.879  30.257  21.865  1.00  0.00     0.151 A 
ATOM     44  C   UNL     1     -45.762  31.137  22.090  1.00  0.00     0.118 A 
ATOM     45  N   UNL     1     -46.633  30.388  21.388  1.00  0.00    -0.218 NA
ATOM     46  H   UNL     1     -44.763  31.219  21.672  1.00  0.00     0.106 H 
BRANCH  43  47
ATOM     47  N   UNL     1     -48.773  29.466  21.157  1.00  0.00    -0.382 N 
ATOM     48  H   UNL     1     -48.256  28.728  20.688  1.00  0.00     0.158 HD
ATOM     49  H   UNL     1     -49.556  29.137  21.705  1.00  0.00     0.158 HD
ENDBRANCH  43  47
ENDBRANCH  31  35
ENDBRANCH   1  26
TORSDOF 7
ENDMDL
MODEL 2
REMARK VINA RESULT:     -10.2      1.489      2.113
REMARK SMILES CNc1ccc2ccc(OCc3cncc(-c4c[nH]c5c(N)ncnc45)c3)cc2n1
REMARK SMILES IDX 11 1 10 4 9 5 3 6 4 7 30 8 5 9 29 11 6 12 28 14 7 15 8 17
REMARK SMILES IDX 2 20 1 22 12 26 13 27 27 28 14 29 16 31 15 33 17 35 18 36
REMARK SMILES IDX 26 37 19 38 20 40 25 41 21 43 24 44 23 45 22 47
REMARK H PARENT 11 2 11 3 4 10 5 13 28 16 7 18 8 19 2 21 1 23 1 24 1 25 13 30
REMARK H PARENT 27 32 15 34 18 39 19 42 24 46 22 48 22 49
REMARK Flexibility Score: inf
ROOT
ATOM      1  C   UNL     1     -46.677  37.326  26.948  1.00  0.00     0.115 C 
ATOM      2  H   UNL     1     -47.286  38.180  26.631  1.00  0.00     0.076 H 
ATOM      3  H   UNL     1     -45.786  37.341  26.306  1.00  0.00     0.076 H 
ENDROOT
BRANCH   1   4
ATOM      4  O   UNL     1     -46.330  37.559  28.316  1.00  0.00    -0.489 OA
BRANCH   4   5
ATOM      5  C   UNL     1     -45.304  38.420  28.593  1.00  0.00     0.122 A 
ATOM      6  C   UNL     1     -42.497  42.179  27.783  1.00  0.00     0.126 A 
ATOM      7  C   UNL     1     -41.750  41.930  28.929  1.00  0.00    -0.019 A 
ATOM      8  N   UNL     1     -43.527  41.386  27.425  1.00  0.00    -0.231 NA
ATOM      9  C   UNL     1     -42.081  40.847  29.737  1.00  0.00    -0.049 A 
ATOM     10  H   UNL     1     -40.908  42.564  29.184  1.00  0.00     0.066 H 
ATOM     11  C   UNL     1     -43.853  40.334  28.198  1.00  0.00     0.076 A 
ATOM     12  C   UNL     1     -43.150  40.024  29.378  1.00  0.00     0.001 A 
ATOM     13  H   UNL     1     -41.496  40.649  30.630  1.00  0.00     0.063 H 
ATOM     14  C   UNL     1     -44.917  39.521  27.826  1.00  0.00     0.007 A 
ATOM     15  C   UNL     1     -43.524  38.915  30.152  1.00  0.00    -0.049 A 
ATOM     16  H   UNL     1     -45.424  39.778  26.901  1.00  0.00     0.069 H 
ATOM     17  C   UNL     1     -44.597  38.119  29.755  1.00  0.00    -0.019 A 
ATOM     18  H   UNL     1     -42.984  38.664  31.061  1.00  0.00     0.063 H 
ATOM     19  H   UNL     1     -44.881  37.258  30.356  1.00  0.00     0.066 H 
BRANCH   6  20
ATOM     20  N   UNL     1     -42.116  43.266  26.973  1.00  0.00    -0.373 N 
ATOM     21  H   UNL     1     -42.498  44.120  27.369  1.00  0.00     0.161 HD
BRANCH  20  22
ATOM     22  C   UNL     1     -42.467  43.113  25.570  1.00  0.00     0.005 C 
ATOM     23  H   UNL     1     -41.644  42.610  25.052  1.00  0.00     0.045 H 
ATOM     24  H   UNL     1     -42.619  44.084  25.084  1.00  0.00     0.045 H 
ATOM     25  H   UNL     1     -43.360  42.492  25.444  1.00  0.00     0.045 H 
ENDBRANCH  20  22
ENDBRANCH   6  20
ENDBRANCH   4   5
ENDBRANCH   1   4
BRANCH   1  26
ATOM     26  C   UNL     1     -47.504  36.085  26.759  1.00  0.00     0.008 A 
ATOM     27  C   UNL     1     -48.808  36.000  27.235  1.00  0.00     0.033 A 
ATOM     28  C   UNL     1     -47.003  34.986  26.049  1.00  0.00    -0.045 A 
ATOM     29  N   UNL     1     -49.605  34.922  27.068  1.00  0.00    -0.264 NA
ATOM     30  H   UNL     1     -49.263  36.822  27.782  1.00  0.00     0.084 H 
ATOM     31  C   UNL     1     -47.786  33.842  25.861  1.00  0.00     0.004 A 
ATOM     32  H   UNL     1     -45.994  35.026  25.646  1.00  0.00     0.063 H 
ATOM     33  C   UNL     1     -49.071  33.871  26.397  1.00  0.00     0.035 A 
ATOM     34  H   UNL     1     -49.740  33.019  26.314  1.00  0.00     0.085 H 
BRANCH  31  35
ATOM     35  C   UNL     1     -47.270  32.683  25.147  1.00  0.00     0.027 A 
ATOM     36  C   UNL     1     -46.001  32.624  24.592  1.00  0.00     0.011 A 
ATOM     37  C   UNL     1     -47.881  31.416  24.888  1.00  0.00     0.101 A 
ATOM     38  N   UNL     1     -45.839  31.391  24.011  1.00  0.00    -0.356 N 
ATOM     39  H   UNL     1     -45.189  33.340  24.572  1.00  0.00     0.082 H 
ATOM     40  C   UNL     1     -46.981  30.646  24.165  1.00  0.00     0.108 A 
ATOM     41  N   UNL     1     -49.105  30.956  25.234  1.00  0.00    -0.234 NA
ATOM     42  H   UNL     1     -44.998  31.060  23.558  1.00  0.00     0.166 HD
ATOM     43  C   UNL     1     -47.317  29.365  23.765  1.00  0.00     0.151 A 
ATOM     44  C   UNL     1     -49.340  29.705  24.814  1.00  0.00     0.118 A 
ATOM     45  N   UNL     1     -48.526  28.897  24.108  1.00  0.00    -0.218 NA
ATOM     46  H   UNL     1     -50.309  29.291  25.074  1.00  0.00     0.106 H 
BRANCH  43  47
ATOM     47  N   UNL     1     -46.485  28.545  23.017  1.00  0.00    -0.382 N 
ATOM     48  H   UNL     1     -46.545  28.822  22.041  1.00  0.00     0.158 HD
ATOM     49  H   UNL     1     -45.539  28.485  23.370  1.00  0.00     0.158 HD
ENDBRANCH  43  47
ENDBRANCH  31  35
ENDBRANCH   1  26
TORSDOF 7
ENDMDL
MODEL 3
REMARK VINA RESULT:      -9.9      1.799     10.289
REMARK SMILES CNc1ccc2ccc(OCc3cncc(-c4c[nH]c5c(N)ncnc45)c3)cc2n1
REMARK SMILES IDX 11 1 10 4 9 5 3 6 4 7 30 8 5 9 29 11 6 12 28 14 7 15 8 17
REMARK SMILES IDX 2 20 1 22 12 26 13 27 27 28 14 29 16 31 15 33 17 35 18 36
REMARK SMILES IDX 26 37 19 38 20 40 25 41 21 43 24 44 23 45 22 47
REMARK H PARENT 11 2 11 3 4 10 5 13 28 16 7 18 8 19 2 21 1 23 1 24 1 25 13 30
REMARK H PARENT 27 32 15 34 18 39 19 42 24 46 22 48 22 49
REMARK Flexibility Score: inf
ROOT
ATOM      1  C   UNL     1     -48.501  36.112  27.196  1.00  0.00     0.115 C 
ATOM      2  H   UNL     1     -48.273  36.217  26.129  1.00  0.00     0.076 H 
ATOM      3  H   UNL     1     -49.461  36.620  27.349  1.00  0.00     0.076 H 
ENDROOT
BRANCH   1   4
ATOM      4  O   UNL     1     -48.614  34.709  27.453  1.00  0.00    -0.489 OA
BRANCH   4   5
ATOM      5  C   UNL     1     -48.123  33.833  26.524  1.00  0.00     0.122 A 
ATOM      6  C   UNL     1     -48.112  29.812  23.975  1.00  0.00     0.126 A 
ATOM      7  C   UNL     1     -46.934  30.169  23.326  1.00  0.00    -0.019 A 
ATOM      8  N   UNL     1     -48.673  30.608  24.907  1.00  0.00    -0.231 NA
ATOM      9  C   UNL     1     -46.328  31.383  23.632  1.00  0.00    -0.049 A 
ATOM     10  H   UNL     1     -46.484  29.502  22.600  1.00  0.00     0.066 H 
ATOM     11  C   UNL     1     -48.093  31.782  25.212  1.00  0.00     0.076 A 
ATOM     12  C   UNL     1     -46.906  32.217  24.591  1.00  0.00     0.001 A 
ATOM     13  H   UNL     1     -45.407  31.661  23.129  1.00  0.00     0.063 H 
ATOM     14  C   UNL     1     -48.677  32.601  26.172  1.00  0.00     0.007 A 
ATOM     15  C   UNL     1     -46.335  33.449  24.943  1.00  0.00    -0.049 A 
ATOM     16  H   UNL     1     -49.580  32.226  26.644  1.00  0.00     0.069 H 
ATOM     17  C   UNL     1     -46.944  34.249  25.907  1.00  0.00    -0.019 A 
ATOM     18  H   UNL     1     -45.416  33.790  24.473  1.00  0.00     0.063 H 
ATOM     19  H   UNL     1     -46.497  35.202  26.179  1.00  0.00     0.066 H 
BRANCH   6  20
ATOM     20  N   UNL     1     -48.681  28.564  23.664  1.00  0.00    -0.373 N 
ATOM     21  H   UNL     1     -48.070  27.829  24.007  1.00  0.00     0.161 HD
BRANCH  20  22
ATOM     22  C   UNL     1     -49.001  28.391  22.255  1.00  0.00     0.005 C 
ATOM     23  H   UNL     1     -49.659  29.207  21.939  1.00  0.00     0.045 H 
ATOM     24  H   UNL     1     -49.532  27.449  22.074  1.00  0.00     0.045 H 
ATOM     25  H   UNL     1     -48.103  28.436  21.630  1.00  0.00     0.045 H 
ENDBRANCH  20  22
ENDBRANCH   6  20
ENDBRANCH   4   5
ENDBRANCH   1   4
BRANCH   1  26
ATOM     26  C   UNL     1     -47.379  36.755  27.963  1.00  0.00     0.008 A 
ATOM     27  C   UNL     1     -46.972  36.272  29.202  1.00  0.00     0.033 A 
ATOM     28  C   UNL     1     -46.668  37.838  27.428  1.00  0.00    -0.045 A 
ATOM     29  N   UNL     1     -45.952  36.793  29.919  1.00  0.00    -0.264 NA
ATOM     30  H   UNL     1     -47.471  35.426  29.669  1.00  0.00     0.084 H 
ATOM     31  C   UNL     1     -45.613  38.419  28.139  1.00  0.00     0.004 A 
ATOM     32  H   UNL     1     -46.947  38.229  26.452  1.00  0.00     0.063 H 
ATOM     33  C   UNL     1     -45.309  37.856  29.375  1.00  0.00     0.035 A 
ATOM     34  H   UNL     1     -44.517  38.256  30.002  1.00  0.00     0.085 H 
BRANCH  31  35
ATOM     35  C   UNL     1     -44.882  39.560  27.605  1.00  0.00     0.027 A 
ATOM     36  C   UNL     1     -45.170  40.158  26.389  1.00  0.00     0.011 A 
ATOM     37  C   UNL     1     -43.797  40.302  28.171  1.00  0.00     0.101 A 
ATOM     38  N   UNL     1     -44.303  41.206  26.205  1.00  0.00    -0.356 N 
ATOM     39  H   UNL     1     -45.925  39.946  25.643  1.00  0.00     0.082 H 
ATOM     40  C   UNL     1     -43.447  41.299  27.273  1.00  0.00     0.108 A 
ATOM     41  N   UNL     1     -43.156  40.139  29.351  1.00  0.00    -0.234 NA
ATOM     42  H   UNL     1     -44.305  41.839  25.417  1.00  0.00     0.166 HD
ATOM     43  C   UNL     1     -42.409  42.168  27.560  1.00  0.00     0.151 A 
ATOM     44  C   UNL     1     -42.174  41.030  29.549  1.00  0.00     0.118 A 
ATOM     45  N   UNL     1     -41.771  42.020  28.729  1.00  0.00    -0.218 NA
ATOM     46  H   UNL     1     -41.634  40.941  30.486  1.00  0.00     0.106 H 
BRANCH  43  47
ATOM     47  N   UNL     1     -41.980  43.171  26.702  1.00  0.00    -0.382 N 
ATOM     48  H   UNL     1     -42.793  43.665  26.345  1.00  0.00     0.158 HD
ATOM     49  H   UNL     1     -41.271  43.775  27.094  1.00  0.00     0.158 HD
ENDBRANCH  43  47
ENDBRANCH  31  35
ENDBRANCH   1  26
TORSDOF 7
ENDMDL
MODEL 4
REMARK VINA RESULT:      -9.8      1.786     10.191
REMARK SMILES CNc1ccc2ccc(OCc3cncc(-c4c[nH]c5c(N)ncnc45)c3)cc2n1
REMARK SMILES IDX 11 1 10 4 9 5 3 6 4 7 30 8 5 9 29 11 6 12 28 14 7 15 8 17
REMARK SMILES IDX 2 20 1 22 12 26 13 27 27 28 14 29 16 31 15 33 17 35 18 36
REMARK SMILES IDX 26 37 19 38 20 40 25 41 21 43 24 44 23 45 22 47
REMARK H PARENT 11 2 11 3 4 10 5 13 28 16 7 18 8 19 2 21 1 23 1 24 1 25 13 30
REMARK H PARENT 27 32 15 34 18 39 19 42 24 46 22 48 22 49
REMARK Flexibility Score: inf
ROOT
ATOM      1  C   UNL     1     -46.016  34.064  27.212  1.00  0.00     0.115 C 
ATOM      2  H   UNL     1     -45.364  33.751  28.036  1.00  0.00     0.076 H 
ATOM      3  H   UNL     1     -45.418  33.949  26.299  1.00  0.00     0.076 H 
ENDROOT
BRANCH   1   4
ATOM      4  O   UNL     1     -47.133  33.170  27.213  1.00  0.00    -0.489 OA
BRANCH   4   5
ATOM      5  C   UNL     1     -47.361  32.409  26.100  1.00  0.00     0.122 A 
ATOM      6  C   UNL     1     -46.514  30.896  21.667  1.00  0.00     0.126 A 
ATOM      7  C   UNL     1     -47.589  30.014  21.710  1.00  0.00    -0.019 A 
ATOM      8  N   UNL     1     -46.209  31.688  22.713  1.00  0.00    -0.231 NA
ATOM      9  C   UNL     1     -48.361  29.936  22.865  1.00  0.00    -0.049 A 
ATOM     10  H   UNL     1     -47.835  29.405  20.847  1.00  0.00     0.066 H 
ATOM     11  C   UNL     1     -46.951  31.622  23.833  1.00  0.00     0.076 A 
ATOM     12  C   UNL     1     -48.048  30.748  23.956  1.00  0.00     0.001 A 
ATOM     13  H   UNL     1     -49.203  29.252  22.898  1.00  0.00     0.063 H 
ATOM     14  C   UNL     1     -46.630  32.440  24.911  1.00  0.00     0.007 A 
ATOM     15  C   UNL     1     -48.796  30.715  25.143  1.00  0.00    -0.049 A 
ATOM     16  H   UNL     1     -45.791  33.115  24.774  1.00  0.00     0.069 H 
ATOM     17  C   UNL     1     -48.450  31.545  26.207  1.00  0.00    -0.019 A 
ATOM     18  H   UNL     1     -49.648  30.048  25.244  1.00  0.00     0.063 H 
ATOM     19  H   UNL     1     -49.033  31.519  27.124  1.00  0.00     0.066 H 
BRANCH   6  20
ATOM     20  N   UNL     1     -45.773  30.971  20.472  1.00  0.00    -0.373 N 
ATOM     21  H   UNL     1     -44.793  31.102  20.702  1.00  0.00     0.161 HD
BRANCH  20  22
ATOM     22  C   UNL     1     -46.253  31.977  19.538  1.00  0.00     0.005 C 
ATOM     23  H   UNL     1     -46.933  31.503  18.825  1.00  0.00     0.045 H 
ATOM     24  H   UNL     1     -45.430  32.421  18.966  1.00  0.00     0.045 H 
ATOM     25  H   UNL     1     -46.814  32.766  20.050  1.00  0.00     0.045 H 
ENDBRANCH  20  22
ENDBRANCH   6  20
ENDBRANCH   4   5
ENDBRANCH   1   4
BRANCH   1  26
ATOM     26  C   UNL     1     -46.412  35.492  27.466  1.00  0.00     0.008 A 
ATOM     27  C   UNL     1     -47.735  35.910  27.366  1.00  0.00     0.033 A 
ATOM     28  C   UNL     1     -45.463  36.444  27.865  1.00  0.00    -0.045 A 
ATOM     29  N   UNL     1     -48.150  37.172  27.612  1.00  0.00    -0.264 NA
ATOM     30  H   UNL     1     -48.523  35.220  27.075  1.00  0.00     0.084 H 
ATOM     31  C   UNL     1     -45.844  37.765  28.119  1.00  0.00     0.004 A 
ATOM     32  H   UNL     1     -44.423  36.146  27.972  1.00  0.00     0.063 H 
ATOM     33  C   UNL     1     -47.195  38.066  27.970  1.00  0.00     0.035 A 
ATOM     34  H   UNL     1     -47.574  39.071  28.129  1.00  0.00     0.085 H 
BRANCH  31  35
ATOM     35  C   UNL     1     -44.864  38.770  28.510  1.00  0.00     0.027 A 
ATOM     36  C   UNL     1     -44.192  38.759  29.721  1.00  0.00     0.011 A 
ATOM     37  C   UNL     1     -44.373  39.904  27.788  1.00  0.00     0.101 A 
ATOM     38  N   UNL     1     -43.340  39.834  29.754  1.00  0.00    -0.356 N 
ATOM     39  H   UNL     1     -44.228  38.074  30.559  1.00  0.00     0.082 H 
ATOM     40  C   UNL     1     -43.449  40.555  28.592  1.00  0.00     0.108 A 
ATOM     41  N   UNL     1     -44.691  40.350  26.551  1.00  0.00    -0.234 NA
ATOM     42  H   UNL     1     -42.702  40.056  30.506  1.00  0.00     0.166 HD
ATOM     43  C   UNL     1     -42.818  41.703  28.146  1.00  0.00     0.151 A 
ATOM     44  C   UNL     1     -44.025  41.459  26.200  1.00  0.00     0.118 A 
ATOM     45  N   UNL     1     -43.121  42.150  26.919  1.00  0.00    -0.218 NA
ATOM     46  H   UNL     1     -44.244  41.851  25.211  1.00  0.00     0.106 H 
BRANCH  43  47
ATOM     47  N   UNL     1     -41.905  42.426  28.900  1.00  0.00    -0.382 N 
ATOM     48  H   UNL     1     -41.052  41.880  28.993  1.00  0.00     0.158 HD
ATOM     49  H   UNL     1     -41.755  43.370  28.573  1.00  0.00     0.158 HD
ENDBRANCH  43  47
ENDBRANCH  31  35
ENDBRANCH   1  26
TORSDOF 7
ENDMDL
MODEL 5
REMARK VINA RESULT:      -9.7      1.957      3.096
REMARK SMILES CNc1ccc2ccc(OCc3cncc(-c4c[nH]c5c(N)ncnc45)c3)cc2n1
REMARK SMILES IDX 11 1 10 4 9 5 3 6 4 7 30 8 5 9 29 11 6 12 28 14 7 15 8 17
REMARK SMILES IDX 2 20 1 22 12 26 13 27 27 28 14 29 16 31 15 33 17 35 18 36
REMARK SMILES IDX 26 37 19 38 20 40 25 41 21 43 24 44 23 45 22 47
REMARK H PARENT 11 2 11 3 4 10 5 13 28 16 7 18 8 19 2 21 1 23 1 24 1 25 13 30
REMARK H PARENT 27 32 15 34 18 39 19 42 24 46 22 48 22 49
REMARK Flexibility Score: inf
ROOT
ATOM      1  C   UNL     1     -46.919  38.146  28.063  1.00  0.00     0.115 C 
ATOM      2  H   UNL     1     -45.881  37.809  28.164  1.00  0.00     0.076 H 
ATOM      3  H   UNL     1     -47.208  38.526  29.051  1.00  0.00     0.076 H 
ENDROOT
BRANCH   1   4
ATOM      4  O   UNL     1     -46.914  39.195  27.089  1.00  0.00    -0.489 OA
BRANCH   4   5
ATOM      5  C   UNL     1     -45.794  39.971  26.970  1.00  0.00     0.122 A 
ATOM      6  C   UNL     1     -43.030  43.262  24.924  1.00  0.00     0.126 A 
ATOM      7  C   UNL     1     -42.034  43.091  25.880  1.00  0.00    -0.019 A 
ATOM      8  N   UNL     1     -44.170  42.544  24.956  1.00  0.00    -0.231 NA
ATOM      9  C   UNL     1     -42.223  42.168  26.903  1.00  0.00    -0.049 A 
ATOM     10  H   UNL     1     -41.113  43.659  25.820  1.00  0.00     0.066 H 
ATOM     11  C   UNL     1     -44.361  41.647  25.940  1.00  0.00     0.076 A 
ATOM     12  C   UNL     1     -43.404  41.424  26.949  1.00  0.00     0.001 A 
ATOM     13  H   UNL     1     -41.445  42.030  27.648  1.00  0.00     0.063 H 
ATOM     14  C   UNL     1     -45.540  40.910  25.969  1.00  0.00     0.007 A 
ATOM     15  C   UNL     1     -43.645  40.476  27.954  1.00  0.00    -0.049 A 
ATOM     16  H   UNL     1     -46.246  41.093  25.166  1.00  0.00     0.069 H 
ATOM     17  C   UNL     1     -44.836  39.754  27.959  1.00  0.00    -0.019 A 
ATOM     18  H   UNL     1     -42.909  40.293  28.733  1.00  0.00     0.063 H 
ATOM     19  H   UNL     1     -45.017  39.018  28.738  1.00  0.00     0.066 H 
BRANCH   6  20
ATOM     20  N   UNL     1     -42.793  44.182  23.886  1.00  0.00    -0.373 N 
ATOM     21  H   UNL     1     -43.685  44.511  23.528  1.00  0.00     0.161 HD
BRANCH  20  22
ATOM     22  C   UNL     1     -41.935  43.675  22.826  1.00  0.00     0.005 C 
ATOM     23  H   UNL     1     -41.276  44.480  22.489  1.00  0.00     0.045 H 
ATOM     24  H   UNL     1     -42.519  43.341  21.960  1.00  0.00     0.045 H 
ATOM     25  H   UNL     1     -41.299  42.858  23.180  1.00  0.00     0.045 H 
ENDBRANCH  20  22
ENDBRANCH   6  20
ENDBRANCH   4   5
ENDBRANCH   1   4
BRANCH   1  26
ATOM     26  C   UNL     1     -47.740  36.960  27.638  1.00  0.00     0.008 A 
ATOM     27  C   UNL     1     -49.113  36.910  27.850  1.00  0.00     0.033 A 
ATOM     28  C   UNL     1     -47.151  35.882  26.963  1.00  0.00    -0.045 A 
ATOM     29  N   UNL     1     -49.902  35.884  27.463  1.00  0.00    -0.264 NA
ATOM     30  H   UNL     1     -49.634  37.719  28.356  1.00  0.00     0.084 H 
ATOM     31  C   UNL     1     -47.925  34.791  26.553  1.00  0.00     0.004 A 
ATOM     32  H   UNL     1     -46.083  35.897  26.762  1.00  0.00     0.063 H 
ATOM     33  C   UNL     1     -49.286  34.850  26.836  1.00  0.00     0.035 A 
ATOM     34  H   UNL     1     -49.957  34.038  26.571  1.00  0.00     0.085 H 
BRANCH  31  35
ATOM     35  C   UNL     1     -47.323  33.653  25.873  1.00  0.00     0.027 A 
ATOM     36  C   UNL     1     -45.956  33.460  25.757  1.00  0.00     0.011 A 
ATOM     37  C   UNL     1     -47.941  32.531  25.235  1.00  0.00     0.101 A 
ATOM     38  N   UNL     1     -45.738  32.290  25.075  1.00  0.00    -0.356 N 
ATOM     39  H   UNL     1     -45.114  34.040  26.115  1.00  0.00     0.082 H 
ATOM     40  C   UNL     1     -46.937  31.717  24.732  1.00  0.00     0.108 A 
ATOM     41  N   UNL     1     -49.252  32.230  25.088  1.00  0.00    -0.234 NA
ATOM     42  H   UNL     1     -44.834  31.885  24.874  1.00  0.00     0.166 HD
ATOM     43  C   UNL     1     -47.252  30.556  24.049  1.00  0.00     0.151 A 
ATOM     44  C   UNL     1     -49.462  31.084  24.425  1.00  0.00     0.118 A 
ATOM     45  N   UNL     1     -48.547  30.244  23.904  1.00  0.00    -0.218 NA
ATOM     46  H   UNL     1     -50.500  30.799  24.288  1.00  0.00     0.106 H 
BRANCH  43  47
ATOM     47  N   UNL     1     -46.307  29.706  23.493  1.00  0.00    -0.382 N 
ATOM     48  H   UNL     1     -45.381  30.022  23.767  1.00  0.00     0.158 HD
ATOM     49  H   UNL     1     -46.476  28.725  23.673  1.00  0.00     0.158 HD
ENDBRANCH  43  47
ENDBRANCH  31  35
ENDBRANCH   1  26
TORSDOF 7
ENDMDL
MODEL 6
REMARK VINA RESULT:      -9.4      2.273     10.466
REMARK SMILES CNc1ccc2ccc(OCc3cncc(-c4c[nH]c5c(N)ncnc45)c3)cc2n1
REMARK SMILES IDX 11 1 10 4 9 5 3 6 4 7 30 8 5 9 29 11 6 12 28 14 7 15 8 17
REMARK SMILES IDX 2 20 1 22 12 26 13 27 27 28 14 29 16 31 15 33 17 35 18 36
REMARK SMILES IDX 26 37 19 38 20 40 25 41 21 43 24 44 23 45 22 47
REMARK H PARENT 11 2 11 3 4 10 5 13 28 16 7 18 8 19 2 21 1 23 1 24 1 25 13 30
REMARK H PARENT 27 32 15 34 18 39 19 42 24 46 22 48 22 49
REMARK Flexibility Score: inf
ROOT
ATOM      1  C   UNL     1     -44.316  38.709  29.319  1.00  0.00     0.115 C 
ATOM      2  H   UNL     1     -44.496  38.571  30.391  1.00  0.00     0.076 H 
ATOM      3  H   UNL     1     -43.852  37.777  28.972  1.00  0.00     0.076 H 
ENDROOT
BRANCH   1   4
ATOM      4  O   UNL     1     -45.597  38.904  28.712  1.00  0.00    -0.489 OA
BRANCH   4   5
ATOM      5  C   UNL     1     -46.246  37.817  28.194  1.00  0.00     0.122 A 
ATOM      6  C   UNL     1     -46.511  33.542  26.117  1.00  0.00     0.126 A 
ATOM      7  C   UNL     1     -47.902  33.567  26.131  1.00  0.00    -0.019 A 
ATOM      8  N   UNL     1     -45.782  34.565  26.604  1.00  0.00    -0.231 NA
ATOM      9  C   UNL     1     -48.559  34.667  26.674  1.00  0.00    -0.049 A 
ATOM     10  H   UNL     1     -48.470  32.746  25.709  1.00  0.00     0.066 H 
ATOM     11  C   UNL     1     -46.408  35.634  27.128  1.00  0.00     0.076 A 
ATOM     12  C   UNL     1     -47.812  35.728  27.188  1.00  0.00     0.001 A 
ATOM     13  H   UNL     1     -49.644  34.690  26.682  1.00  0.00     0.063 H 
ATOM     14  C   UNL     1     -45.651  36.686  27.632  1.00  0.00     0.007 A 
ATOM     15  C   UNL     1     -48.421  36.864  27.741  1.00  0.00    -0.049 A 
ATOM     16  H   UNL     1     -44.573  36.589  27.553  1.00  0.00     0.069 H 
ATOM     17  C   UNL     1     -47.637  37.902  28.240  1.00  0.00    -0.019 A 
ATOM     18  H   UNL     1     -49.504  36.948  27.785  1.00  0.00     0.063 H 
ATOM     19  H   UNL     1     -48.113  38.782  28.665  1.00  0.00     0.066 H 
BRANCH   6  20
ATOM     20  N   UNL     1     -45.880  32.428  25.533  1.00  0.00    -0.373 N 
ATOM     21  H   UNL     1     -44.880  32.602  25.491  1.00  0.00     0.161 HD
BRANCH  20  22
ATOM     22  C   UNL     1     -46.421  32.050  24.237  1.00  0.00     0.005 C 
ATOM     23  H   UNL     1     -47.007  32.885  23.840  1.00  0.00     0.045 H 
ATOM     24  H   UNL     1     -47.089  31.184  24.315  1.00  0.00     0.045 H 
ATOM     25  H   UNL     1     -45.625  31.839  23.515  1.00  0.00     0.045 H 
ENDBRANCH  20  22
ENDBRANCH   6  20
ENDBRANCH   4   5
ENDBRANCH   1   4
BRANCH   1  26
ATOM     26  C   UNL     1     -43.410  39.898  29.162  1.00  0.00     0.008 A 
ATOM     27  C   UNL     1     -42.357  40.134  30.040  1.00  0.00     0.033 A 
ATOM     28  C   UNL     1     -43.566  40.787  28.089  1.00  0.00    -0.045 A 
ATOM     29  N   UNL     1     -41.496  41.169  29.929  1.00  0.00    -0.264 NA
ATOM     30  H   UNL     1     -42.171  39.476  30.886  1.00  0.00     0.084 H 
ATOM     31  C   UNL     1     -42.707  41.880  27.939  1.00  0.00     0.004 A 
ATOM     32  H   UNL     1     -44.367  40.622  27.373  1.00  0.00     0.063 H 
ATOM     33  C   UNL     1     -41.700  42.018  28.891  1.00  0.00     0.035 A 
ATOM     34  H   UNL     1     -41.001  42.849  28.861  1.00  0.00     0.085 H 
BRANCH  31  35
ATOM     35  C   UNL     1     -42.873  42.825  26.844  1.00  0.00     0.027 A 
ATOM     36  C   UNL     1     -42.024  42.894  25.751  1.00  0.00     0.011 A 
ATOM     37  C   UNL     1     -43.886  43.813  26.628  1.00  0.00     0.101 A 
ATOM     38  N   UNL     1     -42.478  43.878  24.910  1.00  0.00    -0.356 N 
ATOM     39  H   UNL     1     -41.146  42.319  25.484  1.00  0.00     0.082 H 
ATOM     40  C   UNL     1     -43.603  44.463  25.436  1.00  0.00     0.108 A 
ATOM     41  N   UNL     1     -44.958  44.138  27.387  1.00  0.00    -0.234 NA
ATOM     42  H   UNL     1     -42.069  44.126  24.019  1.00  0.00     0.166 HD
ATOM     43  C   UNL     1     -44.419  45.484  24.982  1.00  0.00     0.151 A 
ATOM     44  C   UNL     1     -45.696  45.127  26.866  1.00  0.00     0.118 A 
ATOM     45  N   UNL     1     -45.488  45.809  25.724  1.00  0.00    -0.218 NA
ATOM     46  H   UNL     1     -46.571  45.419  27.439  1.00  0.00     0.106 H 
BRANCH  43  47
ATOM     47  N   UNL     1     -44.187  46.200  23.817  1.00  0.00    -0.382 N 
ATOM     48  H   UNL     1     -43.218  46.504  23.807  1.00  0.00     0.158 HD
ATOM     49  H   UNL     1     -44.477  45.722  22.974  1.00  0.00     0.158 HD
ENDBRANCH  43  47
ENDBRANCH  31  35
ENDBRANCH   1  26
TORSDOF 7
ENDMDL
MODEL 7
REMARK VINA RESULT:      -9.4      1.649     10.399
REMARK SMILES CNc1ccc2ccc(OCc3cncc(-c4c[nH]c5c(N)ncnc45)c3)cc2n1
REMARK SMILES IDX 11 1 10 4 9 5 3 6 4 7 30 8 5 9 29 11 6 12 28 14 7 15 8 17
REMARK SMILES IDX 2 20 1 22 12 26 13 27 27 28 14 29 16 31 15 33 17 35 18 36
REMARK SMILES IDX 26 37 19 38 20 40 25 41 21 43 24 44 23 45 22 47
REMARK H PARENT 11 2 11 3 4 10 5 13 28 16 7 18 8 19 2 21 1 23 1 24 1 25 13 30
REMARK H PARENT 27 32 15 34 18 39 19 42 24 46 22 48 22 49
REMARK Flexibility Score: inf
ROOT
ATOM      1  C   UNL     1     -46.423  36.761  27.356  1.00  0.00     0.115 C 
ATOM      2  H   UNL     1     -46.505  37.217  26.362  1.00  0.00     0.076 H 
ATOM      3  H   UNL     1     -47.448  36.699  27.742  1.00  0.00     0.076 H 
ENDROOT
BRANCH   1   4
ATOM      4  O   UNL     1     -45.865  35.457  27.161  1.00  0.00    -0.489 OA
BRANCH   4   5
ATOM      5  C   UNL     1     -46.612  34.519  26.504  1.00  0.00     0.122 A 
ATOM      6  C   UNL     1     -47.337  31.024  23.353  1.00  0.00     0.126 A 
ATOM      7  C   UNL     1     -48.683  30.931  23.693  1.00  0.00    -0.019 A 
ATOM      8  N   UNL     1     -46.520  31.918  23.945  1.00  0.00    -0.231 NA
ATOM      9  C   UNL     1     -49.197  31.768  24.678  1.00  0.00    -0.049 A 
ATOM     10  H   UNL     1     -49.330  30.224  23.186  1.00  0.00     0.066 H 
ATOM     11  C   UNL     1     -47.009  32.734  24.896  1.00  0.00     0.076 A 
ATOM     12  C   UNL     1     -48.357  32.692  25.302  1.00  0.00     0.001 A 
ATOM     13  H   UNL     1     -50.248  31.699  24.942  1.00  0.00     0.063 H 
ATOM     14  C   UNL     1     -46.161  33.652  25.506  1.00  0.00     0.007 A 
ATOM     15  C   UNL     1     -48.823  33.565  26.297  1.00  0.00    -0.049 A 
ATOM     16  H   UNL     1     -45.134  33.670  25.155  1.00  0.00     0.069 H 
ATOM     17  C   UNL     1     -47.950  34.473  26.891  1.00  0.00    -0.019 A 
ATOM     18  H   UNL     1     -49.863  33.543  26.612  1.00  0.00     0.063 H 
ATOM     19  H   UNL     1     -48.316  35.150  27.659  1.00  0.00     0.066 H 
BRANCH   6  20
ATOM     20  N   UNL     1     -46.858  30.183  22.332  1.00  0.00    -0.373 N 
ATOM     21  H   UNL     1     -46.368  29.400  22.754  1.00  0.00     0.161 HD
BRANCH  20  22
ATOM     22  C   UNL     1     -46.043  30.862  21.337  1.00  0.00     0.005 C 
ATOM     23  H   UNL     1     -45.718  31.825  21.742  1.00  0.00     0.045 H 
ATOM     24  H   UNL     1     -46.609  31.062  20.420  1.00  0.00     0.045 H 
ATOM     25  H   UNL     1     -45.141  30.289  21.097  1.00  0.00     0.045 H 
ENDBRANCH  20  22
ENDBRANCH   6  20
ENDBRANCH   4   5
ENDBRANCH   1   4
BRANCH   1  26
ATOM     26  C   UNL     1     -45.544  37.651  28.190  1.00  0.00     0.008 A 
ATOM     27  C   UNL     1     -45.180  37.308  29.487  1.00  0.00     0.033 A 
ATOM     28  C   UNL     1     -45.018  38.841  27.666  1.00  0.00    -0.045 A 
ATOM     29  N   UNL     1     -44.370  38.055  30.269  1.00  0.00    -0.264 NA
ATOM     30  H   UNL     1     -45.541  36.392  29.950  1.00  0.00     0.084 H 
ATOM     31  C   UNL     1     -44.186  39.654  28.442  1.00  0.00     0.004 A 
ATOM     32  H   UNL     1     -45.267  39.130  26.648  1.00  0.00     0.063 H 
ATOM     33  C   UNL     1     -43.905  39.210  29.731  1.00  0.00     0.035 A 
ATOM     34  H   UNL     1     -43.284  39.789  30.408  1.00  0.00     0.085 H 
BRANCH  31  35
ATOM     35  C   UNL     1     -43.653  40.904  27.918  1.00  0.00     0.027 A 
ATOM     36  C   UNL     1     -42.371  41.361  28.176  1.00  0.00     0.011 A 
ATOM     37  C   UNL     1     -44.260  41.873  27.058  1.00  0.00     0.101 A 
ATOM     38  N   UNL     1     -42.196  42.554  27.521  1.00  0.00    -0.356 N 
ATOM     39  H   UNL     1     -41.557  40.938  28.751  1.00  0.00     0.082 H 
ATOM     40  C   UNL     1     -43.343  42.892  26.848  1.00  0.00     0.108 A 
ATOM     41  N   UNL     1     -45.494  41.890  26.504  1.00  0.00    -0.234 NA
ATOM     42  H   UNL     1     -41.344  43.098  27.506  1.00  0.00     0.166 HD
ATOM     43  C   UNL     1     -43.671  43.978  26.056  1.00  0.00     0.151 A 
ATOM     44  C   UNL     1     -45.720  42.972  25.746  1.00  0.00     0.118 A 
ATOM     45  N   UNL     1     -44.889  44.002  25.496  1.00  0.00    -0.218 NA
ATOM     46  H   UNL     1     -46.697  43.026  25.275  1.00  0.00     0.106 H 
BRANCH  43  47
ATOM     47  N   UNL     1     -42.821  45.049  25.821  1.00  0.00    -0.382 N 
ATOM     48  H   UNL     1     -42.744  45.192  24.818  1.00  0.00     0.158 HD
ATOM     49  H   UNL     1     -43.058  45.885  26.339  1.00  0.00     0.158 HD
ENDBRANCH  43  47
ENDBRANCH  31  35
ENDBRANCH   1  26
TORSDOF 7
ENDMDL
