MODEL 1
REMARK VINA RESULT:      -9.9      0.000      0.000
REMARK SMILES CCc1cc(N(C)C2CC2)c2ccc(OC[C@H]3O[C@@H](n4ccc5c(N)ncnc54)C[C@@H]3O)cc2n1
REMARK SMILES IDX 16 1 15 4 14 5 3 6 4 7 35 8 5 9 34 11 11 12 33 13 12 14
REMARK SMILES IDX 13 16 2 19 1 22 6 26 7 27 8 31 9 32 10 33 17 39 18 40 31 41
REMARK SMILES IDX 19 43 30 44 32 49 20 51 21 52 29 53 22 54 23 56 28 57 24 59
REMARK SMILES IDX 27 60 26 61 25 63
REMARK H PARENT 16 2 16 3 4 10 33 15 12 17 13 18 2 20 2 21 1 23 1 24 1 25 7 28
REMARK H PARENT 7 29 7 30 8 34 9 35 9 36 10 37 10 38 17 42 31 45 19 46 30 47
REMARK H PARENT 30 48 32 50 21 55 22 58 27 62 25 64 25 65
REMARK Flexibility Score: inf
ROOT
ATOM      1  C   UNL     1     -45.985  35.377  27.486  1.00  0.00     0.117 C 
ATOM      2  H   UNL     1     -45.111  35.717  26.916  1.00  0.00     0.073 H 
ATOM      3  H   UNL     1     -45.664  34.419  27.911  1.00  0.00     0.073 H 
ENDROOT
BRANCH   1   4
ATOM      4  O   UNL     1     -47.047  35.223  26.546  1.00  0.00    -0.491 OA
BRANCH   4   5
ATOM      5  C   UNL     1     -47.237  34.002  25.964  1.00  0.00     0.121 A 
ATOM      6  C   UNL     1     -46.167  30.477  22.965  1.00  0.00     0.043 A 
ATOM      7  C   UNL     1     -47.240  29.695  23.366  1.00  0.00    -0.016 A 
ATOM      8  N   UNL     1     -45.903  31.685  23.506  1.00  0.00    -0.253 NA
ATOM      9  C   UNL     1     -48.099  30.160  24.369  1.00  0.00     0.048 A 
ATOM     10  H   UNL     1     -47.376  28.716  22.925  1.00  0.00     0.066 H 
ATOM     11  C   UNL     1     -46.722  32.158  24.457  1.00  0.00     0.076 A 
ATOM     12  C   UNL     1     -47.845  31.444  24.928  1.00  0.00     0.024 A 
ATOM     13  C   UNL     1     -46.438  33.413  24.985  1.00  0.00     0.007 A 
ATOM     14  C   UNL     1     -48.663  32.057  25.904  1.00  0.00    -0.047 A 
ATOM     15  H   UNL     1     -45.559  33.916  24.594  1.00  0.00     0.069 H 
ATOM     16  C   UNL     1     -48.358  33.316  26.416  1.00  0.00    -0.019 A 
ATOM     17  H   UNL     1     -49.554  31.552  26.265  1.00  0.00     0.063 H 
ATOM     18  H   UNL     1     -48.999  33.762  27.172  1.00  0.00     0.066 H 
BRANCH   6  19
ATOM     19  C   UNL     1     -45.206  29.977  21.918  1.00  0.00    -0.013 C 
ATOM     20  H   UNL     1     -44.464  30.757  21.709  1.00  0.00     0.033 H 
ATOM     21  H   UNL     1     -45.740  29.794  20.978  1.00  0.00     0.033 H 
BRANCH  19  22
ATOM     22  C   UNL     1     -44.494  28.711  22.371  1.00  0.00    -0.060 C 
ATOM     23  H   UNL     1     -44.529  27.954  21.582  1.00  0.00     0.023 H 
ATOM     24  H   UNL     1     -43.443  28.911  22.605  1.00  0.00     0.023 H 
ATOM     25  H   UNL     1     -44.963  28.291  23.267  1.00  0.00     0.023 H 
ENDBRANCH  19  22
ENDBRANCH   6  19
BRANCH   9  26
ATOM     26  N   UNL     1     -49.173  29.358  24.830  1.00  0.00    -0.371 N 
BRANCH  26  27
ATOM     27  C   UNL     1     -50.503  29.624  24.289  1.00  0.00     0.007 C 
ATOM     28  H   UNL     1     -51.243  29.759  25.085  1.00  0.00     0.046 H 
ATOM     29  H   UNL     1     -50.832  28.813  23.628  1.00  0.00     0.046 H 
ATOM     30  H   UNL     1     -50.486  30.540  23.688  1.00  0.00     0.046 H 
ENDBRANCH  26  27
BRANCH  26  31
ATOM     31  C   UNL     1     -48.917  27.964  25.254  1.00  0.00     0.029 C 
ATOM     32  C   UNL     1     -48.670  27.623  26.702  1.00  0.00    -0.031 C 
ATOM     33  C   UNL     1     -49.904  27.120  26.019  1.00  0.00    -0.031 C 
ATOM     34  H   UNL     1     -48.295  27.444  24.528  1.00  0.00     0.053 H 
ATOM     35  H   UNL     1     -47.887  26.909  26.924  1.00  0.00     0.029 H 
ATOM     36  H   UNL     1     -48.796  28.396  27.449  1.00  0.00     0.029 H 
ATOM     37  H   UNL     1     -49.961  26.068  25.768  1.00  0.00     0.029 H 
ATOM     38  H   UNL     1     -50.853  27.550  26.317  1.00  0.00     0.029 H 
ENDBRANCH  26  31
ENDBRANCH   9  26
ENDBRANCH   4   5
ENDBRANCH   1   4
BRANCH   1  39
ATOM     39  C   UNL     1     -46.293  36.412  28.574  1.00  0.00     0.120 C 
ATOM     40  O   UNL     1     -45.119  37.210  28.812  1.00  0.00    -0.348 OA
ATOM     41  C   UNL     1     -47.420  37.371  28.195  1.00  0.00     0.088 C 
ATOM     42  H   UNL     1     -46.545  35.901  29.511  1.00  0.00     0.067 H 
ATOM     43  C   UNL     1     -45.540  38.556  29.079  1.00  0.00     0.138 C 
ATOM     44  C   UNL     1     -47.052  38.637  28.934  1.00  0.00     0.022 C 
ATOM     45  H   UNL     1     -47.464  37.534  27.116  1.00  0.00     0.063 H 
ATOM     46  H   UNL     1     -45.267  38.781  30.117  1.00  0.00     0.085 H 
ATOM     47  H   UNL     1     -47.518  38.641  29.929  1.00  0.00     0.034 H 
ATOM     48  H   UNL     1     -47.406  39.540  28.426  1.00  0.00     0.034 H 
BRANCH  41  49
ATOM     49  O   UNL     1     -48.692  36.908  28.628  1.00  0.00    -0.390 OA
ATOM     50  H   UNL     1     -48.593  36.598  29.545  1.00  0.00     0.211 HD
ENDBRANCH  41  49
BRANCH  43  51
ATOM     51  N   UNL     1     -44.773  39.467  28.240  1.00  0.00    -0.306 N 
ATOM     52  C   UNL     1     -45.113  39.787  26.942  1.00  0.00     0.009 A 
ATOM     53  C   UNL     1     -43.623  40.135  28.585  1.00  0.00     0.147 A 
ATOM     54  C   UNL     1     -44.171  40.668  26.457  1.00  0.00    -0.031 A 
ATOM     55  H   UNL     1     -45.995  39.368  26.473  1.00  0.00     0.082 H 
ATOM     56  C   UNL     1     -43.226  40.899  27.493  1.00  0.00     0.061 A 
ATOM     57  N   UNL     1     -42.987  40.062  29.767  1.00  0.00    -0.218 NA
ATOM     58  H   UNL     1     -44.162  41.100  25.466  1.00  0.00     0.065 H 
ATOM     59  C   UNL     1     -42.063  41.668  27.647  1.00  0.00     0.136 A 
ATOM     60  C   UNL     1     -41.894  40.842  29.797  1.00  0.00     0.120 A 
ATOM     61  N   UNL     1     -41.405  41.629  28.820  1.00  0.00    -0.219 NA
ATOM     62  H   UNL     1     -41.332  40.839  30.726  1.00  0.00     0.106 H 
BRANCH  59  63
ATOM     63  N   UNL     1     -41.549  42.491  26.655  1.00  0.00    -0.383 N 
ATOM     64  H   UNL     1     -40.540  42.563  26.652  1.00  0.00     0.158 HD
ATOM     65  H   UNL     1     -41.985  42.283  25.764  1.00  0.00     0.158 HD
ENDBRANCH  59  63
ENDBRANCH  43  51
ENDBRANCH   1  39
TORSDOF 11
ENDMDL
MODEL 2
REMARK VINA RESULT:      -9.3      2.921     11.117
REMARK SMILES CCc1cc(N(C)C2CC2)c2ccc(OC[C@H]3O[C@@H](n4ccc5c(N)ncnc54)C[C@@H]3O)cc2n1
REMARK SMILES IDX 16 1 15 4 14 5 3 6 4 7 35 8 5 9 34 11 11 12 33 13 12 14
REMARK SMILES IDX 13 16 2 19 1 22 6 26 7 27 8 31 9 32 10 33 17 39 18 40 31 41
REMARK SMILES IDX 19 43 30 44 32 49 20 51 21 52 29 53 22 54 23 56 28 57 24 59
REMARK SMILES IDX 27 60 26 61 25 63
REMARK H PARENT 16 2 16 3 4 10 33 15 12 17 13 18 2 20 2 21 1 23 1 24 1 25 7 28
REMARK H PARENT 7 29 7 30 8 34 9 35 9 36 10 37 10 38 17 42 31 45 19 46 30 47
REMARK H PARENT 30 48 32 50 21 55 22 58 27 62 25 64 25 65
REMARK Flexibility Score: inf
ROOT
ATOM      1  C   UNL     1     -48.428  31.818  24.843  1.00  0.00     0.117 C 
ATOM      2  H   UNL     1     -49.162  32.601  24.612  1.00  0.00     0.073 H 
ATOM      3  H   UNL     1     -48.981  31.122  25.485  1.00  0.00     0.073 H 
ENDROOT
BRANCH   1   4
ATOM      4  O   UNL     1     -47.358  32.458  25.536  1.00  0.00    -0.491 OA
BRANCH   4   5
ATOM      5  C   UNL     1     -47.558  33.711  26.042  1.00  0.00     0.121 A 
ATOM      6  C   UNL     1     -50.143  37.159  28.040  1.00  0.00     0.043 A 
ATOM      7  C   UNL     1     -49.090  38.061  28.047  1.00  0.00    -0.016 A 
ATOM      8  N   UNL     1     -50.019  35.897  27.575  1.00  0.00    -0.253 NA
ATOM      9  C   UNL     1     -47.840  37.671  27.553  1.00  0.00     0.048 A 
ATOM     10  H   UNL     1     -49.240  39.045  28.473  1.00  0.00     0.066 H 
ATOM     11  C   UNL     1     -48.834  35.507  27.081  1.00  0.00     0.076 A 
ATOM     12  C   UNL     1     -47.705  36.352  27.036  1.00  0.00     0.024 A 
ATOM     13  C   UNL     1     -48.738  34.208  26.591  1.00  0.00     0.007 A 
ATOM     14  C   UNL     1     -46.518  35.848  26.457  1.00  0.00    -0.047 A 
ATOM     15  H   UNL     1     -49.633  33.598  26.657  1.00  0.00     0.069 H 
ATOM     16  C   UNL     1     -46.448  34.543  25.971  1.00  0.00    -0.019 A 
ATOM     17  H   UNL     1     -45.639  36.480  26.373  1.00  0.00     0.063 H 
ATOM     18  H   UNL     1     -45.521  34.179  25.537  1.00  0.00     0.066 H 
BRANCH   6  19
ATOM     19  C   UNL     1     -51.485  37.544  28.606  1.00  0.00    -0.013 C 
ATOM     20  H   UNL     1     -51.357  37.867  29.647  1.00  0.00     0.033 H 
ATOM     21  H   UNL     1     -52.145  36.670  28.630  1.00  0.00     0.033 H 
BRANCH  19  22
ATOM     22  C   UNL     1     -52.129  38.666  27.806  1.00  0.00    -0.060 C 
ATOM     23  H   UNL     1     -51.406  39.094  27.103  1.00  0.00     0.023 H 
ATOM     24  H   UNL     1     -52.987  38.301  27.232  1.00  0.00     0.023 H 
ATOM     25  H   UNL     1     -52.481  39.470  28.461  1.00  0.00     0.023 H 
ENDBRANCH  19  22
ENDBRANCH   6  19
BRANCH   9  26
ATOM     26  N   UNL     1     -46.737  38.560  27.595  1.00  0.00    -0.371 N 
BRANCH  26  27
ATOM     27  C   UNL     1     -46.757  39.715  26.702  1.00  0.00     0.007 C 
ATOM     28  H   UNL     1     -46.019  39.617  25.900  1.00  0.00     0.046 H 
ATOM     29  H   UNL     1     -46.569  40.645  27.251  1.00  0.00     0.046 H 
ATOM     30  H   UNL     1     -47.745  39.811  26.238  1.00  0.00     0.046 H 
ENDBRANCH  26  27
BRANCH  26  31
ATOM     31  C   UNL     1     -45.985  38.735  28.857  1.00  0.00     0.029 C 
ATOM     32  C   UNL     1     -44.988  37.703  29.321  1.00  0.00    -0.031 C 
ATOM     33  C   UNL     1     -44.517  39.068  28.926  1.00  0.00    -0.031 C 
ATOM     34  H   UNL     1     -46.617  39.170  29.629  1.00  0.00     0.053 H 
ATOM     35  H   UNL     1     -44.980  37.448  30.374  1.00  0.00     0.029 H 
ATOM     36  H   UNL     1     -44.742  36.882  28.660  1.00  0.00     0.029 H 
ATOM     37  H   UNL     1     -44.195  39.747  29.706  1.00  0.00     0.029 H 
ATOM     38  H   UNL     1     -43.948  39.156  28.008  1.00  0.00     0.029 H 
ENDBRANCH  26  31
ENDBRANCH   9  26
ENDBRANCH   4   5
ENDBRANCH   1   4
BRANCH   1  39
ATOM     39  C   UNL     1     -47.986  31.160  23.532  1.00  0.00     0.120 C 
ATOM     40  O   UNL     1     -46.842  30.324  23.786  1.00  0.00    -0.348 OA
ATOM     41  C   UNL     1     -49.062  30.273  22.909  1.00  0.00     0.088 C 
ATOM     42  H   UNL     1     -47.684  31.930  22.813  1.00  0.00     0.067 H 
ATOM     43  C   UNL     1     -46.946  29.159  22.954  1.00  0.00     0.138 C 
ATOM     44  C   UNL     1     -48.256  29.219  22.184  1.00  0.00     0.022 C 
ATOM     45  H   UNL     1     -49.710  29.830  23.670  1.00  0.00     0.063 H 
ATOM     46  H   UNL     1     -46.112  29.192  22.244  1.00  0.00     0.085 H 
ATOM     47  H   UNL     1     -48.062  29.538  21.151  1.00  0.00     0.034 H 
ATOM     48  H   UNL     1     -48.781  28.260  22.115  1.00  0.00     0.034 H 
BRANCH  41  49
ATOM     49  O   UNL     1     -49.879  30.980  21.985  1.00  0.00    -0.390 OA
ATOM     50  H   UNL     1     -49.295  31.560  21.465  1.00  0.00     0.211 HD
ENDBRANCH  41  49
BRANCH  43  51
ATOM     51  N   UNL     1     -46.748  27.972  23.775  1.00  0.00    -0.306 N 
ATOM     52  C   UNL     1     -45.641  27.153  23.689  1.00  0.00     0.009 A 
ATOM     53  C   UNL     1     -47.598  27.485  24.738  1.00  0.00     0.147 A 
ATOM     54  C   UNL     1     -45.788  26.136  24.607  1.00  0.00    -0.031 A 
ATOM     55  H   UNL     1     -44.842  27.362  22.989  1.00  0.00     0.082 H 
ATOM     56  C   UNL     1     -47.022  26.341  25.281  1.00  0.00     0.061 A 
ATOM     57  N   UNL     1     -48.781  28.014  25.094  1.00  0.00    -0.218 NA
ATOM     58  H   UNL     1     -45.085  25.332  24.776  1.00  0.00     0.065 H 
ATOM     59  C   UNL     1     -47.740  25.690  26.295  1.00  0.00     0.136 A 
ATOM     60  C   UNL     1     -49.371  27.309  26.074  1.00  0.00     0.120 A 
ATOM     61  N   UNL     1     -48.923  26.197  26.685  1.00  0.00    -0.219 NA
ATOM     62  H   UNL     1     -50.330  27.684  26.418  1.00  0.00     0.106 H 
BRANCH  59  63
ATOM     63  N   UNL     1     -47.291  24.547  26.943  1.00  0.00    -0.383 N 
ATOM     64  H   UNL     1     -47.670  24.417  27.871  1.00  0.00     0.158 HD
ATOM     65  H   UNL     1     -47.343  23.748  26.322  1.00  0.00     0.158 HD
ENDBRANCH  59  63
ENDBRANCH  43  51
ENDBRANCH   1  39
TORSDOF 11
ENDMDL
MODEL 3
REMARK VINA RESULT:      -8.6      1.227      2.878
REMARK SMILES CCc1cc(N(C)C2CC2)c2ccc(OC[C@H]3O[C@@H](n4ccc5c(N)ncnc54)C[C@@H]3O)cc2n1
REMARK SMILES IDX 16 1 15 4 14 5 3 6 4 7 35 8 5 9 34 11 11 12 33 13 12 14
REMARK SMILES IDX 13 16 2 19 1 22 6 26 7 27 8 31 9 32 10 33 17 39 18 40 31 41
REMARK SMILES IDX 19 43 30 44 32 49 20 51 21 52 29 53 22 54 23 56 28 57 24 59
REMARK SMILES IDX 27 60 26 61 25 63
REMARK H PARENT 16 2 16 3 4 10 33 15 12 17 13 18 2 20 2 21 1 23 1 24 1 25 7 28
REMARK H PARENT 7 29 7 30 8 34 9 35 9 36 10 37 10 38 17 42 31 45 19 46 30 47
REMARK H PARENT 30 48 32 50 21 55 22 58 27 62 25 64 25 65
REMARK Flexibility Score: inf
ROOT
ATOM      1  C   UNL     1     -46.232  35.488  27.283  1.00  0.00     0.117 C 
ATOM      2  H   UNL     1     -46.807  35.781  26.395  1.00  0.00     0.073 H 
ATOM      3  H   UNL     1     -45.192  35.494  26.934  1.00  0.00     0.073 H 
ENDROOT
BRANCH   1   4
ATOM      4  O   UNL     1     -46.675  34.179  27.638  1.00  0.00    -0.491 OA
BRANCH   4   5
ATOM      5  C   UNL     1     -46.914  33.273  26.644  1.00  0.00     0.121 A 
ATOM      6  C   UNL     1     -48.818  29.322  24.821  1.00  0.00     0.043 A 
ATOM      7  C   UNL     1     -48.258  29.528  23.569  1.00  0.00    -0.016 A 
ATOM      8  N   UNL     1     -48.644  30.181  25.847  1.00  0.00    -0.253 NA
ATOM      9  C   UNL     1     -47.472  30.663  23.339  1.00  0.00     0.048 A 
ATOM     10  H   UNL     1     -48.469  28.825  22.772  1.00  0.00     0.066 H 
ATOM     11  C   UNL     1     -47.881  31.268  25.655  1.00  0.00     0.076 A 
ATOM     12  C   UNL     1     -47.260  31.562  24.422  1.00  0.00     0.024 A 
ATOM     13  C   UNL     1     -47.702  32.127  26.735  1.00  0.00     0.007 A 
ATOM     14  C   UNL     1     -46.445  32.714  24.345  1.00  0.00    -0.047 A 
ATOM     15  H   UNL     1     -48.207  31.859  27.656  1.00  0.00     0.069 H 
ATOM     16  C   UNL     1     -46.279  33.558  25.441  1.00  0.00    -0.019 A 
ATOM     17  H   UNL     1     -45.924  32.954  23.423  1.00  0.00     0.063 H 
ATOM     18  H   UNL     1     -45.653  34.441  25.352  1.00  0.00     0.066 H 
BRANCH   6  19
ATOM     19  C   UNL     1     -49.702  28.129  25.076  1.00  0.00    -0.013 C 
ATOM     20  H   UNL     1     -50.721  28.476  25.290  1.00  0.00     0.033 H 
ATOM     21  H   UNL     1     -49.360  27.596  25.971  1.00  0.00     0.033 H 
BRANCH  19  22
ATOM     22  C   UNL     1     -49.729  27.187  23.883  1.00  0.00    -0.060 C 
ATOM     23  H   UNL     1     -49.006  27.511  23.127  1.00  0.00     0.023 H 
ATOM     24  H   UNL     1     -49.476  26.164  24.180  1.00  0.00     0.023 H 
ATOM     25  H   UNL     1     -50.720  27.165  23.417  1.00  0.00     0.023 H 
ENDBRANCH  19  22
ENDBRANCH   6  19
BRANCH   9  26
ATOM     26  N   UNL     1     -46.930  30.919  22.055  1.00  0.00    -0.371 N 
BRANCH  26  27
ATOM     27  C   UNL     1     -45.678  30.257  21.699  1.00  0.00     0.007 C 
ATOM     28  H   UNL     1     -45.726  29.179  21.882  1.00  0.00     0.046 H 
ATOM     29  H   UNL     1     -44.833  30.678  22.257  1.00  0.00     0.046 H 
ATOM     30  H   UNL     1     -45.466  30.407  20.635  1.00  0.00     0.046 H 
ENDBRANCH  26  27
BRANCH  26  31
ATOM     31  C   UNL     1     -47.834  31.237  20.928  1.00  0.00     0.029 C 
ATOM     32  C   UNL     1     -48.617  30.154  20.228  1.00  0.00    -0.031 C 
ATOM     33  C   UNL     1     -49.338  31.203  21.017  1.00  0.00    -0.031 C 
ATOM     34  H   UNL     1     -47.403  32.004  20.288  1.00  0.00     0.053 H 
ATOM     35  H   UNL     1     -48.681  30.197  19.148  1.00  0.00     0.029 H 
ATOM     36  H   UNL     1     -48.599  29.151  20.636  1.00  0.00     0.029 H 
ATOM     37  H   UNL     1     -49.887  31.965  20.477  1.00  0.00     0.029 H 
ATOM     38  H   UNL     1     -49.810  30.899  21.944  1.00  0.00     0.029 H 
ENDBRANCH  26  31
ENDBRANCH   9  26
ENDBRANCH   4   5
ENDBRANCH   1   4
BRANCH   1  39
ATOM     39  C   UNL     1     -46.473  36.523  28.387  1.00  0.00     0.120 C 
ATOM     40  O   UNL     1     -45.254  37.250  28.626  1.00  0.00    -0.348 OA
ATOM     41  C   UNL     1     -47.546  37.550  28.029  1.00  0.00     0.088 C 
ATOM     42  H   UNL     1     -46.747  36.016  29.318  1.00  0.00     0.067 H 
ATOM     43  C   UNL     1     -45.595  38.614  28.914  1.00  0.00     0.138 C 
ATOM     44  C   UNL     1     -47.101  38.783  28.781  1.00  0.00     0.022 C 
ATOM     45  H   UNL     1     -47.588  37.729  26.951  1.00  0.00     0.063 H 
ATOM     46  H   UNL     1     -45.303  38.809  29.951  1.00  0.00     0.085 H 
ATOM     47  H   UNL     1     -47.559  38.800  29.779  1.00  0.00     0.034 H 
ATOM     48  H   UNL     1     -47.407  39.712  28.288  1.00  0.00     0.034 H 
BRANCH  41  49
ATOM     49  O   UNL     1     -48.840  37.155  28.465  1.00  0.00    -0.390 OA
ATOM     50  H   UNL     1     -49.000  37.582  29.325  1.00  0.00     0.211 HD
ENDBRANCH  41  49
BRANCH  43  51
ATOM     51  N   UNL     1     -44.783  39.490  28.080  1.00  0.00    -0.306 N 
ATOM     52  C   UNL     1     -45.059  39.766  26.757  1.00  0.00     0.009 A 
ATOM     53  C   UNL     1     -43.646  40.164  28.456  1.00  0.00     0.147 A 
ATOM     54  C   UNL     1     -44.090  40.625  26.287  1.00  0.00    -0.031 A 
ATOM     55  H   UNL     1     -45.920  39.336  26.262  1.00  0.00     0.082 H 
ATOM     56  C   UNL     1     -43.193  40.888  27.359  1.00  0.00     0.061 A 
ATOM     57  N   UNL     1     -43.068  40.130  29.669  1.00  0.00    -0.218 NA
ATOM     58  H   UNL     1     -44.030  41.022  25.283  1.00  0.00     0.065 H 
ATOM     59  C   UNL     1     -42.033  41.655  27.540  1.00  0.00     0.136 A 
ATOM     60  C   UNL     1     -41.972  40.905  29.723  1.00  0.00     0.120 A 
ATOM     61  N   UNL     1     -41.432  41.655  28.744  1.00  0.00    -0.219 NA
ATOM     62  H   UNL     1     -41.454  40.932  30.677  1.00  0.00     0.106 H 
BRANCH  59  63
ATOM     63  N   UNL     1     -41.467  42.441  26.545  1.00  0.00    -0.383 N 
ATOM     64  H   UNL     1     -41.945  43.316  26.380  1.00  0.00     0.158 HD
ATOM     65  H   UNL     1     -40.463  42.496  26.671  1.00  0.00     0.158 HD
ENDBRANCH  59  63
ENDBRANCH  43  51
ENDBRANCH   1  39
TORSDOF 11
ENDMDL
MODEL 4
REMARK VINA RESULT:      -8.5      2.087      2.869
REMARK SMILES CCc1cc(N(C)C2CC2)c2ccc(OC[C@H]3O[C@@H](n4ccc5c(N)ncnc54)C[C@@H]3O)cc2n1
REMARK SMILES IDX 16 1 15 4 14 5 3 6 4 7 35 8 5 9 34 11 11 12 33 13 12 14
REMARK SMILES IDX 13 16 2 19 1 22 6 26 7 27 8 31 9 32 10 33 17 39 18 40 31 41
REMARK SMILES IDX 19 43 30 44 32 49 20 51 21 52 29 53 22 54 23 56 28 57 24 59
REMARK SMILES IDX 27 60 26 61 25 63
REMARK H PARENT 16 2 16 3 4 10 33 15 12 17 13 18 2 20 2 21 1 23 1 24 1 25 7 28
REMARK H PARENT 7 29 7 30 8 34 9 35 9 36 10 37 10 38 17 42 31 45 19 46 30 47
REMARK H PARENT 30 48 32 50 21 55 22 58 27 62 25 64 25 65
REMARK Flexibility Score: inf
ROOT
ATOM      1  C   UNL     1     -46.260  34.902  26.764  1.00  0.00     0.117 C 
ATOM      2  H   UNL     1     -47.125  35.487  26.427  1.00  0.00     0.073 H 
ATOM      3  H   UNL     1     -45.610  34.865  25.882  1.00  0.00     0.073 H 
ENDROOT
BRANCH   1   4
ATOM      4  O   UNL     1     -46.756  33.615  27.125  1.00  0.00    -0.491 OA
BRANCH   4   5
ATOM      5  C   UNL     1     -47.048  32.721  26.133  1.00  0.00     0.121 A 
ATOM      6  C   UNL     1     -46.623  30.869  21.780  1.00  0.00     0.043 A 
ATOM      7  C   UNL     1     -47.554  29.870  22.022  1.00  0.00    -0.016 A 
ATOM      8  N   UNL     1     -46.268  31.776  22.715  1.00  0.00    -0.253 NA
ATOM      9  C   UNL     1     -48.168  29.783  23.277  1.00  0.00     0.048 A 
ATOM     10  H   UNL     1     -47.766  29.145  21.246  1.00  0.00     0.066 H 
ATOM     11  C   UNL     1     -46.855  31.722  23.920  1.00  0.00     0.076 A 
ATOM     12  C   UNL     1     -47.820  30.750  24.261  1.00  0.00     0.024 A 
ATOM     13  C   UNL     1     -46.485  32.680  24.859  1.00  0.00     0.007 A 
ATOM     14  C   UNL     1     -48.402  30.813  25.547  1.00  0.00    -0.047 A 
ATOM     15  H   UNL     1     -45.734  33.398  24.548  1.00  0.00     0.069 H 
ATOM     16  C   UNL     1     -48.016  31.784  26.470  1.00  0.00    -0.019 A 
ATOM     17  H   UNL     1     -49.173  30.104  25.834  1.00  0.00     0.063 H 
ATOM     18  H   UNL     1     -48.475  31.805  27.455  1.00  0.00     0.066 H 
BRANCH   6  19
ATOM     19  C   UNL     1     -45.921  30.954  20.450  1.00  0.00    -0.013 C 
ATOM     20  H   UNL     1     -46.082  30.020  19.898  1.00  0.00     0.033 H 
ATOM     21  H   UNL     1     -44.839  31.042  20.604  1.00  0.00     0.033 H 
BRANCH  19  22
ATOM     22  C   UNL     1     -46.430  32.124  19.622  1.00  0.00    -0.060 C 
ATOM     23  H   UNL     1     -46.289  33.063  20.167  1.00  0.00     0.023 H 
ATOM     24  H   UNL     1     -45.893  32.199  18.671  1.00  0.00     0.023 H 
ATOM     25  H   UNL     1     -47.496  32.017  19.398  1.00  0.00     0.023 H 
ENDBRANCH  19  22
ENDBRANCH   6  19
BRANCH   9  26
ATOM     26  N   UNL     1     -49.085  28.742  23.562  1.00  0.00    -0.371 N 
BRANCH  26  27
ATOM     27  C   UNL     1     -48.579  27.556  24.248  1.00  0.00     0.007 C 
ATOM     28  H   UNL     1     -47.854  27.818  25.025  1.00  0.00     0.046 H 
ATOM     29  H   UNL     1     -48.113  26.858  23.542  1.00  0.00     0.046 H 
ATOM     30  H   UNL     1     -49.406  27.021  24.728  1.00  0.00     0.046 H 
ENDBRANCH  26  27
BRANCH  26  31
ATOM     31  C   UNL     1     -50.510  29.065  23.801  1.00  0.00     0.029 C 
ATOM     32  C   UNL     1     -51.547  28.856  22.726  1.00  0.00    -0.031 C 
ATOM     33  C   UNL     1     -51.592  28.030  23.974  1.00  0.00    -0.031 C 
ATOM     34  H   UNL     1     -50.609  29.974  24.390  1.00  0.00     0.053 H 
ATOM     35  H   UNL     1     -52.300  29.623  22.597  1.00  0.00     0.029 H 
ATOM     36  H   UNL     1     -51.256  28.356  21.811  1.00  0.00     0.029 H 
ATOM     37  H   UNL     1     -52.369  28.237  24.701  1.00  0.00     0.029 H 
ATOM     38  H   UNL     1     -51.342  26.979  23.891  1.00  0.00     0.029 H 
ENDBRANCH  26  31
ENDBRANCH   9  26
ENDBRANCH   4   5
ENDBRANCH   1   4
BRANCH   1  39
ATOM     39  C   UNL     1     -45.598  35.639  27.933  1.00  0.00     0.120 C 
ATOM     40  O   UNL     1     -45.244  36.969  27.513  1.00  0.00    -0.348 OA
ATOM     41  C   UNL     1     -46.507  35.780  29.152  1.00  0.00     0.088 C 
ATOM     42  H   UNL     1     -44.675  35.124  28.222  1.00  0.00     0.067 H 
ATOM     43  C   UNL     1     -45.451  37.859  28.621  1.00  0.00     0.138 C 
ATOM     44  C   UNL     1     -46.034  37.069  29.783  1.00  0.00     0.022 C 
ATOM     45  H   UNL     1     -47.560  35.835  28.865  1.00  0.00     0.063 H 
ATOM     46  H   UNL     1     -44.469  38.250  28.910  1.00  0.00     0.085 H 
ATOM     47  H   UNL     1     -45.246  36.862  30.519  1.00  0.00     0.034 H 
ATOM     48  H   UNL     1     -46.830  37.591  30.325  1.00  0.00     0.034 H 
BRANCH  41  49
ATOM     49  O   UNL     1     -46.351  34.705  30.070  1.00  0.00    -0.390 OA
ATOM     50  H   UNL     1     -47.153  34.157  30.015  1.00  0.00     0.211 HD
ENDBRANCH  41  49
BRANCH  43  51
ATOM     51  N   UNL     1     -46.238  38.999  28.171  1.00  0.00    -0.306 N 
ATOM     52  C   UNL     1     -47.535  39.244  28.570  1.00  0.00     0.009 A 
ATOM     53  C   UNL     1     -45.837  39.986  27.303  1.00  0.00     0.147 A 
ATOM     54  C   UNL     1     -47.963  40.398  27.952  1.00  0.00    -0.031 A 
ATOM     55  H   UNL     1     -48.044  38.583  29.261  1.00  0.00     0.082 H 
ATOM     56  C   UNL     1     -46.892  40.879  27.151  1.00  0.00     0.061 A 
ATOM     57  N   UNL     1     -44.639  40.074  26.700  1.00  0.00    -0.218 NA
ATOM     58  H   UNL     1     -48.940  40.849  28.063  1.00  0.00     0.065 H 
ATOM     59  C   UNL     1     -46.679  41.973  26.300  1.00  0.00     0.136 A 
ATOM     60  C   UNL     1     -44.551  41.162  25.916  1.00  0.00     0.120 A 
ATOM     61  N   UNL     1     -45.488  42.101  25.687  1.00  0.00    -0.219 NA
ATOM     62  H   UNL     1     -43.606  41.302  25.401  1.00  0.00     0.106 H 
BRANCH  59  63
ATOM     63  N   UNL     1     -47.629  42.956  26.058  1.00  0.00    -0.383 N 
ATOM     64  H   UNL     1     -48.042  42.921  25.135  1.00  0.00     0.158 HD
ATOM     65  H   UNL     1     -48.275  43.019  26.835  1.00  0.00     0.158 HD
ENDBRANCH  59  63
ENDBRANCH  43  51
ENDBRANCH   1  39
TORSDOF 11
ENDMDL
MODEL 5
REMARK VINA RESULT:      -8.3      1.825      2.410
REMARK SMILES CCc1cc(N(C)C2CC2)c2ccc(OC[C@H]3O[C@@H](n4ccc5c(N)ncnc54)C[C@@H]3O)cc2n1
REMARK SMILES IDX 16 1 15 4 14 5 3 6 4 7 35 8 5 9 34 11 11 12 33 13 12 14
REMARK SMILES IDX 13 16 2 19 1 22 6 26 7 27 8 31 9 32 10 33 17 39 18 40 31 41
REMARK SMILES IDX 19 43 30 44 32 49 20 51 21 52 29 53 22 54 23 56 28 57 24 59
REMARK SMILES IDX 27 60 26 61 25 63
REMARK H PARENT 16 2 16 3 4 10 33 15 12 17 13 18 2 20 2 21 1 23 1 24 1 25 7 28
REMARK H PARENT 7 29 7 30 8 34 9 35 9 36 10 37 10 38 17 42 31 45 19 46 30 47
REMARK H PARENT 30 48 32 50 21 55 22 58 27 62 25 64 25 65
REMARK Flexibility Score: inf
ROOT
ATOM      1  C   UNL     1     -46.172  33.821  26.953  1.00  0.00     0.117 C 
ATOM      2  H   UNL     1     -45.185  34.297  26.909  1.00  0.00     0.073 H 
ATOM      3  H   UNL     1     -45.968  32.835  27.390  1.00  0.00     0.073 H 
ENDROOT
BRANCH   1   4
ATOM      4  O   UNL     1     -46.638  33.729  25.608  1.00  0.00    -0.491 OA
BRANCH   4   5
ATOM      5  C   UNL     1     -47.181  32.551  25.179  1.00  0.00     0.121 A 
ATOM      6  C   UNL     1     -48.832  29.543  21.894  1.00  0.00     0.043 A 
ATOM      7  C   UNL     1     -49.130  28.558  22.823  1.00  0.00    -0.016 A 
ATOM      8  N   UNL     1     -48.277  30.725  22.238  1.00  0.00    -0.253 NA
ATOM      9  C   UNL     1     -48.857  28.778  24.178  1.00  0.00     0.048 A 
ATOM     10  H   UNL     1     -49.534  27.613  22.482  1.00  0.00     0.066 H 
ATOM     11  C   UNL     1     -48.022  30.964  23.533  1.00  0.00     0.076 A 
ATOM     12  C   UNL     1     -48.296  30.030  24.555  1.00  0.00     0.024 A 
ATOM     13  C   UNL     1     -47.467  32.197  23.862  1.00  0.00     0.007 A 
ATOM     14  C   UNL     1     -48.023  30.405  25.890  1.00  0.00    -0.047 A 
ATOM     15  H   UNL     1     -47.269  32.875  23.038  1.00  0.00     0.069 H 
ATOM     16  C   UNL     1     -47.469  31.647  26.194  1.00  0.00    -0.019 A 
ATOM     17  H   UNL     1     -48.253  29.726  26.706  1.00  0.00     0.063 H 
ATOM     18  H   UNL     1     -47.262  31.907  27.229  1.00  0.00     0.066 H 
BRANCH   6  19
ATOM     19  C   UNL     1     -49.079  29.310  20.427  1.00  0.00    -0.013 C 
ATOM     20  H   UNL     1     -48.129  29.391  19.885  1.00  0.00     0.033 H 
ATOM     21  H   UNL     1     -49.733  30.095  20.029  1.00  0.00     0.033 H 
BRANCH  19  22
ATOM     22  C   UNL     1     -49.689  27.940  20.172  1.00  0.00    -0.060 C 
ATOM     23  H   UNL     1     -50.418  27.699  20.952  1.00  0.00     0.023 H 
ATOM     24  H   UNL     1     -50.202  27.909  19.205  1.00  0.00     0.023 H 
ATOM     25  H   UNL     1     -48.923  27.158  20.171  1.00  0.00     0.023 H 
ENDBRANCH  19  22
ENDBRANCH   6  19
BRANCH   9  26
ATOM     26  N   UNL     1     -49.106  27.767  25.140  1.00  0.00    -0.371 N 
BRANCH  26  27
ATOM     27  C   UNL     1     -50.462  27.229  25.227  1.00  0.00     0.007 C 
ATOM     28  H   UNL     1     -50.851  26.953  24.242  1.00  0.00     0.046 H 
ATOM     29  H   UNL     1     -51.145  27.949  25.694  1.00  0.00     0.046 H 
ATOM     30  H   UNL     1     -50.467  26.331  25.854  1.00  0.00     0.046 H 
ENDBRANCH  26  27
BRANCH  26  31
ATOM     31  C   UNL     1     -48.020  26.840  25.529  1.00  0.00     0.029 C 
ATOM     32  C   UNL     1     -47.590  26.705  26.968  1.00  0.00    -0.031 C 
ATOM     33  C   UNL     1     -48.239  25.549  26.273  1.00  0.00    -0.031 C 
ATOM     34  H   UNL     1     -47.222  26.845  24.790  1.00  0.00     0.053 H 
ATOM     35  H   UNL     1     -46.528  26.643  27.172  1.00  0.00     0.029 H 
ATOM     36  H   UNL     1     -48.164  27.210  27.734  1.00  0.00     0.029 H 
ATOM     37  H   UNL     1     -47.622  24.702  25.996  1.00  0.00     0.029 H 
ATOM     38  H   UNL     1     -49.241  25.275  26.582  1.00  0.00     0.029 H 
ENDBRANCH  26  31
ENDBRANCH   9  26
ENDBRANCH   4   5
ENDBRANCH   1   4
BRANCH   1  39
ATOM     39  C   UNL     1     -47.085  34.666  27.848  1.00  0.00     0.120 C 
ATOM     40  O   UNL     1     -46.292  35.650  28.535  1.00  0.00    -0.348 OA
ATOM     41  C   UNL     1     -48.163  35.419  27.072  1.00  0.00     0.088 C 
ATOM     42  H   UNL     1     -47.556  34.029  28.605  1.00  0.00     0.067 H 
ATOM     43  C   UNL     1     -47.063  36.857  28.634  1.00  0.00     0.138 C 
ATOM     44  C   UNL     1     -48.386  36.656  27.912  1.00  0.00     0.022 C 
ATOM     45  H   UNL     1     -47.829  35.674  26.062  1.00  0.00     0.063 H 
ATOM     46  H   UNL     1     -47.258  37.030  29.699  1.00  0.00     0.085 H 
ATOM     47  H   UNL     1     -49.182  36.474  28.645  1.00  0.00     0.034 H 
ATOM     48  H   UNL     1     -48.708  37.518  27.317  1.00  0.00     0.034 H 
BRANCH  41  49
ATOM     49  O   UNL     1     -49.372  34.679  26.967  1.00  0.00    -0.390 OA
ATOM     50  H   UNL     1     -50.108  35.306  27.072  1.00  0.00     0.211 HD
ENDBRANCH  41  49
BRANCH  43  51
ATOM     51  N   UNL     1     -46.252  37.976  28.173  1.00  0.00    -0.306 N 
ATOM     52  C   UNL     1     -46.472  38.648  26.989  1.00  0.00     0.009 A 
ATOM     53  C   UNL     1     -45.169  38.529  28.814  1.00  0.00     0.147 A 
ATOM     54  C   UNL     1     -45.522  39.640  26.876  1.00  0.00    -0.031 A 
ATOM     55  H   UNL     1     -47.285  38.372  26.329  1.00  0.00     0.082 H 
ATOM     56  C   UNL     1     -44.696  39.575  28.031  1.00  0.00     0.061 A 
ATOM     57  N   UNL     1     -44.653  38.128  29.988  1.00  0.00    -0.218 NA
ATOM     58  H   UNL     1     -45.430  40.336  26.053  1.00  0.00     0.065 H 
ATOM     59  C   UNL     1     -43.585  40.279  28.518  1.00  0.00     0.136 A 
ATOM     60  C   UNL     1     -43.600  38.878  30.354  1.00  0.00     0.120 A 
ATOM     61  N   UNL     1     -43.047  39.915  29.697  1.00  0.00    -0.219 NA
ATOM     62  H   UNL     1     -43.134  38.616  31.299  1.00  0.00     0.106 H 
BRANCH  59  63
ATOM     63  N   UNL     1     -43.006  41.356  27.859  1.00  0.00    -0.383 N 
ATOM     64  H   UNL     1     -42.919  41.237  26.859  1.00  0.00     0.158 HD
ATOM     65  H   UNL     1     -43.424  42.224  28.171  1.00  0.00     0.158 HD
ENDBRANCH  59  63
ENDBRANCH  43  51
ENDBRANCH   1  39
TORSDOF 11
ENDMDL
MODEL 6
REMARK VINA RESULT:      -8.3      2.570      3.588
REMARK SMILES CCc1cc(N(C)C2CC2)c2ccc(OC[C@H]3O[C@@H](n4ccc5c(N)ncnc54)C[C@@H]3O)cc2n1
REMARK SMILES IDX 16 1 15 4 14 5 3 6 4 7 35 8 5 9 34 11 11 12 33 13 12 14
REMARK SMILES IDX 13 16 2 19 1 22 6 26 7 27 8 31 9 32 10 33 17 39 18 40 31 41
REMARK SMILES IDX 19 43 30 44 32 49 20 51 21 52 29 53 22 54 23 56 28 57 24 59
REMARK SMILES IDX 27 60 26 61 25 63
REMARK H PARENT 16 2 16 3 4 10 33 15 12 17 13 18 2 20 2 21 1 23 1 24 1 25 7 28
REMARK H PARENT 7 29 7 30 8 34 9 35 9 36 10 37 10 38 17 42 31 45 19 46 30 47
REMARK H PARENT 30 48 32 50 21 55 22 58 27 62 25 64 25 65
REMARK Flexibility Score: inf
ROOT
ATOM      1  C   UNL     1     -47.801  34.037  26.715  1.00  0.00     0.117 C 
ATOM      2  H   UNL     1     -47.955  33.142  27.330  1.00  0.00     0.073 H 
ATOM      3  H   UNL     1     -48.731  34.605  26.842  1.00  0.00     0.073 H 
ENDROOT
BRANCH   1   4
ATOM      4  O   UNL     1     -47.625  33.583  25.374  1.00  0.00    -0.491 OA
BRANCH   4   5
ATOM      5  C   UNL     1     -47.938  32.288  25.072  1.00  0.00     0.121 A 
ATOM      6  C   UNL     1     -49.108  28.738  22.141  1.00  0.00     0.043 A 
ATOM      7  C   UNL     1     -49.152  27.798  23.160  1.00  0.00    -0.016 A 
ATOM      8  N   UNL     1     -48.788  30.031  22.357  1.00  0.00    -0.253 NA
ATOM      9  C   UNL     1     -48.862  28.185  24.473  1.00  0.00     0.048 A 
ATOM     10  H   UNL     1     -49.373  26.765  22.918  1.00  0.00     0.066 H 
ATOM     11  C   UNL     1     -48.522  30.428  23.610  1.00  0.00     0.076 A 
ATOM     12  C   UNL     1     -48.549  29.552  24.716  1.00  0.00     0.024 A 
ATOM     13  C   UNL     1     -48.213  31.771  23.808  1.00  0.00     0.007 A 
ATOM     14  C   UNL     1     -48.291  30.088  25.998  1.00  0.00    -0.047 A 
ATOM     15  H   UNL     1     -48.198  32.400  22.924  1.00  0.00     0.069 H 
ATOM     16  C   UNL     1     -47.986  31.437  26.170  1.00  0.00    -0.019 A 
ATOM     17  H   UNL     1     -48.337  29.451  26.876  1.00  0.00     0.063 H 
ATOM     18  H   UNL     1     -47.785  31.822  27.166  1.00  0.00     0.066 H 
BRANCH   6  19
ATOM     19  C   UNL     1     -49.375  28.333  20.715  1.00  0.00    -0.013 C 
ATOM     20  H   UNL     1     -48.420  28.153  20.207  1.00  0.00     0.033 H 
ATOM     21  H   UNL     1     -49.863  29.155  20.179  1.00  0.00     0.033 H 
BRANCH  19  22
ATOM     22  C   UNL     1     -50.231  27.078  20.640  1.00  0.00    -0.060 C 
ATOM     23  H   UNL     1     -49.605  26.186  20.738  1.00  0.00     0.023 H 
ATOM     24  H   UNL     1     -50.978  27.060  21.441  1.00  0.00     0.023 H 
ATOM     25  H   UNL     1     -50.763  27.017  19.685  1.00  0.00     0.023 H 
ENDBRANCH  19  22
ENDBRANCH   6  19
BRANCH   9  26
ATOM     26  N   UNL     1     -48.853  27.232  25.522  1.00  0.00    -0.371 N 
BRANCH  26  27
ATOM     27  C   UNL     1     -50.138  26.820  26.079  1.00  0.00     0.007 C 
ATOM     28  H   UNL     1     -50.888  27.613  25.995  1.00  0.00     0.046 H 
ATOM     29  H   UNL     1     -50.040  26.529  27.132  1.00  0.00     0.046 H 
ATOM     30  H   UNL     1     -50.515  25.943  25.540  1.00  0.00     0.046 H 
ENDBRANCH  26  27
BRANCH  26  31
ATOM     31  C   UNL     1     -47.769  26.227  25.591  1.00  0.00     0.029 C 
ATOM     32  C   UNL     1     -46.851  26.151  26.785  1.00  0.00    -0.031 C 
ATOM     33  C   UNL     1     -47.792  25.023  26.496  1.00  0.00    -0.031 C 
ATOM     34  H   UNL     1     -47.300  26.094  24.618  1.00  0.00     0.053 H 
ATOM     35  H   UNL     1     -45.796  25.992  26.599  1.00  0.00     0.029 H 
ATOM     36  H   UNL     1     -47.067  26.768  27.648  1.00  0.00     0.029 H 
ATOM     37  H   UNL     1     -47.382  24.098  26.107  1.00  0.00     0.029 H 
ATOM     38  H   UNL     1     -48.627  24.879  27.171  1.00  0.00     0.029 H 
ENDBRANCH  26  31
ENDBRANCH   9  26
ENDBRANCH   4   5
ENDBRANCH   1   4
BRANCH   1  39
ATOM     39  C   UNL     1     -46.586  34.800  27.254  1.00  0.00     0.120 C 
ATOM     40  O   UNL     1     -46.503  36.078  26.599  1.00  0.00    -0.348 OA
ATOM     41  C   UNL     1     -46.660  35.068  28.756  1.00  0.00     0.088 C 
ATOM     42  H   UNL     1     -45.669  34.247  27.025  1.00  0.00     0.067 H 
ATOM     43  C   UNL     1     -46.042  37.043  27.558  1.00  0.00     0.138 C 
ATOM     44  C   UNL     1     -45.893  36.361  28.909  1.00  0.00     0.022 C 
ATOM     45  H   UNL     1     -47.693  35.170  29.097  1.00  0.00     0.063 H 
ATOM     46  H   UNL     1     -45.059  37.390  27.221  1.00  0.00     0.085 H 
ATOM     47  H   UNL     1     -44.833  36.150  29.100  1.00  0.00     0.034 H 
ATOM     48  H   UNL     1     -46.242  36.962  29.756  1.00  0.00     0.034 H 
BRANCH  41  49
ATOM     49  O   UNL     1     -46.039  34.042  29.520  1.00  0.00    -0.390 OA
ATOM     50  H   UNL     1     -45.097  34.272  29.606  1.00  0.00     0.211 HD
ENDBRANCH  41  49
BRANCH  43  51
ATOM     51  N   UNL     1     -46.926  38.201  27.526  1.00  0.00    -0.306 N 
ATOM     52  C   UNL     1     -48.240  38.177  27.945  1.00  0.00     0.009 A 
ATOM     53  C   UNL     1     -46.612  39.465  27.087  1.00  0.00     0.147 A 
ATOM     54  C   UNL     1     -48.767  39.438  27.773  1.00  0.00    -0.031 A 
ATOM     55  H   UNL     1     -48.688  37.271  28.333  1.00  0.00     0.082 H 
ATOM     56  C   UNL     1     -47.741  40.263  27.236  1.00  0.00     0.061 A 
ATOM     57  N   UNL     1     -45.426  39.863  26.597  1.00  0.00    -0.218 NA
ATOM     58  H   UNL     1     -49.780  39.737  28.008  1.00  0.00     0.065 H 
ATOM     59  C   UNL     1     -47.625  41.605  26.845  1.00  0.00     0.136 A 
ATOM     60  C   UNL     1     -45.434  41.165  26.263  1.00  0.00     0.120 A 
ATOM     61  N   UNL     1     -46.449  42.043  26.360  1.00  0.00    -0.219 NA
ATOM     62  H   UNL     1     -44.505  41.559  25.864  1.00  0.00     0.106 H 
BRANCH  59  63
ATOM     63  N   UNL     1     -48.657  42.528  26.945  1.00  0.00    -0.383 N 
ATOM     64  H   UNL     1     -48.584  43.154  27.736  1.00  0.00     0.158 HD
ATOM     65  H   UNL     1     -48.829  42.961  26.046  1.00  0.00     0.158 HD
ENDBRANCH  59  63
ENDBRANCH  43  51
ENDBRANCH   1  39
TORSDOF 11
ENDMDL
MODEL 7
REMARK VINA RESULT:      -8.3      3.238      4.827
REMARK SMILES CCc1cc(N(C)C2CC2)c2ccc(OC[C@H]3O[C@@H](n4ccc5c(N)ncnc54)C[C@@H]3O)cc2n1
REMARK SMILES IDX 16 1 15 4 14 5 3 6 4 7 35 8 5 9 34 11 11 12 33 13 12 14
REMARK SMILES IDX 13 16 2 19 1 22 6 26 7 27 8 31 9 32 10 33 17 39 18 40 31 41
REMARK SMILES IDX 19 43 30 44 32 49 20 51 21 52 29 53 22 54 23 56 28 57 24 59
REMARK SMILES IDX 27 60 26 61 25 63
REMARK H PARENT 16 2 16 3 4 10 33 15 12 17 13 18 2 20 2 21 1 23 1 24 1 25 7 28
REMARK H PARENT 7 29 7 30 8 34 9 35 9 36 10 37 10 38 17 42 31 45 19 46 30 47
REMARK H PARENT 30 48 32 50 21 55 22 58 27 62 25 64 25 65
REMARK Flexibility Score: inf
ROOT
ATOM      1  C   UNL     1     -48.003  33.602  26.317  1.00  0.00     0.117 C 
ATOM      2  H   UNL     1     -48.070  32.717  26.961  1.00  0.00     0.073 H 
ATOM      3  H   UNL     1     -48.896  34.183  26.576  1.00  0.00     0.073 H 
ENDROOT
BRANCH   1   4
ATOM      4  O   UNL     1     -48.038  33.129  24.972  1.00  0.00    -0.491 OA
BRANCH   4   5
ATOM      5  C   UNL     1     -48.329  31.814  24.745  1.00  0.00     0.121 A 
ATOM      6  C   UNL     1     -49.563  28.106  22.044  1.00  0.00     0.043 A 
ATOM      7  C   UNL     1     -49.517  27.211  23.102  1.00  0.00    -0.016 A 
ATOM      8  N   UNL     1     -49.270  29.417  22.185  1.00  0.00    -0.253 NA
ATOM      9  C   UNL     1     -49.160  27.664  24.378  1.00  0.00     0.048 A 
ATOM     10  H   UNL     1     -49.720  26.163  22.919  1.00  0.00     0.066 H 
ATOM     11  C   UNL     1     -48.942  29.876  23.401  1.00  0.00     0.076 A 
ATOM     12  C   UNL     1     -48.875  29.049  24.543  1.00  0.00     0.024 A 
ATOM     13  C   UNL     1     -48.663  31.234  23.522  1.00  0.00     0.007 A 
ATOM     14  C   UNL     1     -48.557  29.648  25.782  1.00  0.00    -0.047 A 
ATOM     15  H   UNL     1     -48.721  31.823  22.614  1.00  0.00     0.069 H 
ATOM     16  C   UNL     1     -48.284  31.011  25.878  1.00  0.00    -0.019 A 
ATOM     17  H   UNL     1     -48.530  29.049  26.688  1.00  0.00     0.063 H 
ATOM     18  H   UNL     1     -48.035  31.445  26.843  1.00  0.00     0.066 H 
BRANCH   6  19
ATOM     19  C   UNL     1     -49.904  27.632  20.656  1.00  0.00    -0.013 C 
ATOM     20  H   UNL     1     -50.956  27.322  20.629  1.00  0.00     0.033 H 
ATOM     21  H   UNL     1     -49.311  26.743  20.409  1.00  0.00     0.033 H 
BRANCH  19  22
ATOM     22  C   UNL     1     -49.671  28.721  19.619  1.00  0.00    -0.060 C 
ATOM     23  H   UNL     1     -49.046  28.342  18.805  1.00  0.00     0.023 H 
ATOM     24  H   UNL     1     -50.617  29.066  19.190  1.00  0.00     0.023 H 
ATOM     25  H   UNL     1     -49.167  29.587  20.060  1.00  0.00     0.023 H 
ENDBRANCH  19  22
ENDBRANCH   6  19
BRANCH   9  26
ATOM     26  N   UNL     1     -49.058  26.759  25.464  1.00  0.00    -0.371 N 
BRANCH  26  27
ATOM     27  C   UNL     1     -50.294  26.195  26.000  1.00  0.00     0.007 C 
ATOM     28  H   UNL     1     -50.886  26.950  26.527  1.00  0.00     0.046 H 
ATOM     29  H   UNL     1     -50.087  25.361  26.680  1.00  0.00     0.046 H 
ATOM     30  H   UNL     1     -50.908  25.797  25.184  1.00  0.00     0.046 H 
ENDBRANCH  26  27
BRANCH  26  31
ATOM     31  C   UNL     1     -47.852  25.914  25.603  1.00  0.00     0.029 C 
ATOM     32  C   UNL     1     -46.837  26.177  26.687  1.00  0.00    -0.031 C 
ATOM     33  C   UNL     1     -47.644  24.916  26.713  1.00  0.00    -0.031 C 
ATOM     34  H   UNL     1     -47.450  25.645  24.629  1.00  0.00     0.053 H 
ATOM     35  H   UNL     1     -45.789  26.103  26.425  1.00  0.00     0.029 H 
ATOM     36  H   UNL     1     -47.059  26.924  27.439  1.00  0.00     0.029 H 
ATOM     37  H   UNL     1     -47.152  23.984  26.462  1.00  0.00     0.029 H 
ATOM     38  H   UNL     1     -48.396  24.817  27.488  1.00  0.00     0.029 H 
ENDBRANCH  26  31
ENDBRANCH   9  26
ENDBRANCH   4   5
ENDBRANCH   1   4
BRANCH   1  39
ATOM     39  C   UNL     1     -46.712  34.356  26.654  1.00  0.00     0.120 C 
ATOM     40  O   UNL     1     -46.820  35.712  26.183  1.00  0.00    -0.348 OA
ATOM     41  C   UNL     1     -46.424  34.422  28.152  1.00  0.00     0.088 C 
ATOM     42  H   UNL     1     -45.864  33.891  26.138  1.00  0.00     0.067 H 
ATOM     43  C   UNL     1     -46.163  36.568  27.130  1.00  0.00     0.138 C 
ATOM     44  C   UNL     1     -45.674  35.726  28.298  1.00  0.00     0.022 C 
ATOM     45  H   UNL     1     -47.346  34.420  28.740  1.00  0.00     0.063 H 
ATOM     46  H   UNL     1     -45.300  37.011  26.621  1.00  0.00     0.085 H 
ATOM     47  H   UNL     1     -44.595  35.552  28.200  1.00  0.00     0.034 H 
ATOM     48  H   UNL     1     -45.822  36.190  29.279  1.00  0.00     0.034 H 
BRANCH  41  49
ATOM     49  O   UNL     1     -45.612  33.342  28.595  1.00  0.00    -0.390 OA
ATOM     50  H   UNL     1     -44.733  33.456  28.195  1.00  0.00     0.211 HD
ENDBRANCH  41  49
BRANCH  43  51
ATOM     51  N   UNL     1     -47.056  37.668  27.471  1.00  0.00    -0.306 N 
ATOM     52  C   UNL     1     -46.656  38.985  27.555  1.00  0.00     0.009 A 
ATOM     53  C   UNL     1     -48.397  37.582  27.759  1.00  0.00     0.147 A 
ATOM     54  C   UNL     1     -47.753  39.745  27.897  1.00  0.00    -0.031 A 
ATOM     55  H   UNL     1     -45.630  39.273  27.361  1.00  0.00     0.082 H 
ATOM     56  C   UNL     1     -48.862  38.865  28.023  1.00  0.00     0.061 A 
ATOM     57  N   UNL     1     -49.132  36.457  27.786  1.00  0.00    -0.218 NA
ATOM     58  H   UNL     1     -47.758  40.817  28.042  1.00  0.00     0.065 H 
ATOM     59  C   UNL     1     -50.223  38.994  28.336  1.00  0.00     0.136 A 
ATOM     60  C   UNL     1     -50.417  36.706  28.092  1.00  0.00     0.120 A 
ATOM     61  N   UNL     1     -50.994  37.892  28.362  1.00  0.00    -0.219 NA
ATOM     62  H   UNL     1     -51.074  35.843  28.125  1.00  0.00     0.106 H 
BRANCH  59  63
ATOM     63  N   UNL     1     -50.838  40.209  28.609  1.00  0.00    -0.383 N 
ATOM     64  H   UNL     1     -51.647  40.142  29.213  1.00  0.00     0.158 HD
ATOM     65  H   UNL     1     -50.146  40.903  28.864  1.00  0.00     0.158 HD
ENDBRANCH  59  63
ENDBRANCH  43  51
ENDBRANCH   1  39
TORSDOF 11
ENDMDL
