MODEL 1
REMARK VINA RESULT:     -11.1      0.000      0.000
REMARK SMILES O=C(NCc1ccc2cc(CN[C@H]3CCC[C@@H]3O)[nH]c2c1)c1cc(=O)n2ccccc2n1
REMARK SMILES IDX 5 1 6 2 7 3 8 4 9 5 10 6 19 7 20 8 21 9 4 15 3 18 1 19 2 20
REMARK SMILES IDX 22 22 23 23 32 24 24 25 31 27 25 28 26 29 30 30 27 31 29 32
REMARK SMILES IDX 28 34 11 38 12 41 13 43 14 44 17 45 15 47 16 50 18 56
REMARK H PARENT 6 10 7 11 9 12 19 13 21 14 4 16 4 17 3 21 23 26 30 33 27 35
REMARK H PARENT 29 36 28 37 11 39 11 40 12 42 13 46 14 48 14 49 17 51 15 52
REMARK H PARENT 15 53 16 54 16 55 18 57
REMARK Flexibility Score: inf
ROOT
ATOM      1  C   UNL     1     -47.967  34.370  26.360  1.00  0.00    -0.027 A 
ATOM      2  C   UNL     1     -46.726  34.453  25.715  1.00  0.00    -0.057 A 
ATOM      3  C   UNL     1     -46.257  33.407  24.909  1.00  0.00    -0.052 A 
ATOM      4  C   UNL     1     -47.045  32.251  24.751  1.00  0.00    -0.000 A 
ATOM      5  C   UNL     1     -46.882  31.034  24.034  1.00  0.00    -0.032 A 
ATOM      6  C   UNL     1     -47.999  30.253  24.260  1.00  0.00     0.030 A 
ATOM      7  N   UNL     1     -48.829  30.966  25.091  1.00  0.00    -0.357 N 
ATOM      8  C   UNL     1     -48.272  32.183  25.408  1.00  0.00     0.046 A 
ATOM      9  C   UNL     1     -48.756  33.216  26.219  1.00  0.00    -0.033 A 
ATOM     10  H   UNL     1     -46.106  35.339  25.837  1.00  0.00     0.063 H 
ATOM     11  H   UNL     1     -45.294  33.489  24.414  1.00  0.00     0.063 H 
ATOM     12  H   UNL     1     -46.037  30.763  23.415  1.00  0.00     0.065 H 
ATOM     13  H   UNL     1     -49.711  30.616  25.440  1.00  0.00     0.166 HD
ATOM     14  H   UNL     1     -49.713  33.128  26.724  1.00  0.00     0.065 H 
ENDROOT
BRANCH   1  15
ATOM     15  C   UNL     1     -48.436  35.493  27.248  1.00  0.00     0.043 C 
ATOM     16  H   UNL     1     -48.718  35.113  28.238  1.00  0.00     0.054 H 
ATOM     17  H   UNL     1     -49.326  35.976  26.831  1.00  0.00     0.054 H 
BRANCH  15  18
ATOM     18  N   UNL     1     -47.409  36.487  27.402  1.00  0.00    -0.347 N 
ATOM     19  O   UNL     1     -46.946  36.014  29.600  1.00  0.00    -0.268 OA
ATOM     20  C   UNL     1     -46.760  36.687  28.593  1.00  0.00     0.270 C 
ATOM     21  H   UNL     1     -47.215  37.143  26.651  1.00  0.00     0.164 HD
BRANCH  20  22
ATOM     22  C   UNL     1     -45.790  37.842  28.534  1.00  0.00     0.136 A 
ATOM     23  C   UNL     1     -44.950  37.966  29.565  1.00  0.00     0.035 A 
ATOM     24  N   UNL     1     -45.826  38.682  27.445  1.00  0.00    -0.225 NA
ATOM     25  C   UNL     1     -43.989  39.076  29.548  1.00  0.00     0.258 A 
ATOM     26  H   UNL     1     -44.932  37.300  30.416  1.00  0.00     0.071 H 
ATOM     27  C   UNL     1     -44.973  39.661  27.434  1.00  0.00     0.140 A 
ATOM     28  O   UNL     1     -43.211  39.199  30.494  1.00  0.00    -0.269 OA
ATOM     29  N   UNL     1     -44.045  39.907  28.440  1.00  0.00    -0.268 N 
ATOM     30  C   UNL     1     -44.975  40.597  26.273  1.00  0.00    -0.019 A 
ATOM     31  C   UNL     1     -43.165  40.981  28.352  1.00  0.00     0.014 A 
ATOM     32  C   UNL     1     -44.109  41.616  26.234  1.00  0.00    -0.057 A 
ATOM     33  H   UNL     1     -45.695  40.412  25.485  1.00  0.00     0.066 H 
ATOM     34  C   UNL     1     -43.172  41.817  27.307  1.00  0.00    -0.045 A 
ATOM     35  H   UNL     1     -42.465  41.114  29.175  1.00  0.00     0.082 H 
ATOM     36  H   UNL     1     -44.096  42.307  25.397  1.00  0.00     0.062 H 
ATOM     37  H   UNL     1     -42.481  42.652  27.248  1.00  0.00     0.064 H 
ENDBRANCH  20  22
ENDBRANCH  15  18
ENDBRANCH   1  15
BRANCH   6  38
ATOM     38  C   UNL     1     -48.372  28.903  23.755  1.00  0.00     0.036 C 
ATOM     39  H   UNL     1     -48.282  28.881  22.662  1.00  0.00     0.049 H 
ATOM     40  H   UNL     1     -49.421  28.717  24.013  1.00  0.00     0.049 H 
BRANCH  38  41
ATOM     41  N   UNL     1     -47.491  27.905  24.361  1.00  0.00    -0.306 NA
ATOM     42  H   UNL     1     -46.929  27.507  23.607  1.00  0.00     0.123 HD
BRANCH  41  43
ATOM     43  C   UNL     1     -48.262  26.818  24.990  1.00  0.00     0.033 C 
ATOM     44  C   UNL     1     -47.295  25.751  25.525  1.00  0.00    -0.035 C 
ATOM     45  C   UNL     1     -48.979  27.242  26.288  1.00  0.00     0.069 C 
ATOM     46  H   UNL     1     -48.944  26.353  24.268  1.00  0.00     0.049 H 
ATOM     47  C   UNL     1     -46.806  26.289  26.867  1.00  0.00    -0.049 C 
ATOM     48  H   UNL     1     -47.836  24.810  25.684  1.00  0.00     0.028 H 
ATOM     49  H   UNL     1     -46.467  25.530  24.843  1.00  0.00     0.028 H 
ATOM     50  C   UNL     1     -47.880  27.269  27.350  1.00  0.00    -0.025 C 
ATOM     51  H   UNL     1     -49.495  28.202  26.208  1.00  0.00     0.062 H 
ATOM     52  H   UNL     1     -46.648  25.476  27.583  1.00  0.00     0.027 H 
ATOM     53  H   UNL     1     -45.851  26.811  26.748  1.00  0.00     0.027 H 
ATOM     54  H   UNL     1     -48.247  26.990  28.343  1.00  0.00     0.029 H 
ATOM     55  H   UNL     1     -47.443  28.272  27.418  1.00  0.00     0.029 H 
BRANCH  45  56
ATOM     56  O   UNL     1     -49.961  26.262  26.631  1.00  0.00    -0.392 OA
ATOM     57  H   UNL     1     -50.114  26.332  27.590  1.00  0.00     0.211 HD
ENDBRANCH  45  56
ENDBRANCH  41  43
ENDBRANCH  38  41
ENDBRANCH   6  38
TORSDOF 7
ENDMDL
MODEL 2
REMARK VINA RESULT:     -10.2      1.541      2.219
REMARK SMILES O=C(NCc1ccc2cc(CN[C@H]3CCC[C@@H]3O)[nH]c2c1)c1cc(=O)n2ccccc2n1
REMARK SMILES IDX 5 1 6 2 7 3 8 4 9 5 10 6 19 7 20 8 21 9 4 15 3 18 1 19 2 20
REMARK SMILES IDX 22 22 23 23 32 24 24 25 31 27 25 28 26 29 30 30 27 31 29 32
REMARK SMILES IDX 28 34 11 38 12 41 13 43 14 44 17 45 15 47 16 50 18 56
REMARK H PARENT 6 10 7 11 9 12 19 13 21 14 4 16 4 17 3 21 23 26 30 33 27 35
REMARK H PARENT 29 36 28 37 11 39 11 40 12 42 13 46 14 48 14 49 17 51 15 52
REMARK H PARENT 15 53 16 54 16 55 18 57
REMARK Flexibility Score: inf
ROOT
ATOM      1  C   UNL     1     -47.879  35.118  26.775  1.00  0.00    -0.027 A 
ATOM      2  C   UNL     1     -46.584  35.010  26.251  1.00  0.00    -0.057 A 
ATOM      3  C   UNL     1     -46.219  33.930  25.436  1.00  0.00    -0.052 A 
ATOM      4  C   UNL     1     -47.170  32.934  25.146  1.00  0.00    -0.000 A 
ATOM      5  C   UNL     1     -47.143  31.734  24.382  1.00  0.00    -0.032 A 
ATOM      6  C   UNL     1     -48.391  31.149  24.463  1.00  0.00     0.030 A 
ATOM      7  N   UNL     1     -49.169  31.963  25.252  1.00  0.00    -0.357 N 
ATOM      8  C   UNL     1     -48.450  33.053  25.683  1.00  0.00     0.046 A 
ATOM      9  C   UNL     1     -48.833  34.123  26.500  1.00  0.00    -0.033 A 
ATOM     10  H   UNL     1     -45.839  35.771  26.477  1.00  0.00     0.063 H 
ATOM     11  H   UNL     1     -45.212  33.863  25.037  1.00  0.00     0.063 H 
ATOM     12  H   UNL     1     -46.298  31.345  23.830  1.00  0.00     0.065 H 
ATOM     13  H   UNL     1     -50.128  31.757  25.500  1.00  0.00     0.166 HD
ATOM     14  H   UNL     1     -49.836  34.182  26.911  1.00  0.00     0.065 H 
ENDROOT
BRANCH   1  15
ATOM     15  C   UNL     1     -48.238  36.271  27.675  1.00  0.00     0.043 C 
ATOM     16  H   UNL     1     -48.355  35.933  28.712  1.00  0.00     0.054 H 
ATOM     17  H   UNL     1     -49.196  36.715  27.380  1.00  0.00     0.054 H 
BRANCH  15  18
ATOM     18  N   UNL     1     -47.230  37.294  27.625  1.00  0.00    -0.347 N 
ATOM     19  O   UNL     1     -46.163  36.671  29.559  1.00  0.00    -0.268 OA
ATOM     20  C   UNL     1     -46.278  37.428  28.604  1.00  0.00     0.270 C 
ATOM     21  H   UNL     1     -47.266  38.014  26.910  1.00  0.00     0.164 HD
BRANCH  20  22
ATOM     22  C   UNL     1     -45.386  38.625  28.380  1.00  0.00     0.136 A 
ATOM     23  C   UNL     1     -45.673  39.392  27.326  1.00  0.00     0.035 A 
ATOM     24  N   UNL     1     -44.351  38.852  29.259  1.00  0.00    -0.225 NA
ATOM     25  C   UNL     1     -44.831  40.567  27.072  1.00  0.00     0.258 A 
ATOM     26  H   UNL     1     -46.490  39.203  26.642  1.00  0.00     0.071 H 
ATOM     27  C   UNL     1     -43.610  39.894  29.030  1.00  0.00     0.140 A 
ATOM     28  O   UNL     1     -45.088  41.280  26.102  1.00  0.00    -0.269 OA
ATOM     29  N   UNL     1     -43.796  40.775  27.971  1.00  0.00    -0.268 N 
ATOM     30  C   UNL     1     -42.477  40.180  29.956  1.00  0.00    -0.019 A 
ATOM     31  C   UNL     1     -42.955  41.869  27.795  1.00  0.00     0.014 A 
ATOM     32  C   UNL     1     -41.695  41.245  29.746  1.00  0.00    -0.057 A 
ATOM     33  H   UNL     1     -42.325  39.499  30.784  1.00  0.00     0.066 H 
ATOM     34  C   UNL     1     -41.939  42.120  28.630  1.00  0.00    -0.045 A 
ATOM     35  H   UNL     1     -43.158  42.517  26.946  1.00  0.00     0.082 H 
ATOM     36  H   UNL     1     -40.866  41.470  30.409  1.00  0.00     0.062 H 
ATOM     37  H   UNL     1     -41.289  42.977  28.485  1.00  0.00     0.064 H 
ENDBRANCH  20  22
ENDBRANCH  15  18
ENDBRANCH   1  15
BRANCH   6  38
ATOM     38  C   UNL     1     -48.934  29.903  23.855  1.00  0.00     0.036 C 
ATOM     39  H   UNL     1     -48.144  29.397  23.286  1.00  0.00     0.049 H 
ATOM     40  H   UNL     1     -49.732  30.180  23.156  1.00  0.00     0.049 H 
BRANCH  38  41
ATOM     41  N   UNL     1     -49.437  29.031  24.917  1.00  0.00    -0.306 NA
ATOM     42  H   UNL     1     -49.694  29.634  25.700  1.00  0.00     0.123 HD
BRANCH  41  43
ATOM     43  C   UNL     1     -48.401  28.089  25.375  1.00  0.00     0.033 C 
ATOM     44  C   UNL     1     -48.767  27.573  26.775  1.00  0.00    -0.035 C 
ATOM     45  C   UNL     1     -48.370  26.770  24.576  1.00  0.00     0.069 C 
ATOM     46  H   UNL     1     -47.420  28.576  25.418  1.00  0.00     0.049 H 
ATOM     47  C   UNL     1     -49.787  26.462  26.540  1.00  0.00    -0.049 C 
ATOM     48  H   UNL     1     -47.875  27.153  27.258  1.00  0.00     0.028 H 
ATOM     49  H   UNL     1     -49.152  28.351  27.442  1.00  0.00     0.028 H 
ATOM     50  C   UNL     1     -49.549  25.959  25.113  1.00  0.00    -0.025 C 
ATOM     51  H   UNL     1     -48.431  26.915  23.494  1.00  0.00     0.062 H 
ATOM     52  H   UNL     1     -49.673  25.660  27.276  1.00  0.00     0.027 H 
ATOM     53  H   UNL     1     -50.808  26.849  26.633  1.00  0.00     0.027 H 
ATOM     54  H   UNL     1     -49.356  24.881  25.104  1.00  0.00     0.029 H 
ATOM     55  H   UNL     1     -50.445  26.149  24.512  1.00  0.00     0.029 H 
BRANCH  45  56
ATOM     56  O   UNL     1     -47.145  26.082  24.841  1.00  0.00    -0.392 OA
ATOM     57  H   UNL     1     -47.031  25.420  24.137  1.00  0.00     0.211 HD
ENDBRANCH  45  56
ENDBRANCH  41  43
ENDBRANCH  38  41
ENDBRANCH   6  38
TORSDOF 7
ENDMDL
MODEL 3
REMARK VINA RESULT:     -10.1      1.515      2.115
REMARK SMILES O=C(NCc1ccc2cc(CN[C@H]3CCC[C@@H]3O)[nH]c2c1)c1cc(=O)n2ccccc2n1
REMARK SMILES IDX 5 1 6 2 7 3 8 4 9 5 10 6 19 7 20 8 21 9 4 15 3 18 1 19 2 20
REMARK SMILES IDX 22 22 23 23 32 24 24 25 31 27 25 28 26 29 30 30 27 31 29 32
REMARK SMILES IDX 28 34 11 38 12 41 13 43 14 44 17 45 15 47 16 50 18 56
REMARK H PARENT 6 10 7 11 9 12 19 13 21 14 4 16 4 17 3 21 23 26 30 33 27 35
REMARK H PARENT 29 36 28 37 11 39 11 40 12 42 13 46 14 48 14 49 17 51 15 52
REMARK H PARENT 15 53 16 54 16 55 18 57
REMARK Flexibility Score: inf
ROOT
ATOM      1  C   UNL     1     -47.678  36.083  27.082  1.00  0.00    -0.027 A 
ATOM      2  C   UNL     1     -46.373  35.743  26.702  1.00  0.00    -0.057 A 
ATOM      3  C   UNL     1     -46.084  34.491  26.142  1.00  0.00    -0.052 A 
ATOM      4  C   UNL     1     -47.123  33.558  25.967  1.00  0.00    -0.000 A 
ATOM      5  C   UNL     1     -47.187  32.234  25.452  1.00  0.00    -0.032 A 
ATOM      6  C   UNL     1     -48.497  31.805  25.535  1.00  0.00     0.030 A 
ATOM      7  N   UNL     1     -49.224  32.835  26.085  1.00  0.00    -0.357 N 
ATOM      8  C   UNL     1     -48.413  33.910  26.359  1.00  0.00     0.046 A 
ATOM      9  C   UNL     1     -48.721  35.155  26.922  1.00  0.00    -0.033 A 
ATOM     10  H   UNL     1     -45.562  36.454  26.841  1.00  0.00     0.063 H 
ATOM     11  H   UNL     1     -45.068  34.244  25.851  1.00  0.00     0.063 H 
ATOM     12  H   UNL     1     -46.359  31.659  25.058  1.00  0.00     0.065 H 
ATOM     13  H   UNL     1     -50.215  32.780  26.284  1.00  0.00     0.166 HD
ATOM     14  H   UNL     1     -49.735  35.396  27.225  1.00  0.00     0.065 H 
ENDROOT
BRANCH   1  15
ATOM     15  C   UNL     1     -47.959  37.423  27.711  1.00  0.00     0.043 C 
ATOM     16  H   UNL     1     -48.119  37.318  28.791  1.00  0.00     0.054 H 
ATOM     17  H   UNL     1     -48.873  37.865  27.299  1.00  0.00     0.054 H 
BRANCH  15  18
ATOM     18  N   UNL     1     -46.871  38.333  27.483  1.00  0.00    -0.347 N 
ATOM     19  O   UNL     1     -45.984  38.178  29.594  1.00  0.00    -0.268 OA
ATOM     20  C   UNL     1     -45.976  38.663  28.469  1.00  0.00     0.270 C 
ATOM     21  H   UNL     1     -46.804  38.842  26.606  1.00  0.00     0.164 HD
BRANCH  20  22
ATOM     22  C   UNL     1     -44.980  39.704  28.020  1.00  0.00     0.136 A 
ATOM     23  C   UNL     1     -43.927  39.901  28.816  1.00  0.00     0.035 A 
ATOM     24  N   UNL     1     -45.209  40.374  26.839  1.00  0.00    -0.225 NA
ATOM     25  C   UNL     1     -42.932  40.904  28.416  1.00  0.00     0.258 A 
ATOM     26  H   UNL     1     -43.758  39.369  29.742  1.00  0.00     0.071 H 
ATOM     27  C   UNL     1     -44.326  41.259  26.489  1.00  0.00     0.140 A 
ATOM     28  O   UNL     1     -41.958  41.094  29.144  1.00  0.00    -0.269 OA
ATOM     29  N   UNL     1     -43.185  41.564  27.224  1.00  0.00    -0.268 N 
ATOM     30  C   UNL     1     -44.532  42.009  25.218  1.00  0.00    -0.019 A 
ATOM     31  C   UNL     1     -42.286  42.529  26.779  1.00  0.00     0.014 A 
ATOM     32  C   UNL     1     -43.640  42.928  24.831  1.00  0.00    -0.057 A 
ATOM     33  H   UNL     1     -45.418  41.776  24.640  1.00  0.00     0.066 H 
ATOM     34  C   UNL     1     -42.478  43.199  25.636  1.00  0.00    -0.045 A 
ATOM     35  H   UNL     1     -41.416  42.718  27.403  1.00  0.00     0.082 H 
ATOM     36  H   UNL     1     -43.773  43.483  23.909  1.00  0.00     0.062 H 
ATOM     37  H   UNL     1     -41.771  43.949  25.297  1.00  0.00     0.064 H 
ENDBRANCH  20  22
ENDBRANCH  15  18
ENDBRANCH   1  15
BRANCH   6  38
ATOM     38  C   UNL     1     -49.140  30.525  25.132  1.00  0.00     0.036 C 
ATOM     39  H   UNL     1     -49.481  30.595  24.092  1.00  0.00     0.049 H 
ATOM     40  H   UNL     1     -50.020  30.366  25.767  1.00  0.00     0.049 H 
BRANCH  38  41
ATOM     41  N   UNL     1     -48.174  29.436  25.281  1.00  0.00    -0.306 NA
ATOM     42  H   UNL     1     -47.244  29.851  25.206  1.00  0.00     0.123 HD
BRANCH  41  43
ATOM     43  C   UNL     1     -48.325  28.433  24.212  1.00  0.00     0.033 C 
ATOM     44  C   UNL     1     -47.039  27.598  24.113  1.00  0.00    -0.035 C 
ATOM     45  C   UNL     1     -49.362  27.338  24.536  1.00  0.00     0.069 C 
ATOM     46  H   UNL     1     -48.514  28.916  23.246  1.00  0.00     0.049 H 
ATOM     47  C   UNL     1     -47.152  26.553  25.219  1.00  0.00    -0.049 C 
ATOM     48  H   UNL     1     -47.001  27.096  23.138  1.00  0.00     0.028 H 
ATOM     49  H   UNL     1     -46.124  28.193  24.200  1.00  0.00     0.028 H 
ATOM     50  C   UNL     1     -48.649  26.401  25.510  1.00  0.00    -0.025 C 
ATOM     51  H   UNL     1     -50.294  27.729  24.951  1.00  0.00     0.062 H 
ATOM     52  H   UNL     1     -46.701  25.604  24.912  1.00  0.00     0.027 H 
ATOM     53  H   UNL     1     -46.629  26.888  26.121  1.00  0.00     0.027 H 
ATOM     54  H   UNL     1     -48.966  25.359  25.400  1.00  0.00     0.029 H 
ATOM     55  H   UNL     1     -48.845  26.708  26.544  1.00  0.00     0.029 H 
BRANCH  45  56
ATOM     56  O   UNL     1     -49.696  26.631  23.339  1.00  0.00    -0.392 OA
ATOM     57  H   UNL     1     -48.890  26.591  22.795  1.00  0.00     0.211 HD
ENDBRANCH  45  56
ENDBRANCH  41  43
ENDBRANCH  38  41
ENDBRANCH   6  38
TORSDOF 7
ENDMDL
MODEL 4
REMARK VINA RESULT:      -9.9      2.793      4.918
REMARK SMILES O=C(NCc1ccc2cc(CN[C@H]3CCC[C@@H]3O)[nH]c2c1)c1cc(=O)n2ccccc2n1
REMARK SMILES IDX 5 1 6 2 7 3 8 4 9 5 10 6 19 7 20 8 21 9 4 15 3 18 1 19 2 20
REMARK SMILES IDX 22 22 23 23 32 24 24 25 31 27 25 28 26 29 30 30 27 31 29 32
REMARK SMILES IDX 28 34 11 38 12 41 13 43 14 44 17 45 15 47 16 50 18 56
REMARK H PARENT 6 10 7 11 9 12 19 13 21 14 4 16 4 17 3 21 23 26 30 33 27 35
REMARK H PARENT 29 36 28 37 11 39 11 40 12 42 13 46 14 48 14 49 17 51 15 52
REMARK H PARENT 15 53 16 54 16 55 18 57
REMARK Flexibility Score: inf
ROOT
ATOM      1  C   UNL     1     -45.852  37.440  28.235  1.00  0.00    -0.027 A 
ATOM      2  C   UNL     1     -47.191  37.717  27.933  1.00  0.00    -0.057 A 
ATOM      3  C   UNL     1     -47.992  36.780  27.266  1.00  0.00    -0.052 A 
ATOM      4  C   UNL     1     -47.436  35.544  26.887  1.00  0.00    -0.000 A 
ATOM      5  C   UNL     1     -47.942  34.397  26.213  1.00  0.00    -0.032 A 
ATOM      6  C   UNL     1     -46.919  33.474  26.115  1.00  0.00     0.030 A 
ATOM      7  N   UNL     1     -45.814  34.031  26.713  1.00  0.00    -0.357 N 
ATOM      8  C   UNL     1     -46.100  35.290  27.187  1.00  0.00     0.046 A 
ATOM      9  C   UNL     1     -45.284  36.213  27.851  1.00  0.00    -0.033 A 
ATOM     10  H   UNL     1     -47.628  38.673  28.215  1.00  0.00     0.063 H 
ATOM     11  H   UNL     1     -49.029  37.010  27.042  1.00  0.00     0.063 H 
ATOM     12  H   UNL     1     -48.949  34.264  25.843  1.00  0.00     0.065 H 
ATOM     13  H   UNL     1     -44.911  33.578  26.760  1.00  0.00     0.166 HD
ATOM     14  H   UNL     1     -44.243  35.989  28.063  1.00  0.00     0.065 H 
ENDROOT
BRANCH   1  15
ATOM     15  C   UNL     1     -45.001  38.476  28.924  1.00  0.00     0.043 C 
ATOM     16  H   UNL     1     -44.058  38.035  29.272  1.00  0.00     0.054 H 
ATOM     17  H   UNL     1     -45.508  38.873  29.811  1.00  0.00     0.054 H 
BRANCH  15  18
ATOM     18  N   UNL     1     -44.710  39.570  28.039  1.00  0.00    -0.347 N 
ATOM     19  O   UNL     1     -42.923  40.374  29.234  1.00  0.00    -0.268 OA
ATOM     20  C   UNL     1     -43.697  40.460  28.288  1.00  0.00     0.270 C 
ATOM     21  H   UNL     1     -45.325  39.773  27.256  1.00  0.00     0.164 HD
BRANCH  20  22
ATOM     22  C   UNL     1     -43.642  41.572  27.268  1.00  0.00     0.136 A 
ATOM     23  C   UNL     1     -42.430  41.919  26.831  1.00  0.00     0.035 A 
ATOM     24  N   UNL     1     -44.821  42.151  26.857  1.00  0.00    -0.225 NA
ATOM     25  C   UNL     1     -42.331  42.996  25.839  1.00  0.00     0.258 A 
ATOM     26  H   UNL     1     -41.510  41.456  27.163  1.00  0.00     0.071 H 
ATOM     27  C   UNL     1     -44.729  43.102  25.978  1.00  0.00     0.140 A 
ATOM     28  O   UNL     1     -41.217  43.323  25.429  1.00  0.00    -0.269 OA
ATOM     29  N   UNL     1     -43.532  43.562  25.440  1.00  0.00    -0.268 N 
ATOM     30  C   UNL     1     -45.980  43.759  25.502  1.00  0.00    -0.019 A 
ATOM     31  C   UNL     1     -43.519  44.589  24.501  1.00  0.00     0.014 A 
ATOM     32  C   UNL     1     -45.916  44.743  24.598  1.00  0.00    -0.057 A 
ATOM     33  H   UNL     1     -46.917  43.406  25.916  1.00  0.00     0.066 H 
ATOM     34  C   UNL     1     -44.646  45.174  24.078  1.00  0.00    -0.045 A 
ATOM     35  H   UNL     1     -42.547  44.899  24.122  1.00  0.00     0.082 H 
ATOM     36  H   UNL     1     -46.816  45.232  24.240  1.00  0.00     0.062 H 
ATOM     37  H   UNL     1     -44.624  45.974  23.345  1.00  0.00     0.064 H 
ENDBRANCH  20  22
ENDBRANCH  15  18
ENDBRANCH   1  15
BRANCH   6  38
ATOM     38  C   UNL     1     -46.883  32.107  25.529  1.00  0.00     0.036 C 
ATOM     39  H   UNL     1     -47.782  31.554  25.828  1.00  0.00     0.049 H 
ATOM     40  H   UNL     1     -46.011  31.581  25.935  1.00  0.00     0.049 H 
BRANCH  38  41
ATOM     41  N   UNL     1     -46.808  32.212  24.072  1.00  0.00    -0.306 NA
ATOM     42  H   UNL     1     -47.760  32.360  23.734  1.00  0.00     0.123 HD
BRANCH  41  43
ATOM     43  C   UNL     1     -46.287  30.972  23.469  1.00  0.00     0.033 C 
ATOM     44  C   UNL     1     -47.225  29.806  23.814  1.00  0.00    -0.035 C 
ATOM     45  C   UNL     1     -46.358  30.959  21.928  1.00  0.00     0.069 C 
ATOM     46  H   UNL     1     -45.282  30.747  23.844  1.00  0.00     0.049 H 
ATOM     47  C   UNL     1     -48.374  29.904  22.814  1.00  0.00    -0.049 C 
ATOM     48  H   UNL     1     -46.697  28.854  23.671  1.00  0.00     0.028 H 
ATOM     49  H   UNL     1     -47.578  29.820  24.851  1.00  0.00     0.028 H 
ATOM     50  C   UNL     1     -47.824  30.669  21.607  1.00  0.00    -0.025 C 
ATOM     51  H   UNL     1     -46.013  31.889  21.468  1.00  0.00     0.062 H 
ATOM     52  H   UNL     1     -48.737  28.911  22.534  1.00  0.00     0.027 H 
ATOM     53  H   UNL     1     -49.218  30.451  23.249  1.00  0.00     0.027 H 
ATOM     54  H   UNL     1     -47.946  30.089  20.686  1.00  0.00     0.029 H 
ATOM     55  H   UNL     1     -48.380  31.607  21.494  1.00  0.00     0.029 H 
BRANCH  45  56
ATOM     56  O   UNL     1     -45.533  29.907  21.423  1.00  0.00    -0.392 OA
ATOM     57  H   UNL     1     -46.084  29.106  21.379  1.00  0.00     0.211 HD
ENDBRANCH  45  56
ENDBRANCH  41  43
ENDBRANCH  38  41
ENDBRANCH   6  38
TORSDOF 7
ENDMDL
MODEL 5
REMARK VINA RESULT:      -9.8      2.064      3.460
REMARK SMILES O=C(NCc1ccc2cc(CN[C@H]3CCC[C@@H]3O)[nH]c2c1)c1cc(=O)n2ccccc2n1
REMARK SMILES IDX 5 1 6 2 7 3 8 4 9 5 10 6 19 7 20 8 21 9 4 15 3 18 1 19 2 20
REMARK SMILES IDX 22 22 23 23 32 24 24 25 31 27 25 28 26 29 30 30 27 31 29 32
REMARK SMILES IDX 28 34 11 38 12 41 13 43 14 44 17 45 15 47 16 50 18 56
REMARK H PARENT 6 10 7 11 9 12 19 13 21 14 4 16 4 17 3 21 23 26 30 33 27 35
REMARK H PARENT 29 36 28 37 11 39 11 40 12 42 13 46 14 48 14 49 17 51 15 52
REMARK H PARENT 15 53 16 54 16 55 18 57
REMARK Flexibility Score: inf
ROOT
ATOM      1  C   UNL     1     -46.508  35.713  27.807  1.00  0.00    -0.027 A 
ATOM      2  C   UNL     1     -47.898  35.666  27.646  1.00  0.00    -0.057 A 
ATOM      3  C   UNL     1     -48.497  34.739  26.781  1.00  0.00    -0.052 A 
ATOM      4  C   UNL     1     -47.684  33.848  26.057  1.00  0.00    -0.000 A 
ATOM      5  C   UNL     1     -47.945  32.813  25.116  1.00  0.00    -0.032 A 
ATOM      6  C   UNL     1     -46.734  32.272  24.729  1.00  0.00     0.030 A 
ATOM      7  N   UNL     1     -45.752  32.951  25.412  1.00  0.00    -0.357 N 
ATOM      8  C   UNL     1     -46.302  33.915  26.222  1.00  0.00     0.046 A 
ATOM      9  C   UNL     1     -45.686  34.835  27.080  1.00  0.00    -0.033 A 
ATOM     10  H   UNL     1     -48.535  36.356  28.195  1.00  0.00     0.063 H 
ATOM     11  H   UNL     1     -49.576  34.715  26.670  1.00  0.00     0.063 H 
ATOM     12  H   UNL     1     -48.918  32.497  24.764  1.00  0.00     0.065 H 
ATOM     13  H   UNL     1     -44.763  32.775  25.296  1.00  0.00     0.166 HD
ATOM     14  H   UNL     1     -44.605  34.868  27.181  1.00  0.00     0.065 H 
ENDROOT
BRANCH   1  15
ATOM     15  C   UNL     1     -45.885  36.739  28.718  1.00  0.00     0.043 C 
ATOM     16  H   UNL     1     -44.971  36.344  29.180  1.00  0.00     0.054 H 
ATOM     17  H   UNL     1     -46.564  37.000  29.537  1.00  0.00     0.054 H 
BRANCH  15  18
ATOM     18  N   UNL     1     -45.565  37.939  27.993  1.00  0.00    -0.347 N 
ATOM     19  O   UNL     1     -44.235  38.854  29.625  1.00  0.00    -0.268 OA
ATOM     20  C   UNL     1     -44.777  38.926  28.529  1.00  0.00     0.270 C 
ATOM     21  H   UNL     1     -46.009  38.132  27.101  1.00  0.00     0.164 HD
BRANCH  20  22
ATOM     22  C   UNL     1     -44.657  40.125  27.620  1.00  0.00     0.136 A 
ATOM     23  C   UNL     1     -45.790  40.571  27.071  1.00  0.00     0.035 A 
ATOM     24  N   UNL     1     -43.413  40.677  27.413  1.00  0.00    -0.225 NA
ATOM     25  C   UNL     1     -45.718  41.735  26.181  1.00  0.00     0.258 A 
ATOM     26  H   UNL     1     -46.762  40.128  27.241  1.00  0.00     0.071 H 
ATOM     27  C   UNL     1     -43.356  41.707  26.626  1.00  0.00     0.140 A 
ATOM     28  O   UNL     1     -46.757  42.154  25.670  1.00  0.00    -0.269 OA
ATOM     29  N   UNL     1     -44.455  42.274  25.990  1.00  0.00    -0.268 N 
ATOM     30  C   UNL     1     -42.029  42.340  26.373  1.00  0.00    -0.019 A 
ATOM     31  C   UNL     1     -44.308  43.380  25.158  1.00  0.00     0.014 A 
ATOM     32  C   UNL     1     -41.938  43.402  25.565  1.00  0.00    -0.057 A 
ATOM     33  H   UNL     1     -41.168  41.905  26.865  1.00  0.00     0.066 H 
ATOM     34  C   UNL     1     -43.114  43.942  24.936  1.00  0.00    -0.045 A 
ATOM     35  H   UNL     1     -45.210  43.771  24.693  1.00  0.00     0.082 H 
ATOM     36  H   UNL     1     -40.982  43.876  25.370  1.00  0.00     0.062 H 
ATOM     37  H   UNL     1     -43.010  44.806  24.286  1.00  0.00     0.064 H 
ENDBRANCH  20  22
ENDBRANCH  15  18
ENDBRANCH   1  15
BRANCH   6  38
ATOM     38  C   UNL     1     -46.408  31.164  23.790  1.00  0.00     0.036 C 
ATOM     39  H   UNL     1     -45.672  30.495  24.252  1.00  0.00     0.049 H 
ATOM     40  H   UNL     1     -45.955  31.597  22.891  1.00  0.00     0.049 H 
BRANCH  38  41
ATOM     41  N   UNL     1     -47.634  30.433  23.468  1.00  0.00    -0.306 NA
ATOM     42  H   UNL     1     -48.416  31.055  23.679  1.00  0.00     0.123 HD
BRANCH  41  43
ATOM     43  C   UNL     1     -47.769  29.220  24.293  1.00  0.00     0.033 C 
ATOM     44  C   UNL     1     -49.129  29.239  25.007  1.00  0.00    -0.035 C 
ATOM     45  C   UNL     1     -47.888  27.922  23.468  1.00  0.00     0.069 C 
ATOM     46  H   UNL     1     -46.972  29.166  25.044  1.00  0.00     0.049 H 
ATOM     47  C   UNL     1     -50.134  28.742  23.970  1.00  0.00    -0.049 C 
ATOM     48  H   UNL     1     -49.109  28.545  25.857  1.00  0.00     0.028 H 
ATOM     49  H   UNL     1     -49.401  30.222  25.405  1.00  0.00     0.028 H 
ATOM     50  C   UNL     1     -49.331  27.912  22.962  1.00  0.00    -0.025 C 
ATOM     51  H   UNL     1     -47.167  27.859  22.649  1.00  0.00     0.062 H 
ATOM     52  H   UNL     1     -50.925  28.152  24.441  1.00  0.00     0.027 H 
ATOM     53  H   UNL     1     -50.612  29.586  23.461  1.00  0.00     0.027 H 
ATOM     54  H   UNL     1     -49.739  26.900  22.875  1.00  0.00     0.029 H 
ATOM     55  H   UNL     1     -49.391  28.390  21.978  1.00  0.00     0.029 H 
BRANCH  45  56
ATOM     56  O   UNL     1     -47.663  26.795  24.317  1.00  0.00    -0.392 OA
ATOM     57  H   UNL     1     -47.375  26.060  23.748  1.00  0.00     0.211 HD
ENDBRANCH  45  56
ENDBRANCH  41  43
ENDBRANCH  38  41
ENDBRANCH   6  38
TORSDOF 7
ENDMDL
MODEL 6
REMARK VINA RESULT:      -9.7      2.261     11.572
REMARK SMILES O=C(NCc1ccc2cc(CN[C@H]3CCC[C@@H]3O)[nH]c2c1)c1cc(=O)n2ccccc2n1
REMARK SMILES IDX 5 1 6 2 7 3 8 4 9 5 10 6 19 7 20 8 21 9 4 15 3 18 1 19 2 20
REMARK SMILES IDX 22 22 23 23 32 24 24 25 31 27 25 28 26 29 30 30 27 31 29 32
REMARK SMILES IDX 28 34 11 38 12 41 13 43 14 44 17 45 15 47 16 50 18 56
REMARK H PARENT 6 10 7 11 9 12 19 13 21 14 4 16 4 17 3 21 23 26 30 33 27 35
REMARK H PARENT 29 36 28 37 11 39 11 40 12 42 13 46 14 48 14 49 17 51 15 52
REMARK H PARENT 15 53 16 54 16 55 18 57
REMARK Flexibility Score: inf
ROOT
ATOM      1  C   UNL     1     -47.912  34.555  26.849  1.00  0.00    -0.027 A 
ATOM      2  C   UNL     1     -46.737  33.996  27.367  1.00  0.00    -0.057 A 
ATOM      3  C   UNL     1     -45.681  34.807  27.807  1.00  0.00    -0.052 A 
ATOM      4  C   UNL     1     -45.804  36.206  27.719  1.00  0.00    -0.000 A 
ATOM      5  C   UNL     1     -44.955  37.296  28.057  1.00  0.00    -0.032 A 
ATOM      6  C   UNL     1     -45.615  38.466  27.737  1.00  0.00     0.030 A 
ATOM      7  N   UNL     1     -46.837  38.111  27.217  1.00  0.00    -0.357 N 
ATOM      8  C   UNL     1     -46.976  36.744  27.192  1.00  0.00     0.046 A 
ATOM      9  C   UNL     1     -48.040  35.951  26.746  1.00  0.00    -0.033 A 
ATOM     10  H   UNL     1     -46.629  32.915  27.431  1.00  0.00     0.063 H 
ATOM     11  H   UNL     1     -44.778  34.357  28.208  1.00  0.00     0.063 H 
ATOM     12  H   UNL     1     -43.967  37.228  28.492  1.00  0.00     0.065 H 
ATOM     13  H   UNL     1     -47.517  38.777  26.874  1.00  0.00     0.166 HD
ATOM     14  H   UNL     1     -48.938  36.400  26.332  1.00  0.00     0.065 H 
ENDROOT
BRANCH   1  15
ATOM     15  C   UNL     1     -49.020  33.663  26.351  1.00  0.00     0.043 C 
ATOM     16  H   UNL     1     -49.492  34.092  25.459  1.00  0.00     0.054 H 
ATOM     17  H   UNL     1     -49.808  33.560  27.106  1.00  0.00     0.054 H 
BRANCH  15  18
ATOM     18  N   UNL     1     -48.519  32.354  26.035  1.00  0.00    -0.347 N 
ATOM     19  O   UNL     1     -49.952  31.968  24.284  1.00  0.00    -0.268 OA
ATOM     20  C   UNL     1     -49.056  31.590  25.030  1.00  0.00     0.270 C 
ATOM     21  H   UNL     1     -47.820  31.916  26.627  1.00  0.00     0.164 HD
BRANCH  20  22
ATOM     22  C   UNL     1     -48.427  30.221  24.946  1.00  0.00     0.136 A 
ATOM     23  C   UNL     1     -47.520  30.041  23.983  1.00  0.00     0.035 A 
ATOM     24  N   UNL     1     -48.816  29.258  25.849  1.00  0.00    -0.225 NA
ATOM     25  C   UNL     1     -46.883  28.724  23.867  1.00  0.00     0.258 A 
ATOM     26  H   UNL     1     -47.223  30.807  23.279  1.00  0.00     0.071 H 
ATOM     27  C   UNL     1     -48.249  28.095  25.742  1.00  0.00     0.140 A 
ATOM     28  O   UNL     1     -46.045  28.549  22.981  1.00  0.00    -0.269 OA
ATOM     29  N   UNL     1     -47.291  27.772  24.787  1.00  0.00    -0.268 N 
ATOM     30  C   UNL     1     -48.638  27.020  26.699  1.00  0.00    -0.019 A 
ATOM     31  C   UNL     1     -46.731  26.499  24.740  1.00  0.00     0.014 A 
ATOM     32  C   UNL     1     -48.072  25.811  26.614  1.00  0.00    -0.057 A 
ATOM     33  H   UNL     1     -49.383  27.264  27.447  1.00  0.00     0.066 H 
ATOM     34  C   UNL     1     -47.086  25.539  25.602  1.00  0.00    -0.045 A 
ATOM     35  H   UNL     1     -45.988  26.315  23.967  1.00  0.00     0.082 H 
ATOM     36  H   UNL     1     -48.342  25.017  27.301  1.00  0.00     0.062 H 
ATOM     37  H   UNL     1     -46.642  24.549  25.557  1.00  0.00     0.064 H 
ENDBRANCH  20  22
ENDBRANCH  15  18
ENDBRANCH   1  15
BRANCH   6  38
ATOM     38  C   UNL     1     -45.216  39.892  27.887  1.00  0.00     0.036 C 
ATOM     39  H   UNL     1     -45.683  40.312  28.787  1.00  0.00     0.049 H 
ATOM     40  H   UNL     1     -45.590  40.448  27.020  1.00  0.00     0.049 H 
BRANCH  38  41
ATOM     41  N   UNL     1     -43.758  39.975  27.982  1.00  0.00    -0.306 NA
ATOM     42  H   UNL     1     -43.457  39.217  28.597  1.00  0.00     0.123 HD
BRANCH  41  43
ATOM     43  C   UNL     1     -43.329  41.254  28.573  1.00  0.00     0.033 C 
ATOM     44  C   UNL     1     -41.844  41.164  28.959  1.00  0.00    -0.035 C 
ATOM     45  C   UNL     1     -43.300  42.421  27.565  1.00  0.00     0.069 C 
ATOM     46  H   UNL     1     -43.917  41.489  29.468  1.00  0.00     0.049 H 
ATOM     47  C   UNL     1     -41.077  41.414  27.663  1.00  0.00    -0.049 C 
ATOM     48  H   UNL     1     -41.604  41.952  29.683  1.00  0.00     0.028 H 
ATOM     49  H   UNL     1     -41.570  40.211  29.423  1.00  0.00     0.028 H 
ATOM     50  C   UNL     1     -42.023  42.204  26.753  1.00  0.00    -0.025 C 
ATOM     51  H   UNL     1     -44.187  42.469  26.928  1.00  0.00     0.062 H 
ATOM     52  H   UNL     1     -40.149  41.960  27.855  1.00  0.00     0.027 H 
ATOM     53  H   UNL     1     -40.807  40.465  27.186  1.00  0.00     0.027 H 
ATOM     54  H   UNL     1     -41.564  43.144  26.432  1.00  0.00     0.029 H 
ATOM     55  H   UNL     1     -42.239  41.608  25.858  1.00  0.00     0.029 H 
BRANCH  45  56
ATOM     56  O   UNL     1     -43.220  43.660  28.273  1.00  0.00    -0.392 OA
ATOM     57  H   UNL     1     -43.755  44.307  27.779  1.00  0.00     0.211 HD
ENDBRANCH  45  56
ENDBRANCH  41  43
ENDBRANCH  38  41
ENDBRANCH   6  38
TORSDOF 7
ENDMDL
MODEL 7
REMARK VINA RESULT:      -9.6      2.238      3.680
REMARK SMILES O=C(NCc1ccc2cc(CN[C@H]3CCC[C@@H]3O)[nH]c2c1)c1cc(=O)n2ccccc2n1
REMARK SMILES IDX 5 1 6 2 7 3 8 4 9 5 10 6 19 7 20 8 21 9 4 15 3 18 1 19 2 20
REMARK SMILES IDX 22 22 23 23 32 24 24 25 31 27 25 28 26 29 30 30 27 31 29 32
REMARK SMILES IDX 28 34 11 38 12 41 13 43 14 44 17 45 15 47 16 50 18 56
REMARK H PARENT 6 10 7 11 9 12 19 13 21 14 4 16 4 17 3 21 23 26 30 33 27 35
REMARK H PARENT 29 36 28 37 11 39 11 40 12 42 13 46 14 48 14 49 17 51 15 52
REMARK H PARENT 15 53 16 54 16 55 18 57
REMARK Flexibility Score: inf
ROOT
ATOM      1  C   UNL     1     -46.827  36.868  28.322  1.00  0.00    -0.027 A 
ATOM      2  C   UNL     1     -45.573  36.245  28.302  1.00  0.00    -0.057 A 
ATOM      3  C   UNL     1     -45.403  34.978  27.726  1.00  0.00    -0.052 A 
ATOM      4  C   UNL     1     -46.514  34.321  27.166  1.00  0.00    -0.000 A 
ATOM      5  C   UNL     1     -46.699  33.065  26.523  1.00  0.00    -0.032 A 
ATOM      6  C   UNL     1     -48.033  32.953  26.182  1.00  0.00     0.030 A 
ATOM      7  N   UNL     1     -48.655  34.106  26.600  1.00  0.00    -0.357 N 
ATOM      8  C   UNL     1     -47.755  34.952  27.204  1.00  0.00     0.046 A 
ATOM      9  C   UNL     1     -47.946  36.216  27.776  1.00  0.00    -0.033 A 
ATOM     10  H   UNL     1     -44.710  36.742  28.739  1.00  0.00     0.063 H 
ATOM     11  H   UNL     1     -44.423  34.511  27.716  1.00  0.00     0.063 H 
ATOM     12  H   UNL     1     -45.934  32.326  26.329  1.00  0.00     0.065 H 
ATOM     13  H   UNL     1     -49.646  34.278  26.499  1.00  0.00     0.166 HD
ATOM     14  H   UNL     1     -48.928  36.677  27.797  1.00  0.00     0.065 H 
ENDROOT
BRANCH   1  15
ATOM     15  C   UNL     1     -46.993  38.216  28.976  1.00  0.00     0.043 C 
ATOM     16  H   UNL     1     -46.859  38.140  30.062  1.00  0.00     0.054 H 
ATOM     17  H   UNL     1     -48.002  38.610  28.810  1.00  0.00     0.054 H 
BRANCH  15  18
ATOM     18  N   UNL     1     -46.045  39.159  28.450  1.00  0.00    -0.347 N 
ATOM     19  O   UNL     1     -47.226  39.648  26.544  1.00  0.00    -0.268 OA
ATOM     20  C   UNL     1     -46.230  39.784  27.243  1.00  0.00     0.270 C 
ATOM     21  H   UNL     1     -45.154  39.303  28.916  1.00  0.00     0.164 HD
BRANCH  20  22
ATOM     22  C   UNL     1     -45.061  40.659  26.861  1.00  0.00     0.136 A 
ATOM     23  C   UNL     1     -44.021  40.662  27.699  1.00  0.00     0.035 A 
ATOM     24  N   UNL     1     -45.132  41.387  25.695  1.00  0.00    -0.225 NA
ATOM     25  C   UNL     1     -42.863  41.498  27.365  1.00  0.00     0.258 A 
ATOM     26  H   UNL     1     -43.977  40.085  28.614  1.00  0.00     0.071 H 
ATOM     27  C   UNL     1     -44.104  42.125  25.404  1.00  0.00     0.140 A 
ATOM     28  O   UNL     1     -41.899  41.508  28.132  1.00  0.00    -0.269 OA
ATOM     29  N   UNL     1     -42.958  42.221  26.186  1.00  0.00    -0.268 N 
ATOM     30  C   UNL     1     -44.136  42.931  24.150  1.00  0.00    -0.019 A 
ATOM     31  C   UNL     1     -41.898  43.037  25.803  1.00  0.00     0.014 A 
ATOM     32  C   UNL     1     -43.092  43.701  23.824  1.00  0.00    -0.057 A 
ATOM     33  H   UNL     1     -45.025  42.861  23.535  1.00  0.00     0.066 H 
ATOM     34  C   UNL     1     -41.934  43.758  24.676  1.00  0.00    -0.045 A 
ATOM     35  H   UNL     1     -41.034  43.065  26.462  1.00  0.00     0.082 H 
ATOM     36  H   UNL     1     -43.097  44.294  22.915  1.00  0.00     0.062 H 
ATOM     37  H   UNL     1     -41.101  44.391  24.386  1.00  0.00     0.064 H 
ENDBRANCH  20  22
ENDBRANCH  15  18
ENDBRANCH   1  15
BRANCH   6  38
ATOM     38  C   UNL     1     -48.781  31.872  25.484  1.00  0.00     0.036 C 
ATOM     39  H   UNL     1     -49.195  32.259  24.545  1.00  0.00     0.049 H 
ATOM     40  H   UNL     1     -49.617  31.564  26.122  1.00  0.00     0.049 H 
BRANCH  38  41
ATOM     41  N   UNL     1     -47.874  30.754  25.222  1.00  0.00    -0.306 NA
ATOM     42  H   UNL     1     -47.012  31.152  24.845  1.00  0.00     0.123 HD
BRANCH  41  43
ATOM     43  C   UNL     1     -48.436  29.829  24.222  1.00  0.00     0.033 C 
ATOM     44  C   UNL     1     -48.434  30.507  22.843  1.00  0.00    -0.035 C 
ATOM     45  C   UNL     1     -47.543  28.602  23.946  1.00  0.00     0.069 C 
ATOM     46  H   UNL     1     -49.464  29.549  24.481  1.00  0.00     0.049 H 
ATOM     47  C   UNL     1     -47.012  30.341  22.315  1.00  0.00    -0.049 C 
ATOM     48  H   UNL     1     -49.134  29.988  22.176  1.00  0.00     0.028 H 
ATOM     49  H   UNL     1     -48.743  31.558  22.872  1.00  0.00     0.028 H 
ATOM     50  C   UNL     1     -46.426  29.126  23.044  1.00  0.00    -0.025 C 
ATOM     51  H   UNL     1     -47.151  28.136  24.854  1.00  0.00     0.062 H 
ATOM     52  H   UNL     1     -47.009  30.202  21.230  1.00  0.00     0.027 H 
ATOM     53  H   UNL     1     -46.412  31.231  22.534  1.00  0.00     0.027 H 
ATOM     54  H   UNL     1     -46.074  28.374  22.331  1.00  0.00     0.029 H 
ATOM     55  H   UNL     1     -45.571  29.450  23.648  1.00  0.00     0.029 H 
BRANCH  45  56
ATOM     56  O   UNL     1     -48.301  27.608  23.254  1.00  0.00    -0.392 OA
ATOM     57  H   UNL     1     -48.404  27.914  22.336  1.00  0.00     0.211 HD
ENDBRANCH  45  56
ENDBRANCH  41  43
ENDBRANCH  38  41
ENDBRANCH   6  38
TORSDOF 7
ENDMDL
