MODEL 1
REMARK VINA RESULT:     -11.3      0.000      0.000
REMARK SMILES FC1(F)CC(CNCc2cc3ccc(Cc4cn(-c5cccc6[nH]ncc56)nn4)cc3[nH]2)C1
REMARK SMILES IDX 9 1 10 2 11 3 12 4 13 5 14 6 30 7 31 8 32 9 8 15 7 18 6 20
REMARK SMILES IDX 5 23 1 24 2 25 3 26 4 27 33 28 15 34 16 37 17 38 29 39 18 40
REMARK SMILES IDX 28 42 19 43 20 44 27 45 21 46 23 48 26 49 22 50 24 52 25 53
REMARK H PARENT 10 10 12 11 13 12 30 13 32 14 8 16 8 17 7 19 6 21 6 22 4 29
REMARK H PARENT 4 30 33 31 33 32 5 33 15 35 15 36 17 41 20 47 21 51 26 54
REMARK H PARENT 22 55 24 56
REMARK Flexibility Score: inf
ROOT
ATOM      1  C   UNL     1     -48.027  31.607  24.584  1.00  0.00     0.030 A 
ATOM      2  C   UNL     1     -46.795  32.229  24.616  1.00  0.00    -0.032 A 
ATOM      3  C   UNL     1     -46.906  33.387  25.436  1.00  0.00    -0.000 A 
ATOM      4  C   UNL     1     -46.009  34.394  25.834  1.00  0.00    -0.053 A 
ATOM      5  C   UNL     1     -46.458  35.421  26.674  1.00  0.00    -0.058 A 
ATOM      6  C   UNL     1     -47.785  35.464  27.125  1.00  0.00    -0.040 A 
ATOM      7  C   UNL     1     -48.688  34.457  26.735  1.00  0.00    -0.034 A 
ATOM      8  C   UNL     1     -48.221  33.442  25.892  1.00  0.00     0.046 A 
ATOM      9  N   UNL     1     -48.879  32.359  25.359  1.00  0.00    -0.357 N 
ATOM     10  H   UNL     1     -45.904  31.891  24.102  1.00  0.00     0.065 H 
ATOM     11  H   UNL     1     -44.978  34.376  25.495  1.00  0.00     0.063 H 
ATOM     12  H   UNL     1     -45.752  36.194  26.972  1.00  0.00     0.063 H 
ATOM     13  H   UNL     1     -49.722  34.474  27.068  1.00  0.00     0.065 H 
ATOM     14  H   UNL     1     -49.846  32.120  25.529  1.00  0.00     0.166 HD
ENDROOT
BRANCH   1  15
ATOM     15  C   UNL     1     -48.493  30.380  23.883  1.00  0.00     0.036 C 
ATOM     16  H   UNL     1     -49.569  30.262  24.053  1.00  0.00     0.049 H 
ATOM     17  H   UNL     1     -48.328  30.486  22.805  1.00  0.00     0.049 H 
BRANCH  15  18
ATOM     18  N   UNL     1     -47.761  29.226  24.403  1.00  0.00    -0.311 NA
ATOM     19  H   UNL     1     -47.422  28.689  23.603  1.00  0.00     0.123 HD
BRANCH  18  20
ATOM     20  C   UNL     1     -48.634  28.381  25.218  1.00  0.00    -0.001 C 
ATOM     21  H   UNL     1     -48.487  28.604  26.282  1.00  0.00     0.043 H 
ATOM     22  H   UNL     1     -49.684  28.583  24.976  1.00  0.00     0.043 H 
BRANCH  20  23
ATOM     23  C   UNL     1     -48.323  26.909  24.936  1.00  0.00    -0.017 C 
ATOM     24  F   UNL     1     -47.181  26.827  27.632  1.00  0.00    -0.207 F 
ATOM     25  C   UNL     1     -47.364  25.953  26.615  1.00  0.00     0.248 C 
ATOM     26  F   UNL     1     -46.874  24.765  27.029  1.00  0.00    -0.207 F 
ATOM     27  C   UNL     1     -48.793  25.919  26.029  1.00  0.00     0.015 C 
ATOM     28  C   UNL     1     -46.878  26.435  25.231  1.00  0.00     0.015 C 
ATOM     29  H   UNL     1     -49.081  24.935  25.641  1.00  0.00     0.033 H 
ATOM     30  H   UNL     1     -49.582  26.276  26.696  1.00  0.00     0.033 H 
ATOM     31  H   UNL     1     -46.106  27.209  25.252  1.00  0.00     0.033 H 
ATOM     32  H   UNL     1     -46.538  25.620  24.581  1.00  0.00     0.033 H 
ATOM     33  H   UNL     1     -48.676  26.624  23.936  1.00  0.00     0.032 H 
ENDBRANCH  20  23
ENDBRANCH  18  20
ENDBRANCH  15  18
ENDBRANCH   1  15
BRANCH   6  34
ATOM     34  C   UNL     1     -48.245  36.586  28.027  1.00  0.00     0.018 C 
ATOM     35  H   UNL     1     -48.809  36.203  28.885  1.00  0.00     0.038 H 
ATOM     36  H   UNL     1     -48.910  37.261  27.476  1.00  0.00     0.038 H 
BRANCH  34  37
ATOM     37  C   UNL     1     -47.017  37.286  28.483  1.00  0.00     0.088 A 
ATOM     38  C   UNL     1     -46.305  38.314  27.899  1.00  0.00     0.055 A 
ATOM     39  N   UNL     1     -46.382  36.909  29.632  1.00  0.00    -0.135 NA
ATOM     40  N   UNL     1     -45.264  38.570  28.759  1.00  0.00    -0.220 N 
ATOM     41  H   UNL     1     -46.464  38.836  26.973  1.00  0.00     0.086 H 
ATOM     42  N   UNL     1     -45.312  37.675  29.781  1.00  0.00    -0.062 NA
BRANCH  40  43
ATOM     43  C   UNL     1     -44.236  39.546  28.682  1.00  0.00     0.077 A 
ATOM     44  C   UNL     1     -43.302  39.616  29.742  1.00  0.00    -0.035 A 
ATOM     45  C   UNL     1     -44.091  40.457  27.606  1.00  0.00     0.045 A 
ATOM     46  C   UNL     1     -42.245  40.526  29.728  1.00  0.00    -0.058 A 
ATOM     47  H   UNL     1     -43.379  38.943  30.597  1.00  0.00     0.065 H 
ATOM     48  C   UNL     1     -43.016  41.350  27.630  1.00  0.00     0.067 A 
ATOM     49  C   UNL     1     -44.773  40.810  26.412  1.00  0.00     0.059 A 
ATOM     50  C   UNL     1     -42.077  41.408  28.664  1.00  0.00    -0.036 A 
ATOM     51  H   UNL     1     -41.542  40.544  30.559  1.00  0.00     0.062 H 
ATOM     52  N   UNL     1     -43.117  42.093  26.482  1.00  0.00    -0.278 N 
ATOM     53  N   UNL     1     -44.175  41.784  25.723  1.00  0.00    -0.183 NA
ATOM     54  H   UNL     1     -45.691  40.414  26.003  1.00  0.00     0.087 H 
ATOM     55  H   UNL     1     -41.255  42.116  28.651  1.00  0.00     0.065 H 
ATOM     56  H   UNL     1     -42.498  42.834  26.170  1.00  0.00     0.190 HD
ENDBRANCH  40  43
ENDBRANCH  34  37
ENDBRANCH   6  34
TORSDOF 7
ENDMDL
MODEL 2
REMARK VINA RESULT:     -10.9      1.738      2.529
REMARK SMILES FC1(F)CC(CNCc2cc3ccc(Cc4cn(-c5cccc6[nH]ncc56)nn4)cc3[nH]2)C1
REMARK SMILES IDX 9 1 10 2 11 3 12 4 13 5 14 6 30 7 31 8 32 9 8 15 7 18 6 20
REMARK SMILES IDX 5 23 1 24 2 25 3 26 4 27 33 28 15 34 16 37 17 38 29 39 18 40
REMARK SMILES IDX 28 42 19 43 20 44 27 45 21 46 23 48 26 49 22 50 24 52 25 53
REMARK H PARENT 10 10 12 11 13 12 30 13 32 14 8 16 8 17 7 19 6 21 6 22 4 29
REMARK H PARENT 4 30 33 31 33 32 5 33 15 35 15 36 17 41 20 47 21 51 26 54
REMARK H PARENT 22 55 24 56
REMARK Flexibility Score: inf
ROOT
ATOM      1  C   UNL     1     -46.531  31.639  24.187  1.00  0.00     0.030 A 
ATOM      2  C   UNL     1     -47.802  32.119  24.425  1.00  0.00    -0.032 A 
ATOM      3  C   UNL     1     -47.727  33.062  25.488  1.00  0.00    -0.000 A 
ATOM      4  C   UNL     1     -48.671  33.862  26.156  1.00  0.00    -0.053 A 
ATOM      5  C   UNL     1     -48.247  34.707  27.190  1.00  0.00    -0.058 A 
ATOM      6  C   UNL     1     -46.899  34.770  27.571  1.00  0.00    -0.040 A 
ATOM      7  C   UNL     1     -45.946  33.977  26.904  1.00  0.00    -0.034 A 
ATOM      8  C   UNL     1     -46.391  33.136  25.876  1.00  0.00     0.046 A 
ATOM      9  N   UNL     1     -45.690  32.262  25.079  1.00  0.00    -0.357 N 
ATOM     10  H   UNL     1     -48.699  31.825  23.893  1.00  0.00     0.065 H 
ATOM     11  H   UNL     1     -49.719  33.826  25.874  1.00  0.00     0.063 H 
ATOM     12  H   UNL     1     -48.990  35.319  27.698  1.00  0.00     0.063 H 
ATOM     13  H   UNL     1     -44.898  34.005  27.186  1.00  0.00     0.065 H 
ATOM     14  H   UNL     1     -44.691  32.112  25.113  1.00  0.00     0.166 HD
ENDROOT
BRANCH   1  15
ATOM     15  C   UNL     1     -46.024  30.636  23.212  1.00  0.00     0.036 C 
ATOM     16  H   UNL     1     -46.425  30.871  22.220  1.00  0.00     0.049 H 
ATOM     17  H   UNL     1     -44.930  30.694  23.159  1.00  0.00     0.049 H 
BRANCH  15  18
ATOM     18  N   UNL     1     -46.447  29.302  23.635  1.00  0.00    -0.311 NA
ATOM     19  H   UNL     1     -45.752  28.635  23.296  1.00  0.00     0.123 HD
BRANCH  18  20
ATOM     20  C   UNL     1     -47.754  28.968  23.068  1.00  0.00    -0.001 C 
ATOM     21  H   UNL     1     -48.471  29.771  23.278  1.00  0.00     0.043 H 
ATOM     22  H   UNL     1     -47.676  28.866  21.979  1.00  0.00     0.043 H 
BRANCH  20  23
ATOM     23  C   UNL     1     -48.244  27.647  23.666  1.00  0.00    -0.017 C 
ATOM     24  F   UNL     1     -48.764  29.165  26.116  1.00  0.00    -0.207 F 
ATOM     25  C   UNL     1     -48.911  27.885  25.703  1.00  0.00     0.248 C 
ATOM     26  F   UNL     1     -49.441  27.199  26.739  1.00  0.00    -0.207 F 
ATOM     27  C   UNL     1     -49.632  27.711  24.349  1.00  0.00     0.015 C 
ATOM     28  C   UNL     1     -47.664  27.252  25.048  1.00  0.00     0.015 C 
ATOM     29  H   UNL     1     -50.204  26.779  24.277  1.00  0.00     0.033 H 
ATOM     30  H   UNL     1     -50.277  28.541  24.051  1.00  0.00     0.033 H 
ATOM     31  H   UNL     1     -46.710  27.709  25.324  1.00  0.00     0.033 H 
ATOM     32  H   UNL     1     -47.592  26.169  25.205  1.00  0.00     0.033 H 
ATOM     33  H   UNL     1     -48.181  26.840  22.925  1.00  0.00     0.032 H 
ENDBRANCH  20  23
ENDBRANCH  18  20
ENDBRANCH  15  18
ENDBRANCH   1  15
BRANCH   6  34
ATOM     34  C   UNL     1     -46.468  35.687  28.693  1.00  0.00     0.018 C 
ATOM     35  H   UNL     1     -45.619  35.269  29.246  1.00  0.00     0.038 H 
ATOM     36  H   UNL     1     -47.290  35.816  29.407  1.00  0.00     0.038 H 
BRANCH  34  37
ATOM     37  C   UNL     1     -46.092  36.976  28.059  1.00  0.00     0.088 A 
ATOM     38  C   UNL     1     -45.122  37.894  28.407  1.00  0.00     0.055 A 
ATOM     39  N   UNL     1     -46.774  37.448  26.974  1.00  0.00    -0.135 NA
ATOM     40  N   UNL     1     -45.213  38.893  27.468  1.00  0.00    -0.220 N 
ATOM     41  H   UNL     1     -44.425  37.897  29.224  1.00  0.00     0.086 H 
ATOM     42  N   UNL     1     -46.251  38.617  26.635  1.00  0.00    -0.062 NA
BRANCH  40  43
ATOM     43  C   UNL     1     -44.440  40.073  27.313  1.00  0.00     0.077 A 
ATOM     44  C   UNL     1     -44.601  40.826  26.126  1.00  0.00    -0.035 A 
ATOM     45  C   UNL     1     -43.513  40.543  28.278  1.00  0.00     0.045 A 
ATOM     46  C   UNL     1     -43.900  42.014  25.912  1.00  0.00    -0.058 A 
ATOM     47  H   UNL     1     -45.294  40.500  25.350  1.00  0.00     0.065 H 
ATOM     48  C   UNL     1     -42.836  41.738  28.025  1.00  0.00     0.067 A 
ATOM     49  C   UNL     1     -42.976  40.128  29.525  1.00  0.00     0.059 A 
ATOM     50  C   UNL     1     -43.007  42.498  26.864  1.00  0.00    -0.036 A 
ATOM     51  H   UNL     1     -44.057  42.569  24.988  1.00  0.00     0.062 H 
ATOM     52  N   UNL     1     -42.024  41.950  29.109  1.00  0.00    -0.278 N 
ATOM     53  N   UNL     1     -42.092  40.987  30.037  1.00  0.00    -0.183 NA
ATOM     54  H   UNL     1     -43.174  39.232  30.095  1.00  0.00     0.087 H 
ATOM     55  H   UNL     1     -42.463  43.421  26.698  1.00  0.00     0.065 H 
ATOM     56  H   UNL     1     -41.394  42.728  29.266  1.00  0.00     0.190 HD
ENDBRANCH  40  43
ENDBRANCH  34  37
ENDBRANCH   6  34
TORSDOF 7
ENDMDL
MODEL 3
REMARK VINA RESULT:     -10.4      1.960      3.027
REMARK SMILES FC1(F)CC(CNCc2cc3ccc(Cc4cn(-c5cccc6[nH]ncc56)nn4)cc3[nH]2)C1
REMARK SMILES IDX 9 1 10 2 11 3 12 4 13 5 14 6 30 7 31 8 32 9 8 15 7 18 6 20
REMARK SMILES IDX 5 23 1 24 2 25 3 26 4 27 33 28 15 34 16 37 17 38 29 39 18 40
REMARK SMILES IDX 28 42 19 43 20 44 27 45 21 46 23 48 26 49 22 50 24 52 25 53
REMARK H PARENT 10 10 12 11 13 12 30 13 32 14 8 16 8 17 7 19 6 21 6 22 4 29
REMARK H PARENT 4 30 33 31 33 32 5 33 15 35 15 36 17 41 20 47 21 51 26 54
REMARK H PARENT 22 55 24 56
REMARK Flexibility Score: inf
ROOT
ATOM      1  C   UNL     1     -46.614  33.269  25.522  1.00  0.00     0.030 A 
ATOM      2  C   UNL     1     -47.849  33.807  25.818  1.00  0.00    -0.032 A 
ATOM      3  C   UNL     1     -47.655  34.887  26.725  1.00  0.00    -0.000 A 
ATOM      4  C   UNL     1     -48.518  35.793  27.367  1.00  0.00    -0.053 A 
ATOM      5  C   UNL     1     -47.982  36.763  28.223  1.00  0.00    -0.058 A 
ATOM      6  C   UNL     1     -46.600  36.848  28.452  1.00  0.00    -0.040 A 
ATOM      7  C   UNL     1     -45.729  35.948  27.810  1.00  0.00    -0.034 A 
ATOM      8  C   UNL     1     -46.286  34.982  26.961  1.00  0.00     0.046 A 
ATOM      9  N   UNL     1     -45.679  33.991  26.228  1.00  0.00    -0.357 N 
ATOM     10  H   UNL     1     -48.798  33.463  25.427  1.00  0.00     0.065 H 
ATOM     11  H   UNL     1     -49.590  35.742  27.201  1.00  0.00     0.063 H 
ATOM     12  H   UNL     1     -48.662  37.457  28.714  1.00  0.00     0.063 H 
ATOM     13  H   UNL     1     -44.657  35.991  27.977  1.00  0.00     0.065 H 
ATOM     14  H   UNL     1     -44.683  33.824  26.180  1.00  0.00     0.166 HD
ENDROOT
BRANCH   1  15
ATOM     15  C   UNL     1     -46.219  32.130  24.651  1.00  0.00     0.036 C 
ATOM     16  H   UNL     1     -45.323  32.410  24.084  1.00  0.00     0.049 H 
ATOM     17  H   UNL     1     -45.971  31.260  25.271  1.00  0.00     0.049 H 
BRANCH  15  18
ATOM     18  N   UNL     1     -47.322  31.815  23.745  1.00  0.00    -0.311 NA
ATOM     19  H   UNL     1     -48.190  31.887  24.278  1.00  0.00     0.123 HD
BRANCH  18  20
ATOM     20  C   UNL     1     -47.190  30.458  23.216  1.00  0.00    -0.001 C 
ATOM     21  H   UNL     1     -47.044  30.490  22.129  1.00  0.00     0.043 H 
ATOM     22  H   UNL     1     -46.313  29.967  23.655  1.00  0.00     0.043 H 
BRANCH  20  23
ATOM     23  C   UNL     1     -48.445  29.654  23.560  1.00  0.00    -0.017 C 
ATOM     24  F   UNL     1     -46.624  27.490  24.321  1.00  0.00    -0.207 F 
ATOM     25  C   UNL     1     -47.963  27.688  24.303  1.00  0.00     0.248 C 
ATOM     26  F   UNL     1     -48.530  26.556  24.775  1.00  0.00    -0.207 F 
ATOM     27  C   UNL     1     -48.441  29.000  24.963  1.00  0.00     0.015 C 
ATOM     28  C   UNL     1     -48.537  28.223  22.973  1.00  0.00     0.015 C 
ATOM     29  H   UNL     1     -49.435  28.921  25.418  1.00  0.00     0.033 H 
ATOM     30  H   UNL     1     -47.755  29.434  25.695  1.00  0.00     0.033 H 
ATOM     31  H   UNL     1     -47.928  28.020  22.088  1.00  0.00     0.033 H 
ATOM     32  H   UNL     1     -49.563  27.889  22.777  1.00  0.00     0.033 H 
ATOM     33  H   UNL     1     -49.349  30.252  23.383  1.00  0.00     0.032 H 
ENDBRANCH  20  23
ENDBRANCH  18  20
ENDBRANCH  15  18
ENDBRANCH   1  15
BRANCH   6  34
ATOM     34  C   UNL     1     -46.048  37.901  29.385  1.00  0.00     0.018 C 
ATOM     35  H   UNL     1     -45.164  37.536  29.920  1.00  0.00     0.038 H 
ATOM     36  H   UNL     1     -46.799  38.165  30.139  1.00  0.00     0.038 H 
BRANCH  34  37
ATOM     37  C   UNL     1     -45.696  39.068  28.536  1.00  0.00     0.088 A 
ATOM     38  C   UNL     1     -44.465  39.607  28.223  1.00  0.00     0.055 A 
ATOM     39  N   UNL     1     -46.670  39.828  27.953  1.00  0.00    -0.135 NA
ATOM     40  N   UNL     1     -44.734  40.672  27.397  1.00  0.00    -0.220 N 
ATOM     41  H   UNL     1     -43.478  39.318  28.531  1.00  0.00     0.086 H 
ATOM     42  N   UNL     1     -46.082  40.808  27.283  1.00  0.00    -0.062 NA
BRANCH  40  43
ATOM     43  C   UNL     1     -43.846  41.568  26.745  1.00  0.00     0.077 A 
ATOM     44  C   UNL     1     -42.466  41.478  27.046  1.00  0.00    -0.035 A 
ATOM     45  C   UNL     1     -44.261  42.550  25.810  1.00  0.00     0.045 A 
ATOM     46  C   UNL     1     -41.527  42.302  26.426  1.00  0.00    -0.058 A 
ATOM     47  H   UNL     1     -42.101  40.746  27.767  1.00  0.00     0.065 H 
ATOM     48  C   UNL     1     -43.286  43.351  25.210  1.00  0.00     0.067 A 
ATOM     49  C   UNL     1     -45.470  43.051  25.261  1.00  0.00     0.059 A 
ATOM     50  C   UNL     1     -41.919  43.252  25.487  1.00  0.00    -0.036 A 
ATOM     51  H   UNL     1     -40.473  42.198  26.679  1.00  0.00     0.062 H 
ATOM     52  N   UNL     1     -43.958  44.192  24.361  1.00  0.00    -0.278 N 
ATOM     53  N   UNL     1     -45.287  44.029  24.371  1.00  0.00    -0.183 NA
ATOM     54  H   UNL     1     -46.491  42.762  25.468  1.00  0.00     0.087 H 
ATOM     55  H   UNL     1     -41.189  43.893  25.004  1.00  0.00     0.065 H 
ATOM     56  H   UNL     1     -43.564  44.905  23.758  1.00  0.00     0.190 HD
ENDBRANCH  40  43
ENDBRANCH  34  37
ENDBRANCH   6  34
TORSDOF 7
ENDMDL
MODEL 4
REMARK VINA RESULT:     -10.0      4.646     11.164
REMARK SMILES FC1(F)CC(CNCc2cc3ccc(Cc4cn(-c5cccc6[nH]ncc56)nn4)cc3[nH]2)C1
REMARK SMILES IDX 9 1 10 2 11 3 12 4 13 5 14 6 30 7 31 8 32 9 8 15 7 18 6 20
REMARK SMILES IDX 5 23 1 24 2 25 3 26 4 27 33 28 15 34 16 37 17 38 29 39 18 40
REMARK SMILES IDX 28 42 19 43 20 44 27 45 21 46 23 48 26 49 22 50 24 52 25 53
REMARK H PARENT 10 10 12 11 13 12 30 13 32 14 8 16 8 17 7 19 6 21 6 22 4 29
REMARK H PARENT 4 30 33 31 33 32 5 33 15 35 15 36 17 41 20 47 21 51 26 54
REMARK H PARENT 22 55 24 56
REMARK Flexibility Score: inf
ROOT
ATOM      1  C   UNL     1     -46.758  40.365  26.579  1.00  0.00     0.030 A 
ATOM      2  C   UNL     1     -47.916  39.899  27.167  1.00  0.00    -0.032 A 
ATOM      3  C   UNL     1     -47.722  38.529  27.501  1.00  0.00    -0.000 A 
ATOM      4  C   UNL     1     -48.525  37.546  28.107  1.00  0.00    -0.053 A 
ATOM      5  C   UNL     1     -48.010  36.257  28.292  1.00  0.00    -0.058 A 
ATOM      6  C   UNL     1     -46.708  35.929  27.886  1.00  0.00    -0.040 A 
ATOM      7  C   UNL     1     -45.896  36.908  27.284  1.00  0.00    -0.034 A 
ATOM      8  C   UNL     1     -46.431  38.189  27.103  1.00  0.00     0.046 A 
ATOM      9  N   UNL     1     -45.872  39.313  26.544  1.00  0.00    -0.357 N 
ATOM     10  H   UNL     1     -48.814  40.479  27.340  1.00  0.00     0.065 H 
ATOM     11  H   UNL     1     -49.535  37.782  28.427  1.00  0.00     0.063 H 
ATOM     12  H   UNL     1     -48.644  35.506  28.761  1.00  0.00     0.063 H 
ATOM     13  H   UNL     1     -44.887  36.674  26.957  1.00  0.00     0.065 H 
ATOM     14  H   UNL     1     -44.930  39.380  26.182  1.00  0.00     0.166 HD
ENDROOT
BRANCH   1  15
ATOM     15  C   UNL     1     -46.402  41.699  26.027  1.00  0.00     0.036 C 
ATOM     16  H   UNL     1     -47.120  41.962  25.241  1.00  0.00     0.049 H 
ATOM     17  H   UNL     1     -46.471  42.456  26.818  1.00  0.00     0.049 H 
BRANCH  15  18
ATOM     18  N   UNL     1     -45.045  41.646  25.486  1.00  0.00    -0.311 NA
ATOM     19  H   UNL     1     -44.672  40.714  25.676  1.00  0.00     0.123 HD
BRANCH  18  20
ATOM     20  C   UNL     1     -44.191  42.647  26.124  1.00  0.00    -0.001 C 
ATOM     21  H   UNL     1     -43.268  42.779  25.546  1.00  0.00     0.043 H 
ATOM     22  H   UNL     1     -44.706  43.615  26.156  1.00  0.00     0.043 H 
BRANCH  20  23
ATOM     23  C   UNL     1     -43.864  42.201  27.551  1.00  0.00    -0.017 C 
ATOM     24  F   UNL     1     -41.129  41.779  26.594  1.00  0.00    -0.207 F 
ATOM     25  C   UNL     1     -41.790  41.653  27.768  1.00  0.00     0.248 C 
ATOM     26  F   UNL     1     -40.889  41.224  28.678  1.00  0.00    -0.207 F 
ATOM     27  C   UNL     1     -42.627  42.882  28.185  1.00  0.00     0.015 C 
ATOM     28  C   UNL     1     -43.111  40.856  27.703  1.00  0.00     0.015 C 
ATOM     29  H   UNL     1     -42.700  43.011  29.270  1.00  0.00     0.033 H 
ATOM     30  H   UNL     1     -42.319  43.832  27.740  1.00  0.00     0.033 H 
ATOM     31  H   UNL     1     -43.191  40.155  26.867  1.00  0.00     0.033 H 
ATOM     32  H   UNL     1     -43.342  40.321  28.632  1.00  0.00     0.033 H 
ATOM     33  H   UNL     1     -44.753  42.273  28.192  1.00  0.00     0.032 H 
ENDBRANCH  20  23
ENDBRANCH  18  20
ENDBRANCH  15  18
ENDBRANCH   1  15
BRANCH   6  34
ATOM     34  C   UNL     1     -46.178  34.528  28.094  1.00  0.00     0.018 C 
ATOM     35  H   UNL     1     -46.630  34.057  28.974  1.00  0.00     0.038 H 
ATOM     36  H   UNL     1     -45.095  34.559  28.261  1.00  0.00     0.038 H 
BRANCH  34  37
ATOM     37  C   UNL     1     -46.517  33.766  26.865  1.00  0.00     0.088 A 
ATOM     38  C   UNL     1     -47.068  32.510  26.716  1.00  0.00     0.055 A 
ATOM     39  N   UNL     1     -46.246  34.277  25.628  1.00  0.00    -0.135 NA
ATOM     40  N   UNL     1     -47.167  32.315  25.359  1.00  0.00    -0.220 N 
ATOM     41  H   UNL     1     -47.367  31.787  27.452  1.00  0.00     0.086 H 
ATOM     42  N   UNL     1     -46.622  33.385  24.723  1.00  0.00    -0.062 NA
BRANCH  40  43
ATOM     43  C   UNL     1     -47.692  31.215  24.631  1.00  0.00     0.077 A 
ATOM     44  C   UNL     1     -48.780  30.503  25.190  1.00  0.00    -0.035 A 
ATOM     45  C   UNL     1     -47.189  30.786  23.377  1.00  0.00     0.045 A 
ATOM     46  C   UNL     1     -49.371  29.429  24.523  1.00  0.00    -0.058 A 
ATOM     47  H   UNL     1     -49.193  30.788  26.157  1.00  0.00     0.065 H 
ATOM     48  C   UNL     1     -47.814  29.709  22.742  1.00  0.00     0.067 A 
ATOM     49  C   UNL     1     -46.130  31.110  22.489  1.00  0.00     0.059 A 
ATOM     50  C   UNL     1     -48.903  29.016  23.279  1.00  0.00    -0.036 A 
ATOM     51  H   UNL     1     -50.211  28.911  24.982  1.00  0.00     0.062 H 
ATOM     52  N   UNL     1     -47.137  29.519  21.566  1.00  0.00    -0.278 N 
ATOM     53  N   UNL     1     -46.109  30.359  21.386  1.00  0.00    -0.183 NA
ATOM     54  H   UNL     1     -45.354  31.856  22.588  1.00  0.00     0.087 H 
ATOM     55  H   UNL     1     -49.363  28.182  22.760  1.00  0.00     0.065 H 
ATOM     56  H   UNL     1     -47.323  28.825  20.851  1.00  0.00     0.190 HD
ENDBRANCH  40  43
ENDBRANCH  34  37
ENDBRANCH   6  34
TORSDOF 7
ENDMDL
MODEL 5
REMARK VINA RESULT:      -9.9      4.666     11.544
REMARK SMILES FC1(F)CC(CNCc2cc3ccc(Cc4cn(-c5cccc6[nH]ncc56)nn4)cc3[nH]2)C1
REMARK SMILES IDX 9 1 10 2 11 3 12 4 13 5 14 6 30 7 31 8 32 9 8 15 7 18 6 20
REMARK SMILES IDX 5 23 1 24 2 25 3 26 4 27 33 28 15 34 16 37 17 38 29 39 18 40
REMARK SMILES IDX 28 42 19 43 20 44 27 45 21 46 23 48 26 49 22 50 24 52 25 53
REMARK H PARENT 10 10 12 11 13 12 30 13 32 14 8 16 8 17 7 19 6 21 6 22 4 29
REMARK H PARENT 4 30 33 31 33 32 5 33 15 35 15 36 17 41 20 47 21 51 26 54
REMARK H PARENT 22 55 24 56
REMARK Flexibility Score: inf
ROOT
ATOM      1  C   UNL     1     -44.246  39.629  28.398  1.00  0.00     0.030 A 
ATOM      2  C   UNL     1     -44.357  38.716  29.427  1.00  0.00    -0.032 A 
ATOM      3  C   UNL     1     -45.358  37.769  29.071  1.00  0.00    -0.000 A 
ATOM      4  C   UNL     1     -45.901  36.634  29.700  1.00  0.00    -0.053 A 
ATOM      5  C   UNL     1     -46.905  35.903  29.053  1.00  0.00    -0.058 A 
ATOM      6  C   UNL     1     -47.379  36.282  27.788  1.00  0.00    -0.040 A 
ATOM      7  C   UNL     1     -46.838  37.412  27.148  1.00  0.00    -0.034 A 
ATOM      8  C   UNL     1     -45.838  38.133  27.815  1.00  0.00     0.046 A 
ATOM      9  N   UNL     1     -45.155  39.262  27.433  1.00  0.00    -0.357 N 
ATOM     10  H   UNL     1     -43.782  38.724  30.344  1.00  0.00     0.065 H 
ATOM     11  H   UNL     1     -45.546  36.327  30.679  1.00  0.00     0.063 H 
ATOM     12  H   UNL     1     -47.315  35.028  29.553  1.00  0.00     0.063 H 
ATOM     13  H   UNL     1     -47.194  37.727  26.172  1.00  0.00     0.065 H 
ATOM     14  H   UNL     1     -45.272  39.748  26.554  1.00  0.00     0.166 HD
ENDROOT
BRANCH   1  15
ATOM     15  C   UNL     1     -43.380  40.827  28.235  1.00  0.00     0.036 C 
ATOM     16  H   UNL     1     -43.857  41.680  28.732  1.00  0.00     0.049 H 
ATOM     17  H   UNL     1     -42.411  40.651  28.716  1.00  0.00     0.049 H 
BRANCH  15  18
ATOM     18  N   UNL     1     -43.203  41.098  26.809  1.00  0.00    -0.311 NA
ATOM     19  H   UNL     1     -42.579  40.383  26.433  1.00  0.00     0.123 HD
BRANCH  18  20
ATOM     20  C   UNL     1     -42.607  42.418  26.601  1.00  0.00    -0.001 C 
ATOM     21  H   UNL     1     -42.018  42.707  27.479  1.00  0.00     0.043 H 
ATOM     22  H   UNL     1     -41.930  42.392  25.738  1.00  0.00     0.043 H 
BRANCH  20  23
ATOM     23  C   UNL     1     -43.716  43.441  26.343  1.00  0.00    -0.017 C 
ATOM     24  F   UNL     1     -43.771  42.413  23.601  1.00  0.00    -0.207 F 
ATOM     25  C   UNL     1     -44.437  43.351  24.313  1.00  0.00     0.248 C 
ATOM     26  F   UNL     1     -45.342  43.905  23.476  1.00  0.00    -0.207 F 
ATOM     27  C   UNL     1     -44.990  42.873  25.673  1.00  0.00     0.015 C 
ATOM     28  C   UNL     1     -43.551  44.344  25.095  1.00  0.00     0.015 C 
ATOM     29  H   UNL     1     -45.913  43.383  25.972  1.00  0.00     0.033 H 
ATOM     30  H   UNL     1     -45.142  41.794  25.764  1.00  0.00     0.033 H 
ATOM     31  H   UNL     1     -42.534  44.464  24.711  1.00  0.00     0.033 H 
ATOM     32  H   UNL     1     -44.003  45.338  25.205  1.00  0.00     0.033 H 
ATOM     33  H   UNL     1     -43.943  44.004  27.258  1.00  0.00     0.032 H 
ENDBRANCH  20  23
ENDBRANCH  18  20
ENDBRANCH  15  18
ENDBRANCH   1  15
BRANCH   6  34
ATOM     34  C   UNL     1     -48.467  35.478  27.113  1.00  0.00     0.018 C 
ATOM     35  H   UNL     1     -49.112  36.117  26.499  1.00  0.00     0.038 H 
ATOM     36  H   UNL     1     -49.103  35.001  27.867  1.00  0.00     0.038 H 
BRANCH  34  37
ATOM     37  C   UNL     1     -47.778  34.470  26.267  1.00  0.00     0.088 A 
ATOM     38  C   UNL     1     -48.214  33.247  25.799  1.00  0.00     0.055 A 
ATOM     39  N   UNL     1     -46.488  34.660  25.861  1.00  0.00    -0.135 NA
ATOM     40  N   UNL     1     -47.169  32.745  25.062  1.00  0.00    -0.220 N 
ATOM     41  H   UNL     1     -49.146  32.735  25.949  1.00  0.00     0.086 H 
ATOM     42  N   UNL     1     -46.119  33.605  25.151  1.00  0.00    -0.062 NA
BRANCH  40  43
ATOM     43  C   UNL     1     -47.070  31.537  24.323  1.00  0.00     0.077 A 
ATOM     44  C   UNL     1     -46.182  31.499  23.222  1.00  0.00    -0.035 A 
ATOM     45  C   UNL     1     -47.810  30.366  24.622  1.00  0.00     0.045 A 
ATOM     46  C   UNL     1     -46.005  30.341  22.464  1.00  0.00    -0.058 A 
ATOM     47  H   UNL     1     -45.599  32.378  22.947  1.00  0.00     0.065 H 
ATOM     48  C   UNL     1     -47.599  29.227  23.840  1.00  0.00     0.067 A 
ATOM     49  C   UNL     1     -48.819  29.948  25.529  1.00  0.00     0.059 A 
ATOM     50  C   UNL     1     -46.707  29.177  22.765  1.00  0.00    -0.036 A 
ATOM     51  H   UNL     1     -45.307  30.349  21.629  1.00  0.00     0.062 H 
ATOM     52  N   UNL     1     -48.427  28.260  24.349  1.00  0.00    -0.278 N 
ATOM     53  N   UNL     1     -49.178  28.672  25.378  1.00  0.00    -0.183 NA
ATOM     54  H   UNL     1     -49.329  30.512  26.297  1.00  0.00     0.087 H 
ATOM     55  H   UNL     1     -46.569  28.276  22.177  1.00  0.00     0.065 H 
ATOM     56  H   UNL     1     -48.530  27.304  24.028  1.00  0.00     0.190 HD
ENDBRANCH  40  43
ENDBRANCH  34  37
ENDBRANCH   6  34
TORSDOF 7
ENDMDL
MODEL 6
REMARK VINA RESULT:      -9.8      2.533      3.651
REMARK SMILES FC1(F)CC(CNCc2cc3ccc(Cc4cn(-c5cccc6[nH]ncc56)nn4)cc3[nH]2)C1
REMARK SMILES IDX 9 1 10 2 11 3 12 4 13 5 14 6 30 7 31 8 32 9 8 15 7 18 6 20
REMARK SMILES IDX 5 23 1 24 2 25 3 26 4 27 33 28 15 34 16 37 17 38 29 39 18 40
REMARK SMILES IDX 28 42 19 43 20 44 27 45 21 46 23 48 26 49 22 50 24 52 25 53
REMARK H PARENT 10 10 12 11 13 12 30 13 32 14 8 16 8 17 7 19 6 21 6 22 4 29
REMARK H PARENT 4 30 33 31 33 32 5 33 15 35 15 36 17 41 20 47 21 51 26 54
REMARK H PARENT 22 55 24 56
REMARK Flexibility Score: inf
ROOT
ATOM      1  C   UNL     1     -46.564  33.445  26.372  1.00  0.00     0.030 A 
ATOM      2  C   UNL     1     -46.011  33.783  27.590  1.00  0.00    -0.032 A 
ATOM      3  C   UNL     1     -46.465  35.087  27.935  1.00  0.00    -0.000 A 
ATOM      4  C   UNL     1     -46.246  35.942  29.030  1.00  0.00    -0.053 A 
ATOM      5  C   UNL     1     -46.866  37.198  29.056  1.00  0.00    -0.058 A 
ATOM      6  C   UNL     1     -47.701  37.618  28.011  1.00  0.00    -0.040 A 
ATOM      7  C   UNL     1     -47.930  36.767  26.913  1.00  0.00    -0.034 A 
ATOM      8  C   UNL     1     -47.297  35.517  26.904  1.00  0.00     0.046 A 
ATOM      9  N   UNL     1     -47.336  34.510  25.970  1.00  0.00    -0.357 N 
ATOM     10  H   UNL     1     -45.346  33.161  28.176  1.00  0.00     0.065 H 
ATOM     11  H   UNL     1     -45.603  35.633  29.848  1.00  0.00     0.063 H 
ATOM     12  H   UNL     1     -46.686  37.848  29.909  1.00  0.00     0.063 H 
ATOM     13  H   UNL     1     -48.568  37.074  26.090  1.00  0.00     0.065 H 
ATOM     14  H   UNL     1     -47.878  34.525  25.116  1.00  0.00     0.166 HD
ENDROOT
BRANCH   1  15
ATOM     15  C   UNL     1     -46.429  32.224  25.533  1.00  0.00     0.036 C 
ATOM     16  H   UNL     1     -45.515  31.693  25.825  1.00  0.00     0.049 H 
ATOM     17  H   UNL     1     -47.281  31.558  25.711  1.00  0.00     0.049 H 
BRANCH  15  18
ATOM     18  N   UNL     1     -46.368  32.614  24.126  1.00  0.00    -0.311 NA
ATOM     19  H   UNL     1     -47.237  33.103  23.902  1.00  0.00     0.123 HD
BRANCH  18  20
ATOM     20  C   UNL     1     -46.240  31.439  23.265  1.00  0.00    -0.001 C 
ATOM     21  H   UNL     1     -45.804  31.724  22.300  1.00  0.00     0.043 H 
ATOM     22  H   UNL     1     -45.570  30.705  23.729  1.00  0.00     0.043 H 
BRANCH  20  23
ATOM     23  C   UNL     1     -47.618  30.806  23.060  1.00  0.00    -0.017 C 
ATOM     24  F   UNL     1     -46.304  28.234  23.545  1.00  0.00    -0.207 F 
ATOM     25  C   UNL     1     -47.560  28.662  23.279  1.00  0.00     0.248 C 
ATOM     26  F   UNL     1     -48.348  27.565  23.253  1.00  0.00    -0.207 F 
ATOM     27  C   UNL     1     -48.060  29.821  24.169  1.00  0.00     0.015 C 
ATOM     28  C   UNL     1     -47.695  29.615  22.072  1.00  0.00     0.015 C 
ATOM     29  H   UNL     1     -49.142  29.803  24.340  1.00  0.00     0.033 H 
ATOM     30  H   UNL     1     -47.555  29.924  25.133  1.00  0.00     0.033 H 
ATOM     31  H   UNL     1     -46.895  29.544  21.331  1.00  0.00     0.033 H 
ATOM     32  H   UNL     1     -48.659  29.529  21.556  1.00  0.00     0.033 H 
ATOM     33  H   UNL     1     -48.373  31.579  22.864  1.00  0.00     0.032 H 
ENDBRANCH  20  23
ENDBRANCH  18  20
ENDBRANCH  15  18
ENDBRANCH   1  15
BRANCH   6  34
ATOM     34  C   UNL     1     -48.355  38.980  28.061  1.00  0.00     0.018 C 
ATOM     35  H   UNL     1     -48.552  39.290  29.093  1.00  0.00     0.038 H 
ATOM     36  H   UNL     1     -49.318  38.953  27.539  1.00  0.00     0.038 H 
BRANCH  34  37
ATOM     37  C   UNL     1     -47.410  39.921  27.408  1.00  0.00     0.088 A 
ATOM     38  C   UNL     1     -46.055  40.106  27.600  1.00  0.00     0.055 A 
ATOM     39  N   UNL     1     -47.848  40.823  26.481  1.00  0.00    -0.135 NA
ATOM     40  N   UNL     1     -45.696  41.101  26.724  1.00  0.00    -0.220 N 
ATOM     41  H   UNL     1     -45.374  39.622  28.275  1.00  0.00     0.086 H 
ATOM     42  N   UNL     1     -46.811  41.547  26.087  1.00  0.00    -0.062 NA
BRANCH  40  43
ATOM     43  C   UNL     1     -44.422  41.674  26.466  1.00  0.00     0.077 A 
ATOM     44  C   UNL     1     -44.245  42.391  25.259  1.00  0.00    -0.035 A 
ATOM     45  C   UNL     1     -43.316  41.570  27.347  1.00  0.00     0.045 A 
ATOM     46  C   UNL     1     -43.034  43.009  24.946  1.00  0.00    -0.058 A 
ATOM     47  H   UNL     1     -45.063  42.489  24.546  1.00  0.00     0.065 H 
ATOM     48  C   UNL     1     -42.124  42.207  26.996  1.00  0.00     0.067 A 
ATOM     49  C   UNL     1     -42.991  40.934  28.574  1.00  0.00     0.059 A 
ATOM     50  C   UNL     1     -41.949  42.935  25.815  1.00  0.00    -0.036 A 
ATOM     51  H   UNL     1     -42.939  43.558  24.011  1.00  0.00     0.062 H 
ATOM     52  N   UNL     1     -41.244  41.949  28.015  1.00  0.00    -0.278 N 
ATOM     53  N   UNL     1     -41.746  41.179  28.988  1.00  0.00    -0.183 NA
ATOM     54  H   UNL     1     -43.596  40.290  29.196  1.00  0.00     0.087 H 
ATOM     55  H   UNL     1     -41.007  43.416  25.573  1.00  0.00     0.065 H 
ATOM     56  H   UNL     1     -40.283  42.262  28.095  1.00  0.00     0.190 HD
ENDBRANCH  40  43
ENDBRANCH  34  37
ENDBRANCH   6  34
TORSDOF 7
ENDMDL
MODEL 7
REMARK VINA RESULT:      -9.8      4.714      8.306
REMARK SMILES FC1(F)CC(CNCc2cc3ccc(Cc4cn(-c5cccc6[nH]ncc56)nn4)cc3[nH]2)C1
REMARK SMILES IDX 9 1 10 2 11 3 12 4 13 5 14 6 30 7 31 8 32 9 8 15 7 18 6 20
REMARK SMILES IDX 5 23 1 24 2 25 3 26 4 27 33 28 15 34 16 37 17 38 29 39 18 40
REMARK SMILES IDX 28 42 19 43 20 44 27 45 21 46 23 48 26 49 22 50 24 52 25 53
REMARK H PARENT 10 10 12 11 13 12 30 13 32 14 8 16 8 17 7 19 6 21 6 22 4 29
REMARK H PARENT 4 30 33 31 33 32 5 33 15 35 15 36 17 41 20 47 21 51 26 54
REMARK H PARENT 22 55 24 56
REMARK Flexibility Score: inf
ROOT
ATOM      1  C   UNL     1     -44.760  38.166  29.761  1.00  0.00     0.030 A 
ATOM      2  C   UNL     1     -43.616  38.599  30.401  1.00  0.00    -0.032 A 
ATOM      3  C   UNL     1     -43.108  39.721  29.687  1.00  0.00    -0.000 A 
ATOM      4  C   UNL     1     -41.996  40.566  29.854  1.00  0.00    -0.053 A 
ATOM      5  C   UNL     1     -41.783  41.608  28.943  1.00  0.00    -0.058 A 
ATOM      6  C   UNL     1     -42.658  41.825  27.868  1.00  0.00    -0.040 A 
ATOM      7  C   UNL     1     -43.776  40.988  27.697  1.00  0.00    -0.034 A 
ATOM      8  C   UNL     1     -43.969  39.949  28.616  1.00  0.00     0.046 A 
ATOM      9  N   UNL     1     -44.955  38.993  28.680  1.00  0.00    -0.357 N 
ATOM     10  H   UNL     1     -43.183  38.156  31.289  1.00  0.00     0.065 H 
ATOM     11  H   UNL     1     -41.309  40.412  30.679  1.00  0.00     0.063 H 
ATOM     12  H   UNL     1     -40.917  42.252  29.084  1.00  0.00     0.063 H 
ATOM     13  H   UNL     1     -44.464  41.135  26.869  1.00  0.00     0.065 H 
ATOM     14  H   UNL     1     -45.738  38.917  28.044  1.00  0.00     0.166 HD
ENDROOT
BRANCH   1  15
ATOM     15  C   UNL     1     -45.686  37.039  30.054  1.00  0.00     0.036 C 
ATOM     16  H   UNL     1     -45.272  36.119  29.624  1.00  0.00     0.049 H 
ATOM     17  H   UNL     1     -45.767  36.901  31.139  1.00  0.00     0.049 H 
BRANCH  15  18
ATOM     18  N   UNL     1     -46.995  37.333  29.475  1.00  0.00    -0.311 NA
ATOM     19  H   UNL     1     -47.562  37.777  30.200  1.00  0.00     0.123 HD
BRANCH  18  20
ATOM     20  C   UNL     1     -47.655  36.106  29.031  1.00  0.00    -0.001 C 
ATOM     21  H   UNL     1     -47.005  35.241  29.217  1.00  0.00     0.043 H 
ATOM     22  H   UNL     1     -48.583  35.952  29.594  1.00  0.00     0.043 H 
BRANCH  20  23
ATOM     23  C   UNL     1     -47.980  36.215  27.540  1.00  0.00    -0.017 C 
ATOM     24  F   UNL     1     -45.797  34.309  27.114  1.00  0.00    -0.207 F 
ATOM     25  C   UNL     1     -46.693  34.967  26.341  1.00  0.00     0.248 C 
ATOM     26  F   UNL     1     -46.457  34.592  25.065  1.00  0.00    -0.207 F 
ATOM     27  C   UNL     1     -48.162  34.864  26.807  1.00  0.00     0.015 C 
ATOM     28  C   UNL     1     -46.789  36.489  26.587  1.00  0.00     0.015 C 
ATOM     29  H   UNL     1     -48.883  34.900  25.982  1.00  0.00     0.033 H 
ATOM     30  H   UNL     1     -48.394  34.002  27.437  1.00  0.00     0.033 H 
ATOM     31  H   UNL     1     -45.903  36.946  27.034  1.00  0.00     0.033 H 
ATOM     32  H   UNL     1     -47.062  37.058  25.690  1.00  0.00     0.033 H 
ATOM     33  H   UNL     1     -48.828  36.894  27.377  1.00  0.00     0.032 H 
ENDBRANCH  20  23
ENDBRANCH  18  20
ENDBRANCH  15  18
ENDBRANCH   1  15
BRANCH   6  34
ATOM     34  C   UNL     1     -42.402  42.955  26.897  1.00  0.00     0.018 C 
ATOM     35  H   UNL     1     -42.142  42.575  25.902  1.00  0.00     0.038 H 
ATOM     36  H   UNL     1     -41.559  43.564  27.243  1.00  0.00     0.038 H 
BRANCH  34  37
ATOM     37  C   UNL     1     -43.656  43.748  26.838  1.00  0.00     0.088 A 
ATOM     38  C   UNL     1     -44.578  43.889  25.821  1.00  0.00     0.055 A 
ATOM     39  N   UNL     1     -44.038  44.533  27.889  1.00  0.00    -0.135 NA
ATOM     40  N   UNL     1     -45.541  44.734  26.317  1.00  0.00    -0.220 N 
ATOM     41  H   UNL     1     -44.596  43.471  24.832  1.00  0.00     0.086 H 
ATOM     42  N   UNL     1     -45.167  45.143  27.558  1.00  0.00    -0.062 NA
BRANCH  40  43
ATOM     43  C   UNL     1     -46.741  45.201  25.719  1.00  0.00     0.077 A 
ATOM     44  C   UNL     1     -46.757  46.513  25.189  1.00  0.00    -0.035 A 
ATOM     45  C   UNL     1     -47.928  44.431  25.624  1.00  0.00     0.045 A 
ATOM     46  C   UNL     1     -47.887  47.035  24.559  1.00  0.00    -0.058 A 
ATOM     47  H   UNL     1     -45.872  47.147  25.248  1.00  0.00     0.065 H 
ATOM     48  C   UNL     1     -49.035  44.991  24.982  1.00  0.00     0.067 A 
ATOM     49  C   UNL     1     -48.408  43.162  26.042  1.00  0.00     0.059 A 
ATOM     50  C   UNL     1     -49.049  46.278  24.436  1.00  0.00    -0.036 A 
ATOM     51  H   UNL     1     -47.857  48.046  24.157  1.00  0.00     0.062 H 
ATOM     52  N   UNL     1     -50.020  44.039  25.029  1.00  0.00    -0.278 N 
ATOM     53  N   UNL     1     -49.665  42.917  25.666  1.00  0.00    -0.183 NA
ATOM     54  H   UNL     1     -47.910  42.394  26.616  1.00  0.00     0.087 H 
ATOM     55  H   UNL     1     -49.928  46.683  23.946  1.00  0.00     0.065 H 
ATOM     56  H   UNL     1     -50.960  44.104  24.653  1.00  0.00     0.190 HD
ENDBRANCH  40  43
ENDBRANCH  34  37
ENDBRANCH   6  34
TORSDOF 7
ENDMDL
