MODEL 1
REMARK VINA RESULT:      -9.9      0.000      0.000
REMARK SMILES CNc1ccc2ccc(OC[C@H]3O[C@@H](n4cc(Br)c5c(N)ncnc54)[C@H](O)[C@@H]3O)cc2n1
REMARK SMILES IDX 11 1 10 4 9 5 3 6 4 7 32 8 5 9 31 11 6 12 30 14 7 15 8 17
REMARK SMILES IDX 2 20 1 22 12 26 13 27 28 28 14 30 26 31 29 35 15 37 16 38
REMARK SMILES IDX 25 39 17 40 19 42 24 43 18 44 20 45 23 46 22 47 21 49 27 52
REMARK H PARENT 11 2 11 3 4 10 5 13 30 16 7 18 8 19 2 21 1 23 1 24 1 25 12 29
REMARK H PARENT 28 32 14 33 26 34 29 36 16 41 23 48 21 50 21 51 27 53
REMARK Flexibility Score: inf
ROOT
ATOM      1  C   UNL     1     -45.812  35.888  27.576  1.00  0.00     0.117 C 
ATOM      2  H   UNL     1     -44.726  35.923  27.423  1.00  0.00     0.073 H 
ATOM      3  H   UNL     1     -46.049  35.015  28.196  1.00  0.00     0.073 H 
ENDROOT
BRANCH   1   4
ATOM      4  O   UNL     1     -46.496  35.814  26.321  1.00  0.00    -0.491 OA
BRANCH   4   5
ATOM      5  C   UNL     1     -47.054  34.610  25.987  1.00  0.00     0.121 A 
ATOM      6  C   UNL     1     -47.159  30.382  23.820  1.00  0.00     0.126 A 
ATOM      7  C   UNL     1     -48.421  30.092  24.320  1.00  0.00    -0.019 A 
ATOM      8  N   UNL     1     -46.526  31.540  24.088  1.00  0.00    -0.231 NA
ATOM      9  C   UNL     1     -49.048  31.019  25.144  1.00  0.00    -0.049 A 
ATOM     10  H   UNL     1     -48.922  29.167  24.058  1.00  0.00     0.066 H 
ATOM     11  C   UNL     1     -47.129  32.442  24.883  1.00  0.00     0.076 A 
ATOM     12  C   UNL     1     -48.402  32.222  25.442  1.00  0.00     0.001 A 
ATOM     13  H   UNL     1     -50.036  30.801  25.538  1.00  0.00     0.063 H 
ATOM     14  C   UNL     1     -46.476  33.636  25.168  1.00  0.00     0.007 A 
ATOM     15  C   UNL     1     -48.990  33.193  26.266  1.00  0.00    -0.049 A 
ATOM     16  H   UNL     1     -45.496  33.777  24.723  1.00  0.00     0.069 H 
ATOM     17  C   UNL     1     -48.314  34.381  26.535  1.00  0.00    -0.019 A 
ATOM     18  H   UNL     1     -49.974  33.031  26.702  1.00  0.00     0.063 H 
ATOM     19  H   UNL     1     -48.775  35.129  27.176  1.00  0.00     0.066 H 
BRANCH   6  20
ATOM     20  N   UNL     1     -46.476  29.507  22.973  1.00  0.00    -0.373 N 
ATOM     21  H   UNL     1     -47.210  29.128  22.372  1.00  0.00     0.161 HD
BRANCH  20  22
ATOM     22  C   UNL     1     -45.427  30.138  22.189  1.00  0.00     0.005 C 
ATOM     23  H   UNL     1     -45.532  29.915  21.122  1.00  0.00     0.045 H 
ATOM     24  H   UNL     1     -44.456  29.751  22.517  1.00  0.00     0.045 H 
ATOM     25  H   UNL     1     -45.410  31.223  22.334  1.00  0.00     0.045 H 
ENDBRANCH  20  22
ENDBRANCH   6  20
ENDBRANCH   4   5
ENDBRANCH   1   4
BRANCH   1  26
ATOM     26  C   UNL     1     -46.263  37.153  28.303  1.00  0.00     0.123 C 
ATOM     27  O   UNL     1     -45.154  38.042  28.504  1.00  0.00    -0.345 OA
ATOM     28  C   UNL     1     -47.315  37.932  27.517  1.00  0.00     0.114 C 
ATOM     29  H   UNL     1     -46.666  36.873  29.285  1.00  0.00     0.067 H 
ATOM     30  C   UNL     1     -45.682  39.389  28.499  1.00  0.00     0.164 C 
ATOM     31  C   UNL     1     -47.155  39.338  28.072  1.00  0.00     0.128 C 
ATOM     32  H   UNL     1     -47.107  37.914  26.444  1.00  0.00     0.066 H 
ATOM     33  H   UNL     1     -45.597  39.763  29.527  1.00  0.00     0.088 H 
ATOM     34  H   UNL     1     -47.445  40.114  27.358  1.00  0.00     0.068 H 
BRANCH  28  35
ATOM     35  O   UNL     1     -48.643  37.451  27.727  1.00  0.00    -0.387 OA
ATOM     36  H   UNL     1     -49.235  38.213  27.567  1.00  0.00     0.211 HD
ENDBRANCH  28  35
BRANCH  30  37
ATOM     37  N   UNL     1     -44.820  40.223  27.674  1.00  0.00    -0.302 N 
ATOM     38  C   UNL     1     -45.156  40.675  26.417  1.00  0.00     0.023 A 
ATOM     39  C   UNL     1     -43.569  40.691  28.005  1.00  0.00     0.148 A 
ATOM     40  C   UNL     1     -44.109  41.440  25.963  1.00  0.00     0.049 A 
ATOM     41  H   UNL     1     -46.105  40.422  25.961  1.00  0.00     0.083 H 
ATOM     42  C   UNL     1     -43.095  41.467  26.950  1.00  0.00     0.075 A 
ATOM     43  N   UNL     1     -42.919  40.435  29.153  1.00  0.00    -0.218 NA
ATOM     44  Br  UNL     1     -44.040  42.303  24.298  1.00  0.00    -0.048 Br
ATOM     45  C   UNL     1     -41.824  42.038  27.113  1.00  0.00     0.137 A 
ATOM     46  C   UNL     1     -41.719  41.034  29.193  1.00  0.00     0.120 A 
ATOM     47  N   UNL     1     -41.143  41.800  28.250  1.00  0.00    -0.219 NA
ATOM     48  H   UNL     1     -41.137  40.882  30.098  1.00  0.00     0.106 H 
BRANCH  45  49
ATOM     49  N   UNL     1     -41.199  42.835  26.167  1.00  0.00    -0.383 N 
ATOM     50  H   UNL     1     -41.680  42.928  25.284  1.00  0.00     0.158 HD
ATOM     51  H   UNL     1     -40.201  42.667  26.137  1.00  0.00     0.158 HD
ENDBRANCH  45  49
ENDBRANCH  30  37
BRANCH  31  52
ATOM     52  O   UNL     1     -48.011  39.492  29.221  1.00  0.00    -0.386 OA
ATOM     53  H   UNL     1     -47.852  40.411  29.526  1.00  0.00     0.211 HD
ENDBRANCH  31  52
ENDBRANCH   1  26
TORSDOF 9
ENDMDL
MODEL 2
REMARK VINA RESULT:      -9.5      1.727      2.243
REMARK SMILES CNc1ccc2ccc(OC[C@H]3O[C@@H](n4cc(Br)c5c(N)ncnc54)[C@H](O)[C@@H]3O)cc2n1
REMARK SMILES IDX 11 1 10 4 9 5 3 6 4 7 32 8 5 9 31 11 6 12 30 14 7 15 8 17
REMARK SMILES IDX 2 20 1 22 12 26 13 27 28 28 14 30 26 31 29 35 15 37 16 38
REMARK SMILES IDX 25 39 17 40 19 42 24 43 18 44 20 45 23 46 22 47 21 49 27 52
REMARK H PARENT 11 2 11 3 4 10 5 13 30 16 7 18 8 19 2 21 1 23 1 24 1 25 12 29
REMARK H PARENT 28 32 14 33 26 34 29 36 16 41 23 48 21 50 21 51 27 53
REMARK Flexibility Score: inf
ROOT
ATOM      1  C   UNL     1     -46.395  35.510  26.850  1.00  0.00     0.117 C 
ATOM      2  H   UNL     1     -46.774  36.285  26.172  1.00  0.00     0.073 H 
ATOM      3  H   UNL     1     -45.491  35.072  26.409  1.00  0.00     0.073 H 
ENDROOT
BRANCH   1   4
ATOM      4  O   UNL     1     -47.387  34.502  27.070  1.00  0.00    -0.491 OA
BRANCH   4   5
ATOM      5  C   UNL     1     -47.499  33.524  26.120  1.00  0.00     0.121 A 
ATOM      6  C   UNL     1     -49.816  30.206  23.628  1.00  0.00     0.126 A 
ATOM      7  C   UNL     1     -48.682  29.878  22.899  1.00  0.00    -0.019 A 
ATOM      8  N   UNL     1     -49.810  31.153  24.586  1.00  0.00    -0.231 NA
ATOM      9  C   UNL     1     -47.499  30.563  23.151  1.00  0.00    -0.049 A 
ATOM     10  H   UNL     1     -48.707  29.086  22.159  1.00  0.00     0.066 H 
ATOM     11  C   UNL     1     -48.667  31.818  24.835  1.00  0.00     0.076 A 
ATOM     12  C   UNL     1     -47.474  31.556  24.134  1.00  0.00     0.001 A 
ATOM     13  H   UNL     1     -46.605  30.311  22.587  1.00  0.00     0.063 H 
ATOM     14  C   UNL     1     -48.656  32.801  25.818  1.00  0.00     0.007 A 
ATOM     15  C   UNL     1     -46.307  32.277  24.429  1.00  0.00    -0.049 A 
ATOM     16  H   UNL     1     -49.591  32.980  26.341  1.00  0.00     0.069 H 
ATOM     17  C   UNL     1     -46.325  33.256  25.420  1.00  0.00    -0.019 A 
ATOM     18  H   UNL     1     -45.382  32.080  23.892  1.00  0.00     0.063 H 
ATOM     19  H   UNL     1     -45.417  33.812  25.643  1.00  0.00     0.066 H 
BRANCH   6  20
ATOM     20  N   UNL     1     -51.034  29.550  23.443  1.00  0.00    -0.373 N 
ATOM     21  H   UNL     1     -51.725  30.299  23.498  1.00  0.00     0.161 HD
BRANCH  20  22
ATOM     22  C   UNL     1     -51.135  28.830  22.184  1.00  0.00     0.005 C 
ATOM     23  H   UNL     1     -50.868  27.774  22.301  1.00  0.00     0.045 H 
ATOM     24  H   UNL     1     -50.439  29.273  21.464  1.00  0.00     0.045 H 
ATOM     25  H   UNL     1     -52.139  28.906  21.753  1.00  0.00     0.045 H 
ENDBRANCH  20  22
ENDBRANCH   6  20
ENDBRANCH   4   5
ENDBRANCH   1   4
BRANCH   1  26
ATOM     26  C   UNL     1     -46.037  36.143  28.193  1.00  0.00     0.123 C 
ATOM     27  O   UNL     1     -44.844  36.931  28.079  1.00  0.00    -0.345 OA
ATOM     28  C   UNL     1     -47.132  37.073  28.708  1.00  0.00     0.114 C 
ATOM     29  H   UNL     1     -45.857  35.343  28.925  1.00  0.00     0.067 H 
ATOM     30  C   UNL     1     -44.947  38.004  29.044  1.00  0.00     0.164 C 
ATOM     31  C   UNL     1     -46.361  37.993  29.641  1.00  0.00     0.128 C 
ATOM     32  H   UNL     1     -47.588  37.643  27.894  1.00  0.00     0.066 H 
ATOM     33  H   UNL     1     -44.205  37.796  29.824  1.00  0.00     0.088 H 
ATOM     34  H   UNL     1     -46.818  38.982  29.738  1.00  0.00     0.068 H 
BRANCH  28  35
ATOM     35  O   UNL     1     -48.168  36.387  29.412  1.00  0.00    -0.387 OA
ATOM     36  H   UNL     1     -48.302  36.882  30.246  1.00  0.00     0.211 HD
ENDBRANCH  28  35
BRANCH  30  37
ATOM     37  N   UNL     1     -44.548  39.248  28.402  1.00  0.00    -0.302 N 
ATOM     38  C   UNL     1     -45.149  39.762  27.274  1.00  0.00     0.023 A 
ATOM     39  C   UNL     1     -43.542  40.094  28.806  1.00  0.00     0.148 A 
ATOM     40  C   UNL     1     -44.519  40.946  26.978  1.00  0.00     0.049 A 
ATOM     41  H   UNL     1     -45.971  39.250  26.790  1.00  0.00     0.083 H 
ATOM     42  C   UNL     1     -43.501  41.179  27.933  1.00  0.00     0.075 A 
ATOM     43  N   UNL     1     -42.737  39.900  29.864  1.00  0.00    -0.218 NA
ATOM     44  Br  UNL     1     -44.942  42.066  25.533  1.00  0.00    -0.048 Br
ATOM     45  C   UNL     1     -42.532  42.158  28.194  1.00  0.00     0.137 A 
ATOM     46  C   UNL     1     -41.855  40.901  30.013  1.00  0.00     0.120 A 
ATOM     47  N   UNL     1     -41.705  41.994  29.245  1.00  0.00    -0.219 NA
ATOM     48  H   UNL     1     -41.175  40.819  30.856  1.00  0.00     0.106 H 
BRANCH  45  49
ATOM     49  N   UNL     1     -42.348  43.299  27.430  1.00  0.00    -0.383 N 
ATOM     50  H   UNL     1     -42.768  43.284  26.511  1.00  0.00     0.158 HD
ATOM     51  H   UNL     1     -41.402  43.651  27.503  1.00  0.00     0.158 HD
ENDBRANCH  45  49
ENDBRANCH  30  37
BRANCH  31  52
ATOM     52  O   UNL     1     -46.340  37.415  30.961  1.00  0.00    -0.386 OA
ATOM     53  H   UNL     1     -45.487  37.712  31.346  1.00  0.00     0.211 HD
ENDBRANCH  31  52
ENDBRANCH   1  26
TORSDOF 9
ENDMDL
MODEL 3
REMARK VINA RESULT:      -9.0      3.049      9.798
REMARK SMILES CNc1ccc2ccc(OC[C@H]3O[C@@H](n4cc(Br)c5c(N)ncnc54)[C@H](O)[C@@H]3O)cc2n1
REMARK SMILES IDX 11 1 10 4 9 5 3 6 4 7 32 8 5 9 31 11 6 12 30 14 7 15 8 17
REMARK SMILES IDX 2 20 1 22 12 26 13 27 28 28 14 30 26 31 29 35 15 37 16 38
REMARK SMILES IDX 25 39 17 40 19 42 24 43 18 44 20 45 23 46 22 47 21 49 27 52
REMARK H PARENT 11 2 11 3 4 10 5 13 30 16 7 18 8 19 2 21 1 23 1 24 1 25 12 29
REMARK H PARENT 28 32 14 33 26 34 29 36 16 41 23 48 21 50 21 51 27 53
REMARK Flexibility Score: inf
ROOT
ATOM      1  C   UNL     1     -48.340  35.848  26.784  1.00  0.00     0.117 C 
ATOM      2  H   UNL     1     -47.738  36.250  25.959  1.00  0.00     0.073 H 
ATOM      3  H   UNL     1     -49.392  35.837  26.475  1.00  0.00     0.073 H 
ENDROOT
BRANCH   1   4
ATOM      4  O   UNL     1     -48.171  36.639  27.965  1.00  0.00    -0.491 OA
BRANCH   4   5
ATOM      5  C   UNL     1     -47.138  37.536  27.969  1.00  0.00     0.121 A 
ATOM      6  C   UNL     1     -44.555  41.117  26.211  1.00  0.00     0.126 A 
ATOM      7  C   UNL     1     -43.659  41.067  27.270  1.00  0.00    -0.019 A 
ATOM      8  N   UNL     1     -45.603  40.277  26.113  1.00  0.00    -0.231 NA
ATOM      9  C   UNL     1     -43.858  40.130  28.276  1.00  0.00    -0.049 A 
ATOM     10  H   UNL     1     -42.803  41.732  27.304  1.00  0.00     0.066 H 
ATOM     11  C   UNL     1     -45.800  39.367  27.084  1.00  0.00     0.076 A 
ATOM     12  C   UNL     1     -44.946  39.256  28.198  1.00  0.00     0.001 A 
ATOM     13  H   UNL     1     -43.160  40.082  29.108  1.00  0.00     0.063 H 
ATOM     14  C   UNL     1     -46.884  38.501  26.991  1.00  0.00     0.007 A 
ATOM     15  C   UNL     1     -45.193  38.291  29.185  1.00  0.00    -0.049 A 
ATOM     16  H   UNL     1     -47.524  38.611  26.121  1.00  0.00     0.069 H 
ATOM     17  C   UNL     1     -46.286  37.436  29.067  1.00  0.00    -0.019 A 
ATOM     18  H   UNL     1     -44.537  38.199  30.049  1.00  0.00     0.063 H 
ATOM     19  H   UNL     1     -46.473  36.691  29.836  1.00  0.00     0.066 H 
BRANCH   6  20
ATOM     20  N   UNL     1     -44.409  42.019  25.156  1.00  0.00    -0.373 N 
ATOM     21  H   UNL     1     -44.612  41.458  24.327  1.00  0.00     0.161 HD
BRANCH  20  22
ATOM     22  C   UNL     1     -45.287  43.175  25.237  1.00  0.00     0.005 C 
ATOM     23  H   UNL     1     -46.232  42.929  25.734  1.00  0.00     0.045 H 
ATOM     24  H   UNL     1     -45.521  43.516  24.223  1.00  0.00     0.045 H 
ATOM     25  H   UNL     1     -44.809  44.010  25.759  1.00  0.00     0.045 H 
ENDBRANCH  20  22
ENDBRANCH   6  20
ENDBRANCH   4   5
ENDBRANCH   1   4
BRANCH   1  26
ATOM     26  C   UNL     1     -47.895  34.419  27.087  1.00  0.00     0.123 C 
ATOM     27  O   UNL     1     -48.840  33.474  26.563  1.00  0.00    -0.345 OA
ATOM     28  C   UNL     1     -46.544  34.085  26.460  1.00  0.00     0.114 C 
ATOM     29  H   UNL     1     -47.840  34.288  28.176  1.00  0.00     0.067 H 
ATOM     30  C   UNL     1     -48.102  32.276  26.226  1.00  0.00     0.164 C 
ATOM     31  C   UNL     1     -46.602  32.569  26.360  1.00  0.00     0.128 C 
ATOM     32  H   UNL     1     -46.442  34.534  25.468  1.00  0.00     0.066 H 
ATOM     33  H   UNL     1     -48.404  31.508  26.949  1.00  0.00     0.088 H 
ATOM     34  H   UNL     1     -45.989  32.172  25.546  1.00  0.00     0.068 H 
BRANCH  28  35
ATOM     35  O   UNL     1     -45.436  34.500  27.258  1.00  0.00    -0.387 OA
ATOM     36  H   UNL     1     -45.329  35.459  27.096  1.00  0.00     0.211 HD
ENDBRANCH  28  35
BRANCH  30  37
ATOM     37  N   UNL     1     -48.535  31.816  24.915  1.00  0.00    -0.302 N 
ATOM     38  C   UNL     1     -49.842  31.841  24.481  1.00  0.00     0.023 A 
ATOM     39  C   UNL     1     -47.736  31.304  23.919  1.00  0.00     0.148 A 
ATOM     40  C   UNL     1     -49.857  31.350  23.199  1.00  0.00     0.049 A 
ATOM     41  H   UNL     1     -50.640  32.211  25.113  1.00  0.00     0.083 H 
ATOM     42  C   UNL     1     -48.538  31.005  22.820  1.00  0.00     0.075 A 
ATOM     43  N   UNL     1     -46.407  31.123  24.001  1.00  0.00    -0.218 NA
ATOM     44  Br  UNL     1     -51.387  31.162  22.128  1.00  0.00    -0.048 Br
ATOM     45  C   UNL     1     -47.888  30.474  21.696  1.00  0.00     0.137 A 
ATOM     46  C   UNL     1     -45.900  30.612  22.868  1.00  0.00     0.120 A 
ATOM     47  N   UNL     1     -46.557  30.276  21.745  1.00  0.00    -0.219 NA
ATOM     48  H   UNL     1     -44.827  30.447  22.855  1.00  0.00     0.106 H 
BRANCH  45  49
ATOM     49  N   UNL     1     -48.529  30.119  20.520  1.00  0.00    -0.383 N 
ATOM     50  H   UNL     1     -47.933  29.765  19.784  1.00  0.00     0.158 HD
ATOM     51  H   UNL     1     -49.237  30.794  20.260  1.00  0.00     0.158 HD
ENDBRANCH  45  49
ENDBRANCH  30  37
BRANCH  31  52
ATOM     52  O   UNL     1     -46.089  31.997  27.580  1.00  0.00    -0.386 OA
ATOM     53  H   UNL     1     -45.247  31.567  27.315  1.00  0.00     0.211 HD
ENDBRANCH  31  52
ENDBRANCH   1  26
TORSDOF 9
ENDMDL
MODEL 4
REMARK VINA RESULT:      -8.9      2.020      3.006
REMARK SMILES CNc1ccc2ccc(OC[C@H]3O[C@@H](n4cc(Br)c5c(N)ncnc54)[C@H](O)[C@@H]3O)cc2n1
REMARK SMILES IDX 11 1 10 4 9 5 3 6 4 7 32 8 5 9 31 11 6 12 30 14 7 15 8 17
REMARK SMILES IDX 2 20 1 22 12 26 13 27 28 28 14 30 26 31 29 35 15 37 16 38
REMARK SMILES IDX 25 39 17 40 19 42 24 43 18 44 20 45 23 46 22 47 21 49 27 52
REMARK H PARENT 11 2 11 3 4 10 5 13 30 16 7 18 8 19 2 21 1 23 1 24 1 25 12 29
REMARK H PARENT 28 32 14 33 26 34 29 36 16 41 23 48 21 50 21 51 27 53
REMARK Flexibility Score: inf
ROOT
ATOM      1  C   UNL     1     -46.070  33.924  27.075  1.00  0.00     0.117 C 
ATOM      2  H   UNL     1     -45.023  34.253  27.109  1.00  0.00     0.073 H 
ATOM      3  H   UNL     1     -46.131  32.914  27.500  1.00  0.00     0.073 H 
ENDROOT
BRANCH   1   4
ATOM      4  O   UNL     1     -46.559  33.935  25.730  1.00  0.00    -0.491 OA
BRANCH   4   5
ATOM      5  C   UNL     1     -46.837  32.724  25.160  1.00  0.00     0.121 A 
ATOM      6  C   UNL     1     -48.978  28.488  24.909  1.00  0.00     0.126 A 
ATOM      7  C   UNL     1     -48.332  28.167  23.723  1.00  0.00    -0.019 A 
ATOM      8  N   UNL     1     -48.771  29.654  25.550  1.00  0.00    -0.231 NA
ATOM      9  C   UNL     1     -47.455  29.088  23.164  1.00  0.00    -0.049 A 
ATOM     10  H   UNL     1     -48.491  27.205  23.248  1.00  0.00     0.066 H 
ATOM     11  C   UNL     1     -47.921  30.548  25.015  1.00  0.00     0.076 A 
ATOM     12  C   UNL     1     -47.234  30.308  23.809  1.00  0.00     0.001 A 
ATOM     13  H   UNL     1     -46.943  28.844  22.237  1.00  0.00     0.063 H 
ATOM     14  C   UNL     1     -47.709  31.757  25.669  1.00  0.00     0.007 A 
ATOM     15  C   UNL     1     -46.358  31.272  23.289  1.00  0.00    -0.049 A 
ATOM     16  H   UNL     1     -48.252  31.913  26.596  1.00  0.00     0.069 H 
ATOM     17  C   UNL     1     -46.164  32.474  23.966  1.00  0.00    -0.019 A 
ATOM     18  H   UNL     1     -45.824  31.094  22.359  1.00  0.00     0.063 H 
ATOM     19  H   UNL     1     -45.485  33.218  23.557  1.00  0.00     0.066 H 
BRANCH   6  20
ATOM     20  N   UNL     1     -49.858  27.606  25.538  1.00  0.00    -0.373 N 
ATOM     21  H   UNL     1     -50.683  28.178  25.723  1.00  0.00     0.161 HD
BRANCH  20  22
ATOM     22  C   UNL     1     -50.195  26.436  24.744  1.00  0.00     0.005 C 
ATOM     23  H   UNL     1     -50.603  26.716  23.767  1.00  0.00     0.045 H 
ATOM     24  H   UNL     1     -50.960  25.856  25.271  1.00  0.00     0.045 H 
ATOM     25  H   UNL     1     -49.330  25.780  24.603  1.00  0.00     0.045 H 
ENDBRANCH  20  22
ENDBRANCH   6  20
ENDBRANCH   4   5
ENDBRANCH   1   4
BRANCH   1  26
ATOM     26  C   UNL     1     -46.927  34.870  27.914  1.00  0.00     0.123 C 
ATOM     27  O   UNL     1     -46.108  35.852  28.564  1.00  0.00    -0.345 OA
ATOM     28  C   UNL     1     -47.945  35.633  27.071  1.00  0.00     0.114 C 
ATOM     29  H   UNL     1     -47.448  34.286  28.685  1.00  0.00     0.067 H 
ATOM     30  C   UNL     1     -46.909  37.048  28.708  1.00  0.00     0.164 C 
ATOM     31  C   UNL     1     -48.217  36.859  27.927  1.00  0.00     0.128 C 
ATOM     32  H   UNL     1     -47.526  35.923  26.103  1.00  0.00     0.066 H 
ATOM     33  H   UNL     1     -47.119  37.158  29.779  1.00  0.00     0.088 H 
ATOM     34  H   UNL     1     -48.522  37.731  27.341  1.00  0.00     0.068 H 
BRANCH  28  35
ATOM     35  O   UNL     1     -49.147  34.899  26.839  1.00  0.00    -0.387 OA
ATOM     36  H   UNL     1     -49.564  34.778  27.716  1.00  0.00     0.211 HD
ENDBRANCH  28  35
BRANCH  30  37
ATOM     37  N   UNL     1     -46.105  38.196  28.314  1.00  0.00    -0.302 N 
ATOM     38  C   UNL     1     -46.368  38.982  27.215  1.00  0.00     0.023 A 
ATOM     39  C   UNL     1     -44.989  38.676  28.960  1.00  0.00     0.148 A 
ATOM     40  C   UNL     1     -45.413  39.969  27.179  1.00  0.00     0.049 A 
ATOM     41  H   UNL     1     -47.209  38.779  26.563  1.00  0.00     0.083 H 
ATOM     42  C   UNL     1     -44.531  39.798  28.273  1.00  0.00     0.075 A 
ATOM     43  N   UNL     1     -44.437  38.146  30.064  1.00  0.00    -0.218 NA
ATOM     44  Br  UNL     1     -45.299  41.320  25.881  1.00  0.00    -0.048 Br
ATOM     45  C   UNL     1     -43.394  40.432  28.794  1.00  0.00     0.137 A 
ATOM     46  C   UNL     1     -43.359  38.837  30.467  1.00  0.00     0.120 A 
ATOM     47  N   UNL     1     -42.812  39.925  29.898  1.00  0.00    -0.219 NA
ATOM     48  H   UNL     1     -42.864  38.473  31.363  1.00  0.00     0.106 H 
BRANCH  45  49
ATOM     49  N   UNL     1     -42.803  41.556  28.239  1.00  0.00    -0.383 N 
ATOM     50  H   UNL     1     -42.259  41.399  27.402  1.00  0.00     0.158 HD
ATOM     51  H   UNL     1     -42.402  42.157  28.948  1.00  0.00     0.158 HD
ENDBRANCH  45  49
ENDBRANCH  30  37
BRANCH  31  52
ATOM     52  O   UNL     1     -49.300  36.571  28.834  1.00  0.00    -0.386 OA
ATOM     53  H   UNL     1     -50.109  36.649  28.283  1.00  0.00     0.211 HD
ENDBRANCH  31  52
ENDBRANCH   1  26
TORSDOF 9
ENDMDL
MODEL 5
REMARK VINA RESULT:      -8.9      4.061     10.585
REMARK SMILES CNc1ccc2ccc(OC[C@H]3O[C@@H](n4cc(Br)c5c(N)ncnc54)[C@H](O)[C@@H]3O)cc2n1
REMARK SMILES IDX 11 1 10 4 9 5 3 6 4 7 32 8 5 9 31 11 6 12 30 14 7 15 8 17
REMARK SMILES IDX 2 20 1 22 12 26 13 27 28 28 14 30 26 31 29 35 15 37 16 38
REMARK SMILES IDX 25 39 17 40 19 42 24 43 18 44 20 45 23 46 22 47 21 49 27 52
REMARK H PARENT 11 2 11 3 4 10 5 13 30 16 7 18 8 19 2 21 1 23 1 24 1 25 12 29
REMARK H PARENT 28 32 14 33 26 34 29 36 16 41 23 48 21 50 21 51 27 53
REMARK Flexibility Score: inf
ROOT
ATOM      1  C   UNL     1     -46.490  33.557  25.743  1.00  0.00     0.117 C 
ATOM      2  H   UNL     1     -45.782  32.746  25.953  1.00  0.00     0.073 H 
ATOM      3  H   UNL     1     -45.985  34.310  25.125  1.00  0.00     0.073 H 
ENDROOT
BRANCH   1   4
ATOM      4  O   UNL     1     -46.964  34.142  26.960  1.00  0.00    -0.491 OA
BRANCH   4   5
ATOM      5  C   UNL     1     -46.500  35.390  27.272  1.00  0.00     0.121 A 
ATOM      6  C   UNL     1     -46.122  40.094  26.708  1.00  0.00     0.126 A 
ATOM      7  C   UNL     1     -45.238  40.209  27.771  1.00  0.00    -0.019 A 
ATOM      8  N   UNL     1     -46.634  38.910  26.320  1.00  0.00    -0.231 NA
ATOM      9  C   UNL     1     -44.880  39.066  28.476  1.00  0.00    -0.049 A 
ATOM     10  H   UNL     1     -44.813  41.170  28.038  1.00  0.00     0.066 H 
ATOM     11  C   UNL     1     -46.290  37.800  26.998  1.00  0.00     0.076 A 
ATOM     12  C   UNL     1     -45.409  37.830  28.096  1.00  0.00     0.001 A 
ATOM     13  H   UNL     1     -44.187  39.146  29.308  1.00  0.00     0.063 H 
ATOM     14  C   UNL     1     -46.821  36.576  26.606  1.00  0.00     0.007 A 
ATOM     15  C   UNL     1     -45.081  36.645  28.771  1.00  0.00    -0.049 A 
ATOM     16  H   UNL     1     -47.497  36.585  25.756  1.00  0.00     0.069 H 
ATOM     17  C   UNL     1     -45.627  35.432  28.357  1.00  0.00    -0.019 A 
ATOM     18  H   UNL     1     -44.401  36.659  29.620  1.00  0.00     0.063 H 
ATOM     19  H   UNL     1     -45.370  34.518  28.886  1.00  0.00     0.066 H 
BRANCH   6  20
ATOM     20  N   UNL     1     -46.512  41.195  25.943  1.00  0.00    -0.373 N 
ATOM     21  H   UNL     1     -47.374  41.509  26.391  1.00  0.00     0.161 HD
BRANCH  20  22
ATOM     22  C   UNL     1     -45.526  42.261  25.891  1.00  0.00     0.005 C 
ATOM     23  H   UNL     1     -44.934  42.307  26.812  1.00  0.00     0.045 H 
ATOM     24  H   UNL     1     -46.043  43.219  25.778  1.00  0.00     0.045 H 
ATOM     25  H   UNL     1     -44.855  42.151  25.033  1.00  0.00     0.045 H 
ENDBRANCH  20  22
ENDBRANCH   6  20
ENDBRANCH   4   5
ENDBRANCH   1   4
BRANCH   1  26
ATOM     26  C   UNL     1     -47.686  33.001  24.972  1.00  0.00     0.123 C 
ATOM     27  O   UNL     1     -47.282  31.910  24.132  1.00  0.00    -0.345 OA
ATOM     28  C   UNL     1     -48.775  32.464  25.898  1.00  0.00     0.114 C 
ATOM     29  H   UNL     1     -48.098  33.796  24.336  1.00  0.00     0.067 H 
ATOM     30  C   UNL     1     -48.415  31.017  24.018  1.00  0.00     0.164 C 
ATOM     31  C   UNL     1     -49.502  31.476  24.999  1.00  0.00     0.128 C 
ATOM     32  H   UNL     1     -48.348  31.955  26.765  1.00  0.00     0.066 H 
ATOM     33  H   UNL     1     -48.776  31.099  22.986  1.00  0.00     0.088 H 
ATOM     34  H   UNL     1     -49.980  30.665  25.556  1.00  0.00     0.068 H 
BRANCH  28  35
ATOM     35  O   UNL     1     -49.666  33.478  26.364  1.00  0.00    -0.387 OA
ATOM     36  H   UNL     1     -49.200  33.932  27.095  1.00  0.00     0.211 HD
ENDBRANCH  28  35
BRANCH  30  37
ATOM     37  N   UNL     1     -47.948  29.650  24.196  1.00  0.00    -0.302 N 
ATOM     38  C   UNL     1     -48.600  28.705  24.957  1.00  0.00     0.023 A 
ATOM     39  C   UNL     1     -46.819  29.089  23.644  1.00  0.00     0.148 A 
ATOM     40  C   UNL     1     -47.876  27.540  24.871  1.00  0.00     0.049 A 
ATOM     41  H   UNL     1     -49.517  28.937  25.482  1.00  0.00     0.083 H 
ATOM     42  C   UNL     1     -46.748  27.757  24.045  1.00  0.00     0.075 A 
ATOM     43  N   UNL     1     -45.938  29.726  22.855  1.00  0.00    -0.218 NA
ATOM     44  Br  UNL     1     -48.317  25.925  25.720  1.00  0.00    -0.048 Br
ATOM     45  C   UNL     1     -45.655  27.017  23.569  1.00  0.00     0.137 A 
ATOM     46  C   UNL     1     -44.941  28.918  22.463  1.00  0.00     0.120 A 
ATOM     47  N   UNL     1     -44.750  27.625  22.779  1.00  0.00    -0.219 NA
ATOM     48  H   UNL     1     -44.193  29.360  21.812  1.00  0.00     0.106 H 
BRANCH  45  49
ATOM     49  N   UNL     1     -45.426  25.684  23.869  1.00  0.00    -0.383 N 
ATOM     50  H   UNL     1     -45.034  25.127  23.122  1.00  0.00     0.158 HD
ATOM     51  H   UNL     1     -46.190  25.281  24.397  1.00  0.00     0.158 HD
ENDBRANCH  45  49
ENDBRANCH  30  37
BRANCH  31  52
ATOM     52  O   UNL     1     -50.551  32.166  24.292  1.00  0.00    -0.386 OA
ATOM     53  H   UNL     1     -51.348  31.610  24.430  1.00  0.00     0.211 HD
ENDBRANCH  31  52
ENDBRANCH   1  26
TORSDOF 9
ENDMDL
MODEL 6
REMARK VINA RESULT:      -8.9      5.090     11.601
REMARK SMILES CNc1ccc2ccc(OC[C@H]3O[C@@H](n4cc(Br)c5c(N)ncnc54)[C@H](O)[C@@H]3O)cc2n1
REMARK SMILES IDX 11 1 10 4 9 5 3 6 4 7 32 8 5 9 31 11 6 12 30 14 7 15 8 17
REMARK SMILES IDX 2 20 1 22 12 26 13 27 28 28 14 30 26 31 29 35 15 37 16 38
REMARK SMILES IDX 25 39 17 40 19 42 24 43 18 44 20 45 23 46 22 47 21 49 27 52
REMARK H PARENT 11 2 11 3 4 10 5 13 30 16 7 18 8 19 2 21 1 23 1 24 1 25 12 29
REMARK H PARENT 28 32 14 33 26 34 29 36 16 41 23 48 21 50 21 51 27 53
REMARK Flexibility Score: inf
ROOT
ATOM      1  C   UNL     1     -46.274  31.623  23.000  1.00  0.00     0.117 C 
ATOM      2  H   UNL     1     -45.183  31.589  22.883  1.00  0.00     0.073 H 
ATOM      3  H   UNL     1     -46.631  32.605  22.667  1.00  0.00     0.073 H 
ENDROOT
BRANCH   1   4
ATOM      4  O   UNL     1     -46.642  31.388  24.363  1.00  0.00    -0.491 OA
BRANCH   4   5
ATOM      5  C   UNL     1     -47.174  32.443  25.053  1.00  0.00     0.121 A 
ATOM      6  C   UNL     1     -47.078  36.758  27.043  1.00  0.00     0.126 A 
ATOM      7  C   UNL     1     -48.386  36.644  27.492  1.00  0.00    -0.019 A 
ATOM      8  N   UNL     1     -46.463  35.776  26.356  1.00  0.00    -0.231 NA
ATOM      9  C   UNL     1     -49.096  35.483  27.209  1.00  0.00    -0.049 A 
ATOM     10  H   UNL     1     -48.844  37.436  28.073  1.00  0.00     0.066 H 
ATOM     11  C   UNL     1     -47.144  34.649  26.081  1.00  0.00     0.076 A 
ATOM     12  C   UNL     1     -48.478  34.457  26.489  1.00  0.00     0.001 A 
ATOM     13  H   UNL     1     -50.120  35.384  27.559  1.00  0.00     0.063 H 
ATOM     14  C   UNL     1     -46.516  33.635  25.367  1.00  0.00     0.007 A 
ATOM     15  C   UNL     1     -49.148  33.264  26.177  1.00  0.00    -0.049 A 
ATOM     16  H   UNL     1     -45.488  33.812  25.067  1.00  0.00     0.069 H 
ATOM     17  C   UNL     1     -48.494  32.264  25.462  1.00  0.00    -0.019 A 
ATOM     18  H   UNL     1     -50.179  33.107  26.489  1.00  0.00     0.063 H 
ATOM     19  H   UNL     1     -49.020  31.343  25.222  1.00  0.00     0.066 H 
BRANCH   6  20
ATOM     20  N   UNL     1     -46.298  37.885  27.304  1.00  0.00    -0.373 N 
ATOM     21  H   UNL     1     -46.934  38.511  27.799  1.00  0.00     0.161 HD
BRANCH  20  22
ATOM     22  C   UNL     1     -45.107  37.613  28.092  1.00  0.00     0.005 C 
ATOM     23  H   UNL     1     -44.327  37.132  27.491  1.00  0.00     0.045 H 
ATOM     24  H   UNL     1     -45.368  36.931  28.908  1.00  0.00     0.045 H 
ATOM     25  H   UNL     1     -44.704  38.524  28.546  1.00  0.00     0.045 H 
ENDBRANCH  20  22
ENDBRANCH   6  20
ENDBRANCH   4   5
ENDBRANCH   1   4
BRANCH   1  26
ATOM     26  C   UNL     1     -46.911  30.541  22.130  1.00  0.00     0.123 C 
ATOM     27  O   UNL     1     -46.724  29.245  22.718  1.00  0.00    -0.345 OA
ATOM     28  C   UNL     1     -48.415  30.737  21.966  1.00  0.00     0.114 C 
ATOM     29  H   UNL     1     -46.426  30.548  21.144  1.00  0.00     0.067 H 
ATOM     30  C   UNL     1     -47.856  28.433  22.328  1.00  0.00     0.164 C 
ATOM     31  C   UNL     1     -48.889  29.331  21.635  1.00  0.00     0.128 C 
ATOM     32  H   UNL     1     -48.876  31.092  22.891  1.00  0.00     0.066 H 
ATOM     33  H   UNL     1     -47.475  27.681  21.626  1.00  0.00     0.088 H 
ATOM     34  H   UNL     1     -49.923  29.146  21.938  1.00  0.00     0.068 H 
BRANCH  28  35
ATOM     35  O   UNL     1     -48.753  31.647  20.918  1.00  0.00    -0.387 OA
ATOM     36  H   UNL     1     -49.659  31.961  21.113  1.00  0.00     0.211 HD
ENDBRANCH  28  35
BRANCH  30  37
ATOM     37  N   UNL     1     -48.337  27.713  23.498  1.00  0.00    -0.302 N 
ATOM     38  C   UNL     1     -47.516  27.098  24.417  1.00  0.00     0.023 A 
ATOM     39  C   UNL     1     -49.649  27.540  23.873  1.00  0.00     0.148 A 
ATOM     40  C   UNL     1     -48.323  26.544  25.381  1.00  0.00     0.049 A 
ATOM     41  H   UNL     1     -46.439  27.114  24.312  1.00  0.00     0.083 H 
ATOM     42  C   UNL     1     -49.676  26.812  25.060  1.00  0.00     0.075 A 
ATOM     43  N   UNL     1     -50.720  27.997  23.201  1.00  0.00    -0.218 NA
ATOM     44  Br  UNL     1     -47.723  25.583  26.877  1.00  0.00    -0.048 Br
ATOM     45  C   UNL     1     -50.941  26.543  25.602  1.00  0.00     0.137 A 
ATOM     46  C   UNL     1     -51.870  27.679  23.815  1.00  0.00     0.120 A 
ATOM     47  N   UNL     1     -52.036  26.982  24.953  1.00  0.00    -0.219 NA
ATOM     48  H   UNL     1     -52.781  28.025  23.335  1.00  0.00     0.106 H 
BRANCH  45  49
ATOM     49  N   UNL     1     -51.154  25.832  26.773  1.00  0.00    -0.383 N 
ATOM     50  H   UNL     1     -50.677  24.944  26.841  1.00  0.00     0.158 HD
ATOM     51  H   UNL     1     -52.126  25.860  27.057  1.00  0.00     0.158 HD
ENDBRANCH  45  49
ENDBRANCH  30  37
BRANCH  31  52
ATOM     52  O   UNL     1     -48.837  29.139  20.207  1.00  0.00    -0.386 OA
ATOM     53  H   UNL     1     -49.769  28.979  19.946  1.00  0.00     0.211 HD
ENDBRANCH  31  52
ENDBRANCH   1  26
TORSDOF 9
ENDMDL
MODEL 7
REMARK VINA RESULT:      -8.9      2.474      3.293
REMARK SMILES CNc1ccc2ccc(OC[C@H]3O[C@@H](n4cc(Br)c5c(N)ncnc54)[C@H](O)[C@@H]3O)cc2n1
REMARK SMILES IDX 11 1 10 4 9 5 3 6 4 7 32 8 5 9 31 11 6 12 30 14 7 15 8 17
REMARK SMILES IDX 2 20 1 22 12 26 13 27 28 28 14 30 26 31 29 35 15 37 16 38
REMARK SMILES IDX 25 39 17 40 19 42 24 43 18 44 20 45 23 46 22 47 21 49 27 52
REMARK H PARENT 11 2 11 3 4 10 5 13 30 16 7 18 8 19 2 21 1 23 1 24 1 25 12 29
REMARK H PARENT 28 32 14 33 26 34 29 36 16 41 23 48 21 50 21 51 27 53
REMARK Flexibility Score: inf
ROOT
ATOM      1  C   UNL     1     -45.675  34.883  26.821  1.00  0.00     0.117 C 
ATOM      2  H   UNL     1     -45.538  35.465  25.900  1.00  0.00     0.073 H 
ATOM      3  H   UNL     1     -44.955  34.056  26.820  1.00  0.00     0.073 H 
ENDROOT
BRANCH   1   4
ATOM      4  O   UNL     1     -47.014  34.385  26.909  1.00  0.00    -0.491 OA
BRANCH   4   5
ATOM      5  C   UNL     1     -47.369  33.398  26.032  1.00  0.00     0.121 A 
ATOM      6  C   UNL     1     -46.570  30.232  22.579  1.00  0.00     0.126 A 
ATOM      7  C   UNL     1     -47.895  29.818  22.572  1.00  0.00    -0.019 A 
ATOM      8  N   UNL     1     -46.121  31.198  23.403  1.00  0.00    -0.231 NA
ATOM      9  C   UNL     1     -48.788  30.407  23.460  1.00  0.00    -0.049 A 
ATOM     10  H   UNL     1     -48.237  29.063  21.873  1.00  0.00     0.066 H 
ATOM     11  C   UNL     1     -46.981  31.773  24.262  1.00  0.00     0.076 A 
ATOM     12  C   UNL     1     -48.339  31.404  24.329  1.00  0.00     0.001 A 
ATOM     13  H   UNL     1     -49.828  30.090  23.459  1.00  0.00     0.063 H 
ATOM     14  C   UNL     1     -46.521  32.766  25.119  1.00  0.00     0.007 A 
ATOM     15  C   UNL     1     -49.198  32.031  25.243  1.00  0.00    -0.049 A 
ATOM     16  H   UNL     1     -45.470  33.029  25.044  1.00  0.00     0.069 H 
ATOM     17  C   UNL     1     -48.710  33.024  26.089  1.00  0.00    -0.019 A 
ATOM     18  H   UNL     1     -50.248  31.753  25.301  1.00  0.00     0.063 H 
ATOM     19  H   UNL     1     -49.381  33.506  26.797  1.00  0.00     0.066 H 
BRANCH   6  20
ATOM     20  N   UNL     1     -45.621  29.700  21.705  1.00  0.00    -0.373 N 
ATOM     21  H   UNL     1     -45.165  30.524  21.310  1.00  0.00     0.161 HD
BRANCH  20  22
ATOM     22  C   UNL     1     -44.656  28.818  22.342  1.00  0.00     0.005 C 
ATOM     23  H   UNL     1     -43.881  28.495  21.639  1.00  0.00     0.045 H 
ATOM     24  H   UNL     1     -45.175  27.923  22.701  1.00  0.00     0.045 H 
ATOM     25  H   UNL     1     -44.186  29.291  23.210  1.00  0.00     0.045 H 
ENDBRANCH  20  22
ENDBRANCH   6  20
ENDBRANCH   4   5
ENDBRANCH   1   4
BRANCH   1  26
ATOM     26  C   UNL     1     -45.406  35.777  28.030  1.00  0.00     0.123 C 
ATOM     27  O   UNL     1     -45.295  37.150  27.629  1.00  0.00    -0.345 OA
ATOM     28  C   UNL     1     -46.527  35.710  29.064  1.00  0.00     0.114 C 
ATOM     29  H   UNL     1     -44.457  35.472  28.492  1.00  0.00     0.067 H 
ATOM     30  C   UNL     1     -45.755  37.957  28.738  1.00  0.00     0.164 C 
ATOM     31  C   UNL     1     -46.368  37.032  29.797  1.00  0.00     0.128 C 
ATOM     32  H   UNL     1     -47.509  35.648  28.586  1.00  0.00     0.066 H 
ATOM     33  H   UNL     1     -44.871  38.464  29.143  1.00  0.00     0.088 H 
ATOM     34  H   UNL     1     -47.306  37.396  30.227  1.00  0.00     0.068 H 
BRANCH  28  35
ATOM     35  O   UNL     1     -46.396  34.609  29.965  1.00  0.00    -0.387 OA
ATOM     36  H   UNL     1     -46.229  35.000  30.846  1.00  0.00     0.211 HD
ENDBRANCH  28  35
BRANCH  30  37
ATOM     37  N   UNL     1     -46.639  38.993  28.224  1.00  0.00    -0.302 N 
ATOM     38  C   UNL     1     -47.999  39.022  28.437  1.00  0.00     0.023 A 
ATOM     39  C   UNL     1     -46.273  40.085  27.471  1.00  0.00     0.148 A 
ATOM     40  C   UNL     1     -48.486  40.149  27.819  1.00  0.00     0.049 A 
ATOM     41  H   UNL     1     -48.498  38.251  29.010  1.00  0.00     0.083 H 
ATOM     42  C   UNL     1     -47.414  40.838  27.204  1.00  0.00     0.075 A 
ATOM     43  N   UNL     1     -45.024  40.369  27.064  1.00  0.00    -0.218 NA
ATOM     44  Br  UNL     1     -50.286  40.679  27.795  1.00  0.00    -0.048 Br
ATOM     45  C   UNL     1     -47.232  42.005  26.446  1.00  0.00     0.137 A 
ATOM     46  C   UNL     1     -44.977  41.505  26.350  1.00  0.00     0.120 A 
ATOM     47  N   UNL     1     -45.994  42.318  26.018  1.00  0.00    -0.219 NA
ATOM     48  H   UNL     1     -43.996  41.807  25.995  1.00  0.00     0.106 H 
BRANCH  45  49
ATOM     49  N   UNL     1     -48.254  42.869  26.086  1.00  0.00    -0.383 N 
ATOM     50  H   UNL     1     -48.538  43.531  26.794  1.00  0.00     0.158 HD
ATOM     51  H   UNL     1     -48.986  42.391  25.575  1.00  0.00     0.158 HD
ENDBRANCH  45  49
ENDBRANCH  30  37
BRANCH  31  52
ATOM     52  O   UNL     1     -45.451  36.855  30.895  1.00  0.00    -0.386 OA
ATOM     53  H   UNL     1     -46.021  36.603  31.653  1.00  0.00     0.211 HD
ENDBRANCH  31  52
ENDBRANCH   1  26
TORSDOF 9
ENDMDL
