MODEL 1
REMARK VINA RESULT:      -9.7      0.000      0.000
REMARK SMILES CC(C)(C)C(C)(C)NCc1cc2ccc(CNC(=O)c3cc(=O)n4ccccc4n3)cc2[nH]1
REMARK SMILES IDX 9 1 8 4 5 6 2 7 1 8 3 12 4 16 6 20 7 24 10 28 11 29 33 30
REMARK SMILES IDX 12 31 32 33 13 35 31 36 14 37 15 39 16 42 17 45 18 46 19 48
REMARK SMILES IDX 20 49 21 50 30 51 22 52 29 54 23 55 24 56 28 57 25 58 27 59
REMARK SMILES IDX 26 61
REMARK H PARENT 9 2 9 3 8 5 1 9 1 10 1 11 3 13 3 14 3 15 4 17 4 18 4 19 6 21
REMARK H PARENT 6 22 6 23 7 25 7 26 7 27 11 32 33 34 13 38 31 40 14 41 16 43
REMARK H PARENT 16 44 17 47 21 53 28 60 25 62 27 63 26 64
REMARK Flexibility Score: inf
ROOT
ATOM      1  C   UNL     1     -49.298  30.070  24.119  1.00  0.00     0.036 C 
ATOM      2  H   UNL     1     -50.362  30.284  23.967  1.00  0.00     0.049 H 
ATOM      3  H   UNL     1     -48.864  29.840  23.141  1.00  0.00     0.049 H 
ENDROOT
BRANCH   1   4
ATOM      4  N   UNL     1     -49.127  28.982  25.066  1.00  0.00    -0.306 NA
ATOM      5  H   UNL     1     -48.685  29.318  25.916  1.00  0.00     0.123 HD
BRANCH   4   6
ATOM      6  C   UNL     1     -48.512  27.725  24.592  1.00  0.00     0.018 C 
BRANCH   6   7
ATOM      7  C   UNL     1     -48.302  26.664  25.777  1.00  0.00    -0.021 C 
BRANCH   7   8
ATOM      8  C   UNL     1     -46.975  25.884  25.629  1.00  0.00    -0.058 C 
ATOM      9  H   UNL     1     -46.372  26.286  24.805  1.00  0.00     0.024 H 
ATOM     10  H   UNL     1     -47.149  24.828  25.399  1.00  0.00     0.024 H 
ATOM     11  H   UNL     1     -46.361  25.947  26.532  1.00  0.00     0.024 H 
ENDBRANCH   7   8
BRANCH   7  12
ATOM     12  C   UNL     1     -49.436  25.609  25.813  1.00  0.00    -0.058 C 
ATOM     13  H   UNL     1     -49.706  25.261  24.812  1.00  0.00     0.024 H 
ATOM     14  H   UNL     1     -50.345  26.026  26.261  1.00  0.00     0.024 H 
ATOM     15  H   UNL     1     -49.162  24.738  26.418  1.00  0.00     0.024 H 
ENDBRANCH   7  12
BRANCH   7  16
ATOM     16  C   UNL     1     -48.274  27.333  27.175  1.00  0.00    -0.058 C 
ATOM     17  H   UNL     1     -47.279  27.740  27.394  1.00  0.00     0.024 H 
ATOM     18  H   UNL     1     -48.500  26.619  27.973  1.00  0.00     0.024 H 
ATOM     19  H   UNL     1     -48.979  28.167  27.250  1.00  0.00     0.024 H 
ENDBRANCH   7  16
ENDBRANCH   6   7
BRANCH   6  20
ATOM     20  C   UNL     1     -47.206  27.979  23.798  1.00  0.00    -0.047 C 
ATOM     21  H   UNL     1     -46.649  27.046  23.641  1.00  0.00     0.025 H 
ATOM     22  H   UNL     1     -46.529  28.647  24.339  1.00  0.00     0.025 H 
ATOM     23  H   UNL     1     -47.393  28.420  22.814  1.00  0.00     0.025 H 
ENDBRANCH   6  20
BRANCH   6  24
ATOM     24  C   UNL     1     -49.541  27.202  23.554  1.00  0.00    -0.047 C 
ATOM     25  H   UNL     1     -50.375  26.679  24.032  1.00  0.00     0.025 H 
ATOM     26  H   UNL     1     -49.075  26.488  22.863  1.00  0.00     0.025 H 
ATOM     27  H   UNL     1     -49.958  28.006  22.937  1.00  0.00     0.025 H 
ENDBRANCH   6  24
ENDBRANCH   4   6
ENDBRANCH   1   4
BRANCH   1  28
ATOM     28  C   UNL     1     -48.648  31.293  24.671  1.00  0.00     0.030 A 
ATOM     29  C   UNL     1     -47.362  31.777  24.527  1.00  0.00    -0.032 A 
ATOM     30  N   UNL     1     -49.325  32.180  25.473  1.00  0.00    -0.357 N 
ATOM     31  C   UNL     1     -47.260  32.988  25.264  1.00  0.00    -0.000 A 
ATOM     32  H   UNL     1     -46.580  31.308  23.944  1.00  0.00     0.065 H 
ATOM     33  C   UNL     1     -48.504  33.218  25.848  1.00  0.00     0.046 A 
ATOM     34  H   UNL     1     -50.293  32.090  25.752  1.00  0.00     0.166 HD
ATOM     35  C   UNL     1     -46.226  33.915  25.486  1.00  0.00    -0.052 A 
ATOM     36  C   UNL     1     -48.768  34.335  26.651  1.00  0.00    -0.033 A 
ATOM     37  C   UNL     1     -46.470  35.038  26.287  1.00  0.00    -0.057 A 
ATOM     38  H   UNL     1     -45.247  33.763  25.040  1.00  0.00     0.063 H 
ATOM     39  C   UNL     1     -47.723  35.249  26.875  1.00  0.00    -0.027 A 
ATOM     40  H   UNL     1     -49.750  34.494  27.085  1.00  0.00     0.065 H 
ATOM     41  H   UNL     1     -45.664  35.752  26.446  1.00  0.00     0.063 H 
BRANCH  39  42
ATOM     42  C   UNL     1     -47.975  36.481  27.705  1.00  0.00     0.043 C 
ATOM     43  H   UNL     1     -48.051  36.227  28.769  1.00  0.00     0.054 H 
ATOM     44  H   UNL     1     -48.923  36.953  27.424  1.00  0.00     0.054 H 
BRANCH  42  45
ATOM     45  N   UNL     1     -46.906  37.431  27.543  1.00  0.00    -0.347 N 
ATOM     46  C   UNL     1     -47.119  38.784  27.613  1.00  0.00     0.270 C 
ATOM     47  H   UNL     1     -45.940  37.116  27.538  1.00  0.00     0.164 HD
ATOM     48  O   UNL     1     -48.222  39.303  27.722  1.00  0.00    -0.268 OA
BRANCH  46  49
ATOM     49  C   UNL     1     -45.833  39.573  27.550  1.00  0.00     0.136 A 
ATOM     50  C   UNL     1     -45.648  40.324  26.462  1.00  0.00     0.035 A 
ATOM     51  N   UNL     1     -44.946  39.477  28.598  1.00  0.00    -0.225 NA
ATOM     52  C   UNL     1     -44.411  41.109  26.361  1.00  0.00     0.258 A 
ATOM     53  H   UNL     1     -46.354  40.393  25.646  1.00  0.00     0.071 H 
ATOM     54  C   UNL     1     -43.854  40.172  28.505  1.00  0.00     0.140 A 
ATOM     55  O   UNL     1     -44.231  41.801  25.362  1.00  0.00    -0.269 OA
ATOM     56  N   UNL     1     -43.534  40.994  27.430  1.00  0.00    -0.268 N 
ATOM     57  C   UNL     1     -42.864  40.097  29.617  1.00  0.00    -0.019 A 
ATOM     58  C   UNL     1     -42.341  41.708  27.406  1.00  0.00     0.014 A 
ATOM     59  C   UNL     1     -41.728  40.804  29.549  1.00  0.00    -0.057 A 
ATOM     60  H   UNL     1     -43.105  39.460  30.459  1.00  0.00     0.066 H 
ATOM     61  C   UNL     1     -41.455  41.637  28.409  1.00  0.00    -0.045 A 
ATOM     62  H   UNL     1     -42.155  42.330  26.535  1.00  0.00     0.082 H 
ATOM     63  H   UNL     1     -40.996  40.763  30.349  1.00  0.00     0.062 H 
ATOM     64  H   UNL     1     -40.528  42.198  28.380  1.00  0.00     0.064 H 
ENDBRANCH  46  49
ENDBRANCH  42  45
ENDBRANCH  39  42
ENDBRANCH   1  28
TORSDOF 12
ENDMDL
MODEL 2
REMARK VINA RESULT:      -9.6      2.391      3.891
REMARK SMILES CC(C)(C)C(C)(C)NCc1cc2ccc(CNC(=O)c3cc(=O)n4ccccc4n3)cc2[nH]1
REMARK SMILES IDX 9 1 8 4 5 6 2 7 1 8 3 12 4 16 6 20 7 24 10 28 11 29 33 30
REMARK SMILES IDX 12 31 32 33 13 35 31 36 14 37 15 39 16 42 17 45 18 46 19 48
REMARK SMILES IDX 20 49 21 50 30 51 22 52 29 54 23 55 24 56 28 57 25 58 27 59
REMARK SMILES IDX 26 61
REMARK H PARENT 9 2 9 3 8 5 1 9 1 10 1 11 3 13 3 14 3 15 4 17 4 18 4 19 6 21
REMARK H PARENT 6 22 6 23 7 25 7 26 7 27 11 32 33 34 13 38 31 40 14 41 16 43
REMARK H PARENT 16 44 17 47 21 53 28 60 25 62 27 63 26 64
REMARK Flexibility Score: inf
ROOT
ATOM      1  C   UNL     1     -46.364  31.777  24.346  1.00  0.00     0.036 C 
ATOM      2  H   UNL     1     -45.409  31.995  23.854  1.00  0.00     0.049 H 
ATOM      3  H   UNL     1     -46.229  30.869  24.942  1.00  0.00     0.049 H 
ENDROOT
BRANCH   1   4
ATOM      4  N   UNL     1     -47.424  31.638  23.363  1.00  0.00    -0.306 NA
ATOM      5  H   UNL     1     -48.330  31.599  23.820  1.00  0.00     0.123 HD
BRANCH   4   6
ATOM      6  C   UNL     1     -47.291  30.593  22.326  1.00  0.00     0.018 C 
BRANCH   6   7
ATOM      7  C   UNL     1     -48.585  30.501  21.384  1.00  0.00    -0.021 C 
BRANCH   7   8
ATOM      8  C   UNL     1     -48.339  31.136  19.995  1.00  0.00    -0.058 C 
ATOM      9  H   UNL     1     -49.241  31.079  19.372  1.00  0.00     0.024 H 
ATOM     10  H   UNL     1     -47.549  30.615  19.446  1.00  0.00     0.024 H 
ATOM     11  H   UNL     1     -48.072  32.194  20.071  1.00  0.00     0.024 H 
ENDBRANCH   7   8
BRANCH   7  12
ATOM     12  C   UNL     1     -49.801  31.239  22.000  1.00  0.00    -0.058 C 
ATOM     13  H   UNL     1     -49.875  31.078  23.080  1.00  0.00     0.024 H 
ATOM     14  H   UNL     1     -50.740  30.882  21.561  1.00  0.00     0.024 H 
ATOM     15  H   UNL     1     -49.760  32.317  21.815  1.00  0.00     0.024 H 
ENDBRANCH   7  12
BRANCH   7  16
ATOM     16  C   UNL     1     -49.035  29.039  21.134  1.00  0.00    -0.058 C 
ATOM     17  H   UNL     1     -49.879  28.773  21.782  1.00  0.00     0.024 H 
ATOM     18  H   UNL     1     -48.237  28.323  21.354  1.00  0.00     0.024 H 
ATOM     19  H   UNL     1     -49.366  28.877  20.104  1.00  0.00     0.024 H 
ENDBRANCH   7  16
ENDBRANCH   6   7
BRANCH   6  20
ATOM     20  C   UNL     1     -46.911  29.218  22.931  1.00  0.00    -0.047 C 
ATOM     21  H   UNL     1     -47.230  29.143  23.979  1.00  0.00     0.025 H 
ATOM     22  H   UNL     1     -45.827  29.066  22.935  1.00  0.00     0.025 H 
ATOM     23  H   UNL     1     -47.362  28.382  22.387  1.00  0.00     0.025 H 
ENDBRANCH   6  20
BRANCH   6  24
ATOM     24  C   UNL     1     -46.048  31.057  21.520  1.00  0.00    -0.047 C 
ATOM     25  H   UNL     1     -45.350  31.630  22.137  1.00  0.00     0.025 H 
ATOM     26  H   UNL     1     -46.340  31.708  20.687  1.00  0.00     0.025 H 
ATOM     27  H   UNL     1     -45.497  30.217  21.082  1.00  0.00     0.025 H 
ENDBRANCH   6  24
ENDBRANCH   4   6
ENDBRANCH   1   4
BRANCH   1  28
ATOM     28  C   UNL     1     -46.695  32.914  25.251  1.00  0.00     0.030 A 
ATOM     29  C   UNL     1     -47.912  33.475  25.591  1.00  0.00    -0.032 A 
ATOM     30  N   UNL     1     -45.726  33.614  25.928  1.00  0.00    -0.357 N 
ATOM     31  C   UNL     1     -47.669  34.543  26.497  1.00  0.00    -0.000 A 
ATOM     32  H   UNL     1     -48.875  33.141  25.228  1.00  0.00     0.065 H 
ATOM     33  C   UNL     1     -46.291  34.610  26.692  1.00  0.00     0.046 A 
ATOM     34  H   UNL     1     -44.733  33.428  25.880  1.00  0.00     0.166 HD
ATOM     35  C   UNL     1     -48.495  35.458  27.174  1.00  0.00    -0.052 A 
ATOM     36  C   UNL     1     -45.692  35.554  27.535  1.00  0.00    -0.033 A 
ATOM     37  C   UNL     1     -47.913  36.411  28.021  1.00  0.00    -0.057 A 
ATOM     38  H   UNL     1     -49.573  35.427  27.044  1.00  0.00     0.063 H 
ATOM     39  C   UNL     1     -46.525  36.471  28.198  1.00  0.00    -0.027 A 
ATOM     40  H   UNL     1     -44.615  35.576  27.675  1.00  0.00     0.065 H 
ATOM     41  H   UNL     1     -48.562  37.110  28.545  1.00  0.00     0.063 H 
BRANCH  39  42
ATOM     42  C   UNL     1     -45.923  37.482  29.140  1.00  0.00     0.043 C 
ATOM     43  H   UNL     1     -45.262  36.994  29.867  1.00  0.00     0.054 H 
ATOM     44  H   UNL     1     -46.704  37.992  29.715  1.00  0.00     0.054 H 
BRANCH  42  45
ATOM     45  N   UNL     1     -45.154  38.458  28.415  1.00  0.00    -0.347 N 
ATOM     46  C   UNL     1     -45.687  39.659  28.022  1.00  0.00     0.270 C 
ATOM     47  H   UNL     1     -44.148  38.347  28.322  1.00  0.00     0.164 HD
ATOM     48  O   UNL     1     -46.863  39.969  28.163  1.00  0.00    -0.268 OA
BRANCH  46  49
ATOM     49  C   UNL     1     -44.657  40.570  27.401  1.00  0.00     0.136 A 
ATOM     50  C   UNL     1     -43.513  40.721  28.072  1.00  0.00     0.035 A 
ATOM     51  N   UNL     1     -44.949  41.179  26.201  1.00  0.00    -0.225 NA
ATOM     52  C   UNL     1     -42.482  41.598  27.502  1.00  0.00     0.258 A 
ATOM     53  H   UNL     1     -43.294  40.236  29.014  1.00  0.00     0.071 H 
ATOM     54  C   UNL     1     -44.035  41.953  25.701  1.00  0.00     0.140 A 
ATOM     55  O   UNL     1     -41.427  41.745  28.115  1.00  0.00    -0.269 OA
ATOM     56  N   UNL     1     -42.802  42.200  26.294  1.00  0.00    -0.268 N 
ATOM     57  C   UNL     1     -44.310  42.634  24.403  1.00  0.00    -0.019 A 
ATOM     58  C   UNL     1     -41.876  43.045  25.692  1.00  0.00     0.014 A 
ATOM     59  C   UNL     1     -43.386  43.439  23.863  1.00  0.00    -0.057 A 
ATOM     60  H   UNL     1     -45.268  42.448  23.934  1.00  0.00     0.066 H 
ATOM     61  C   UNL     1     -42.128  43.653  24.526  1.00  0.00    -0.045 A 
ATOM     62  H   UNL     1     -40.932  43.192  26.211  1.00  0.00     0.082 H 
ATOM     63  H   UNL     1     -43.567  43.943  22.919  1.00  0.00     0.062 H 
ATOM     64  H   UNL     1     -41.399  44.310  24.065  1.00  0.00     0.064 H 
ENDBRANCH  46  49
ENDBRANCH  42  45
ENDBRANCH  39  42
ENDBRANCH   1  28
TORSDOF 12
ENDMDL
MODEL 3
REMARK VINA RESULT:      -9.3      1.639      2.387
REMARK SMILES CC(C)(C)C(C)(C)NCc1cc2ccc(CNC(=O)c3cc(=O)n4ccccc4n3)cc2[nH]1
REMARK SMILES IDX 9 1 8 4 5 6 2 7 1 8 3 12 4 16 6 20 7 24 10 28 11 29 33 30
REMARK SMILES IDX 12 31 32 33 13 35 31 36 14 37 15 39 16 42 17 45 18 46 19 48
REMARK SMILES IDX 20 49 21 50 30 51 22 52 29 54 23 55 24 56 28 57 25 58 27 59
REMARK SMILES IDX 26 61
REMARK H PARENT 9 2 9 3 8 5 1 9 1 10 1 11 3 13 3 14 3 15 4 17 4 18 4 19 6 21
REMARK H PARENT 6 22 6 23 7 25 7 26 7 27 11 32 33 34 13 38 31 40 14 41 16 43
REMARK H PARENT 16 44 17 47 21 53 28 60 25 62 27 63 26 64
REMARK Flexibility Score: inf
ROOT
ATOM      1  C   UNL     1     -47.477  30.328  24.118  1.00  0.00     0.036 C 
ATOM      2  H   UNL     1     -48.058  30.504  23.206  1.00  0.00     0.049 H 
ATOM      3  H   UNL     1     -46.448  30.109  23.817  1.00  0.00     0.049 H 
ENDROOT
BRANCH   1   4
ATOM      4  N   UNL     1     -48.064  29.251  24.897  1.00  0.00    -0.306 NA
ATOM      5  H   UNL     1     -47.837  29.359  25.880  1.00  0.00     0.123 HD
BRANCH   4   6
ATOM      6  C   UNL     1     -47.862  27.861  24.440  1.00  0.00     0.018 C 
BRANCH   6   7
ATOM      7  C   UNL     1     -48.240  26.787  25.569  1.00  0.00    -0.021 C 
BRANCH   7   8
ATOM      8  C   UNL     1     -49.570  26.061  25.259  1.00  0.00    -0.058 C 
ATOM      9  H   UNL     1     -49.884  26.242  24.224  1.00  0.00     0.024 H 
ATOM     10  H   UNL     1     -50.384  26.416  25.898  1.00  0.00     0.024 H 
ATOM     11  H   UNL     1     -49.482  24.977  25.379  1.00  0.00     0.024 H 
ENDBRANCH   7   8
BRANCH   7  12
ATOM     12  C   UNL     1     -48.410  27.449  26.960  1.00  0.00    -0.058 C 
ATOM     13  H   UNL     1     -48.029  26.815  27.766  1.00  0.00     0.024 H 
ATOM     14  H   UNL     1     -49.468  27.638  27.178  1.00  0.00     0.024 H 
ATOM     15  H   UNL     1     -47.903  28.418  27.015  1.00  0.00     0.024 H 
ENDBRANCH   7  12
BRANCH   7  16
ATOM     16  C   UNL     1     -47.158  25.689  25.731  1.00  0.00    -0.058 C 
ATOM     17  H   UNL     1     -47.229  24.949  24.925  1.00  0.00     0.024 H 
ATOM     18  H   UNL     1     -47.273  25.138  26.670  1.00  0.00     0.024 H 
ATOM     19  H   UNL     1     -46.144  26.097  25.694  1.00  0.00     0.024 H 
ENDBRANCH   7  16
ENDBRANCH   6   7
BRANCH   6  20
ATOM     20  C   UNL     1     -46.438  27.635  23.873  1.00  0.00    -0.047 C 
ATOM     21  H   UNL     1     -45.970  28.584  23.583  1.00  0.00     0.025 H 
ATOM     22  H   UNL     1     -46.457  27.020  22.968  1.00  0.00     0.025 H 
ATOM     23  H   UNL     1     -45.774  27.146  24.593  1.00  0.00     0.025 H 
ENDBRANCH   6  20
BRANCH   6  24
ATOM     24  C   UNL     1     -48.821  27.750  23.224  1.00  0.00    -0.047 C 
ATOM     25  H   UNL     1     -49.640  28.473  23.281  1.00  0.00     0.025 H 
ATOM     26  H   UNL     1     -49.281  26.754  23.176  1.00  0.00     0.025 H 
ATOM     27  H   UNL     1     -48.305  27.901  22.269  1.00  0.00     0.025 H 
ENDBRANCH   6  24
ENDBRANCH   4   6
ENDBRANCH   1   4
BRANCH   1  28
ATOM     28  C   UNL     1     -47.497  31.576  24.934  1.00  0.00     0.030 A 
ATOM     29  C   UNL     1     -48.536  32.428  25.258  1.00  0.00    -0.032 A 
ATOM     30  N   UNL     1     -46.363  32.079  25.526  1.00  0.00    -0.357 N 
ATOM     31  C   UNL     1     -48.013  33.475  26.065  1.00  0.00    -0.000 A 
ATOM     32  H   UNL     1     -49.565  32.303  24.948  1.00  0.00     0.065 H 
ATOM     33  C   UNL     1     -46.650  33.234  26.218  1.00  0.00     0.046 A 
ATOM     34  H   UNL     1     -45.443  31.664  25.467  1.00  0.00     0.166 HD
ATOM     35  C   UNL     1     -48.575  34.605  26.686  1.00  0.00    -0.052 A 
ATOM     36  C   UNL     1     -45.812  34.072  26.964  1.00  0.00    -0.033 A 
ATOM     37  C   UNL     1     -47.753  35.457  27.435  1.00  0.00    -0.057 A 
ATOM     38  H   UNL     1     -49.636  34.816  26.586  1.00  0.00     0.063 H 
ATOM     39  C   UNL     1     -46.382  35.205  27.571  1.00  0.00    -0.027 A 
ATOM     40  H   UNL     1     -44.754  33.853  27.075  1.00  0.00     0.065 H 
ATOM     41  H   UNL     1     -48.199  36.325  27.916  1.00  0.00     0.063 H 
BRANCH  39  42
ATOM     42  C   UNL     1     -45.522  36.114  28.410  1.00  0.00     0.043 C 
ATOM     43  H   UNL     1     -44.493  35.740  28.464  1.00  0.00     0.054 H 
ATOM     44  H   UNL     1     -45.895  36.163  29.439  1.00  0.00     0.054 H 
BRANCH  42  45
ATOM     45  N   UNL     1     -45.491  37.441  27.854  1.00  0.00    -0.347 N 
ATOM     46  C   UNL     1     -44.967  38.505  28.541  1.00  0.00     0.270 C 
ATOM     47  H   UNL     1     -45.707  37.587  26.872  1.00  0.00     0.164 HD
ATOM     48  O   UNL     1     -44.571  38.451  29.698  1.00  0.00    -0.268 OA
BRANCH  46  49
ATOM     49  C   UNL     1     -44.918  39.762  27.706  1.00  0.00     0.136 A 
ATOM     50  C   UNL     1     -46.078  40.180  27.192  1.00  0.00     0.035 A 
ATOM     51  N   UNL     1     -43.708  40.394  27.529  1.00  0.00    -0.225 NA
ATOM     52  C   UNL     1     -46.076  41.400  26.374  1.00  0.00     0.258 A 
ATOM     53  H   UNL     1     -47.023  39.676  27.339  1.00  0.00     0.071 H 
ATOM     54  C   UNL     1     -43.711  41.471  26.806  1.00  0.00     0.140 A 
ATOM     55  O   UNL     1     -47.138  41.791  25.894  1.00  0.00    -0.269 OA
ATOM     56  N   UNL     1     -44.844  42.016  26.211  1.00  0.00    -0.268 N 
ATOM     57  C   UNL     1     -42.422  42.187  26.587  1.00  0.00    -0.019 A 
ATOM     58  C   UNL     1     -44.763  43.177  25.449  1.00  0.00     0.014 A 
ATOM     59  C   UNL     1     -42.395  43.302  25.845  1.00  0.00    -0.057 A 
ATOM     60  H   UNL     1     -41.535  41.770  27.047  1.00  0.00     0.066 H 
ATOM     61  C   UNL     1     -43.602  43.816  25.256  1.00  0.00    -0.045 A 
ATOM     62  H   UNL     1     -45.688  43.547  25.013  1.00  0.00     0.082 H 
ATOM     63  H   UNL     1     -41.466  43.837  25.675  1.00  0.00     0.062 H 
ATOM     64  H   UNL     1     -43.550  44.720  24.660  1.00  0.00     0.064 H 
ENDBRANCH  46  49
ENDBRANCH  42  45
ENDBRANCH  39  42
ENDBRANCH   1  28
TORSDOF 12
ENDMDL
MODEL 4
REMARK VINA RESULT:      -8.9      2.494      4.344
REMARK SMILES CC(C)(C)C(C)(C)NCc1cc2ccc(CNC(=O)c3cc(=O)n4ccccc4n3)cc2[nH]1
REMARK SMILES IDX 9 1 8 4 5 6 2 7 1 8 3 12 4 16 6 20 7 24 10 28 11 29 33 30
REMARK SMILES IDX 12 31 32 33 13 35 31 36 14 37 15 39 16 42 17 45 18 46 19 48
REMARK SMILES IDX 20 49 21 50 30 51 22 52 29 54 23 55 24 56 28 57 25 58 27 59
REMARK SMILES IDX 26 61
REMARK H PARENT 9 2 9 3 8 5 1 9 1 10 1 11 3 13 3 14 3 15 4 17 4 18 4 19 6 21
REMARK H PARENT 6 22 6 23 7 25 7 26 7 27 11 32 33 34 13 38 31 40 14 41 16 43
REMARK H PARENT 16 44 17 47 21 53 28 60 25 62 27 63 26 64
REMARK Flexibility Score: inf
ROOT
ATOM      1  C   UNL     1     -46.920  32.051  26.545  1.00  0.00     0.036 C 
ATOM      2  H   UNL     1     -46.115  31.537  27.084  1.00  0.00     0.049 H 
ATOM      3  H   UNL     1     -47.869  31.719  26.977  1.00  0.00     0.049 H 
ENDROOT
BRANCH   1   4
ATOM      4  N   UNL     1     -46.836  31.776  25.121  1.00  0.00    -0.306 NA
ATOM      5  H   UNL     1     -46.673  32.634  24.603  1.00  0.00     0.123 HD
BRANCH   4   6
ATOM      6  C   UNL     1     -47.896  30.957  24.498  1.00  0.00     0.018 C 
BRANCH   6   7
ATOM      7  C   UNL     1     -47.346  30.074  23.278  1.00  0.00    -0.021 C 
BRANCH   7   8
ATOM      8  C   UNL     1     -45.955  30.548  22.798  1.00  0.00    -0.058 C 
ATOM      9  H   UNL     1     -45.872  30.480  21.706  1.00  0.00     0.024 H 
ATOM     10  H   UNL     1     -45.152  29.930  23.209  1.00  0.00     0.024 H 
ATOM     11  H   UNL     1     -45.763  31.591  23.066  1.00  0.00     0.024 H 
ENDBRANCH   7   8
BRANCH   7  12
ATOM     12  C   UNL     1     -48.287  30.140  22.048  1.00  0.00    -0.058 C 
ATOM     13  H   UNL     1     -49.320  30.361  22.333  1.00  0.00     0.024 H 
ATOM     14  H   UNL     1     -48.302  29.183  21.514  1.00  0.00     0.024 H 
ATOM     15  H   UNL     1     -47.960  30.895  21.326  1.00  0.00     0.024 H 
ENDBRANCH   7  12
BRANCH   7  16
ATOM     16  C   UNL     1     -47.205  28.575  23.646  1.00  0.00    -0.058 C 
ATOM     17  H   UNL     1     -46.220  28.371  24.084  1.00  0.00     0.024 H 
ATOM     18  H   UNL     1     -47.293  27.929  22.767  1.00  0.00     0.024 H 
ATOM     19  H   UNL     1     -47.948  28.256  24.382  1.00  0.00     0.024 H 
ENDBRANCH   7  16
ENDBRANCH   6   7
BRANCH   6  20
ATOM     20  C   UNL     1     -49.128  31.807  24.094  1.00  0.00    -0.047 C 
ATOM     21  H   UNL     1     -49.089  32.804  24.551  1.00  0.00     0.025 H 
ATOM     22  H   UNL     1     -50.061  31.353  24.441  1.00  0.00     0.025 H 
ATOM     23  H   UNL     1     -49.206  31.942  23.011  1.00  0.00     0.025 H 
ENDBRANCH   6  20
BRANCH   6  24
ATOM     24  C   UNL     1     -48.373  30.055  25.667  1.00  0.00    -0.047 C 
ATOM     25  H   UNL     1     -48.019  30.418  26.636  1.00  0.00     0.025 H 
ATOM     26  H   UNL     1     -47.992  29.032  25.555  1.00  0.00     0.025 H 
ATOM     27  H   UNL     1     -49.465  29.977  25.717  1.00  0.00     0.025 H 
ENDBRANCH   6  24
ENDBRANCH   4   6
ENDBRANCH   1   4
BRANCH   1  28
ATOM     28  C   UNL     1     -46.766  33.517  26.761  1.00  0.00     0.030 A 
ATOM     29  C   UNL     1     -47.421  34.590  26.186  1.00  0.00    -0.032 A 
ATOM     30  N   UNL     1     -45.857  34.032  27.654  1.00  0.00    -0.357 N 
ATOM     31  C   UNL     1     -46.892  35.784  26.747  1.00  0.00    -0.000 A 
ATOM     32  H   UNL     1     -48.205  34.517  25.444  1.00  0.00     0.065 H 
ATOM     33  C   UNL     1     -45.913  35.408  27.664  1.00  0.00     0.046 A 
ATOM     34  H   UNL     1     -45.232  33.484  28.230  1.00  0.00     0.166 HD
ATOM     35  C   UNL     1     -47.158  37.153  26.564  1.00  0.00    -0.052 A 
ATOM     36  C   UNL     1     -45.179  36.337  28.411  1.00  0.00    -0.033 A 
ATOM     37  C   UNL     1     -46.433  38.098  27.301  1.00  0.00    -0.057 A 
ATOM     38  H   UNL     1     -47.918  37.475  25.858  1.00  0.00     0.063 H 
ATOM     39  C   UNL     1     -45.445  37.703  28.212  1.00  0.00    -0.027 A 
ATOM     40  H   UNL     1     -44.428  36.014  29.127  1.00  0.00     0.065 H 
ATOM     41  H   UNL     1     -46.651  39.154  27.156  1.00  0.00     0.063 H 
BRANCH  39  42
ATOM     42  C   UNL     1     -44.701  38.734  29.020  1.00  0.00     0.043 C 
ATOM     43  H   UNL     1     -43.713  38.361  29.316  1.00  0.00     0.054 H 
ATOM     44  H   UNL     1     -45.240  38.968  29.945  1.00  0.00     0.054 H 
BRANCH  42  45
ATOM     45  N   UNL     1     -44.517  39.941  28.259  1.00  0.00    -0.347 N 
ATOM     46  C   UNL     1     -43.409  40.734  28.409  1.00  0.00     0.270 C 
ATOM     47  H   UNL     1     -45.129  40.147  27.474  1.00  0.00     0.164 HD
ATOM     48  O   UNL     1     -42.536  40.547  29.248  1.00  0.00    -0.268 OA
BRANCH  46  49
ATOM     49  C   UNL     1     -43.372  41.867  27.412  1.00  0.00     0.136 A 
ATOM     50  C   UNL     1     -42.218  42.056  26.768  1.00  0.00     0.035 A 
ATOM     51  N   UNL     1     -44.507  42.622  27.226  1.00  0.00    -0.225 NA
ATOM     52  C   UNL     1     -42.139  43.147  25.788  1.00  0.00     0.258 A 
ATOM     53  H   UNL     1     -41.332  41.454  26.922  1.00  0.00     0.071 H 
ATOM     54  C   UNL     1     -44.433  43.585  26.359  1.00  0.00     0.140 A 
ATOM     55  O   UNL     1     -41.079  43.330  25.192  1.00  0.00    -0.269 OA
ATOM     56  N   UNL     1     -43.296  43.893  25.620  1.00  0.00    -0.268 N 
ATOM     57  C   UNL     1     -45.640  44.429  26.126  1.00  0.00    -0.019 A 
ATOM     58  C   UNL     1     -43.298  44.943  24.709  1.00  0.00     0.014 A 
ATOM     59  C   UNL     1     -45.593  45.430  25.237  1.00  0.00    -0.057 A 
ATOM     60  H   UNL     1     -46.530  44.197  26.697  1.00  0.00     0.066 H 
ATOM     61  C   UNL     1     -44.385  45.698  24.503  1.00  0.00    -0.045 A 
ATOM     62  H   UNL     1     -42.375  45.128  24.166  1.00  0.00     0.082 H 
ATOM     63  H   UNL     1     -46.461  46.055  25.054  1.00  0.00     0.062 H 
ATOM     64  H   UNL     1     -44.376  46.515  23.790  1.00  0.00     0.064 H 
ENDBRANCH  46  49
ENDBRANCH  42  45
ENDBRANCH  39  42
ENDBRANCH   1  28
TORSDOF 12
ENDMDL
MODEL 5
REMARK VINA RESULT:      -8.9      1.945      3.049
REMARK SMILES CC(C)(C)C(C)(C)NCc1cc2ccc(CNC(=O)c3cc(=O)n4ccccc4n3)cc2[nH]1
REMARK SMILES IDX 9 1 8 4 5 6 2 7 1 8 3 12 4 16 6 20 7 24 10 28 11 29 33 30
REMARK SMILES IDX 12 31 32 33 13 35 31 36 14 37 15 39 16 42 17 45 18 46 19 48
REMARK SMILES IDX 20 49 21 50 30 51 22 52 29 54 23 55 24 56 28 57 25 58 27 59
REMARK SMILES IDX 26 61
REMARK H PARENT 9 2 9 3 8 5 1 9 1 10 1 11 3 13 3 14 3 15 4 17 4 18 4 19 6 21
REMARK H PARENT 6 22 6 23 7 25 7 26 7 27 11 32 33 34 13 38 31 40 14 41 16 43
REMARK H PARENT 16 44 17 47 21 53 28 60 25 62 27 63 26 64
REMARK Flexibility Score: inf
ROOT
ATOM      1  C   UNL     1     -47.097  30.905  24.227  1.00  0.00     0.036 C 
ATOM      2  H   UNL     1     -46.669  31.255  23.281  1.00  0.00     0.049 H 
ATOM      3  H   UNL     1     -46.395  30.187  24.662  1.00  0.00     0.049 H 
ENDROOT
BRANCH   1   4
ATOM      4  N   UNL     1     -48.412  30.327  24.008  1.00  0.00    -0.306 NA
ATOM      5  H   UNL     1     -49.124  30.876  24.479  1.00  0.00     0.123 HD
BRANCH   4   6
ATOM      6  C   UNL     1     -48.594  28.880  24.247  1.00  0.00     0.018 C 
BRANCH   6   7
ATOM      7  C   UNL     1     -49.783  28.261  23.366  1.00  0.00    -0.021 C 
BRANCH   7   8
ATOM      8  C   UNL     1     -49.345  27.993  21.907  1.00  0.00    -0.058 C 
ATOM      9  H   UNL     1     -49.349  26.918  21.688  1.00  0.00     0.024 H 
ATOM     10  H   UNL     1     -48.326  28.344  21.719  1.00  0.00     0.024 H 
ATOM     11  H   UNL     1     -50.017  28.466  21.185  1.00  0.00     0.024 H 
ENDBRANCH   7   8
BRANCH   7  12
ATOM     12  C   UNL     1     -51.003  29.213  23.295  1.00  0.00    -0.058 C 
ATOM     13  H   UNL     1     -50.715  30.232  23.020  1.00  0.00     0.024 H 
ATOM     14  H   UNL     1     -51.507  29.277  24.267  1.00  0.00     0.024 H 
ATOM     15  H   UNL     1     -51.753  28.862  22.578  1.00  0.00     0.024 H 
ENDBRANCH   7  12
BRANCH   7  16
ATOM     16  C   UNL     1     -50.303  26.915  23.932  1.00  0.00    -0.058 C 
ATOM     17  H   UNL     1     -49.519  26.401  24.500  1.00  0.00     0.024 H 
ATOM     18  H   UNL     1     -50.611  26.230  23.136  1.00  0.00     0.024 H 
ATOM     19  H   UNL     1     -51.148  27.051  24.613  1.00  0.00     0.024 H 
ENDBRANCH   7  16
ENDBRANCH   6   7
BRANCH   6  20
ATOM     20  C   UNL     1     -48.754  28.554  25.754  1.00  0.00    -0.047 C 
ATOM     21  H   UNL     1     -49.765  28.795  26.107  1.00  0.00     0.025 H 
ATOM     22  H   UNL     1     -48.071  29.148  26.369  1.00  0.00     0.025 H 
ATOM     23  H   UNL     1     -48.569  27.498  25.976  1.00  0.00     0.025 H 
ENDBRANCH   6  20
BRANCH   6  24
ATOM     24  C   UNL     1     -47.224  28.282  23.831  1.00  0.00    -0.047 C 
ATOM     25  H   UNL     1     -47.117  27.241  24.151  1.00  0.00     0.025 H 
ATOM     26  H   UNL     1     -46.396  28.839  24.288  1.00  0.00     0.025 H 
ATOM     27  H   UNL     1     -47.064  28.318  22.747  1.00  0.00     0.025 H 
ENDBRANCH   6  24
ENDBRANCH   4   6
ENDBRANCH   1   4
BRANCH   1  28
ATOM     28  C   UNL     1     -47.234  32.075  25.140  1.00  0.00     0.030 A 
ATOM     29  C   UNL     1     -48.251  33.001  25.278  1.00  0.00    -0.032 A 
ATOM     30  N   UNL     1     -46.260  32.408  26.051  1.00  0.00    -0.357 N 
ATOM     31  C   UNL     1     -47.880  33.916  26.300  1.00  0.00    -0.000 A 
ATOM     32  H   UNL     1     -49.170  33.008  24.706  1.00  0.00     0.065 H 
ATOM     33  C   UNL     1     -46.628  33.524  26.768  1.00  0.00     0.046 A 
ATOM     34  H   UNL     1     -45.393  31.906  26.185  1.00  0.00     0.166 HD
ATOM     35  C   UNL     1     -48.495  35.043  26.875  1.00  0.00    -0.052 A 
ATOM     36  C   UNL     1     -45.954  34.206  27.788  1.00  0.00    -0.033 A 
ATOM     37  C   UNL     1     -47.836  35.740  27.896  1.00  0.00    -0.057 A 
ATOM     38  H   UNL     1     -49.473  35.370  26.532  1.00  0.00     0.063 H 
ATOM     39  C   UNL     1     -46.573  35.337  28.348  1.00  0.00    -0.027 A 
ATOM     40  H   UNL     1     -44.983  33.870  28.140  1.00  0.00     0.065 H 
ATOM     41  H   UNL     1     -48.324  36.606  28.338  1.00  0.00     0.063 H 
BRANCH  39  42
ATOM     42  C   UNL     1     -45.896  36.080  29.471  1.00  0.00     0.043 C 
ATOM     43  H   UNL     1     -45.093  35.476  29.911  1.00  0.00     0.054 H 
ATOM     44  H   UNL     1     -46.605  36.298  30.277  1.00  0.00     0.054 H 
BRANCH  42  45
ATOM     45  N   UNL     1     -45.324  37.311  28.994  1.00  0.00    -0.347 N 
ATOM     46  C   UNL     1     -44.723  38.209  29.839  1.00  0.00     0.270 C 
ATOM     47  H   UNL     1     -45.207  37.467  27.997  1.00  0.00     0.164 HD
ATOM     48  O   UNL     1     -44.699  38.098  31.058  1.00  0.00    -0.268 OA
BRANCH  46  49
ATOM     49  C   UNL     1     -44.080  39.355  29.097  1.00  0.00     0.136 A 
ATOM     50  C   UNL     1     -43.004  39.904  29.667  1.00  0.00     0.035 A 
ATOM     51  N   UNL     1     -44.625  39.759  27.900  1.00  0.00    -0.225 NA
ATOM     52  C   UNL     1     -42.346  41.022  28.979  1.00  0.00     0.258 A 
ATOM     53  H   UNL     1     -42.584  39.577  30.609  1.00  0.00     0.071 H 
ATOM     54  C   UNL     1     -44.040  40.747  27.294  1.00  0.00     0.140 A 
ATOM     55  O   UNL     1     -41.357  41.535  29.498  1.00  0.00    -0.269 OA
ATOM     56  N   UNL     1     -42.916  41.409  27.775  1.00  0.00    -0.268 N 
ATOM     57  C   UNL     1     -44.598  41.217  25.994  1.00  0.00    -0.019 A 
ATOM     58  C   UNL     1     -42.348  42.461  27.064  1.00  0.00     0.014 A 
ATOM     59  C   UNL     1     -44.016  42.234  25.347  1.00  0.00    -0.057 A 
ATOM     60  H   UNL     1     -45.474  40.707  25.612  1.00  0.00     0.066 H 
ATOM     61  C   UNL     1     -42.854  42.879  25.896  1.00  0.00    -0.045 A 
ATOM     62  H   UNL     1     -41.471  42.934  27.498  1.00  0.00     0.082 H 
ATOM     63  H   UNL     1     -44.407  42.591  24.399  1.00  0.00     0.062 H 
ATOM     64  H   UNL     1     -42.403  43.700  25.350  1.00  0.00     0.064 H 
ENDBRANCH  46  49
ENDBRANCH  42  45
ENDBRANCH  39  42
ENDBRANCH   1  28
TORSDOF 12
ENDMDL
MODEL 6
REMARK VINA RESULT:      -8.7      1.862      2.844
REMARK SMILES CC(C)(C)C(C)(C)NCc1cc2ccc(CNC(=O)c3cc(=O)n4ccccc4n3)cc2[nH]1
REMARK SMILES IDX 9 1 8 4 5 6 2 7 1 8 3 12 4 16 6 20 7 24 10 28 11 29 33 30
REMARK SMILES IDX 12 31 32 33 13 35 31 36 14 37 15 39 16 42 17 45 18 46 19 48
REMARK SMILES IDX 20 49 21 50 30 51 22 52 29 54 23 55 24 56 28 57 25 58 27 59
REMARK SMILES IDX 26 61
REMARK H PARENT 9 2 9 3 8 5 1 9 1 10 1 11 3 13 3 14 3 15 4 17 4 18 4 19 6 21
REMARK H PARENT 6 22 6 23 7 25 7 26 7 27 11 32 33 34 13 38 31 40 14 41 16 43
REMARK H PARENT 16 44 17 47 21 53 28 60 25 62 27 63 26 64
REMARK Flexibility Score: inf
ROOT
ATOM      1  C   UNL     1     -46.425  31.634  24.337  1.00  0.00     0.036 C 
ATOM      2  H   UNL     1     -45.521  31.900  23.777  1.00  0.00     0.049 H 
ATOM      3  H   UNL     1     -46.188  30.763  24.955  1.00  0.00     0.049 H 
ENDROOT
BRANCH   1   4
ATOM      4  N   UNL     1     -47.531  31.381  23.429  1.00  0.00    -0.306 NA
ATOM      5  H   UNL     1     -48.418  31.488  23.911  1.00  0.00     0.123 HD
BRANCH   4   6
ATOM      6  C   UNL     1     -47.501  30.153  22.609  1.00  0.00     0.018 C 
BRANCH   6   7
ATOM      7  C   UNL     1     -48.176  28.904  23.356  1.00  0.00    -0.021 C 
BRANCH   7   8
ATOM      8  C   UNL     1     -49.052  28.060  22.401  1.00  0.00    -0.058 C 
ATOM      9  H   UNL     1     -48.505  27.179  22.043  1.00  0.00     0.024 H 
ATOM     10  H   UNL     1     -49.344  28.627  21.511  1.00  0.00     0.024 H 
ATOM     11  H   UNL     1     -49.957  27.693  22.893  1.00  0.00     0.024 H 
ENDBRANCH   7   8
BRANCH   7  12
ATOM     12  C   UNL     1     -49.097  29.357  24.518  1.00  0.00    -0.058 C 
ATOM     13  H   UNL     1     -48.526  29.748  25.365  1.00  0.00     0.024 H 
ATOM     14  H   UNL     1     -49.692  28.518  24.896  1.00  0.00     0.024 H 
ATOM     15  H   UNL     1     -49.809  30.125  24.198  1.00  0.00     0.024 H 
ENDBRANCH   7  12
BRANCH   7  16
ATOM     16  C   UNL     1     -47.129  27.942  23.970  1.00  0.00    -0.058 C 
ATOM     17  H   UNL     1     -46.407  27.614  23.212  1.00  0.00     0.024 H 
ATOM     18  H   UNL     1     -47.593  27.035  24.370  1.00  0.00     0.024 H 
ATOM     19  H   UNL     1     -46.552  28.413  24.772  1.00  0.00     0.024 H 
ENDBRANCH   7  16
ENDBRANCH   6   7
BRANCH   6  20
ATOM     20  C   UNL     1     -46.074  29.826  22.101  1.00  0.00    -0.047 C 
ATOM     21  H   UNL     1     -45.310  30.294  22.734  1.00  0.00     0.025 H 
ATOM     22  H   UNL     1     -45.908  30.213  21.091  1.00  0.00     0.025 H 
ATOM     23  H   UNL     1     -45.873  28.750  22.081  1.00  0.00     0.025 H 
ENDBRANCH   6  20
BRANCH   6  24
ATOM     24  C   UNL     1     -48.315  30.553  21.349  1.00  0.00    -0.047 C 
ATOM     25  H   UNL     1     -48.057  29.939  20.482  1.00  0.00     0.025 H 
ATOM     26  H   UNL     1     -48.116  31.595  21.067  1.00  0.00     0.025 H 
ATOM     27  H   UNL     1     -49.396  30.474  21.508  1.00  0.00     0.025 H 
ENDBRANCH   6  24
ENDBRANCH   4   6
ENDBRANCH   1   4
BRANCH   1  28
ATOM     28  C   UNL     1     -46.782  32.782  25.219  1.00  0.00     0.030 A 
ATOM     29  C   UNL     1     -48.014  33.280  25.601  1.00  0.00    -0.032 A 
ATOM     30  N   UNL     1     -45.826  33.563  25.823  1.00  0.00    -0.357 N 
ATOM     31  C   UNL     1     -47.794  34.392  26.458  1.00  0.00    -0.000 A 
ATOM     32  H   UNL     1     -48.971  32.875  25.299  1.00  0.00     0.065 H 
ATOM     33  C   UNL     1     -46.415  34.550  26.580  1.00  0.00     0.046 A 
ATOM     34  H   UNL     1     -44.828  33.436  25.730  1.00  0.00     0.166 HD
ATOM     35  C   UNL     1     -48.641  35.280  27.146  1.00  0.00    -0.052 A 
ATOM     36  C   UNL     1     -45.836  35.558  27.360  1.00  0.00    -0.033 A 
ATOM     37  C   UNL     1     -48.080  36.296  27.930  1.00  0.00    -0.057 A 
ATOM     38  H   UNL     1     -49.720  35.178  27.072  1.00  0.00     0.063 H 
ATOM     39  C   UNL     1     -46.691  36.447  28.034  1.00  0.00    -0.027 A 
ATOM     40  H   UNL     1     -44.757  35.651  27.445  1.00  0.00     0.065 H 
ATOM     41  H   UNL     1     -48.745  36.973  28.463  1.00  0.00     0.063 H 
BRANCH  39  42
ATOM     42  C   UNL     1     -46.108  37.525  28.910  1.00  0.00     0.043 C 
ATOM     43  H   UNL     1     -45.344  37.114  29.581  1.00  0.00     0.054 H 
ATOM     44  H   UNL     1     -46.881  37.970  29.547  1.00  0.00     0.054 H 
BRANCH  42  45
ATOM     45  N   UNL     1     -45.501  38.556  28.112  1.00  0.00    -0.347 N 
ATOM     46  C   UNL     1     -46.169  39.705  27.776  1.00  0.00     0.270 C 
ATOM     47  H   UNL     1     -44.504  38.530  27.917  1.00  0.00     0.164 HD
ATOM     48  O   UNL     1     -47.347  39.918  28.035  1.00  0.00    -0.268 OA
BRANCH  46  49
ATOM     49  C   UNL     1     -45.287  40.695  27.054  1.00  0.00     0.136 A 
ATOM     50  C   UNL     1     -45.900  41.544  26.225  1.00  0.00     0.035 A 
ATOM     51  N   UNL     1     -43.932  40.668  27.289  1.00  0.00    -0.225 NA
ATOM     52  C   UNL     1     -45.079  42.525  25.504  1.00  0.00     0.258 A 
ATOM     53  H   UNL     1     -46.967  41.557  26.050  1.00  0.00     0.071 H 
ATOM     54  C   UNL     1     -43.210  41.537  26.649  1.00  0.00     0.140 A 
ATOM     55  O   UNL     1     -45.634  43.309  24.737  1.00  0.00    -0.269 OA
ATOM     56  N   UNL     1     -43.716  42.476  25.757  1.00  0.00    -0.268 N 
ATOM     57  C   UNL     1     -41.736  41.542  26.872  1.00  0.00    -0.019 A 
ATOM     58  C   UNL     1     -42.874  43.374  25.111  1.00  0.00     0.014 A 
ATOM     59  C   UNL     1     -40.966  42.427  26.227  1.00  0.00    -0.057 A 
ATOM     60  H   UNL     1     -41.332  40.814  27.565  1.00  0.00     0.066 H 
ATOM     61  C   UNL     1     -41.550  43.374  25.316  1.00  0.00    -0.045 A 
ATOM     62  H   UNL     1     -43.337  44.081  24.427  1.00  0.00     0.082 H 
ATOM     63  H   UNL     1     -39.891  42.447  26.376  1.00  0.00     0.062 H 
ATOM     64  H   UNL     1     -40.903  44.079  24.806  1.00  0.00     0.064 H 
ENDBRANCH  46  49
ENDBRANCH  42  45
ENDBRANCH  39  42
ENDBRANCH   1  28
TORSDOF 12
ENDMDL
MODEL 7
REMARK VINA RESULT:      -8.6      1.949      3.312
REMARK SMILES CC(C)(C)C(C)(C)NCc1cc2ccc(CNC(=O)c3cc(=O)n4ccccc4n3)cc2[nH]1
REMARK SMILES IDX 9 1 8 4 5 6 2 7 1 8 3 12 4 16 6 20 7 24 10 28 11 29 33 30
REMARK SMILES IDX 12 31 32 33 13 35 31 36 14 37 15 39 16 42 17 45 18 46 19 48
REMARK SMILES IDX 20 49 21 50 30 51 22 52 29 54 23 55 24 56 28 57 25 58 27 59
REMARK SMILES IDX 26 61
REMARK H PARENT 9 2 9 3 8 5 1 9 1 10 1 11 3 13 3 14 3 15 4 17 4 18 4 19 6 21
REMARK H PARENT 6 22 6 23 7 25 7 26 7 27 11 32 33 34 13 38 31 40 14 41 16 43
REMARK H PARENT 16 44 17 47 21 53 28 60 25 62 27 63 26 64
REMARK Flexibility Score: inf
ROOT
ATOM      1  C   UNL     1     -48.728  29.273  24.054  1.00  0.00     0.036 C 
ATOM      2  H   UNL     1     -48.337  29.115  23.042  1.00  0.00     0.049 H 
ATOM      3  H   UNL     1     -48.320  28.483  24.692  1.00  0.00     0.049 H 
ENDROOT
BRANCH   1   4
ATOM      4  N   UNL     1     -50.180  29.278  24.044  1.00  0.00    -0.306 NA
ATOM      5  H   UNL     1     -50.543  28.609  24.717  1.00  0.00     0.123 HD
BRANCH   4   6
ATOM      6  C   UNL     1     -50.876  29.174  22.744  1.00  0.00     0.018 C 
BRANCH   6   7
ATOM      7  C   UNL     1     -51.311  30.607  22.170  1.00  0.00    -0.021 C 
BRANCH   7   8
ATOM      8  C   UNL     1     -52.401  30.489  21.079  1.00  0.00    -0.058 C 
ATOM      9  H   UNL     1     -51.980  30.105  20.142  1.00  0.00     0.024 H 
ATOM     10  H   UNL     1     -52.846  31.462  20.844  1.00  0.00     0.024 H 
ATOM     11  H   UNL     1     -53.201  29.803  21.373  1.00  0.00     0.024 H 
ENDBRANCH   7   8
BRANCH   7  12
ATOM     12  C   UNL     1     -50.117  31.356  21.525  1.00  0.00    -0.058 C 
ATOM     13  H   UNL     1     -50.166  32.435  21.701  1.00  0.00     0.024 H 
ATOM     14  H   UNL     1     -50.105  31.212  20.438  1.00  0.00     0.024 H 
ATOM     15  H   UNL     1     -49.156  30.989  21.899  1.00  0.00     0.024 H 
ENDBRANCH   7  12
BRANCH   7  16
ATOM     16  C   UNL     1     -51.878  31.541  23.270  1.00  0.00    -0.058 C 
ATOM     17  H   UNL     1     -52.974  31.546  23.251  1.00  0.00     0.024 H 
ATOM     18  H   UNL     1     -51.560  32.578  23.127  1.00  0.00     0.024 H 
ATOM     19  H   UNL     1     -51.581  31.226  24.275  1.00  0.00     0.024 H 
ENDBRANCH   7  16
ENDBRANCH   6   7
BRANCH   6  20
ATOM     20  C   UNL     1     -52.065  28.182  22.797  1.00  0.00    -0.047 C 
ATOM     21  H   UNL     1     -51.717  27.142  22.755  1.00  0.00     0.025 H 
ATOM     22  H   UNL     1     -52.735  28.310  21.941  1.00  0.00     0.025 H 
ATOM     23  H   UNL     1     -52.663  28.293  23.707  1.00  0.00     0.025 H 
ENDBRANCH   6  20
BRANCH   6  24
ATOM     24  C   UNL     1     -49.813  28.508  21.830  1.00  0.00    -0.047 C 
ATOM     25  H   UNL     1     -49.373  29.221  21.127  1.00  0.00     0.025 H 
ATOM     26  H   UNL     1     -50.258  27.706  21.229  1.00  0.00     0.025 H 
ATOM     27  H   UNL     1     -48.996  28.053  22.402  1.00  0.00     0.025 H 
ENDBRANCH   6  24
ENDBRANCH   4   6
ENDBRANCH   1   4
BRANCH   1  28
ATOM     28  C   UNL     1     -48.247  30.597  24.540  1.00  0.00     0.030 A 
ATOM     29  C   UNL     1     -47.021  31.221  24.402  1.00  0.00    -0.032 A 
ATOM     30  N   UNL     1     -49.053  31.447  25.259  1.00  0.00    -0.357 N 
ATOM     31  C   UNL     1     -47.090  32.480  25.057  1.00  0.00    -0.000 A 
ATOM     32  H   UNL     1     -46.168  30.811  23.877  1.00  0.00     0.065 H 
ATOM     33  C   UNL     1     -48.373  32.598  25.586  1.00  0.00     0.046 A 
ATOM     34  H   UNL     1     -50.013  31.261  25.513  1.00  0.00     0.166 HD
ATOM     35  C   UNL     1     -46.179  33.536  25.246  1.00  0.00    -0.052 A 
ATOM     36  C   UNL     1     -48.796  33.725  26.301  1.00  0.00    -0.033 A 
ATOM     37  C   UNL     1     -46.583  34.672  25.960  1.00  0.00    -0.057 A 
ATOM     38  H   UNL     1     -45.173  33.472  24.842  1.00  0.00     0.063 H 
ATOM     39  C   UNL     1     -47.875  34.770  26.494  1.00  0.00    -0.027 A 
ATOM     40  H   UNL     1     -49.806  33.794  26.693  1.00  0.00     0.065 H 
ATOM     41  H   UNL     1     -45.873  35.485  26.095  1.00  0.00     0.063 H 
BRANCH  39  42
ATOM     42  C   UNL     1     -48.300  36.014  27.229  1.00  0.00     0.043 C 
ATOM     43  H   UNL     1     -48.855  35.760  28.140  1.00  0.00     0.054 H 
ATOM     44  H   UNL     1     -48.969  36.623  26.611  1.00  0.00     0.054 H 
BRANCH  42  45
ATOM     45  N   UNL     1     -47.154  36.800  27.604  1.00  0.00    -0.347 N 
ATOM     46  C   UNL     1     -47.252  38.137  27.891  1.00  0.00     0.270 C 
ATOM     47  H   UNL     1     -46.273  36.345  27.825  1.00  0.00     0.164 HD
ATOM     48  O   UNL     1     -48.277  38.795  27.768  1.00  0.00    -0.268 OA
BRANCH  46  49
ATOM     49  C   UNL     1     -45.950  38.716  28.390  1.00  0.00     0.136 A 
ATOM     50  C   UNL     1     -45.464  38.200  29.521  1.00  0.00     0.035 A 
ATOM     51  N   UNL     1     -45.350  39.719  27.663  1.00  0.00    -0.225 NA
ATOM     52  C   UNL     1     -44.198  38.733  30.041  1.00  0.00     0.258 A 
ATOM     53  H   UNL     1     -45.943  37.410  30.082  1.00  0.00     0.071 H 
ATOM     54  C   UNL     1     -44.231  40.188  28.126  1.00  0.00     0.140 A 
ATOM     55  O   UNL     1     -43.744  38.265  31.083  1.00  0.00    -0.269 OA
ATOM     56  N   UNL     1     -43.615  39.743  29.290  1.00  0.00    -0.268 N 
ATOM     57  C   UNL     1     -43.548  41.276  27.372  1.00  0.00    -0.019 A 
ATOM     58  C   UNL     1     -42.414  40.299  29.719  1.00  0.00     0.014 A 
ATOM     59  C   UNL     1     -42.392  41.779  27.825  1.00  0.00    -0.057 A 
ATOM     60  H   UNL     1     -44.021  41.629  26.463  1.00  0.00     0.066 H 
ATOM     61  C   UNL     1     -41.804  41.276  29.037  1.00  0.00    -0.045 A 
ATOM     62  H   UNL     1     -41.988  39.904  30.638  1.00  0.00     0.082 H 
ATOM     63  H   UNL     1     -41.879  42.572  27.289  1.00  0.00     0.062 H 
ATOM     64  H   UNL     1     -40.868  41.702  29.381  1.00  0.00     0.064 H 
ENDBRANCH  46  49
ENDBRANCH  42  45
ENDBRANCH  39  42
ENDBRANCH   1  28
TORSDOF 12
ENDMDL
