MODEL 1
REMARK VINA RESULT:     -10.4      0.000      0.000
REMARK SMILES CNc1ccc2ccc(CNc3cccc(-n4cc(Br)c5c(N)ncnc54)c3)cc2n1
REMARK SMILES IDX 10 1 9 4 3 5 4 6 31 7 5 8 30 10 6 11 29 13 7 14 8 16 2 19
REMARK SMILES IDX 1 21 11 25 12 27 13 28 28 29 14 30 16 32 15 34 17 37 18 38
REMARK SMILES IDX 27 39 19 40 21 42 26 43 20 44 22 45 25 46 24 47 23 49
REMARK H PARENT 10 2 10 3 4 9 5 12 29 15 7 17 8 18 2 20 1 22 1 23 1 24 11 26
REMARK H PARENT 13 31 28 33 14 35 15 36 18 41 25 48 23 50 23 51
REMARK Flexibility Score: inf
ROOT
ATOM      1  C   UNL     1     -46.424  33.651  27.213  1.00  0.00     0.040 C 
ATOM      2  H   UNL     1     -45.327  33.618  27.216  1.00  0.00     0.054 H 
ATOM      3  H   UNL     1     -46.749  33.245  28.180  1.00  0.00     0.054 H 
ENDROOT
BRANCH   1   4
ATOM      4  C   UNL     1     -47.000  32.751  26.142  1.00  0.00    -0.027 A 
ATOM      5  C   UNL     1     -46.559  30.957  21.740  1.00  0.00     0.126 A 
ATOM      6  C   UNL     1     -47.708  30.187  21.888  1.00  0.00    -0.019 A 
ATOM      7  N   UNL     1     -46.117  31.763  22.726  1.00  0.00    -0.231 NA
ATOM      8  C   UNL     1     -48.410  30.230  23.087  1.00  0.00    -0.049 A 
ATOM      9  H   UNL     1     -48.063  29.567  21.071  1.00  0.00     0.066 H 
ATOM     10  C   UNL     1     -46.795  31.813  23.888  1.00  0.00     0.073 A 
ATOM     11  C   UNL     1     -47.956  31.054  24.119  1.00  0.00     0.000 A 
ATOM     12  H   UNL     1     -49.307  29.630  23.204  1.00  0.00     0.063 H 
ATOM     13  C   UNL     1     -46.339  32.641  24.905  1.00  0.00    -0.031 A 
ATOM     14  C   UNL     1     -48.623  31.136  25.352  1.00  0.00    -0.052 A 
ATOM     15  H   UNL     1     -45.438  33.223  24.719  1.00  0.00     0.065 H 
ATOM     16  C   UNL     1     -48.142  31.973  26.358  1.00  0.00    -0.057 A 
ATOM     17  H   UNL     1     -49.521  30.551  25.536  1.00  0.00     0.063 H 
ATOM     18  H   UNL     1     -48.672  32.029  27.307  1.00  0.00     0.063 H 
BRANCH   5  19
ATOM     19  N   UNL     1     -45.889  30.905  20.503  1.00  0.00    -0.373 N 
ATOM     20  H   UNL     1     -44.890  30.839  20.674  1.00  0.00     0.161 HD
BRANCH  19  21
ATOM     21  C   UNL     1     -46.213  32.000  19.604  1.00  0.00     0.005 C 
ATOM     22  H   UNL     1     -45.864  32.961  19.995  1.00  0.00     0.045 H 
ATOM     23  H   UNL     1     -45.799  31.836  18.603  1.00  0.00     0.045 H 
ATOM     24  H   UNL     1     -47.302  32.066  19.503  1.00  0.00     0.045 H 
ENDBRANCH  19  21
ENDBRANCH   5  19
ENDBRANCH   1   4
BRANCH   1  25
ATOM     25  N   UNL     1     -46.896  35.031  27.120  1.00  0.00    -0.381 N 
ATOM     26  H   UNL     1     -47.892  35.075  26.931  1.00  0.00     0.160 HD
BRANCH  25  27
ATOM     27  C   UNL     1     -46.506  35.992  28.060  1.00  0.00     0.036 A 
ATOM     28  C   UNL     1     -46.539  35.789  29.440  1.00  0.00    -0.039 A 
ATOM     29  C   UNL     1     -45.910  37.177  27.588  1.00  0.00    -0.015 A 
ATOM     30  C   UNL     1     -46.064  36.763  30.320  1.00  0.00    -0.058 A 
ATOM     31  H   UNL     1     -46.929  34.872  29.869  1.00  0.00     0.064 H 
ATOM     32  C   UNL     1     -45.422  38.174  28.458  1.00  0.00     0.049 A 
ATOM     33  H   UNL     1     -45.814  37.281  26.512  1.00  0.00     0.067 H 
ATOM     34  C   UNL     1     -45.517  37.952  29.834  1.00  0.00    -0.038 A 
ATOM     35  H   UNL     1     -46.114  36.591  31.392  1.00  0.00     0.062 H 
ATOM     36  H   UNL     1     -45.184  38.676  30.569  1.00  0.00     0.064 H 
BRANCH  32  37
ATOM     37  N   UNL     1     -44.846  39.382  27.931  1.00  0.00    -0.300 N 
ATOM     38  C   UNL     1     -45.248  40.004  26.757  1.00  0.00     0.026 A 
ATOM     39  C   UNL     1     -43.807  40.154  28.468  1.00  0.00     0.151 A 
ATOM     40  C   UNL     1     -44.493  41.131  26.571  1.00  0.00     0.049 A 
ATOM     41  H   UNL     1     -46.056  39.619  26.153  1.00  0.00     0.084 H 
ATOM     42  C   UNL     1     -43.577  41.249  27.633  1.00  0.00     0.076 A 
ATOM     43  N   UNL     1     -43.110  39.893  29.593  1.00  0.00    -0.218 NA
ATOM     44  Br  UNL     1     -44.663  42.318  25.126  1.00  0.00    -0.048 Br
ATOM     45  C   UNL     1     -42.563  42.142  28.015  1.00  0.00     0.137 A 
ATOM     46  C   UNL     1     -42.166  40.806  29.851  1.00  0.00     0.120 A 
ATOM     47  N   UNL     1     -41.859  41.897  29.135  1.00  0.00    -0.219 NA
ATOM     48  H   UNL     1     -41.577  40.645  30.748  1.00  0.00     0.106 H 
BRANCH  45  49
ATOM     49  N   UNL     1     -42.213  43.278  27.302  1.00  0.00    -0.383 N 
ATOM     50  H   UNL     1     -42.862  44.051  27.364  1.00  0.00     0.158 HD
ATOM     51  H   UNL     1     -41.862  43.044  26.382  1.00  0.00     0.158 HD
ENDBRANCH  45  49
ENDBRANCH  32  37
ENDBRANCH  25  27
ENDBRANCH   1  25
TORSDOF 7
ENDMDL
MODEL 2
REMARK VINA RESULT:     -10.1      2.218      3.018
REMARK SMILES CNc1ccc2ccc(CNc3cccc(-n4cc(Br)c5c(N)ncnc54)c3)cc2n1
REMARK SMILES IDX 10 1 9 4 3 5 4 6 31 7 5 8 30 10 6 11 29 13 7 14 8 16 2 19
REMARK SMILES IDX 1 21 11 25 12 27 13 28 28 29 14 30 16 32 15 34 17 37 18 38
REMARK SMILES IDX 27 39 19 40 21 42 26 43 20 44 22 45 25 46 24 47 23 49
REMARK H PARENT 10 2 10 3 4 9 5 12 29 15 7 17 8 18 2 20 1 22 1 23 1 24 11 26
REMARK H PARENT 13 31 28 33 14 35 15 36 18 41 25 48 23 50 23 51
REMARK Flexibility Score: inf
ROOT
ATOM      1  C   UNL     1     -48.246  33.603  26.337  1.00  0.00     0.040 C 
ATOM      2  H   UNL     1     -48.326  33.351  27.402  1.00  0.00     0.054 H 
ATOM      3  H   UNL     1     -49.255  33.882  26.007  1.00  0.00     0.054 H 
ENDROOT
BRANCH   1   4
ATOM      4  C   UNL     1     -47.829  32.404  25.515  1.00  0.00    -0.027 A 
ATOM      5  C   UNL     1     -48.714  27.879  24.278  1.00  0.00     0.126 A 
ATOM      6  C   UNL     1     -47.641  27.861  23.394  1.00  0.00    -0.019 A 
ATOM      7  N   UNL     1     -49.012  28.974  25.005  1.00  0.00    -0.231 NA
ATOM      8  C   UNL     1     -46.866  29.005  23.237  1.00  0.00    -0.049 A 
ATOM      9  H   UNL     1     -47.400  26.960  22.840  1.00  0.00     0.066 H 
ATOM     10  C   UNL     1     -48.264  30.083  24.860  1.00  0.00     0.073 A 
ATOM     11  C   UNL     1     -47.172  30.148  23.976  1.00  0.00     0.000 A 
ATOM     12  H   UNL     1     -46.027  28.993  22.547  1.00  0.00     0.063 H 
ATOM     13  C   UNL     1     -48.573  31.213  25.607  1.00  0.00    -0.031 A 
ATOM     14  C   UNL     1     -46.427  31.332  23.857  1.00  0.00    -0.052 A 
ATOM     15  H   UNL     1     -49.420  31.154  26.287  1.00  0.00     0.065 H 
ATOM     16  C   UNL     1     -46.759  32.453  24.616  1.00  0.00    -0.057 A 
ATOM     17  H   UNL     1     -45.581  31.388  23.174  1.00  0.00     0.063 H 
ATOM     18  H   UNL     1     -46.169  33.362  24.515  1.00  0.00     0.063 H 
BRANCH   5  19
ATOM     19  N   UNL     1     -49.460  26.694  24.428  1.00  0.00    -0.373 N 
ATOM     20  H   UNL     1     -50.356  26.810  23.964  1.00  0.00     0.161 HD
BRANCH  19  21
ATOM     21  C   UNL     1     -49.617  26.260  25.806  1.00  0.00     0.005 C 
ATOM     22  H   UNL     1     -48.787  25.620  26.125  1.00  0.00     0.045 H 
ATOM     23  H   UNL     1     -49.711  27.112  26.489  1.00  0.00     0.045 H 
ATOM     24  H   UNL     1     -50.535  25.669  25.890  1.00  0.00     0.045 H 
ENDBRANCH  19  21
ENDBRANCH   5  19
ENDBRANCH   1   4
BRANCH   1  25
ATOM     25  N   UNL     1     -47.374  34.761  26.149  1.00  0.00    -0.381 N 
ATOM     26  H   UNL     1     -47.113  34.880  25.175  1.00  0.00     0.160 HD
BRANCH  25  27
ATOM     27  C   UNL     1     -47.660  35.987  26.761  1.00  0.00     0.036 A 
ATOM     28  C   UNL     1     -48.843  36.257  27.447  1.00  0.00    -0.039 A 
ATOM     29  C   UNL     1     -46.639  36.956  26.811  1.00  0.00    -0.015 A 
ATOM     30  C   UNL     1     -49.032  37.477  28.099  1.00  0.00    -0.058 A 
ATOM     31  H   UNL     1     -49.646  35.530  27.500  1.00  0.00     0.064 H 
ATOM     32  C   UNL     1     -46.806  38.194  27.465  1.00  0.00     0.049 A 
ATOM     33  H   UNL     1     -45.694  36.696  26.345  1.00  0.00     0.067 H 
ATOM     34  C   UNL     1     -48.024  38.443  28.102  1.00  0.00    -0.038 A 
ATOM     35  H   UNL     1     -49.968  37.672  28.616  1.00  0.00     0.062 H 
ATOM     36  H   UNL     1     -48.240  39.377  28.609  1.00  0.00     0.064 H 
BRANCH  32  37
ATOM     37  N   UNL     1     -45.745  39.165  27.468  1.00  0.00    -0.300 N 
ATOM     38  C   UNL     1     -45.553  40.130  26.489  1.00  0.00     0.026 A 
ATOM     39  C   UNL     1     -44.730  39.338  28.419  1.00  0.00     0.151 A 
ATOM     40  C   UNL     1     -44.461  40.887  26.820  1.00  0.00     0.049 A 
ATOM     41  H   UNL     1     -46.218  40.228  25.645  1.00  0.00     0.084 H 
ATOM     42  C   UNL     1     -43.923  40.409  28.030  1.00  0.00     0.076 A 
ATOM     43  N   UNL     1     -44.528  38.592  29.524  1.00  0.00    -0.218 NA
ATOM     44  Br  UNL     1     -43.799  42.326  25.813  1.00  0.00    -0.048 Br
ATOM     45  C   UNL     1     -42.844  40.733  28.869  1.00  0.00     0.137 A 
ATOM     46  C   UNL     1     -43.469  38.988  30.240  1.00  0.00     0.120 A 
ATOM     47  N   UNL     1     -42.629  40.000  29.976  1.00  0.00    -0.219 NA
ATOM     48  H   UNL     1     -43.263  38.423  31.143  1.00  0.00     0.106 H 
BRANCH  45  49
ATOM     49  N   UNL     1     -41.953  41.768  28.631  1.00  0.00    -0.383 N 
ATOM     50  H   UNL     1     -41.865  42.057  27.666  1.00  0.00     0.158 HD
ATOM     51  H   UNL     1     -41.096  41.645  29.155  1.00  0.00     0.158 HD
ENDBRANCH  45  49
ENDBRANCH  32  37
ENDBRANCH  25  27
ENDBRANCH   1  25
TORSDOF 7
ENDMDL
MODEL 3
REMARK VINA RESULT:     -10.1      1.626      2.221
REMARK SMILES CNc1ccc2ccc(CNc3cccc(-n4cc(Br)c5c(N)ncnc54)c3)cc2n1
REMARK SMILES IDX 10 1 9 4 3 5 4 6 31 7 5 8 30 10 6 11 29 13 7 14 8 16 2 19
REMARK SMILES IDX 1 21 11 25 12 27 13 28 28 29 14 30 16 32 15 34 17 37 18 38
REMARK SMILES IDX 27 39 19 40 21 42 26 43 20 44 22 45 25 46 24 47 23 49
REMARK H PARENT 10 2 10 3 4 9 5 12 29 15 7 17 8 18 2 20 1 22 1 23 1 24 11 26
REMARK H PARENT 13 31 28 33 14 35 15 36 18 41 25 48 23 50 23 51
REMARK Flexibility Score: inf
ROOT
ATOM      1  C   UNL     1     -47.082  34.047  26.906  1.00  0.00     0.040 C 
ATOM      2  H   UNL     1     -46.240  33.804  27.568  1.00  0.00     0.054 H 
ATOM      3  H   UNL     1     -47.962  34.158  27.551  1.00  0.00     0.054 H 
ENDROOT
BRANCH   1   4
ATOM      4  C   UNL     1     -47.376  32.913  25.950  1.00  0.00    -0.027 A 
ATOM      5  C   UNL     1     -46.420  30.846  21.754  1.00  0.00     0.126 A 
ATOM      6  C   UNL     1     -47.310  29.808  22.008  1.00  0.00    -0.019 A 
ATOM      7  N   UNL     1     -46.228  31.845  22.638  1.00  0.00    -0.231 NA
ATOM      8  C   UNL     1     -48.005  29.785  23.213  1.00  0.00    -0.049 A 
ATOM      9  H   UNL     1     -47.472  29.030  21.271  1.00  0.00     0.066 H 
ATOM     10  C   UNL     1     -46.901  31.830  23.804  1.00  0.00     0.073 A 
ATOM     11  C   UNL     1     -47.806  30.808  24.141  1.00  0.00     0.000 A 
ATOM     12  H   UNL     1     -48.701  28.975  23.413  1.00  0.00     0.063 H 
ATOM     13  C   UNL     1     -46.701  32.857  24.716  1.00  0.00    -0.031 A 
ATOM     14  C   UNL     1     -48.478  30.834  25.373  1.00  0.00    -0.052 A 
ATOM     15  H   UNL     1     -45.997  33.643  24.449  1.00  0.00     0.065 H 
ATOM     16  C   UNL     1     -48.257  31.876  26.273  1.00  0.00    -0.057 A 
ATOM     17  H   UNL     1     -49.180  30.047  25.639  1.00  0.00     0.063 H 
ATOM     18  H   UNL     1     -48.789  31.885  27.223  1.00  0.00     0.063 H 
BRANCH   5  19
ATOM     19  N   UNL     1     -45.753  30.849  20.514  1.00  0.00    -0.373 N 
ATOM     20  H   UNL     1     -44.751  30.844  20.681  1.00  0.00     0.161 HD
BRANCH  19  21
ATOM     21  C   UNL     1     -46.149  31.930  19.627  1.00  0.00     0.005 C 
ATOM     22  H   UNL     1     -46.859  32.609  20.111  1.00  0.00     0.045 H 
ATOM     23  H   UNL     1     -45.282  32.496  19.269  1.00  0.00     0.045 H 
ATOM     24  H   UNL     1     -46.649  31.505  18.751  1.00  0.00     0.045 H 
ENDBRANCH  19  21
ENDBRANCH   5  19
ENDBRANCH   1   4
BRANCH   1  25
ATOM     25  N   UNL     1     -46.852  35.323  26.232  1.00  0.00    -0.381 N 
ATOM     26  H   UNL     1     -47.191  35.309  25.275  1.00  0.00     0.160 HD
BRANCH  25  27
ATOM     27  C   UNL     1     -47.143  36.537  26.865  1.00  0.00     0.036 A 
ATOM     28  C   UNL     1     -48.362  36.821  27.481  1.00  0.00    -0.039 A 
ATOM     29  C   UNL     1     -46.101  37.472  27.016  1.00  0.00    -0.015 A 
ATOM     30  C   UNL     1     -48.559  38.024  28.160  1.00  0.00    -0.058 A 
ATOM     31  H   UNL     1     -49.187  36.117  27.455  1.00  0.00     0.064 H 
ATOM     32  C   UNL     1     -46.277  38.693  27.700  1.00  0.00     0.049 A 
ATOM     33  H   UNL     1     -45.134  37.198  26.605  1.00  0.00     0.067 H 
ATOM     34  C   UNL     1     -47.527  38.958  28.262  1.00  0.00    -0.038 A 
ATOM     35  H   UNL     1     -49.522  38.231  28.620  1.00  0.00     0.062 H 
ATOM     36  H   UNL     1     -47.750  39.881  28.786  1.00  0.00     0.064 H 
BRANCH  32  37
ATOM     37  N   UNL     1     -45.191  39.631  27.807  1.00  0.00    -0.300 N 
ATOM     38  C   UNL     1     -44.194  39.580  28.771  1.00  0.00     0.026 A 
ATOM     39  C   UNL     1     -44.921  40.741  26.996  1.00  0.00     0.151 A 
ATOM     40  C   UNL     1     -43.324  40.617  28.564  1.00  0.00     0.049 A 
ATOM     41  H   UNL     1     -44.157  38.799  29.515  1.00  0.00     0.084 H 
ATOM     42  C   UNL     1     -43.758  41.365  27.453  1.00  0.00     0.076 A 
ATOM     43  N   UNL     1     -45.659  41.174  25.952  1.00  0.00    -0.218 NA
ATOM     44  Br  UNL     1     -41.801  40.973  29.603  1.00  0.00    -0.048 Br
ATOM     45  C   UNL     1     -43.329  42.506  26.756  1.00  0.00     0.137 A 
ATOM     46  C   UNL     1     -45.157  42.271  25.372  1.00  0.00     0.120 A 
ATOM     47  N   UNL     1     -44.052  42.949  25.713  1.00  0.00    -0.219 NA
ATOM     48  H   UNL     1     -45.711  42.659  24.524  1.00  0.00     0.106 H 
BRANCH  45  49
ATOM     49  N   UNL     1     -42.196  43.237  27.077  1.00  0.00    -0.383 N 
ATOM     50  H   UNL     1     -41.804  43.058  27.992  1.00  0.00     0.158 HD
ATOM     51  H   UNL     1     -42.288  44.205  26.797  1.00  0.00     0.158 HD
ENDBRANCH  45  49
ENDBRANCH  32  37
ENDBRANCH  25  27
ENDBRANCH   1  25
TORSDOF 7
ENDMDL
MODEL 4
REMARK VINA RESULT:      -9.8      3.426     10.777
REMARK SMILES CNc1ccc2ccc(CNc3cccc(-n4cc(Br)c5c(N)ncnc54)c3)cc2n1
REMARK SMILES IDX 10 1 9 4 3 5 4 6 31 7 5 8 30 10 6 11 29 13 7 14 8 16 2 19
REMARK SMILES IDX 1 21 11 25 12 27 13 28 28 29 14 30 16 32 15 34 17 37 18 38
REMARK SMILES IDX 27 39 19 40 21 42 26 43 20 44 22 45 25 46 24 47 23 49
REMARK H PARENT 10 2 10 3 4 9 5 12 29 15 7 17 8 18 2 20 1 22 1 23 1 24 11 26
REMARK H PARENT 13 31 28 33 14 35 15 36 18 41 25 48 23 50 23 51
REMARK Flexibility Score: inf
ROOT
ATOM      1  C   UNL     1     -48.792  36.380  27.309  1.00  0.00     0.040 C 
ATOM      2  H   UNL     1     -48.812  36.836  26.311  1.00  0.00     0.054 H 
ATOM      3  H   UNL     1     -49.674  36.758  27.841  1.00  0.00     0.054 H 
ENDROOT
BRANCH   1   4
ATOM      4  C   UNL     1     -47.579  36.828  28.095  1.00  0.00    -0.027 A 
ATOM      5  C   UNL     1     -43.987  39.945  28.509  1.00  0.00     0.126 A 
ATOM      6  C   UNL     1     -43.547  39.354  29.688  1.00  0.00    -0.019 A 
ATOM      7  N   UNL     1     -45.059  39.476  27.840  1.00  0.00    -0.231 NA
ATOM      8  C   UNL     1     -44.238  38.263  30.204  1.00  0.00    -0.049 A 
ATOM      9  H   UNL     1     -42.664  39.729  30.195  1.00  0.00     0.066 H 
ATOM     10  C   UNL     1     -45.730  38.418  28.333  1.00  0.00     0.073 A 
ATOM     11  C   UNL     1     -45.355  37.774  29.526  1.00  0.00     0.000 A 
ATOM     12  H   UNL     1     -43.895  37.799  31.125  1.00  0.00     0.063 H 
ATOM     13  C   UNL     1     -46.836  37.935  27.646  1.00  0.00    -0.031 A 
ATOM     14  C   UNL     1     -46.093  36.678  30.002  1.00  0.00    -0.052 A 
ATOM     15  H   UNL     1     -47.120  38.440  26.724  1.00  0.00     0.065 H 
ATOM     16  C   UNL     1     -47.201  36.216  29.294  1.00  0.00    -0.057 A 
ATOM     17  H   UNL     1     -45.808  36.177  30.924  1.00  0.00     0.063 H 
ATOM     18  H   UNL     1     -47.760  35.362  29.674  1.00  0.00     0.063 H 
BRANCH   5  19
ATOM     19  N   UNL     1     -43.248  41.032  28.004  1.00  0.00    -0.373 N 
ATOM     20  H   UNL     1     -43.002  41.647  28.773  1.00  0.00     0.161 HD
BRANCH  19  21
ATOM     21  C   UNL     1     -43.906  41.750  26.925  1.00  0.00     0.005 C 
ATOM     22  H   UNL     1     -43.321  42.618  26.602  1.00  0.00     0.045 H 
ATOM     23  H   UNL     1     -44.103  41.097  26.068  1.00  0.00     0.045 H 
ATOM     24  H   UNL     1     -44.871  42.123  27.284  1.00  0.00     0.045 H 
ENDBRANCH  19  21
ENDBRANCH   5  19
ENDBRANCH   1   4
BRANCH   1  25
ATOM     25  N   UNL     1     -48.909  34.927  27.212  1.00  0.00    -0.381 N 
ATOM     26  H   UNL     1     -49.879  34.632  27.155  1.00  0.00     0.160 HD
BRANCH  25  27
ATOM     27  C   UNL     1     -48.094  34.193  26.342  1.00  0.00     0.036 A 
ATOM     28  C   UNL     1     -46.803  34.575  25.978  1.00  0.00    -0.039 A 
ATOM     29  C   UNL     1     -48.544  32.926  25.923  1.00  0.00    -0.015 A 
ATOM     30  C   UNL     1     -46.016  33.757  25.166  1.00  0.00    -0.058 A 
ATOM     31  H   UNL     1     -46.372  35.511  26.317  1.00  0.00     0.064 H 
ATOM     32  C   UNL     1     -47.766  32.083  25.104  1.00  0.00     0.049 A 
ATOM     33  H   UNL     1     -49.516  32.608  26.285  1.00  0.00     0.067 H 
ATOM     34  C   UNL     1     -46.496  32.523  24.724  1.00  0.00    -0.038 A 
ATOM     35  H   UNL     1     -45.018  34.081  24.882  1.00  0.00     0.062 H 
ATOM     36  H   UNL     1     -45.843  31.945  24.080  1.00  0.00     0.064 H 
BRANCH  32  37
ATOM     37  N   UNL     1     -48.277  30.808  24.677  1.00  0.00    -0.300 N 
ATOM     38  C   UNL     1     -48.734  29.813  25.531  1.00  0.00     0.026 A 
ATOM     39  C   UNL     1     -48.419  30.323  23.371  1.00  0.00     0.151 A 
ATOM     40  C   UNL     1     -49.156  28.746  24.783  1.00  0.00     0.049 A 
ATOM     41  H   UNL     1     -48.753  29.943  26.602  1.00  0.00     0.084 H 
ATOM     42  C   UNL     1     -48.968  29.040  23.419  1.00  0.00     0.076 A 
ATOM     43  N   UNL     1     -48.068  30.960  22.234  1.00  0.00    -0.218 NA
ATOM     44  Br  UNL     1     -49.869  27.155  25.478  1.00  0.00    -0.048 Br
ATOM     45  C   UNL     1     -49.185  28.391  22.193  1.00  0.00     0.137 A 
ATOM     46  C   UNL     1     -48.313  30.242  21.131  1.00  0.00     0.120 A 
ATOM     47  N   UNL     1     -48.842  29.013  21.051  1.00  0.00    -0.219 NA
ATOM     48  H   UNL     1     -48.052  30.710  20.188  1.00  0.00     0.106 H 
BRANCH  45  49
ATOM     49  N   UNL     1     -49.725  27.121  22.067  1.00  0.00    -0.383 N 
ATOM     50  H   UNL     1     -50.694  27.028  22.343  1.00  0.00     0.158 HD
ATOM     51  H   UNL     1     -49.082  26.411  22.394  1.00  0.00     0.158 HD
ENDBRANCH  45  49
ENDBRANCH  32  37
ENDBRANCH  25  27
ENDBRANCH   1  25
TORSDOF 7
ENDMDL
MODEL 5
REMARK VINA RESULT:      -9.7      2.851     10.307
REMARK SMILES CNc1ccc2ccc(CNc3cccc(-n4cc(Br)c5c(N)ncnc54)c3)cc2n1
REMARK SMILES IDX 10 1 9 4 3 5 4 6 31 7 5 8 30 10 6 11 29 13 7 14 8 16 2 19
REMARK SMILES IDX 1 21 11 25 12 27 13 28 28 29 14 30 16 32 15 34 17 37 18 38
REMARK SMILES IDX 27 39 19 40 21 42 26 43 20 44 22 45 25 46 24 47 23 49
REMARK H PARENT 10 2 10 3 4 9 5 12 29 15 7 17 8 18 2 20 1 22 1 23 1 24 11 26
REMARK H PARENT 13 31 28 33 14 35 15 36 18 41 25 48 23 50 23 51
REMARK Flexibility Score: inf
ROOT
ATOM      1  C   UNL     1     -46.817  37.704  26.591  1.00  0.00     0.040 C 
ATOM      2  H   UNL     1     -46.441  37.297  25.643  1.00  0.00     0.054 H 
ATOM      3  H   UNL     1     -47.588  38.440  26.330  1.00  0.00     0.054 H 
ENDROOT
BRANCH   1   4
ATOM      4  C   UNL     1     -45.734  38.447  27.341  1.00  0.00    -0.027 A 
ATOM      5  C   UNL     1     -42.678  42.114  27.394  1.00  0.00     0.126 A 
ATOM      6  C   UNL     1     -42.224  41.780  28.665  1.00  0.00    -0.019 A 
ATOM      7  N   UNL     1     -43.626  41.389  26.768  1.00  0.00    -0.231 NA
ATOM      8  C   UNL     1     -42.775  40.683  29.320  1.00  0.00    -0.049 A 
ATOM      9  H   UNL     1     -41.440  42.359  29.139  1.00  0.00     0.066 H 
ATOM     10  C   UNL     1     -44.159  40.324  27.395  1.00  0.00     0.073 A 
ATOM     11  C   UNL     1     -43.765  39.931  28.686  1.00  0.00     0.000 A 
ATOM     12  H   UNL     1     -42.422  40.420  30.313  1.00  0.00     0.063 H 
ATOM     13  C   UNL     1     -45.138  39.578  26.752  1.00  0.00    -0.031 A 
ATOM     14  C   UNL     1     -44.357  38.815  29.300  1.00  0.00    -0.052 A 
ATOM     15  H   UNL     1     -45.440  39.890  25.753  1.00  0.00     0.065 H 
ATOM     16  C   UNL     1     -45.340  38.085  28.633  1.00  0.00    -0.057 A 
ATOM     17  H   UNL     1     -44.056  38.507  30.298  1.00  0.00     0.063 H 
ATOM     18  H   UNL     1     -45.787  37.221  29.121  1.00  0.00     0.063 H 
BRANCH   5  19
ATOM     19  N   UNL     1     -42.080  43.216  26.753  1.00  0.00    -0.373 N 
ATOM     20  H   UNL     1     -42.350  44.065  27.240  1.00  0.00     0.161 HD
BRANCH  19  21
ATOM     21  C   UNL     1     -42.357  43.299  25.328  1.00  0.00     0.005 C 
ATOM     22  H   UNL     1     -41.600  43.893  24.804  1.00  0.00     0.045 H 
ATOM     23  H   UNL     1     -42.426  42.305  24.873  1.00  0.00     0.045 H 
ATOM     24  H   UNL     1     -43.321  43.797  25.182  1.00  0.00     0.045 H 
ENDBRANCH  19  21
ENDBRANCH   5  19
ENDBRANCH   1   4
BRANCH   1  25
ATOM     25  N   UNL     1     -47.448  36.651  27.385  1.00  0.00    -0.381 N 
ATOM     26  H   UNL     1     -48.459  36.744  27.396  1.00  0.00     0.160 HD
BRANCH  25  27
ATOM     27  C   UNL     1     -47.053  35.315  27.256  1.00  0.00     0.036 A 
ATOM     28  C   UNL     1     -46.150  34.684  28.112  1.00  0.00    -0.039 A 
ATOM     29  C   UNL     1     -47.710  34.519  26.296  1.00  0.00    -0.015 A 
ATOM     30  C   UNL     1     -45.858  33.326  27.972  1.00  0.00    -0.058 A 
ATOM     31  H   UNL     1     -45.655  35.224  28.911  1.00  0.00     0.064 H 
ATOM     32  C   UNL     1     -47.432  33.146  26.138  1.00  0.00     0.049 A 
ATOM     33  H   UNL     1     -48.470  35.007  25.696  1.00  0.00     0.067 H 
ATOM     34  C   UNL     1     -46.487  32.563  26.986  1.00  0.00    -0.038 A 
ATOM     35  H   UNL     1     -45.141  32.858  28.640  1.00  0.00     0.062 H 
ATOM     36  H   UNL     1     -46.202  31.519  26.916  1.00  0.00     0.064 H 
BRANCH  32  37
ATOM     37  N   UNL     1     -48.108  32.378  25.127  1.00  0.00    -0.300 N 
ATOM     38  C   UNL     1     -49.469  32.107  25.118  1.00  0.00     0.026 A 
ATOM     39  C   UNL     1     -47.561  31.773  23.988  1.00  0.00     0.151 A 
ATOM     40  C   UNL     1     -49.766  31.365  24.005  1.00  0.00     0.049 A 
ATOM     41  H   UNL     1     -50.132  32.481  25.883  1.00  0.00     0.084 H 
ATOM     42  C   UNL     1     -48.583  31.139  23.276  1.00  0.00     0.076 A 
ATOM     43  N   UNL     1     -46.262  31.766  23.625  1.00  0.00    -0.218 NA
ATOM     44  Br  UNL     1     -51.479  30.754  23.541  1.00  0.00    -0.048 Br
ATOM     45  C   UNL     1     -48.221  30.473  22.094  1.00  0.00     0.137 A 
ATOM     46  C   UNL     1     -46.036  31.096  22.489  1.00  0.00     0.120 A 
ATOM     47  N   UNL     1     -46.930  30.459  21.718  1.00  0.00    -0.219 NA
ATOM     48  H   UNL     1     -45.006  31.062  22.149  1.00  0.00     0.106 H 
BRANCH  45  49
ATOM     49  N   UNL     1     -49.111  29.801  21.272  1.00  0.00    -0.383 N 
ATOM     50  H   UNL     1     -49.779  30.382  20.783  1.00  0.00     0.158 HD
ATOM     51  H   UNL     1     -49.467  28.965  21.718  1.00  0.00     0.158 HD
ENDBRANCH  45  49
ENDBRANCH  32  37
ENDBRANCH  25  27
ENDBRANCH   1  25
TORSDOF 7
ENDMDL
MODEL 6
REMARK VINA RESULT:      -9.7      2.064      2.881
REMARK SMILES CNc1ccc2ccc(CNc3cccc(-n4cc(Br)c5c(N)ncnc54)c3)cc2n1
REMARK SMILES IDX 10 1 9 4 3 5 4 6 31 7 5 8 30 10 6 11 29 13 7 14 8 16 2 19
REMARK SMILES IDX 1 21 11 25 12 27 13 28 28 29 14 30 16 32 15 34 17 37 18 38
REMARK SMILES IDX 27 39 19 40 21 42 26 43 20 44 22 45 25 46 24 47 23 49
REMARK H PARENT 10 2 10 3 4 9 5 12 29 15 7 17 8 18 2 20 1 22 1 23 1 24 11 26
REMARK H PARENT 13 31 28 33 14 35 15 36 18 41 25 48 23 50 23 51
REMARK Flexibility Score: inf
ROOT
ATOM      1  C   UNL     1     -48.235  34.560  26.637  1.00  0.00     0.040 C 
ATOM      2  H   UNL     1     -48.391  34.274  27.685  1.00  0.00     0.054 H 
ATOM      3  H   UNL     1     -49.217  34.854  26.245  1.00  0.00     0.054 H 
ENDROOT
BRANCH   1   4
ATOM      4  C   UNL     1     -47.763  33.386  25.809  1.00  0.00    -0.027 A 
ATOM      5  C   UNL     1     -48.808  29.134  23.907  1.00  0.00     0.126 A 
ATOM      6  C   UNL     1     -47.558  29.043  23.303  1.00  0.00    -0.019 A 
ATOM      7  N   UNL     1     -49.154  30.197  24.660  1.00  0.00    -0.231 NA
ATOM      8  C   UNL     1     -46.648  30.083  23.460  1.00  0.00    -0.049 A 
ATOM      9  H   UNL     1     -47.289  28.166  22.726  1.00  0.00     0.066 H 
ATOM     10  C   UNL     1     -48.275  31.204  24.819  1.00  0.00     0.073 A 
ATOM     11  C   UNL     1     -46.999  31.194  24.228  1.00  0.00     0.000 A 
ATOM     12  H   UNL     1     -45.671  30.014  22.990  1.00  0.00     0.063 H 
ATOM     13  C   UNL     1     -48.632  32.301  25.591  1.00  0.00    -0.031 A 
ATOM     14  C   UNL     1     -46.121  32.273  24.419  1.00  0.00    -0.052 A 
ATOM     15  H   UNL     1     -49.623  32.302  26.043  1.00  0.00     0.065 H 
ATOM     16  C   UNL     1     -46.505  33.364  25.197  1.00  0.00    -0.057 A 
ATOM     17  H   UNL     1     -45.132  32.270  23.965  1.00  0.00     0.063 H 
ATOM     18  H   UNL     1     -45.812  34.191  25.339  1.00  0.00     0.063 H 
BRANCH   5  19
ATOM     19  N   UNL     1     -49.694  28.052  23.746  1.00  0.00    -0.373 N 
ATOM     20  H   UNL     1     -49.456  27.330  24.419  1.00  0.00     0.161 HD
BRANCH  19  21
ATOM     21  C   UNL     1     -49.756  27.529  22.391  1.00  0.00     0.005 C 
ATOM     22  H   UNL     1     -49.605  26.444  22.370  1.00  0.00     0.045 H 
ATOM     23  H   UNL     1     -50.705  27.779  21.905  1.00  0.00     0.045 H 
ATOM     24  H   UNL     1     -48.953  27.981  21.799  1.00  0.00     0.045 H 
ENDBRANCH  19  21
ENDBRANCH   5  19
ENDBRANCH   1   4
BRANCH   1  25
ATOM     25  N   UNL     1     -47.349  35.719  26.550  1.00  0.00    -0.381 N 
ATOM     26  H   UNL     1     -47.694  36.407  25.888  1.00  0.00     0.160 HD
BRANCH  25  27
ATOM     27  C   UNL     1     -46.835  36.324  27.703  1.00  0.00     0.036 A 
ATOM     28  C   UNL     1     -46.947  35.780  28.982  1.00  0.00    -0.039 A 
ATOM     29  C   UNL     1     -46.036  37.473  27.548  1.00  0.00    -0.015 A 
ATOM     30  C   UNL     1     -46.345  36.399  30.080  1.00  0.00    -0.058 A 
ATOM     31  H   UNL     1     -47.497  34.863  29.162  1.00  0.00     0.064 H 
ATOM     32  C   UNL     1     -45.417  38.113  28.641  1.00  0.00     0.049 A 
ATOM     33  H   UNL     1     -45.889  37.834  26.536  1.00  0.00     0.067 H 
ATOM     34  C   UNL     1     -45.592  37.562  29.913  1.00  0.00    -0.038 A 
ATOM     35  H   UNL     1     -46.458  35.966  31.070  1.00  0.00     0.062 H 
ATOM     36  H   UNL     1     -45.167  38.005  30.807  1.00  0.00     0.064 H 
BRANCH  32  37
ATOM     37  N   UNL     1     -44.631  39.301  28.440  1.00  0.00    -0.300 N 
ATOM     38  C   UNL     1     -43.473  39.611  29.140  1.00  0.00     0.026 A 
ATOM     39  C   UNL     1     -44.854  40.346  27.534  1.00  0.00     0.151 A 
ATOM     40  C   UNL     1     -42.984  40.806  28.681  1.00  0.00     0.049 A 
ATOM     41  H   UNL     1     -43.065  38.953  29.892  1.00  0.00     0.084 H 
ATOM     42  C   UNL     1     -43.835  41.291  27.670  1.00  0.00     0.076 A 
ATOM     43  N   UNL     1     -45.890  40.460  26.677  1.00  0.00    -0.218 NA
ATOM     44  Br  UNL     1     -41.428  41.647  29.309  1.00  0.00    -0.048 Br
ATOM     45  C   UNL     1     -43.893  42.419  26.836  1.00  0.00     0.137 A 
ATOM     46  C   UNL     1     -45.843  41.577  25.940  1.00  0.00     0.120 A 
ATOM     47  N   UNL     1     -44.917  42.546  25.974  1.00  0.00    -0.219 NA
ATOM     48  H   UNL     1     -46.651  41.716  25.230  1.00  0.00     0.106 H 
BRANCH  45  49
ATOM     49  N   UNL     1     -42.959  43.443  26.841  1.00  0.00    -0.383 N 
ATOM     50  H   UNL     1     -42.879  43.958  27.708  1.00  0.00     0.158 HD
ATOM     51  H   UNL     1     -42.999  43.984  25.986  1.00  0.00     0.158 HD
ENDBRANCH  45  49
ENDBRANCH  32  37
ENDBRANCH  25  27
ENDBRANCH   1  25
TORSDOF 7
ENDMDL
MODEL 7
REMARK VINA RESULT:      -9.7      1.857      2.572
REMARK SMILES CNc1ccc2ccc(CNc3cccc(-n4cc(Br)c5c(N)ncnc54)c3)cc2n1
REMARK SMILES IDX 10 1 9 4 3 5 4 6 31 7 5 8 30 10 6 11 29 13 7 14 8 16 2 19
REMARK SMILES IDX 1 21 11 25 12 27 13 28 28 29 14 30 16 32 15 34 17 37 18 38
REMARK SMILES IDX 27 39 19 40 21 42 26 43 20 44 22 45 25 46 24 47 23 49
REMARK H PARENT 10 2 10 3 4 9 5 12 29 15 7 17 8 18 2 20 1 22 1 23 1 24 11 26
REMARK H PARENT 13 31 28 33 14 35 15 36 18 41 25 48 23 50 23 51
REMARK Flexibility Score: inf
ROOT
ATOM      1  C   UNL     1     -46.431  36.186  27.162  1.00  0.00     0.040 C 
ATOM      2  H   UNL     1     -45.978  36.811  26.381  1.00  0.00     0.054 H 
ATOM      3  H   UNL     1     -45.603  35.800  27.770  1.00  0.00     0.054 H 
ENDROOT
BRANCH   1   4
ATOM      4  C   UNL     1     -47.138  34.988  26.569  1.00  0.00    -0.027 A 
ATOM      5  C   UNL     1     -46.799  31.020  23.937  1.00  0.00     0.126 A 
ATOM      6  C   UNL     1     -48.142  30.716  24.136  1.00  0.00    -0.019 A 
ATOM      7  N   UNL     1     -46.238  32.123  24.469  1.00  0.00    -0.231 NA
ATOM      8  C   UNL     1     -48.923  31.558  24.920  1.00  0.00    -0.049 A 
ATOM      9  H   UNL     1     -48.581  29.839  23.674  1.00  0.00     0.066 H 
ATOM     10  C   UNL     1     -46.990  32.944  25.225  1.00  0.00     0.073 A 
ATOM     11  C   UNL     1     -48.350  32.698  25.485  1.00  0.00     0.000 A 
ATOM     12  H   UNL     1     -49.972  31.323  25.076  1.00  0.00     0.063 H 
ATOM     13  C   UNL     1     -46.412  34.080  25.777  1.00  0.00    -0.031 A 
ATOM     14  C   UNL     1     -49.090  33.582  26.287  1.00  0.00    -0.052 A 
ATOM     15  H   UNL     1     -45.358  34.262  25.573  1.00  0.00     0.065 H 
ATOM     16  C   UNL     1     -48.485  34.713  26.831  1.00  0.00    -0.057 A 
ATOM     17  H   UNL     1     -50.143  33.396  26.491  1.00  0.00     0.063 H 
ATOM     18  H   UNL     1     -49.073  35.391  27.447  1.00  0.00     0.063 H 
BRANCH   5  19
ATOM     19  N   UNL     1     -46.046  30.157  23.118  1.00  0.00    -0.373 N 
ATOM     20  H   UNL     1     -45.187  29.914  23.600  1.00  0.00     0.161 HD
BRANCH  19  21
ATOM     21  C   UNL     1     -45.790  30.676  21.784  1.00  0.00     0.005 C 
ATOM     22  H   UNL     1     -46.716  30.982  21.285  1.00  0.00     0.045 H 
ATOM     23  H   UNL     1     -45.086  31.515  21.806  1.00  0.00     0.045 H 
ATOM     24  H   UNL     1     -45.339  29.884  21.176  1.00  0.00     0.045 H 
ENDBRANCH  19  21
ENDBRANCH   5  19
ENDBRANCH   1   4
BRANCH   1  25
ATOM     25  N   UNL     1     -47.290  36.991  28.028  1.00  0.00    -0.381 N 
ATOM     26  H   UNL     1     -47.058  36.866  29.008  1.00  0.00     0.160 HD
BRANCH  25  27
ATOM     27  C   UNL     1     -47.564  38.331  27.729  1.00  0.00     0.036 A 
ATOM     28  C   UNL     1     -48.776  38.960  28.015  1.00  0.00    -0.039 A 
ATOM     29  C   UNL     1     -46.511  39.130  27.242  1.00  0.00    -0.015 A 
ATOM     30  C   UNL     1     -48.956  40.320  27.758  1.00  0.00    -0.058 A 
ATOM     31  H   UNL     1     -49.608  38.415  28.448  1.00  0.00     0.064 H 
ATOM     32  C   UNL     1     -46.670  40.506  26.978  1.00  0.00     0.049 A 
ATOM     33  H   UNL     1     -45.551  38.644  27.106  1.00  0.00     0.067 H 
ATOM     34  C   UNL     1     -47.914  41.087  27.235  1.00  0.00    -0.038 A 
ATOM     35  H   UNL     1     -49.914  40.786  27.975  1.00  0.00     0.062 H 
ATOM     36  H   UNL     1     -48.124  42.133  27.040  1.00  0.00     0.064 H 
BRANCH  32  37
ATOM     37  N   UNL     1     -45.575  41.278  26.456  1.00  0.00    -0.300 N 
ATOM     38  C   UNL     1     -45.624  42.038  25.296  1.00  0.00     0.026 A 
ATOM     39  C   UNL     1     -44.286  41.425  26.987  1.00  0.00     0.151 A 
ATOM     40  C   UNL     1     -44.411  42.646  25.111  1.00  0.00     0.049 A 
ATOM     41  H   UNL     1     -46.521  42.115  24.700  1.00  0.00     0.084 H 
ATOM     42  C   UNL     1     -43.549  42.276  26.161  1.00  0.00     0.076 A 
ATOM     43  N   UNL     1     -43.802  40.832  28.098  1.00  0.00    -0.218 NA
ATOM     44  Br  UNL     1     -43.981  43.787  23.683  1.00  0.00    -0.048 Br
ATOM     45  C   UNL     1     -42.223  42.543  26.538  1.00  0.00     0.137 A 
ATOM     46  C   UNL     1     -42.528  41.153  28.352  1.00  0.00     0.120 A 
ATOM     47  N   UNL     1     -41.725  41.961  27.644  1.00  0.00    -0.219 NA
ATOM     48  H   UNL     1     -42.089  40.706  29.238  1.00  0.00     0.106 H 
BRANCH  45  49
ATOM     49  N   UNL     1     -41.361  43.368  25.833  1.00  0.00    -0.383 N 
ATOM     50  H   UNL     1     -40.419  43.019  25.716  1.00  0.00     0.158 HD
ATOM     51  H   UNL     1     -41.463  44.335  26.114  1.00  0.00     0.158 HD
ENDBRANCH  45  49
ENDBRANCH  32  37
ENDBRANCH  25  27
ENDBRANCH   1  25
TORSDOF 7
ENDMDL
