MODEL 1
REMARK VINA RESULT:     -10.3      0.000      0.000
REMARK SMILES CNc1ccc2ccc(OCc3cncc(-n4cc(-c5ccnn5C)c5c(N)ncnc54)c3)cc2n1
REMARK SMILES IDX 11 1 10 4 9 5 3 6 4 7 36 8 5 9 35 11 6 12 34 14 7 15 8 17
REMARK SMILES IDX 2 20 1 22 12 26 13 27 33 28 14 29 16 31 15 33 17 35 18 36
REMARK SMILES IDX 32 37 19 38 26 40 31 41 27 42 30 43 29 44 20 46 21 47 24 48
REMARK SMILES IDX 22 49 23 51 25 53 28 57
REMARK H PARENT 11 2 11 3 4 10 5 13 34 16 7 18 8 19 2 21 1 23 1 24 1 25 13 30
REMARK H PARENT 33 32 15 34 18 39 30 45 21 50 22 52 25 54 25 55 25 56 28 58
REMARK H PARENT 28 59
REMARK Flexibility Score: inf
ROOT
ATOM      1  C   UNL     1     -46.831  36.710  26.631  1.00  0.00     0.115 C 
ATOM      2  H   UNL     1     -45.921  37.046  26.119  1.00  0.00     0.076 H 
ATOM      3  H   UNL     1     -47.715  36.963  26.034  1.00  0.00     0.076 H 
ENDROOT
BRANCH   1   4
ATOM      4  O   UNL     1     -46.902  37.321  27.921  1.00  0.00    -0.489 OA
BRANCH   4   5
ATOM      5  C   UNL     1     -45.844  38.102  28.299  1.00  0.00     0.122 A 
ATOM      6  C   UNL     1     -42.737  41.671  27.792  1.00  0.00     0.126 A 
ATOM      7  C   UNL     1     -42.123  41.372  29.003  1.00  0.00    -0.019 A 
ATOM      8  N   UNL     1     -43.789  40.958  27.339  1.00  0.00    -0.231 NA
ATOM      9  C   UNL     1     -42.587  40.300  29.760  1.00  0.00    -0.049 A 
ATOM     10  H   UNL     1     -41.297  41.975  29.365  1.00  0.00     0.066 H 
ATOM     11  C   UNL     1     -44.245  39.922  28.065  1.00  0.00     0.076 A 
ATOM     12  C   UNL     1     -43.668  39.550  29.294  1.00  0.00     0.001 A 
ATOM     13  H   UNL     1     -42.108  40.067  30.705  1.00  0.00     0.063 H 
ATOM     14  C   UNL     1     -45.326  39.189  27.590  1.00  0.00     0.007 A 
ATOM     15  C   UNL     1     -44.179  38.460  30.014  1.00  0.00    -0.049 A 
ATOM     16  H   UNL     1     -45.749  39.503  26.641  1.00  0.00     0.069 H 
ATOM     17  C   UNL     1     -45.263  37.742  29.514  1.00  0.00    -0.019 A 
ATOM     18  H   UNL     1     -43.739  38.166  30.964  1.00  0.00     0.063 H 
ATOM     19  H   UNL     1     -45.655  36.896  30.074  1.00  0.00     0.066 H 
BRANCH   6  20
ATOM     20  N   UNL     1     -42.258  42.778  27.069  1.00  0.00    -0.373 N 
ATOM     21  H   UNL     1     -41.724  42.445  26.272  1.00  0.00     0.161 HD
BRANCH  20  22
ATOM     22  C   UNL     1     -43.287  43.726  26.674  1.00  0.00     0.005 C 
ATOM     23  H   UNL     1     -43.779  43.422  25.743  1.00  0.00     0.045 H 
ATOM     24  H   UNL     1     -42.883  44.738  26.565  1.00  0.00     0.045 H 
ATOM     25  H   UNL     1     -44.056  43.759  27.453  1.00  0.00     0.045 H 
ENDBRANCH  20  22
ENDBRANCH   6  20
ENDBRANCH   4   5
ENDBRANCH   1   4
BRANCH   1  26
ATOM     26  C   UNL     1     -46.794  35.213  26.799  1.00  0.00     0.010 A 
ATOM     27  C   UNL     1     -46.178  34.639  27.901  1.00  0.00     0.034 A 
ATOM     28  C   UNL     1     -47.318  34.346  25.828  1.00  0.00    -0.028 A 
ATOM     29  N   UNL     1     -46.072  33.308  28.093  1.00  0.00    -0.262 NA
ATOM     30  H   UNL     1     -45.734  35.244  28.687  1.00  0.00     0.084 H 
ATOM     31  C   UNL     1     -47.236  32.955  25.991  1.00  0.00     0.066 A 
ATOM     32  H   UNL     1     -47.768  34.796  24.948  1.00  0.00     0.065 H 
ATOM     33  C   UNL     1     -46.603  32.498  27.141  1.00  0.00     0.051 A 
ATOM     34  H   UNL     1     -46.500  31.448  27.389  1.00  0.00     0.086 H 
BRANCH  31  35
ATOM     35  N   UNL     1     -47.786  32.061  25.017  1.00  0.00    -0.299 N 
ATOM     36  C   UNL     1     -49.026  31.449  25.115  1.00  0.00     0.021 A 
ATOM     37  C   UNL     1     -47.215  31.635  23.820  1.00  0.00     0.150 A 
ATOM     38  C   UNL     1     -49.228  30.616  24.035  1.00  0.00     0.031 A 
ATOM     39  H   UNL     1     -49.625  31.582  26.000  1.00  0.00     0.083 H 
ATOM     40  C   UNL     1     -48.108  30.783  23.166  1.00  0.00     0.071 A 
ATOM     41  N   UNL     1     -46.013  32.015  23.343  1.00  0.00    -0.218 NA
ATOM     42  C   UNL     1     -47.723  30.362  21.876  1.00  0.00     0.137 A 
ATOM     43  C   UNL     1     -45.734  31.496  22.145  1.00  0.00     0.120 A 
ATOM     44  N   UNL     1     -46.519  30.716  21.394  1.00  0.00    -0.219 NA
ATOM     45  H   UNL     1     -44.766  31.749  21.724  1.00  0.00     0.106 H 
BRANCH  38  46
ATOM     46  C   UNL     1     -50.466  29.659  23.911  1.00  0.00     0.070 A 
ATOM     47  C   UNL     1     -51.648  29.936  23.254  1.00  0.00    -0.016 A 
ATOM     48  N   UNL     1     -50.605  28.365  24.360  1.00  0.00    -0.268 N 
ATOM     49  C   UNL     1     -52.424  28.772  23.369  1.00  0.00     0.050 A 
ATOM     50  H   UNL     1     -51.910  30.826  22.703  1.00  0.00     0.066 H 
ATOM     51  N   UNL     1     -51.798  27.815  24.052  1.00  0.00    -0.181 NA
ATOM     52  H   UNL     1     -53.413  28.577  22.973  1.00  0.00     0.086 H 
BRANCH  48  53
ATOM     53  C   UNL     1     -49.698  27.591  25.173  1.00  0.00     0.030 C 
ATOM     54  H   UNL     1     -49.663  26.574  24.776  1.00  0.00     0.048 H 
ATOM     55  H   UNL     1     -50.063  27.567  26.204  1.00  0.00     0.048 H 
ATOM     56  H   UNL     1     -48.713  28.061  25.159  1.00  0.00     0.048 H 
ENDBRANCH  48  53
ENDBRANCH  38  46
BRANCH  42  57
ATOM     57  N   UNL     1     -48.535  29.668  20.986  1.00  0.00    -0.383 N 
ATOM     58  H   UNL     1     -47.959  29.039  20.436  1.00  0.00     0.158 HD
ATOM     59  H   UNL     1     -49.134  30.277  20.443  1.00  0.00     0.158 HD
ENDBRANCH  42  57
ENDBRANCH  31  35
ENDBRANCH   1  26
TORSDOF 9
ENDMDL
MODEL 2
REMARK VINA RESULT:     -10.1      2.056      2.728
REMARK SMILES CNc1ccc2ccc(OCc3cncc(-n4cc(-c5ccnn5C)c5c(N)ncnc54)c3)cc2n1
REMARK SMILES IDX 11 1 10 4 9 5 3 6 4 7 36 8 5 9 35 11 6 12 34 14 7 15 8 17
REMARK SMILES IDX 2 20 1 22 12 26 13 27 33 28 14 29 16 31 15 33 17 35 18 36
REMARK SMILES IDX 32 37 19 38 26 40 31 41 27 42 30 43 29 44 20 46 21 47 24 48
REMARK SMILES IDX 22 49 23 51 25 53 28 57
REMARK H PARENT 11 2 11 3 4 10 5 13 34 16 7 18 8 19 2 21 1 23 1 24 1 25 13 30
REMARK H PARENT 33 32 15 34 18 39 30 45 21 50 22 52 25 54 25 55 25 56 28 58
REMARK H PARENT 28 59
REMARK Flexibility Score: inf
ROOT
ATOM      1  C   UNL     1     -49.003  35.168  26.989  1.00  0.00     0.115 C 
ATOM      2  H   UNL     1     -49.156  36.063  26.373  1.00  0.00     0.076 H 
ATOM      3  H   UNL     1     -49.960  34.661  27.161  1.00  0.00     0.076 H 
ENDROOT
BRANCH   1   4
ATOM      4  O   UNL     1     -48.401  35.544  28.229  1.00  0.00    -0.489 OA
BRANCH   4   5
ATOM      5  C   UNL     1     -47.471  36.546  28.192  1.00  0.00     0.122 A 
ATOM      6  C   UNL     1     -45.586  40.603  26.568  1.00  0.00     0.126 A 
ATOM      7  C   UNL     1     -44.535  40.534  27.475  1.00  0.00    -0.019 A 
ATOM      8  N   UNL     1     -46.551  39.662  26.532  1.00  0.00    -0.231 NA
ATOM      9  C   UNL     1     -44.460  39.459  28.355  1.00  0.00    -0.049 A 
ATOM     10  H   UNL     1     -43.784  41.316  27.508  1.00  0.00     0.066 H 
ATOM     11  C   UNL     1     -46.488  38.620  27.381  1.00  0.00     0.076 A 
ATOM     12  C   UNL     1     -45.449  38.473  28.319  1.00  0.00     0.001 A 
ATOM     13  H   UNL     1     -43.639  39.404  29.064  1.00  0.00     0.063 H 
ATOM     14  C   UNL     1     -47.483  37.650  27.336  1.00  0.00     0.007 A 
ATOM     15  C   UNL     1     -45.426  37.368  29.183  1.00  0.00    -0.049 A 
ATOM     16  H   UNL     1     -48.271  37.794  26.604  1.00  0.00     0.069 H 
ATOM     17  C   UNL     1     -46.436  36.411  29.115  1.00  0.00    -0.019 A 
ATOM     18  H   UNL     1     -44.626  37.247  29.910  1.00  0.00     0.063 H 
ATOM     19  H   UNL     1     -46.414  35.554  29.785  1.00  0.00     0.066 H 
BRANCH   6  20
ATOM     20  N   UNL     1     -45.643  41.719  25.713  1.00  0.00    -0.373 N 
ATOM     21  H   UNL     1     -46.038  42.503  26.221  1.00  0.00     0.161 HD
BRANCH  20  22
ATOM     22  C   UNL     1     -44.375  42.060  25.089  1.00  0.00     0.005 C 
ATOM     23  H   UNL     1     -44.326  41.703  24.055  1.00  0.00     0.045 H 
ATOM     24  H   UNL     1     -43.526  41.665  25.657  1.00  0.00     0.045 H 
ATOM     25  H   UNL     1     -44.276  43.150  25.062  1.00  0.00     0.045 H 
ENDBRANCH  20  22
ENDBRANCH   6  20
ENDBRANCH   4   5
ENDBRANCH   1   4
BRANCH   1  26
ATOM     26  C   UNL     1     -48.090  34.209  26.270  1.00  0.00     0.010 A 
ATOM     27  C   UNL     1     -46.782  34.563  25.974  1.00  0.00     0.034 A 
ATOM     28  C   UNL     1     -48.537  32.957  25.819  1.00  0.00    -0.028 A 
ATOM     29  N   UNL     1     -45.925  33.771  25.298  1.00  0.00    -0.262 NA
ATOM     30  H   UNL     1     -46.368  35.522  26.275  1.00  0.00     0.084 H 
ATOM     31  C   UNL     1     -47.677  32.099  25.119  1.00  0.00     0.066 A 
ATOM     32  H   UNL     1     -49.572  32.696  26.020  1.00  0.00     0.065 H 
ATOM     33  C   UNL     1     -46.386  32.561  24.889  1.00  0.00     0.051 A 
ATOM     34  H   UNL     1     -45.625  31.980  24.381  1.00  0.00     0.086 H 
BRANCH  31  35
ATOM     35  N   UNL     1     -48.116  30.811  24.673  1.00  0.00    -0.299 N 
ATOM     36  C   UNL     1     -48.521  29.780  25.506  1.00  0.00     0.021 A 
ATOM     37  C   UNL     1     -48.222  30.343  23.365  1.00  0.00     0.150 A 
ATOM     38  C   UNL     1     -48.834  28.665  24.760  1.00  0.00     0.031 A 
ATOM     39  H   UNL     1     -48.459  29.895  26.575  1.00  0.00     0.083 H 
ATOM     40  C   UNL     1     -48.717  29.037  23.386  1.00  0.00     0.071 A 
ATOM     41  N   UNL     1     -47.938  31.049  22.252  1.00  0.00    -0.218 NA
ATOM     42  C   UNL     1     -48.996  28.465  22.128  1.00  0.00     0.137 A 
ATOM     43  C   UNL     1     -48.181  30.374  21.125  1.00  0.00     0.120 A 
ATOM     44  N   UNL     1     -48.699  29.147  21.007  1.00  0.00    -0.219 NA
ATOM     45  H   UNL     1     -47.945  30.886  20.197  1.00  0.00     0.106 H 
BRANCH  38  46
ATOM     46  C   UNL     1     -49.186  27.275  25.401  1.00  0.00     0.070 A 
ATOM     47  C   UNL     1     -50.446  26.833  25.747  1.00  0.00    -0.016 A 
ATOM     48  N   UNL     1     -48.349  26.219  25.683  1.00  0.00    -0.268 N 
ATOM     49  C   UNL     1     -50.268  25.527  26.229  1.00  0.00     0.050 A 
ATOM     50  H   UNL     1     -51.389  27.342  25.617  1.00  0.00     0.066 H 
ATOM     51  N   UNL     1     -48.990  25.151  26.203  1.00  0.00    -0.181 NA
ATOM     52  H   UNL     1     -51.016  24.830  26.585  1.00  0.00     0.086 H 
BRANCH  48  53
ATOM     53  C   UNL     1     -46.911  26.156  25.583  1.00  0.00     0.030 C 
ATOM     54  H   UNL     1     -46.579  26.950  24.909  1.00  0.00     0.048 H 
ATOM     55  H   UNL     1     -46.617  25.185  25.174  1.00  0.00     0.048 H 
ATOM     56  H   UNL     1     -46.477  26.267  26.578  1.00  0.00     0.048 H 
ENDBRANCH  48  53
ENDBRANCH  38  46
BRANCH  42  57
ATOM     57  N   UNL     1     -49.656  27.258  21.927  1.00  0.00    -0.383 N 
ATOM     58  H   UNL     1     -50.650  27.437  21.827  1.00  0.00     0.158 HD
ATOM     59  H   UNL     1     -49.419  26.560  22.622  1.00  0.00     0.158 HD
ENDBRANCH  42  57
ENDBRANCH  31  35
ENDBRANCH   1  26
TORSDOF 9
ENDMDL
MODEL 3
REMARK VINA RESULT:     -10.1      1.936      3.032
REMARK SMILES CNc1ccc2ccc(OCc3cncc(-n4cc(-c5ccnn5C)c5c(N)ncnc54)c3)cc2n1
REMARK SMILES IDX 11 1 10 4 9 5 3 6 4 7 36 8 5 9 35 11 6 12 34 14 7 15 8 17
REMARK SMILES IDX 2 20 1 22 12 26 13 27 33 28 14 29 16 31 15 33 17 35 18 36
REMARK SMILES IDX 32 37 19 38 26 40 31 41 27 42 30 43 29 44 20 46 21 47 24 48
REMARK SMILES IDX 22 49 23 51 25 53 28 57
REMARK H PARENT 11 2 11 3 4 10 5 13 34 16 7 18 8 19 2 21 1 23 1 24 1 25 13 30
REMARK H PARENT 33 32 15 34 18 39 30 45 21 50 22 52 25 54 25 55 25 56 28 58
REMARK H PARENT 28 59
REMARK Flexibility Score: inf
ROOT
ATOM      1  C   UNL     1     -46.076  34.884  26.945  1.00  0.00     0.115 C 
ATOM      2  H   UNL     1     -45.357  34.162  27.351  1.00  0.00     0.076 H 
ATOM      3  H   UNL     1     -45.674  35.343  26.033  1.00  0.00     0.076 H 
ENDROOT
BRANCH   1   4
ATOM      4  O   UNL     1     -46.353  35.881  27.930  1.00  0.00    -0.489 OA
BRANCH   4   5
ATOM      5  C   UNL     1     -46.015  37.171  27.623  1.00  0.00     0.122 A 
ATOM      6  C   UNL     1     -43.459  41.162  28.048  1.00  0.00     0.126 A 
ATOM      7  C   UNL     1     -44.194  41.796  27.052  1.00  0.00    -0.019 A 
ATOM      8  N   UNL     1     -43.717  39.890  28.416  1.00  0.00    -0.231 NA
ATOM      9  C   UNL     1     -45.236  41.114  26.432  1.00  0.00    -0.049 A 
ATOM     10  H   UNL     1     -43.951  42.809  26.750  1.00  0.00     0.066 H 
ATOM     11  C   UNL     1     -44.721  39.223  27.819  1.00  0.00     0.076 A 
ATOM     12  C   UNL     1     -45.518  39.800  26.813  1.00  0.00     0.001 A 
ATOM     13  H   UNL     1     -45.810  41.608  25.654  1.00  0.00     0.063 H 
ATOM     14  C   UNL     1     -44.986  37.914  28.206  1.00  0.00     0.007 A 
ATOM     15  C   UNL     1     -46.555  39.064  26.221  1.00  0.00    -0.049 A 
ATOM     16  H   UNL     1     -44.353  37.498  28.982  1.00  0.00     0.069 H 
ATOM     17  C   UNL     1     -46.799  37.754  26.629  1.00  0.00    -0.019 A 
ATOM     18  H   UNL     1     -47.175  39.503  25.443  1.00  0.00     0.063 H 
ATOM     19  H   UNL     1     -47.605  37.187  26.170  1.00  0.00     0.066 H 
BRANCH   6  20
ATOM     20  N   UNL     1     -42.396  41.874  28.633  1.00  0.00    -0.373 N 
ATOM     21  H   UNL     1     -42.732  42.785  28.928  1.00  0.00     0.161 HD
BRANCH  20  22
ATOM     22  C   UNL     1     -41.725  41.168  29.713  1.00  0.00     0.005 C 
ATOM     23  H   UNL     1     -42.032  40.117  29.758  1.00  0.00     0.045 H 
ATOM     24  H   UNL     1     -41.905  41.648  30.681  1.00  0.00     0.045 H 
ATOM     25  H   UNL     1     -40.646  41.185  29.530  1.00  0.00     0.045 H 
ENDBRANCH  20  22
ENDBRANCH   6  20
ENDBRANCH   4   5
ENDBRANCH   1   4
BRANCH   1  26
ATOM     26  C   UNL     1     -47.357  34.178  26.586  1.00  0.00     0.010 A 
ATOM     27  C   UNL     1     -48.586  34.757  26.865  1.00  0.00     0.034 A 
ATOM     28  C   UNL     1     -47.362  32.894  26.020  1.00  0.00    -0.028 A 
ATOM     29  N   UNL     1     -49.771  34.163  26.609  1.00  0.00    -0.262 NA
ATOM     30  H   UNL     1     -48.664  35.741  27.318  1.00  0.00     0.084 H 
ATOM     31  C   UNL     1     -48.570  32.244  25.731  1.00  0.00     0.066 A 
ATOM     32  H   UNL     1     -46.399  32.427  25.835  1.00  0.00     0.065 H 
ATOM     33  C   UNL     1     -49.738  32.927  26.047  1.00  0.00     0.051 A 
ATOM     34  H   UNL     1     -50.731  32.539  25.850  1.00  0.00     0.086 H 
BRANCH  31  35
ATOM     35  N   UNL     1     -48.587  30.942  25.134  1.00  0.00    -0.299 N 
ATOM     36  C   UNL     1     -48.473  29.749  25.832  1.00  0.00     0.021 A 
ATOM     37  C   UNL     1     -48.713  30.614  23.786  1.00  0.00     0.150 A 
ATOM     38  C   UNL     1     -48.478  28.687  24.955  1.00  0.00     0.031 A 
ATOM     39  H   UNL     1     -48.297  29.761  26.895  1.00  0.00     0.083 H 
ATOM     40  C   UNL     1     -48.704  29.223  23.652  1.00  0.00     0.071 A 
ATOM     41  N   UNL     1     -48.865  31.491  22.774  1.00  0.00    -0.218 NA
ATOM     42  C   UNL     1     -48.946  28.730  22.354  1.00  0.00     0.137 A 
ATOM     43  C   UNL     1     -49.016  30.902  21.585  1.00  0.00     0.120 A 
ATOM     44  N   UNL     1     -49.079  29.591  21.329  1.00  0.00    -0.219 NA
ATOM     45  H   UNL     1     -49.117  31.563  20.730  1.00  0.00     0.106 H 
BRANCH  38  46
ATOM     46  C   UNL     1     -48.217  27.204  25.403  1.00  0.00     0.070 A 
ATOM     47  C   UNL     1     -47.002  26.550  25.387  1.00  0.00    -0.016 A 
ATOM     48  N   UNL     1     -49.100  26.298  25.946  1.00  0.00    -0.268 N 
ATOM     49  C   UNL     1     -47.252  25.277  25.921  1.00  0.00     0.050 A 
ATOM     50  H   UNL     1     -46.039  26.943  25.096  1.00  0.00     0.066 H 
ATOM     51  N   UNL     1     -48.532  25.113  26.253  1.00  0.00    -0.181 NA
ATOM     52  H   UNL     1     -46.555  24.467  26.093  1.00  0.00     0.086 H 
BRANCH  48  53
ATOM     53  C   UNL     1     -50.525  26.428  26.130  1.00  0.00     0.030 C 
ATOM     54  H   UNL     1     -50.757  27.484  26.287  1.00  0.00     0.048 H 
ATOM     55  H   UNL     1     -50.833  25.852  27.008  1.00  0.00     0.048 H 
ATOM     56  H   UNL     1     -51.038  26.032  25.251  1.00  0.00     0.048 H 
ENDBRANCH  48  53
ENDBRANCH  38  46
BRANCH  42  57
ATOM     57  N   UNL     1     -49.159  27.394  22.032  1.00  0.00    -0.383 N 
ATOM     58  H   UNL     1     -48.671  27.180  21.168  1.00  0.00     0.158 HD
ATOM     59  H   UNL     1     -50.139  27.139  22.040  1.00  0.00     0.158 HD
ENDBRANCH  42  57
ENDBRANCH  31  35
ENDBRANCH   1  26
TORSDOF 9
ENDMDL
MODEL 4
REMARK VINA RESULT:     -10.0      2.417     11.311
REMARK SMILES CNc1ccc2ccc(OCc3cncc(-n4cc(-c5ccnn5C)c5c(N)ncnc54)c3)cc2n1
REMARK SMILES IDX 11 1 10 4 9 5 3 6 4 7 36 8 5 9 35 11 6 12 34 14 7 15 8 17
REMARK SMILES IDX 2 20 1 22 12 26 13 27 33 28 14 29 16 31 15 33 17 35 18 36
REMARK SMILES IDX 32 37 19 38 26 40 31 41 27 42 30 43 29 44 20 46 21 47 24 48
REMARK SMILES IDX 22 49 23 51 25 53 28 57
REMARK H PARENT 11 2 11 3 4 10 5 13 34 16 7 18 8 19 2 21 1 23 1 24 1 25 13 30
REMARK H PARENT 33 32 15 34 18 39 30 45 21 50 22 52 25 54 25 55 25 56 28 58
REMARK H PARENT 28 59
REMARK Flexibility Score: inf
ROOT
ATOM      1  C   UNL     1     -45.810  34.526  27.352  1.00  0.00     0.115 C 
ATOM      2  H   UNL     1     -45.209  34.710  26.453  1.00  0.00     0.076 H 
ATOM      3  H   UNL     1     -45.376  33.704  27.933  1.00  0.00     0.076 H 
ENDROOT
BRANCH   1   4
ATOM      4  O   UNL     1     -47.152  34.218  26.969  1.00  0.00    -0.489 OA
BRANCH   4   5
ATOM      5  C   UNL     1     -47.326  33.191  26.082  1.00  0.00     0.122 A 
ATOM      6  C   UNL     1     -46.522  30.822  22.034  1.00  0.00     0.126 A 
ATOM      7  C   UNL     1     -47.408  29.813  22.392  1.00  0.00    -0.019 A 
ATOM      8  N   UNL     1     -46.283  31.874  22.845  1.00  0.00    -0.231 NA
ATOM      9  C   UNL     1     -48.084  29.894  23.605  1.00  0.00    -0.049 A 
ATOM     10  H   UNL     1     -47.564  28.961  21.739  1.00  0.00     0.066 H 
ATOM     11  C   UNL     1     -46.931  31.959  24.021  1.00  0.00     0.076 A 
ATOM     12  C   UNL     1     -47.852  30.984  24.447  1.00  0.00     0.001 A 
ATOM     13  H   UNL     1     -48.776  29.107  23.886  1.00  0.00     0.063 H 
ATOM     14  C   UNL     1     -46.684  33.047  24.850  1.00  0.00     0.007 A 
ATOM     15  C   UNL     1     -48.503  31.118  25.682  1.00  0.00    -0.049 A 
ATOM     16  H   UNL     1     -45.967  33.779  24.493  1.00  0.00     0.069 H 
ATOM     17  C   UNL     1     -48.238  32.220  26.493  1.00  0.00    -0.019 A 
ATOM     18  H   UNL     1     -49.217  30.370  26.019  1.00  0.00     0.063 H 
ATOM     19  H   UNL     1     -48.747  32.322  27.449  1.00  0.00     0.066 H 
BRANCH   6  20
ATOM     20  N   UNL     1     -45.836  30.692  20.812  1.00  0.00    -0.373 N 
ATOM     21  H   UNL     1     -46.074  29.797  20.395  1.00  0.00     0.161 HD
BRANCH  20  22
ATOM     22  C   UNL     1     -46.046  31.794  19.887  1.00  0.00     0.005 C 
ATOM     23  H   UNL     1     -46.512  32.652  20.383  1.00  0.00     0.045 H 
ATOM     24  H   UNL     1     -46.652  31.489  19.027  1.00  0.00     0.045 H 
ATOM     25  H   UNL     1     -45.074  32.125  19.506  1.00  0.00     0.045 H 
ENDBRANCH  20  22
ENDBRANCH   6  20
ENDBRANCH   4   5
ENDBRANCH   1   4
BRANCH   1  26
ATOM     26  C   UNL     1     -45.816  35.757  28.219  1.00  0.00     0.010 A 
ATOM     27  C   UNL     1     -46.394  35.732  29.480  1.00  0.00     0.034 A 
ATOM     28  C   UNL     1     -45.303  36.983  27.769  1.00  0.00    -0.028 A 
ATOM     29  N   UNL     1     -46.472  36.806  30.292  1.00  0.00    -0.262 NA
ATOM     30  H   UNL     1     -46.827  34.824  29.892  1.00  0.00     0.084 H 
ATOM     31  C   UNL     1     -45.357  38.124  28.584  1.00  0.00     0.066 A 
ATOM     32  H   UNL     1     -44.884  37.011  26.768  1.00  0.00     0.065 H 
ATOM     33  C   UNL     1     -45.952  37.973  29.831  1.00  0.00     0.051 A 
ATOM     34  H   UNL     1     -46.031  38.774  30.556  1.00  0.00     0.086 H 
BRANCH  31  35
ATOM     35  N   UNL     1     -44.817  39.375  28.143  1.00  0.00    -0.299 N 
ATOM     36  C   UNL     1     -45.298  40.111  27.071  1.00  0.00     0.021 A 
ATOM     37  C   UNL     1     -43.741  40.083  28.673  1.00  0.00     0.150 A 
ATOM     38  C   UNL     1     -44.526  41.237  26.888  1.00  0.00     0.031 A 
ATOM     39  H   UNL     1     -46.096  39.720  26.463  1.00  0.00     0.083 H 
ATOM     40  C   UNL     1     -43.573  41.267  27.950  1.00  0.00     0.071 A 
ATOM     41  N   UNL     1     -43.005  39.714  29.741  1.00  0.00    -0.218 NA
ATOM     42  C   UNL     1     -42.595  42.155  28.444  1.00  0.00     0.137 A 
ATOM     43  C   UNL     1     -42.067  40.606  30.068  1.00  0.00     0.120 A 
ATOM     44  N   UNL     1     -41.838  41.793  29.495  1.00  0.00    -0.219 NA
ATOM     45  H   UNL     1     -41.428  40.347  30.906  1.00  0.00     0.106 H 
BRANCH  38  46
ATOM     46  C   UNL     1     -44.706  42.211  25.669  1.00  0.00     0.070 A 
ATOM     47  C   UNL     1     -43.832  42.364  24.611  1.00  0.00    -0.016 A 
ATOM     48  N   UNL     1     -45.765  43.040  25.376  1.00  0.00    -0.268 N 
ATOM     49  C   UNL     1     -44.438  43.296  23.754  1.00  0.00     0.050 A 
ATOM     50  H   UNL     1     -42.909  41.835  24.430  1.00  0.00     0.066 H 
ATOM     51  N   UNL     1     -45.611  43.721  24.221  1.00  0.00    -0.181 NA
ATOM     52  H   UNL     1     -44.079  43.674  22.805  1.00  0.00     0.086 H 
BRANCH  48  53
ATOM     53  C   UNL     1     -46.931  43.329  26.175  1.00  0.00     0.030 C 
ATOM     54  H   UNL     1     -47.336  44.293  25.858  1.00  0.00     0.048 H 
ATOM     55  H   UNL     1     -46.646  43.383  27.230  1.00  0.00     0.048 H 
ATOM     56  H   UNL     1     -47.661  42.527  26.049  1.00  0.00     0.048 H 
ENDBRANCH  48  53
ENDBRANCH  38  46
BRANCH  42  57
ATOM     57  N   UNL     1     -42.392  43.453  27.990  1.00  0.00    -0.383 N 
ATOM     58  H   UNL     1     -42.642  43.503  27.007  1.00  0.00     0.158 HD
ATOM     59  H   UNL     1     -41.469  43.807  28.211  1.00  0.00     0.158 HD
ENDBRANCH  42  57
ENDBRANCH  31  35
ENDBRANCH   1  26
TORSDOF 9
ENDMDL
MODEL 5
REMARK VINA RESULT:      -9.8      2.152     11.793
REMARK SMILES CNc1ccc2ccc(OCc3cncc(-n4cc(-c5ccnn5C)c5c(N)ncnc54)c3)cc2n1
REMARK SMILES IDX 11 1 10 4 9 5 3 6 4 7 36 8 5 9 35 11 6 12 34 14 7 15 8 17
REMARK SMILES IDX 2 20 1 22 12 26 13 27 33 28 14 29 16 31 15 33 17 35 18 36
REMARK SMILES IDX 32 37 19 38 26 40 31 41 27 42 30 43 29 44 20 46 21 47 24 48
REMARK SMILES IDX 22 49 23 51 25 53 28 57
REMARK H PARENT 11 2 11 3 4 10 5 13 34 16 7 18 8 19 2 21 1 23 1 24 1 25 13 30
REMARK H PARENT 33 32 15 34 18 39 30 45 21 50 22 52 25 54 25 55 25 56 28 58
REMARK H PARENT 28 59
REMARK Flexibility Score: inf
ROOT
ATOM      1  C   UNL     1     -47.233  35.077  26.504  1.00  0.00     0.115 C 
ATOM      2  H   UNL     1     -48.276  35.333  26.282  1.00  0.00     0.076 H 
ATOM      3  H   UNL     1     -46.621  35.166  25.598  1.00  0.00     0.076 H 
ENDROOT
BRANCH   1   4
ATOM      4  O   UNL     1     -47.172  33.747  27.022  1.00  0.00    -0.489 OA
BRANCH   4   5
ATOM      5  C   UNL     1     -47.281  32.722  26.123  1.00  0.00     0.122 A 
ATOM      6  C   UNL     1     -49.080  28.649  24.442  1.00  0.00     0.126 A 
ATOM      7  C   UNL     1     -48.262  28.695  23.319  1.00  0.00    -0.019 A 
ATOM      8  N   UNL     1     -49.045  29.616  25.382  1.00  0.00    -0.231 NA
ATOM      9  C   UNL     1     -47.369  29.751  23.166  1.00  0.00    -0.049 A 
ATOM     10  H   UNL     1     -48.326  27.923  22.560  1.00  0.00     0.066 H 
ATOM     11  C   UNL     1     -48.186  30.642  25.241  1.00  0.00     0.076 A 
ATOM     12  C   UNL     1     -47.317  30.752  24.138  1.00  0.00     0.001 A 
ATOM     13  H   UNL     1     -46.730  29.788  22.289  1.00  0.00     0.063 H 
ATOM     14  C   UNL     1     -48.151  31.633  26.215  1.00  0.00     0.007 A 
ATOM     15  C   UNL     1     -46.439  31.840  24.036  1.00  0.00    -0.049 A 
ATOM     16  H   UNL     1     -48.835  31.520  27.050  1.00  0.00     0.069 H 
ATOM     17  C   UNL     1     -46.424  32.819  25.028  1.00  0.00    -0.019 A 
ATOM     18  H   UNL     1     -45.764  31.932  23.188  1.00  0.00     0.063 H 
ATOM     19  H   UNL     1     -45.739  33.660  24.946  1.00  0.00     0.066 H 
BRANCH   6  20
ATOM     20  N   UNL     1     -49.989  27.581  24.549  1.00  0.00    -0.373 N 
ATOM     21  H   UNL     1     -50.399  27.405  23.637  1.00  0.00     0.161 HD
BRANCH  20  22
ATOM     22  C   UNL     1     -49.428  26.373  25.132  1.00  0.00     0.005 C 
ATOM     23  H   UNL     1     -49.910  25.473  24.736  1.00  0.00     0.045 H 
ATOM     24  H   UNL     1     -49.502  26.381  26.225  1.00  0.00     0.045 H 
ATOM     25  H   UNL     1     -48.366  26.315  24.873  1.00  0.00     0.045 H 
ENDBRANCH  20  22
ENDBRANCH   6  20
ENDBRANCH   4   5
ENDBRANCH   1   4
BRANCH   1  26
ATOM     26  C   UNL     1     -46.684  36.031  27.532  1.00  0.00     0.010 A 
ATOM     27  C   UNL     1     -46.776  35.742  28.886  1.00  0.00     0.034 A 
ATOM     28  C   UNL     1     -46.123  37.266  27.173  1.00  0.00    -0.028 A 
ATOM     29  N   UNL     1     -46.345  36.568  29.861  1.00  0.00    -0.262 NA
ATOM     30  H   UNL     1     -47.214  34.813  29.244  1.00  0.00     0.084 H 
ATOM     31  C   UNL     1     -45.655  38.152  28.154  1.00  0.00     0.066 A 
ATOM     32  H   UNL     1     -46.085  37.506  26.115  1.00  0.00     0.065 H 
ATOM     33  C   UNL     1     -45.793  37.748  29.477  1.00  0.00     0.051 A 
ATOM     34  H   UNL     1     -45.449  38.335  30.321  1.00  0.00     0.086 H 
BRANCH  31  35
ATOM     35  N   UNL     1     -45.061  39.405  27.798  1.00  0.00    -0.299 N 
ATOM     36  C   UNL     1     -45.485  40.214  26.755  1.00  0.00     0.021 A 
ATOM     37  C   UNL     1     -43.978  40.046  28.396  1.00  0.00     0.150 A 
ATOM     38  C   UNL     1     -44.670  41.321  26.655  1.00  0.00     0.031 A 
ATOM     39  H   UNL     1     -46.277  39.884  26.104  1.00  0.00     0.083 H 
ATOM     40  C   UNL     1     -43.749  41.260  27.744  1.00  0.00     0.071 A 
ATOM     41  N   UNL     1     -43.288  39.594  29.462  1.00  0.00    -0.218 NA
ATOM     42  C   UNL     1     -42.758  42.086  28.313  1.00  0.00     0.137 A 
ATOM     43  C   UNL     1     -42.331  40.435  29.864  1.00  0.00     0.120 A 
ATOM     44  N   UNL     1     -42.046  41.642  29.364  1.00  0.00    -0.219 NA
ATOM     45  H   UNL     1     -41.726  40.109  30.705  1.00  0.00     0.106 H 
BRANCH  38  46
ATOM     46  C   UNL     1     -44.782  42.364  25.486  1.00  0.00     0.070 A 
ATOM     47  C   UNL     1     -43.977  42.423  24.367  1.00  0.00    -0.016 A 
ATOM     48  N   UNL     1     -45.711  43.364  25.307  1.00  0.00    -0.268 N 
ATOM     49  C   UNL     1     -44.486  43.476  23.592  1.00  0.00     0.050 A 
ATOM     50  H   UNL     1     -43.168  41.762  24.094  1.00  0.00     0.066 H 
ATOM     51  N   UNL     1     -45.536  44.062  24.166  1.00  0.00    -0.181 NA
ATOM     52  H   UNL     1     -44.143  43.834  22.629  1.00  0.00     0.086 H 
BRANCH  48  53
ATOM     53  C   UNL     1     -46.751  43.798  26.208  1.00  0.00     0.030 C 
ATOM     54  H   UNL     1     -47.529  43.031  26.231  1.00  0.00     0.048 H 
ATOM     55  H   UNL     1     -47.178  44.739  25.845  1.00  0.00     0.048 H 
ATOM     56  H   UNL     1     -46.323  43.965  27.198  1.00  0.00     0.048 H 
ENDBRANCH  48  53
ENDBRANCH  38  46
BRANCH  42  57
ATOM     57  N   UNL     1     -42.499  43.399  27.936  1.00  0.00    -0.383 N 
ATOM     58  H   UNL     1     -42.238  43.416  26.955  1.00  0.00     0.158 HD
ATOM     59  H   UNL     1     -41.846  43.863  28.556  1.00  0.00     0.158 HD
ENDBRANCH  42  57
ENDBRANCH  31  35
ENDBRANCH   1  26
TORSDOF 9
ENDMDL
MODEL 6
REMARK VINA RESULT:      -9.5      2.443     11.752
REMARK SMILES CNc1ccc2ccc(OCc3cncc(-n4cc(-c5ccnn5C)c5c(N)ncnc54)c3)cc2n1
REMARK SMILES IDX 11 1 10 4 9 5 3 6 4 7 36 8 5 9 35 11 6 12 34 14 7 15 8 17
REMARK SMILES IDX 2 20 1 22 12 26 13 27 33 28 14 29 16 31 15 33 17 35 18 36
REMARK SMILES IDX 32 37 19 38 26 40 31 41 27 42 30 43 29 44 20 46 21 47 24 48
REMARK SMILES IDX 22 49 23 51 25 53 28 57
REMARK H PARENT 11 2 11 3 4 10 5 13 34 16 7 18 8 19 2 21 1 23 1 24 1 25 13 30
REMARK H PARENT 33 32 15 34 18 39 30 45 21 50 22 52 25 54 25 55 25 56 28 58
REMARK H PARENT 28 59
REMARK Flexibility Score: inf
ROOT
ATOM      1  C   UNL     1     -47.953  34.995  26.540  1.00  0.00     0.115 C 
ATOM      2  H   UNL     1     -48.985  35.226  26.829  1.00  0.00     0.076 H 
ATOM      3  H   UNL     1     -47.842  35.063  25.451  1.00  0.00     0.076 H 
ENDROOT
BRANCH   1   4
ATOM      4  O   UNL     1     -47.614  33.685  27.000  1.00  0.00    -0.489 OA
BRANCH   4   5
ATOM      5  C   UNL     1     -47.551  32.692  26.061  1.00  0.00     0.122 A 
ATOM      6  C   UNL     1     -48.919  28.622  24.009  1.00  0.00     0.126 A 
ATOM      7  C   UNL     1     -47.954  28.743  23.016  1.00  0.00    -0.019 A 
ATOM      8  N   UNL     1     -49.059  29.553  24.975  1.00  0.00    -0.231 NA
ATOM      9  C   UNL     1     -47.094  29.836  23.026  1.00  0.00    -0.049 A 
ATOM     10  H   UNL     1     -47.877  27.998  22.231  1.00  0.00     0.066 H 
ATOM     11  C   UNL     1     -48.233  30.615  24.991  1.00  0.00     0.076 A 
ATOM     12  C   UNL     1     -47.223  30.800  24.028  1.00  0.00     0.001 A 
ATOM     13  H   UNL     1     -46.340  29.931  22.251  1.00  0.00     0.063 H 
ATOM     14  C   UNL     1     -48.379  31.569  25.992  1.00  0.00     0.007 A 
ATOM     15  C   UNL     1     -46.386  31.924  24.088  1.00  0.00    -0.049 A 
ATOM     16  H   UNL     1     -49.168  31.398  26.717  1.00  0.00     0.069 H 
ATOM     17  C   UNL     1     -46.553  32.864  25.103  1.00  0.00    -0.019 A 
ATOM     18  H   UNL     1     -45.603  32.074  23.348  1.00  0.00     0.063 H 
ATOM     19  H   UNL     1     -45.901  33.733  25.147  1.00  0.00     0.066 H 
BRANCH   6  20
ATOM     20  N   UNL     1     -49.788  27.517  23.950  1.00  0.00    -0.373 N 
ATOM     21  H   UNL     1     -50.308  27.460  24.820  1.00  0.00     0.161 HD
BRANCH  20  22
ATOM     22  C   UNL     1     -50.667  27.508  22.792  1.00  0.00     0.005 C 
ATOM     23  H   UNL     1     -51.257  26.586  22.742  1.00  0.00     0.045 H 
ATOM     24  H   UNL     1     -50.108  27.641  21.860  1.00  0.00     0.045 H 
ATOM     25  H   UNL     1     -51.372  28.342  22.876  1.00  0.00     0.045 H 
ENDBRANCH  20  22
ENDBRANCH   6  20
ENDBRANCH   4   5
ENDBRANCH   1   4
BRANCH   1  26
ATOM     26  C   UNL     1     -47.015  35.994  27.167  1.00  0.00     0.010 A 
ATOM     27  C   UNL     1     -46.265  35.656  28.284  1.00  0.00     0.034 A 
ATOM     28  C   UNL     1     -46.910  37.310  26.693  1.00  0.00    -0.028 A 
ATOM     29  N   UNL     1     -45.439  36.512  28.920  1.00  0.00    -0.262 NA
ATOM     30  H   UNL     1     -46.305  34.661  28.720  1.00  0.00     0.084 H 
ATOM     31  C   UNL     1     -46.057  38.231  27.320  1.00  0.00     0.066 A 
ATOM     32  H   UNL     1     -47.525  37.584  25.841  1.00  0.00     0.065 H 
ATOM     33  C   UNL     1     -45.350  37.774  28.426  1.00  0.00     0.051 A 
ATOM     34  H   UNL     1     -44.645  38.383  28.978  1.00  0.00     0.086 H 
BRANCH  31  35
ATOM     35  N   UNL     1     -45.927  39.571  26.832  1.00  0.00    -0.299 N 
ATOM     36  C   UNL     1     -44.790  40.086  26.228  1.00  0.00     0.021 A 
ATOM     37  C   UNL     1     -46.871  40.594  26.863  1.00  0.00     0.150 A 
ATOM     38  C   UNL     1     -44.980  41.416  25.922  1.00  0.00     0.031 A 
ATOM     39  H   UNL     1     -43.899  39.486  26.156  1.00  0.00     0.083 H 
ATOM     40  C   UNL     1     -46.332  41.732  26.256  1.00  0.00     0.071 A 
ATOM     41  N   UNL     1     -48.122  40.496  27.356  1.00  0.00    -0.218 NA
ATOM     42  C   UNL     1     -47.213  42.821  26.100  1.00  0.00     0.137 A 
ATOM     43  C   UNL     1     -48.835  41.615  27.209  1.00  0.00     0.120 A 
ATOM     44  N   UNL     1     -48.458  42.747  26.604  1.00  0.00    -0.219 NA
ATOM     45  H   UNL     1     -49.843  41.600  27.612  1.00  0.00     0.106 H 
BRANCH  38  46
ATOM     46  C   UNL     1     -43.839  42.339  25.365  1.00  0.00     0.070 A 
ATOM     47  C   UNL     1     -43.806  42.935  24.121  1.00  0.00    -0.016 A 
ATOM     48  N   UNL     1     -42.701  42.784  26.001  1.00  0.00    -0.268 N 
ATOM     49  C   UNL     1     -42.628  43.697  24.099  1.00  0.00     0.050 A 
ATOM     50  H   UNL     1     -44.553  42.892  23.343  1.00  0.00     0.066 H 
ATOM     51  N   UNL     1     -41.944  43.600  25.238  1.00  0.00    -0.181 NA
ATOM     52  H   UNL     1     -42.245  44.328  23.306  1.00  0.00     0.086 H 
BRANCH  48  53
ATOM     53  C   UNL     1     -42.195  42.419  27.302  1.00  0.00     0.030 C 
ATOM     54  H   UNL     1     -41.106  42.500  27.282  1.00  0.00     0.048 H 
ATOM     55  H   UNL     1     -42.479  41.386  27.526  1.00  0.00     0.048 H 
ATOM     56  H   UNL     1     -42.632  43.076  28.055  1.00  0.00     0.048 H 
ENDBRANCH  48  53
ENDBRANCH  38  46
BRANCH  42  57
ATOM     57  N   UNL     1     -46.940  43.971  25.369  1.00  0.00    -0.383 N 
ATOM     58  H   UNL     1     -46.090  44.396  25.725  1.00  0.00     0.158 HD
ATOM     59  H   UNL     1     -47.734  44.597  25.310  1.00  0.00     0.158 HD
ENDBRANCH  42  57
ENDBRANCH  31  35
ENDBRANCH   1  26
TORSDOF 9
ENDMDL
MODEL 7
REMARK VINA RESULT:      -9.4      1.563      2.138
REMARK SMILES CNc1ccc2ccc(OCc3cncc(-n4cc(-c5ccnn5C)c5c(N)ncnc54)c3)cc2n1
REMARK SMILES IDX 11 1 10 4 9 5 3 6 4 7 36 8 5 9 35 11 6 12 34 14 7 15 8 17
REMARK SMILES IDX 2 20 1 22 12 26 13 27 33 28 14 29 16 31 15 33 17 35 18 36
REMARK SMILES IDX 32 37 19 38 26 40 31 41 27 42 30 43 29 44 20 46 21 47 24 48
REMARK SMILES IDX 22 49 23 51 25 53 28 57
REMARK H PARENT 11 2 11 3 4 10 5 13 34 16 7 18 8 19 2 21 1 23 1 24 1 25 13 30
REMARK H PARENT 33 32 15 34 18 39 30 45 21 50 22 52 25 54 25 55 25 56 28 58
REMARK H PARENT 28 59
REMARK Flexibility Score: inf
ROOT
ATOM      1  C   UNL     1     -46.180  35.679  26.997  1.00  0.00     0.115 C 
ATOM      2  H   UNL     1     -45.400  35.069  27.470  1.00  0.00     0.076 H 
ATOM      3  H   UNL     1     -45.807  36.105  26.058  1.00  0.00     0.076 H 
ENDROOT
BRANCH   1   4
ATOM      4  O   UNL     1     -46.581  36.715  27.896  1.00  0.00    -0.489 OA
BRANCH   4   5
ATOM      5  C   UNL     1     -45.736  37.782  28.034  1.00  0.00     0.122 A 
ATOM      6  C   UNL     1     -43.694  41.854  26.658  1.00  0.00     0.126 A 
ATOM      7  C   UNL     1     -42.943  41.927  27.825  1.00  0.00    -0.019 A 
ATOM      8  N   UNL     1     -44.556  40.840  26.435  1.00  0.00    -0.231 NA
ATOM      9  C   UNL     1     -43.062  40.923  28.780  1.00  0.00    -0.049 A 
ATOM     10  H   UNL     1     -42.277  42.766  27.998  1.00  0.00     0.066 H 
ATOM     11  C   UNL     1     -44.679  39.866  27.354  1.00  0.00     0.076 A 
ATOM     12  C   UNL     1     -43.943  39.864  28.554  1.00  0.00     0.001 A 
ATOM     13  H   UNL     1     -42.475  40.979  29.692  1.00  0.00     0.063 H 
ATOM     14  C   UNL     1     -45.565  38.822  27.117  1.00  0.00     0.007 A 
ATOM     15  C   UNL     1     -44.106  38.824  29.482  1.00  0.00    -0.049 A 
ATOM     16  H   UNL     1     -46.119  38.855  26.184  1.00  0.00     0.069 H 
ATOM     17  C   UNL     1     -45.000  37.789  29.218  1.00  0.00    -0.019 A 
ATOM     18  H   UNL     1     -43.541  38.814  30.411  1.00  0.00     0.063 H 
ATOM     19  H   UNL     1     -45.122  36.983  29.938  1.00  0.00     0.066 H 
BRANCH   6  20
ATOM     20  N   UNL     1     -43.567  42.902  25.728  1.00  0.00    -0.373 N 
ATOM     21  H   UNL     1     -42.589  43.166  25.661  1.00  0.00     0.161 HD
BRANCH  20  22
ATOM     22  C   UNL     1     -44.142  42.618  24.423  1.00  0.00     0.005 C 
ATOM     23  H   UNL     1     -43.369  42.374  23.687  1.00  0.00     0.045 H 
ATOM     24  H   UNL     1     -44.749  43.454  24.059  1.00  0.00     0.045 H 
ATOM     25  H   UNL     1     -44.798  41.745  24.508  1.00  0.00     0.045 H 
ENDBRANCH  20  22
ENDBRANCH   6  20
ENDBRANCH   4   5
ENDBRANCH   1   4
BRANCH   1  26
ATOM     26  C   UNL     1     -47.372  34.817  26.677  1.00  0.00     0.010 A 
ATOM     27  C   UNL     1     -48.658  35.253  26.960  1.00  0.00     0.034 A 
ATOM     28  C   UNL     1     -47.232  33.526  26.145  1.00  0.00    -0.028 A 
ATOM     29  N   UNL     1     -49.767  34.518  26.738  1.00  0.00    -0.262 NA
ATOM     30  H   UNL     1     -48.847  36.234  27.388  1.00  0.00     0.084 H 
ATOM     31  C   UNL     1     -48.359  32.730  25.891  1.00  0.00     0.066 A 
ATOM     32  H   UNL     1     -46.223  33.171  25.957  1.00  0.00     0.065 H 
ATOM     33  C   UNL     1     -49.596  33.279  26.208  1.00  0.00     0.051 A 
ATOM     34  H   UNL     1     -50.537  32.771  26.037  1.00  0.00     0.086 H 
BRANCH  31  35
ATOM     35  N   UNL     1     -48.228  31.419  25.329  1.00  0.00    -0.299 N 
ATOM     36  C   UNL     1     -48.867  30.285  25.807  1.00  0.00     0.021 A 
ATOM     37  C   UNL     1     -47.464  31.024  24.233  1.00  0.00     0.150 A 
ATOM     38  C   UNL     1     -48.489  29.184  25.070  1.00  0.00     0.031 A 
ATOM     39  H   UNL     1     -49.465  30.340  26.701  1.00  0.00     0.083 H 
ATOM     40  C   UNL     1     -47.650  29.656  24.016  1.00  0.00     0.071 A 
ATOM     41  N   UNL     1     -46.703  31.835  23.472  1.00  0.00    -0.218 NA
ATOM     42  C   UNL     1     -47.035  29.128  22.863  1.00  0.00     0.137 A 
ATOM     43  C   UNL     1     -46.119  31.203  22.450  1.00  0.00     0.120 A 
ATOM     44  N   UNL     1     -46.255  29.919  22.104  1.00  0.00    -0.219 NA
ATOM     45  H   UNL     1     -45.472  31.804  21.819  1.00  0.00     0.106 H 
BRANCH  38  46
ATOM     46  C   UNL     1     -48.912  27.718  25.441  1.00  0.00     0.070 A 
ATOM     47  C   UNL     1     -48.484  26.999  26.539  1.00  0.00    -0.016 A 
ATOM     48  N   UNL     1     -49.814  26.894  24.808  1.00  0.00    -0.268 N 
ATOM     49  C   UNL     1     -49.165  25.774  26.476  1.00  0.00     0.050 A 
ATOM     50  H   UNL     1     -47.821  27.321  27.328  1.00  0.00     0.066 H 
ATOM     51  N   UNL     1     -49.969  25.699  25.416  1.00  0.00    -0.181 NA
ATOM     52  H   UNL     1     -49.119  24.938  27.163  1.00  0.00     0.086 H 
BRANCH  48  53
ATOM     53  C   UNL     1     -50.515  27.111  23.565  1.00  0.00     0.030 C 
ATOM     54  H   UNL     1     -51.434  27.661  23.781  1.00  0.00     0.048 H 
ATOM     55  H   UNL     1     -50.765  26.146  23.114  1.00  0.00     0.048 H 
ATOM     56  H   UNL     1     -49.869  27.663  22.880  1.00  0.00     0.048 H 
ENDBRANCH  48  53
ENDBRANCH  38  46
BRANCH  42  57
ATOM     57  N   UNL     1     -47.237  27.846  22.365  1.00  0.00    -0.383 N 
ATOM     58  H   UNL     1     -46.406  27.551  21.863  1.00  0.00     0.158 HD
ATOM     59  H   UNL     1     -48.100  27.759  21.842  1.00  0.00     0.158 HD
ENDBRANCH  42  57
ENDBRANCH  31  35
ENDBRANCH   1  26
TORSDOF 9
ENDMDL
