MODEL 1
REMARK VINA RESULT:      -9.4      0.000      0.000
REMARK SMILES CCc1cc(NCCOC)c2c(F)cc(CCc3cncc(-n4cc(-c5ccn(C)n5)c5c(N)ncnc54)c3)cc2n1
REMARK SMILES IDX 3 1 4 2 5 3 11 4 12 5 13 6 14 7 15 8 40 9 41 10 42 11 2 15
REMARK SMILES IDX 1 18 6 22 7 24 8 27 9 30 10 31 16 35 17 38 18 41 19 42 39 43
REMARK SMILES IDX 20 44 22 46 21 48 23 50 24 51 38 52 25 53 32 55 37 56 33 57
REMARK SMILES IDX 36 58 35 59 26 61 27 62 31 63 28 64 29 66 30 68 34 72
REMARK H PARENT 4 12 14 13 40 14 2 16 2 17 1 19 1 20 1 21 6 23 7 25 7 26 8 28
REMARK H PARENT 8 29 10 32 10 33 10 34 16 36 16 37 17 39 17 40 19 45 39 47
REMARK H PARENT 21 49 24 54 36 60 27 65 28 67 30 69 30 70 30 71 34 73 34 74
REMARK Flexibility Score: inf
ROOT
ATOM      1  C   UNL     1     -43.349  39.884  29.176  1.00  0.00     0.043 A 
ATOM      2  C   UNL     1     -43.534  40.769  28.122  1.00  0.00    -0.017 A 
ATOM      3  C   UNL     1     -44.654  40.641  27.296  1.00  0.00     0.048 A 
ATOM      4  C   UNL     1     -45.549  39.562  27.549  1.00  0.00     0.059 A 
ATOM      5  C   UNL     1     -46.708  39.282  26.789  1.00  0.00     0.134 A 
ATOM      6  F   UNL     1     -47.040  40.064  25.748  1.00  0.00    -0.206 F 
ATOM      7  C   UNL     1     -47.559  38.219  27.083  1.00  0.00    -0.022 A 
ATOM      8  C   UNL     1     -47.278  37.391  28.165  1.00  0.00    -0.043 A 
ATOM      9  C   UNL     1     -46.135  37.665  28.931  1.00  0.00    -0.032 A 
ATOM     10  C   UNL     1     -45.274  38.719  28.645  1.00  0.00     0.076 A 
ATOM     11  N   UNL     1     -44.209  38.879  29.440  1.00  0.00    -0.253 NA
ATOM     12  H   UNL     1     -42.795  41.542  27.954  1.00  0.00     0.066 H 
ATOM     13  H   UNL     1     -48.433  38.058  26.460  1.00  0.00     0.066 H 
ATOM     14  H   UNL     1     -45.900  37.039  29.791  1.00  0.00     0.065 H 
ENDROOT
BRANCH   1  15
ATOM     15  C   UNL     1     -42.168  40.029  30.099  1.00  0.00    -0.013 C 
ATOM     16  H   UNL     1     -41.496  39.170  29.985  1.00  0.00     0.033 H 
ATOM     17  H   UNL     1     -42.518  40.016  31.139  1.00  0.00     0.033 H 
BRANCH  15  18
ATOM     18  C   UNL     1     -41.411  41.323  29.840  1.00  0.00    -0.060 C 
ATOM     19  H   UNL     1     -40.334  41.159  29.941  1.00  0.00     0.023 H 
ATOM     20  H   UNL     1     -41.602  41.699  28.828  1.00  0.00     0.023 H 
ATOM     21  H   UNL     1     -41.705  42.103  30.549  1.00  0.00     0.023 H 
ENDBRANCH  15  18
ENDBRANCH   1  15
BRANCH   3  22
ATOM     22  N   UNL     1     -44.830  41.466  26.171  1.00  0.00    -0.382 N 
ATOM     23  H   UNL     1     -45.720  41.286  25.703  1.00  0.00     0.160 HD
BRANCH  22  24
ATOM     24  C   UNL     1     -44.505  42.891  26.222  1.00  0.00     0.038 C 
ATOM     25  H   UNL     1     -44.546  43.287  27.242  1.00  0.00     0.051 H 
ATOM     26  H   UNL     1     -45.282  43.443  25.677  1.00  0.00     0.051 H 
BRANCH  24  27
ATOM     27  C   UNL     1     -43.159  43.178  25.546  1.00  0.00     0.063 C 
ATOM     28  H   UNL     1     -42.952  42.386  24.816  1.00  0.00     0.059 H 
ATOM     29  H   UNL     1     -42.326  43.168  26.260  1.00  0.00     0.059 H 
BRANCH  27  30
ATOM     30  O   UNL     1     -43.179  44.412  24.823  1.00  0.00    -0.383 OA
BRANCH  30  31
ATOM     31  C   UNL     1     -44.465  44.731  24.308  1.00  0.00     0.036 C 
ATOM     32  H   UNL     1     -44.677  44.161  23.399  1.00  0.00     0.053 H 
ATOM     33  H   UNL     1     -45.237  44.539  25.060  1.00  0.00     0.053 H 
ATOM     34  H   UNL     1     -44.481  45.795  24.060  1.00  0.00     0.053 H 
ENDBRANCH  30  31
ENDBRANCH  27  30
ENDBRANCH  24  27
ENDBRANCH  22  24
ENDBRANCH   3  22
BRANCH   8  35
ATOM     35  C   UNL     1     -48.190  36.245  28.526  1.00  0.00    -0.024 C 
ATOM     36  H   UNL     1     -47.585  35.459  28.995  1.00  0.00     0.032 H 
ATOM     37  H   UNL     1     -48.904  36.566  29.296  1.00  0.00     0.032 H 
BRANCH  35  38
ATOM     38  C   UNL     1     -48.933  35.650  27.322  1.00  0.00    -0.022 C 
ATOM     39  H   UNL     1     -49.202  36.461  26.633  1.00  0.00     0.032 H 
ATOM     40  H   UNL     1     -49.883  35.207  27.645  1.00  0.00     0.032 H 
BRANCH  38  41
ATOM     41  C   UNL     1     -48.128  34.633  26.555  1.00  0.00    -0.027 A 
ATOM     42  C   UNL     1     -46.822  34.899  26.170  1.00  0.00     0.030 A 
ATOM     43  C   UNL     1     -48.669  33.391  26.195  1.00  0.00    -0.032 A 
ATOM     44  N   UNL     1     -46.050  34.033  25.485  1.00  0.00    -0.262 NA
ATOM     45  H   UNL     1     -46.340  35.845  26.405  1.00  0.00     0.084 H 
ATOM     46  C   UNL     1     -47.902  32.463  25.474  1.00  0.00     0.066 A 
ATOM     47  H   UNL     1     -49.684  33.172  26.511  1.00  0.00     0.065 H 
ATOM     48  C   UNL     1     -46.604  32.839  25.150  1.00  0.00     0.051 A 
ATOM     49  H   UNL     1     -45.927  32.218  24.577  1.00  0.00     0.086 H 
BRANCH  46  50
ATOM     50  N   UNL     1     -48.444  31.195  25.085  1.00  0.00    -0.299 N 
ATOM     51  C   UNL     1     -48.308  30.021  25.809  1.00  0.00     0.021 A 
ATOM     52  C   UNL     1     -49.188  30.891  23.944  1.00  0.00     0.150 A 
ATOM     53  C   UNL     1     -48.953  28.994  25.151  1.00  0.00     0.033 A 
ATOM     54  H   UNL     1     -47.773  29.993  26.745  1.00  0.00     0.083 H 
ATOM     55  C   UNL     1     -49.531  29.539  23.971  1.00  0.00     0.071 A 
ATOM     56  N   UNL     1     -49.511  31.750  22.957  1.00  0.00    -0.218 NA
ATOM     57  C   UNL     1     -50.312  29.067  22.899  1.00  0.00     0.137 A 
ATOM     58  C   UNL     1     -50.227  31.179  21.981  1.00  0.00     0.120 A 
ATOM     59  N   UNL     1     -50.636  29.907  21.899  1.00  0.00    -0.219 NA
ATOM     60  H   UNL     1     -50.513  31.825  21.156  1.00  0.00     0.106 H 
BRANCH  53  61
ATOM     61  C   UNL     1     -49.013  27.597  25.591  1.00  0.00     0.095 A 
ATOM     62  C   UNL     1     -50.209  26.876  25.809  1.00  0.00    -0.016 A 
ATOM     63  N   UNL     1     -47.931  26.854  25.865  1.00  0.00    -0.173 NA
ATOM     64  C   UNL     1     -49.804  25.629  26.224  1.00  0.00     0.025 A 
ATOM     65  H   UNL     1     -51.227  27.212  25.673  1.00  0.00     0.066 H 
ATOM     66  N   UNL     1     -48.443  25.665  26.239  1.00  0.00    -0.275 N 
ATOM     67  H   UNL     1     -50.361  24.744  26.499  1.00  0.00     0.084 H 
BRANCH  66  68
ATOM     68  C   UNL     1     -47.550  24.590  26.599  1.00  0.00     0.030 C 
ATOM     69  H   UNL     1     -46.603  24.739  26.075  1.00  0.00     0.048 H 
ATOM     70  H   UNL     1     -48.010  23.645  26.300  1.00  0.00     0.048 H 
ATOM     71  H   UNL     1     -47.385  24.600  27.679  1.00  0.00     0.048 H 
ENDBRANCH  66  68
ENDBRANCH  53  61
BRANCH  57  72
ATOM     72  N   UNL     1     -50.779  27.766  22.790  1.00  0.00    -0.383 N 
ATOM     73  H   UNL     1     -51.736  27.742  22.467  1.00  0.00     0.158 HD
ATOM     74  H   UNL     1     -50.115  27.149  22.311  1.00  0.00     0.158 HD
ENDBRANCH  57  72
ENDBRANCH  46  50
ENDBRANCH  38  41
ENDBRANCH  35  38
ENDBRANCH   8  35
TORSDOF 14
ENDMDL
MODEL 2
REMARK VINA RESULT:      -8.9      3.620     12.426
REMARK SMILES CCc1cc(NCCOC)c2c(F)cc(CCc3cncc(-n4cc(-c5ccn(C)n5)c5c(N)ncnc54)c3)cc2n1
REMARK SMILES IDX 3 1 4 2 5 3 11 4 12 5 13 6 14 7 15 8 40 9 41 10 42 11 2 15
REMARK SMILES IDX 1 18 6 22 7 24 8 27 9 30 10 31 16 35 17 38 18 41 19 42 39 43
REMARK SMILES IDX 20 44 22 46 21 48 23 50 24 51 38 52 25 53 32 55 37 56 33 57
REMARK SMILES IDX 36 58 35 59 26 61 27 62 31 63 28 64 29 66 30 68 34 72
REMARK H PARENT 4 12 14 13 40 14 2 16 2 17 1 19 1 20 1 21 6 23 7 25 7 26 8 28
REMARK H PARENT 8 29 10 32 10 33 10 34 16 36 16 37 17 39 17 40 19 45 39 47
REMARK H PARENT 21 49 24 54 36 60 27 65 28 67 30 69 30 70 30 71 34 73 34 74
REMARK Flexibility Score: inf
ROOT
ATOM      1  C   UNL     1     -49.052  28.483  25.175  1.00  0.00     0.043 A 
ATOM      2  C   UNL     1     -48.829  28.230  23.828  1.00  0.00    -0.017 A 
ATOM      3  C   UNL     1     -48.102  29.144  23.060  1.00  0.00     0.048 A 
ATOM      4  C   UNL     1     -47.651  30.337  23.693  1.00  0.00     0.059 A 
ATOM      5  C   UNL     1     -46.931  31.368  23.048  1.00  0.00     0.134 A 
ATOM      6  F   UNL     1     -46.612  31.260  21.747  1.00  0.00    -0.206 F 
ATOM      7  C   UNL     1     -46.502  32.514  23.715  1.00  0.00    -0.022 A 
ATOM      8  C   UNL     1     -46.781  32.667  25.069  1.00  0.00    -0.043 A 
ATOM      9  C   UNL     1     -47.489  31.647  25.720  1.00  0.00    -0.032 A 
ATOM     10  C   UNL     1     -47.927  30.501  25.066  1.00  0.00     0.076 A 
ATOM     11  N   UNL     1     -48.602  29.597  25.788  1.00  0.00    -0.253 NA
ATOM     12  H   UNL     1     -49.234  27.324  23.393  1.00  0.00     0.066 H 
ATOM     13  H   UNL     1     -45.952  33.269  23.161  1.00  0.00     0.066 H 
ATOM     14  H   UNL     1     -47.709  31.738  26.784  1.00  0.00     0.065 H 
ENDROOT
BRANCH   1  15
ATOM     15  C   UNL     1     -49.801  27.493  26.026  1.00  0.00    -0.013 C 
ATOM     16  H   UNL     1     -50.519  28.018  26.666  1.00  0.00     0.033 H 
ATOM     17  H   UNL     1     -49.096  26.988  26.698  1.00  0.00     0.033 H 
BRANCH  15  18
ATOM     18  C   UNL     1     -50.518  26.455  25.177  1.00  0.00    -0.060 C 
ATOM     19  H   UNL     1     -51.301  25.963  25.761  1.00  0.00     0.023 H 
ATOM     20  H   UNL     1     -50.989  26.915  24.301  1.00  0.00     0.023 H 
ATOM     21  H   UNL     1     -49.825  25.686  24.821  1.00  0.00     0.023 H 
ENDBRANCH  15  18
ENDBRANCH   1  15
BRANCH   3  22
ATOM     22  N   UNL     1     -47.928  28.959  21.676  1.00  0.00    -0.382 N 
ATOM     23  H   UNL     1     -47.287  28.190  21.473  1.00  0.00     0.160 HD
BRANCH  22  24
ATOM     24  C   UNL     1     -49.068  28.992  20.761  1.00  0.00     0.038 C 
ATOM     25  H   UNL     1     -50.015  28.799  21.275  1.00  0.00     0.051 H 
ATOM     26  H   UNL     1     -48.964  28.163  20.049  1.00  0.00     0.051 H 
BRANCH  24  27
ATOM     27  C   UNL     1     -49.101  30.300  19.962  1.00  0.00     0.063 C 
ATOM     28  H   UNL     1     -48.959  30.071  18.899  1.00  0.00     0.059 H 
ATOM     29  H   UNL     1     -48.288  30.980  20.245  1.00  0.00     0.059 H 
BRANCH  27  30
ATOM     30  O   UNL     1     -50.365  30.961  20.077  1.00  0.00    -0.383 OA
BRANCH  30  31
ATOM     31  C   UNL     1     -51.074  30.599  21.254  1.00  0.00     0.036 C 
ATOM     32  H   UNL     1     -51.282  29.526  21.274  1.00  0.00     0.053 H 
ATOM     33  H   UNL     1     -50.509  30.889  22.146  1.00  0.00     0.053 H 
ATOM     34  H   UNL     1     -52.027  31.136  21.259  1.00  0.00     0.053 H 
ENDBRANCH  30  31
ENDBRANCH  27  30
ENDBRANCH  24  27
ENDBRANCH  22  24
ENDBRANCH   3  22
BRANCH   8  35
ATOM     35  C   UNL     1     -46.313  33.885  25.827  1.00  0.00    -0.024 C 
ATOM     36  H   UNL     1     -45.599  33.559  26.594  1.00  0.00     0.032 H 
ATOM     37  H   UNL     1     -45.746  34.545  25.157  1.00  0.00     0.032 H 
BRANCH  35  38
ATOM     38  C   UNL     1     -47.452  34.660  26.505  1.00  0.00    -0.022 C 
ATOM     39  H   UNL     1     -48.018  33.972  27.146  1.00  0.00     0.032 H 
ATOM     40  H   UNL     1     -48.164  35.020  25.752  1.00  0.00     0.032 H 
BRANCH  38  41
ATOM     41  C   UNL     1     -46.980  35.811  27.355  1.00  0.00    -0.027 A 
ATOM     42  C   UNL     1     -46.744  35.647  28.712  1.00  0.00     0.030 A 
ATOM     43  C   UNL     1     -46.772  37.086  26.810  1.00  0.00    -0.032 A 
ATOM     44  N   UNL     1     -46.321  36.635  29.525  1.00  0.00    -0.262 NA
ATOM     45  H   UNL     1     -46.893  34.690  29.205  1.00  0.00     0.084 H 
ATOM     46  C   UNL     1     -46.340  38.145  27.623  1.00  0.00     0.066 A 
ATOM     47  H   UNL     1     -46.938  37.213  25.745  1.00  0.00     0.065 H 
ATOM     48  C   UNL     1     -46.131  37.858  28.967  1.00  0.00     0.051 A 
ATOM     49  H   UNL     1     -45.821  38.599  29.695  1.00  0.00     0.086 H 
BRANCH  46  50
ATOM     50  N   UNL     1     -46.138  39.458  27.087  1.00  0.00    -0.299 N 
ATOM     51  C   UNL     1     -44.922  39.950  26.638  1.00  0.00     0.021 A 
ATOM     52  C   UNL     1     -47.081  40.471  26.915  1.00  0.00     0.150 A 
ATOM     53  C   UNL     1     -45.085  41.243  26.185  1.00  0.00     0.033 A 
ATOM     54  H   UNL     1     -44.027  39.349  26.660  1.00  0.00     0.083 H 
ATOM     55  C   UNL     1     -46.458  41.580  26.340  1.00  0.00     0.071 A 
ATOM     56  N   UNL     1     -48.382  40.411  27.264  1.00  0.00    -0.218 NA
ATOM     57  C   UNL     1     -47.278  42.693  26.072  1.00  0.00     0.137 A 
ATOM     58  C   UNL     1     -49.050  41.537  26.986  1.00  0.00     0.120 A 
ATOM     59  N   UNL     1     -48.577  42.655  26.421  1.00  0.00    -0.219 NA
ATOM     60  H   UNL     1     -50.104  41.546  27.249  1.00  0.00     0.106 H 
BRANCH  53  61
ATOM     61  C   UNL     1     -44.026  42.106  25.654  1.00  0.00     0.095 A 
ATOM     62  C   UNL     1     -42.885  42.514  26.382  1.00  0.00    -0.016 A 
ATOM     63  N   UNL     1     -44.038  42.631  24.421  1.00  0.00    -0.173 NA
ATOM     64  C   UNL     1     -42.178  43.316  25.518  1.00  0.00     0.025 A 
ATOM     65  H   UNL     1     -42.607  42.253  27.393  1.00  0.00     0.066 H 
ATOM     66  N   UNL     1     -42.902  43.353  24.365  1.00  0.00    -0.275 N 
ATOM     67  H   UNL     1     -41.242  43.847  25.628  1.00  0.00     0.084 H 
BRANCH  66  68
ATOM     68  C   UNL     1     -42.570  44.061  23.153  1.00  0.00     0.030 C 
ATOM     69  H   UNL     1     -43.129  43.612  22.328  1.00  0.00     0.048 H 
ATOM     70  H   UNL     1     -41.495  43.968  22.983  1.00  0.00     0.048 H 
ATOM     71  H   UNL     1     -42.842  45.114  23.259  1.00  0.00     0.048 H 
ENDBRANCH  66  68
ENDBRANCH  53  61
BRANCH  57  72
ATOM     72  N   UNL     1     -46.835  43.857  25.463  1.00  0.00    -0.383 N 
ATOM     73  H   UNL     1     -46.739  44.610  26.130  1.00  0.00     0.158 HD
ATOM     74  H   UNL     1     -46.044  43.695  24.833  1.00  0.00     0.158 HD
ENDBRANCH  57  72
ENDBRANCH  46  50
ENDBRANCH  38  41
ENDBRANCH  35  38
ENDBRANCH   8  35
TORSDOF 14
ENDMDL
MODEL 3
REMARK VINA RESULT:      -8.7      3.749     12.485
REMARK SMILES CCc1cc(NCCOC)c2c(F)cc(CCc3cncc(-n4cc(-c5ccn(C)n5)c5c(N)ncnc54)c3)cc2n1
REMARK SMILES IDX 3 1 4 2 5 3 11 4 12 5 13 6 14 7 15 8 40 9 41 10 42 11 2 15
REMARK SMILES IDX 1 18 6 22 7 24 8 27 9 30 10 31 16 35 17 38 18 41 19 42 39 43
REMARK SMILES IDX 20 44 22 46 21 48 23 50 24 51 38 52 25 53 32 55 37 56 33 57
REMARK SMILES IDX 36 58 35 59 26 61 27 62 31 63 28 64 29 66 30 68 34 72
REMARK H PARENT 4 12 14 13 40 14 2 16 2 17 1 19 1 20 1 21 6 23 7 25 7 26 8 28
REMARK H PARENT 8 29 10 32 10 33 10 34 16 36 16 37 17 39 17 40 19 45 39 47
REMARK H PARENT 21 49 24 54 36 60 27 65 28 67 30 69 30 70 30 71 34 73 34 74
REMARK Flexibility Score: inf
ROOT
ATOM      1  C   UNL     1     -46.814  31.002  23.023  1.00  0.00     0.043 A 
ATOM      2  C   UNL     1     -48.183  30.812  23.144  1.00  0.00    -0.017 A 
ATOM      3  C   UNL     1     -48.907  31.550  24.085  1.00  0.00     0.048 A 
ATOM      4  C   UNL     1     -48.188  32.450  24.923  1.00  0.00     0.059 A 
ATOM      5  C   UNL     1     -48.769  33.244  25.938  1.00  0.00     0.134 A 
ATOM      6  F   UNL     1     -50.093  33.193  26.163  1.00  0.00    -0.206 F 
ATOM      7  C   UNL     1     -48.023  34.118  26.726  1.00  0.00    -0.022 A 
ATOM      8  C   UNL     1     -46.652  34.231  26.520  1.00  0.00    -0.043 A 
ATOM      9  C   UNL     1     -46.067  33.453  25.511  1.00  0.00    -0.032 A 
ATOM     10  C   UNL     1     -46.799  32.573  24.721  1.00  0.00     0.076 A 
ATOM     11  N   UNL     1     -46.131  31.875  23.793  1.00  0.00    -0.253 NA
ATOM     12  H   UNL     1     -48.667  30.081  22.508  1.00  0.00     0.066 H 
ATOM     13  H   UNL     1     -48.531  34.701  27.489  1.00  0.00     0.066 H 
ATOM     14  H   UNL     1     -44.996  33.532  25.321  1.00  0.00     0.065 H 
ENDROOT
BRANCH   1  15
ATOM     15  C   UNL     1     -46.023  30.242  21.991  1.00  0.00    -0.013 C 
ATOM     16  H   UNL     1     -46.570  29.341  21.690  1.00  0.00     0.033 H 
ATOM     17  H   UNL     1     -45.081  29.901  22.437  1.00  0.00     0.033 H 
BRANCH  15  18
ATOM     18  C   UNL     1     -45.721  31.102  20.774  1.00  0.00    -0.060 C 
ATOM     19  H   UNL     1     -45.233  30.504  19.999  1.00  0.00     0.023 H 
ATOM     20  H   UNL     1     -46.639  31.524  20.347  1.00  0.00     0.023 H 
ATOM     21  H   UNL     1     -45.057  31.934  21.031  1.00  0.00     0.023 H 
ENDBRANCH  15  18
ENDBRANCH   1  15
BRANCH   3  22
ATOM     22  N   UNL     1     -50.280  31.324  24.292  1.00  0.00    -0.382 N 
ATOM     23  H   UNL     1     -50.843  32.132  24.021  1.00  0.00     0.160 HD
BRANCH  22  24
ATOM     24  C   UNL     1     -50.903  30.057  23.909  1.00  0.00     0.038 C 
ATOM     25  H   UNL     1     -51.146  29.438  24.778  1.00  0.00     0.051 H 
ATOM     26  H   UNL     1     -50.170  29.467  23.343  1.00  0.00     0.051 H 
BRANCH  24  27
ATOM     27  C   UNL     1     -52.122  30.289  23.007  1.00  0.00     0.063 C 
ATOM     28  H   UNL     1     -52.732  31.093  23.435  1.00  0.00     0.059 H 
ATOM     29  H   UNL     1     -52.768  29.404  22.948  1.00  0.00     0.059 H 
BRANCH  27  30
ATOM     30  O   UNL     1     -51.739  30.714  21.695  1.00  0.00    -0.383 OA
BRANCH  30  31
ATOM     31  C   UNL     1     -52.313  31.961  21.328  1.00  0.00     0.036 C 
ATOM     32  H   UNL     1     -51.928  32.771  21.953  1.00  0.00     0.053 H 
ATOM     33  H   UNL     1     -52.119  32.176  20.273  1.00  0.00     0.053 H 
ATOM     34  H   UNL     1     -53.395  31.897  21.474  1.00  0.00     0.053 H 
ENDBRANCH  30  31
ENDBRANCH  27  30
ENDBRANCH  24  27
ENDBRANCH  22  24
ENDBRANCH   3  22
BRANCH   8  35
ATOM     35  C   UNL     1     -45.818  35.184  27.339  1.00  0.00    -0.024 C 
ATOM     36  H   UNL     1     -44.967  34.628  27.752  1.00  0.00     0.032 H 
ATOM     37  H   UNL     1     -45.380  35.951  26.686  1.00  0.00     0.032 H 
BRANCH  35  38
ATOM     38  C   UNL     1     -46.591  35.841  28.492  1.00  0.00    -0.022 C 
ATOM     39  H   UNL     1     -45.944  35.878  29.378  1.00  0.00     0.032 H 
ATOM     40  H   UNL     1     -47.448  35.217  28.776  1.00  0.00     0.032 H 
BRANCH  38  41
ATOM     41  C   UNL     1     -47.054  37.242  28.189  1.00  0.00    -0.027 A 
ATOM     42  C   UNL     1     -48.387  37.600  28.335  1.00  0.00     0.030 A 
ATOM     43  C   UNL     1     -46.164  38.227  27.743  1.00  0.00    -0.032 A 
ATOM     44  N   UNL     1     -48.865  38.834  28.082  1.00  0.00    -0.262 NA
ATOM     45  H   UNL     1     -49.136  36.886  28.667  1.00  0.00     0.084 H 
ATOM     46  C   UNL     1     -46.620  39.524  27.459  1.00  0.00     0.066 A 
ATOM     47  H   UNL     1     -45.117  37.956  27.646  1.00  0.00     0.065 H 
ATOM     48  C   UNL     1     -47.976  39.766  27.649  1.00  0.00     0.051 A 
ATOM     49  H   UNL     1     -48.448  40.719  27.442  1.00  0.00     0.086 H 
BRANCH  46  50
ATOM     50  N   UNL     1     -45.728  40.540  26.988  1.00  0.00    -0.299 N 
ATOM     51  C   UNL     1     -45.968  41.359  25.896  1.00  0.00     0.021 A 
ATOM     52  C   UNL     1     -44.483  40.899  27.506  1.00  0.00     0.150 A 
ATOM     53  C   UNL     1     -44.906  42.224  25.724  1.00  0.00     0.033 A 
ATOM     54  H   UNL     1     -46.877  41.282  25.321  1.00  0.00     0.083 H 
ATOM     55  C   UNL     1     -43.963  41.952  26.753  1.00  0.00     0.071 A 
ATOM     56  N   UNL     1     -43.862  40.316  28.551  1.00  0.00    -0.218 NA
ATOM     57  C   UNL     1     -42.714  42.459  27.159  1.00  0.00     0.137 A 
ATOM     58  C   UNL     1     -42.671  40.864  28.823  1.00  0.00     0.120 A 
ATOM     59  N   UNL     1     -42.074  41.884  28.195  1.00  0.00    -0.219 NA
ATOM     60  H   UNL     1     -42.124  40.432  29.656  1.00  0.00     0.106 H 
BRANCH  53  61
ATOM     61  C   UNL     1     -44.780  43.227  24.663  1.00  0.00     0.095 A 
ATOM     62  C   UNL     1     -43.891  43.128  23.569  1.00  0.00    -0.016 A 
ATOM     63  N   UNL     1     -45.479  44.371  24.629  1.00  0.00    -0.173 NA
ATOM     64  C   UNL     1     -44.089  44.278  22.841  1.00  0.00     0.025 A 
ATOM     65  H   UNL     1     -43.206  42.327  23.333  1.00  0.00     0.066 H 
ATOM     66  N   UNL     1     -45.044  44.982  23.511  1.00  0.00    -0.275 N 
ATOM     67  H   UNL     1     -43.642  44.640  21.926  1.00  0.00     0.084 H 
BRANCH  66  68
ATOM     68  C   UNL     1     -45.601  46.260  23.139  1.00  0.00     0.030 C 
ATOM     69  H   UNL     1     -46.690  46.195  23.210  1.00  0.00     0.048 H 
ATOM     70  H   UNL     1     -45.297  46.483  22.113  1.00  0.00     0.048 H 
ATOM     71  H   UNL     1     -45.228  47.032  23.816  1.00  0.00     0.048 H 
ENDBRANCH  66  68
ENDBRANCH  53  61
BRANCH  57  72
ATOM     72  N   UNL     1     -42.074  43.530  26.555  1.00  0.00    -0.383 N 
ATOM     73  H   UNL     1     -42.423  44.413  26.898  1.00  0.00     0.158 HD
ATOM     74  H   UNL     1     -41.056  43.415  26.529  1.00  0.00     0.158 HD
ENDBRANCH  57  72
ENDBRANCH  46  50
ENDBRANCH  38  41
ENDBRANCH  35  38
ENDBRANCH   8  35
TORSDOF 14
ENDMDL
MODEL 4
REMARK VINA RESULT:      -8.6      3.758     12.277
REMARK SMILES CCc1cc(NCCOC)c2c(F)cc(CCc3cncc(-n4cc(-c5ccn(C)n5)c5c(N)ncnc54)c3)cc2n1
REMARK SMILES IDX 3 1 4 2 5 3 11 4 12 5 13 6 14 7 15 8 40 9 41 10 42 11 2 15
REMARK SMILES IDX 1 18 6 22 7 24 8 27 9 30 10 31 16 35 17 38 18 41 19 42 39 43
REMARK SMILES IDX 20 44 22 46 21 48 23 50 24 51 38 52 25 53 32 55 37 56 33 57
REMARK SMILES IDX 36 58 35 59 26 61 27 62 31 63 28 64 29 66 30 68 34 72
REMARK H PARENT 4 12 14 13 40 14 2 16 2 17 1 19 1 20 1 21 6 23 7 25 7 26 8 28
REMARK H PARENT 8 29 10 32 10 33 10 34 16 36 16 37 17 39 17 40 19 45 39 47
REMARK H PARENT 21 49 24 54 36 60 27 65 28 67 30 69 30 70 30 71 34 73 34 74
REMARK Flexibility Score: inf
ROOT
ATOM      1  C   UNL     1     -46.326  29.514  23.071  1.00  0.00     0.043 A 
ATOM      2  C   UNL     1     -47.654  29.108  23.098  1.00  0.00    -0.017 A 
ATOM      3  C   UNL     1     -48.617  29.922  23.701  1.00  0.00     0.048 A 
ATOM      4  C   UNL     1     -48.180  31.133  24.310  1.00  0.00     0.059 A 
ATOM      5  C   UNL     1     -49.024  32.047  24.982  1.00  0.00     0.134 A 
ATOM      6  F   UNL     1     -50.344  31.809  25.071  1.00  0.00    -0.206 F 
ATOM      7  C   UNL     1     -48.550  33.225  25.553  1.00  0.00    -0.022 A 
ATOM      8  C   UNL     1     -47.196  33.536  25.468  1.00  0.00    -0.043 A 
ATOM      9  C   UNL     1     -46.351  32.639  24.798  1.00  0.00    -0.032 A 
ATOM     10  C   UNL     1     -46.811  31.457  24.227  1.00  0.00     0.076 A 
ATOM     11  N   UNL     1     -45.910  30.674  23.619  1.00  0.00    -0.253 NA
ATOM     12  H   UNL     1     -47.917  28.155  22.656  1.00  0.00     0.066 H 
ATOM     13  H   UNL     1     -49.251  33.885  26.055  1.00  0.00     0.066 H 
ATOM     14  H   UNL     1     -45.289  32.865  24.706  1.00  0.00     0.065 H 
ENDROOT
BRANCH   1  15
ATOM     15  C   UNL     1     -45.281  28.668  22.394  1.00  0.00    -0.013 C 
ATOM     16  H   UNL     1     -44.361  29.248  22.257  1.00  0.00     0.033 H 
ATOM     17  H   UNL     1     -45.631  28.396  21.390  1.00  0.00     0.033 H 
BRANCH  15  18
ATOM     18  C   UNL     1     -44.988  27.402  23.185  1.00  0.00    -0.060 C 
ATOM     19  H   UNL     1     -44.763  26.574  22.506  1.00  0.00     0.023 H 
ATOM     20  H   UNL     1     -44.127  27.538  23.849  1.00  0.00     0.023 H 
ATOM     21  H   UNL     1     -45.845  27.113  23.802  1.00  0.00     0.023 H 
ENDBRANCH  15  18
ENDBRANCH   1  15
BRANCH   3  22
ATOM     22  N   UNL     1     -49.955  29.505  23.820  1.00  0.00    -0.382 N 
ATOM     23  H   UNL     1     -50.434  29.978  24.589  1.00  0.00     0.160 HD
BRANCH  22  24
ATOM     24  C   UNL     1     -50.807  29.355  22.641  1.00  0.00     0.038 C 
ATOM     25  H   UNL     1     -51.039  28.306  22.430  1.00  0.00     0.051 H 
ATOM     26  H   UNL     1     -50.246  29.698  21.761  1.00  0.00     0.051 H 
BRANCH  24  27
ATOM     27  C   UNL     1     -52.073  30.213  22.758  1.00  0.00     0.063 C 
ATOM     28  H   UNL     1     -52.110  30.655  23.761  1.00  0.00     0.059 H 
ATOM     29  H   UNL     1     -52.988  29.619  22.645  1.00  0.00     0.059 H 
BRANCH  27  30
ATOM     30  O   UNL     1     -52.067  31.300  21.828  1.00  0.00    -0.383 OA
BRANCH  30  31
ATOM     31  C   UNL     1     -51.973  30.871  20.476  1.00  0.00     0.036 C 
ATOM     32  H   UNL     1     -51.268  31.489  19.915  1.00  0.00     0.053 H 
ATOM     33  H   UNL     1     -51.672  29.820  20.428  1.00  0.00     0.053 H 
ATOM     34  H   UNL     1     -52.961  30.969  20.017  1.00  0.00     0.053 H 
ENDBRANCH  30  31
ENDBRANCH  27  30
ENDBRANCH  24  27
ENDBRANCH  22  24
ENDBRANCH   3  22
BRANCH   8  35
ATOM     35  C   UNL     1     -46.652  34.814  26.056  1.00  0.00    -0.024 C 
ATOM     36  H   UNL     1     -45.777  35.117  25.468  1.00  0.00     0.032 H 
ATOM     37  H   UNL     1     -47.385  35.622  25.933  1.00  0.00     0.032 H 
BRANCH  35  38
ATOM     38  C   UNL     1     -46.241  34.684  27.530  1.00  0.00    -0.022 C 
ATOM     39  H   UNL     1     -45.284  34.150  27.587  1.00  0.00     0.032 H 
ATOM     40  H   UNL     1     -46.963  34.059  28.070  1.00  0.00     0.032 H 
BRANCH  38  41
ATOM     41  C   UNL     1     -46.082  36.007  28.233  1.00  0.00    -0.027 A 
ATOM     42  C   UNL     1     -46.061  36.081  29.618  1.00  0.00     0.030 A 
ATOM     43  C   UNL     1     -45.962  37.206  27.518  1.00  0.00    -0.032 A 
ATOM     44  N   UNL     1     -45.922  37.231  30.307  1.00  0.00    -0.262 NA
ATOM     45  H   UNL     1     -46.160  35.193  30.238  1.00  0.00     0.084 H 
ATOM     46  C   UNL     1     -45.823  38.428  28.195  1.00  0.00     0.066 A 
ATOM     47  H   UNL     1     -45.959  37.150  26.434  1.00  0.00     0.065 H 
ATOM     48  C   UNL     1     -45.808  38.376  29.585  1.00  0.00     0.051 A 
ATOM     49  H   UNL     1     -45.731  39.254  30.215  1.00  0.00     0.086 H 
BRANCH  46  50
ATOM     50  N   UNL     1     -45.713  39.665  27.482  1.00  0.00    -0.299 N 
ATOM     51  C   UNL     1     -44.534  40.179  26.967  1.00  0.00     0.021 A 
ATOM     52  C   UNL     1     -46.728  40.570  27.170  1.00  0.00     0.150 A 
ATOM     53  C   UNL     1     -44.788  41.381  26.338  1.00  0.00     0.033 A 
ATOM     54  H   UNL     1     -43.596  39.656  27.072  1.00  0.00     0.083 H 
ATOM     55  C   UNL     1     -46.184  41.632  26.446  1.00  0.00     0.071 A 
ATOM     56  N   UNL     1     -48.024  40.462  27.525  1.00  0.00    -0.218 NA
ATOM     57  C   UNL     1     -47.081  42.632  26.025  1.00  0.00     0.137 A 
ATOM     58  C   UNL     1     -48.772  41.485  27.094  1.00  0.00     0.120 A 
ATOM     59  N   UNL     1     -48.377  42.545  26.378  1.00  0.00    -0.219 NA
ATOM     60  H   UNL     1     -49.826  41.451  27.353  1.00  0.00     0.106 H 
BRANCH  53  61
ATOM     61  C   UNL     1     -43.791  42.239  25.692  1.00  0.00     0.095 A 
ATOM     62  C   UNL     1     -42.615  42.713  26.318  1.00  0.00    -0.016 A 
ATOM     63  N   UNL     1     -43.900  42.695  24.436  1.00  0.00    -0.173 NA
ATOM     64  C   UNL     1     -41.990  43.484  25.367  1.00  0.00     0.025 A 
ATOM     65  H   UNL     1     -42.263  42.514  27.320  1.00  0.00     0.066 H 
ATOM     66  N   UNL     1     -42.791  43.440  24.265  1.00  0.00    -0.275 N 
ATOM     67  H   UNL     1     -41.064  44.042  25.384  1.00  0.00     0.084 H 
BRANCH  66  68
ATOM     68  C   UNL     1     -42.560  44.088  22.997  1.00  0.00     0.030 C 
ATOM     69  H   UNL     1     -41.888  43.460  22.407  1.00  0.00     0.048 H 
ATOM     70  H   UNL     1     -42.106  45.064  23.187  1.00  0.00     0.048 H 
ATOM     71  H   UNL     1     -43.510  44.214  22.473  1.00  0.00     0.048 H 
ENDBRANCH  66  68
ENDBRANCH  53  61
BRANCH  57  72
ATOM     72  N   UNL     1     -46.721  43.731  25.261  1.00  0.00    -0.383 N 
ATOM     73  H   UNL     1     -46.384  44.489  25.837  1.00  0.00     0.158 HD
ATOM     74  H   UNL     1     -46.145  43.475  24.452  1.00  0.00     0.158 HD
ENDBRANCH  57  72
ENDBRANCH  46  50
ENDBRANCH  38  41
ENDBRANCH  35  38
ENDBRANCH   8  35
TORSDOF 14
ENDMDL
MODEL 5
REMARK VINA RESULT:      -8.6      3.960     12.735
REMARK SMILES CCc1cc(NCCOC)c2c(F)cc(CCc3cncc(-n4cc(-c5ccn(C)n5)c5c(N)ncnc54)c3)cc2n1
REMARK SMILES IDX 3 1 4 2 5 3 11 4 12 5 13 6 14 7 15 8 40 9 41 10 42 11 2 15
REMARK SMILES IDX 1 18 6 22 7 24 8 27 9 30 10 31 16 35 17 38 18 41 19 42 39 43
REMARK SMILES IDX 20 44 22 46 21 48 23 50 24 51 38 52 25 53 32 55 37 56 33 57
REMARK SMILES IDX 36 58 35 59 26 61 27 62 31 63 28 64 29 66 30 68 34 72
REMARK H PARENT 4 12 14 13 40 14 2 16 2 17 1 19 1 20 1 21 6 23 7 25 7 26 8 28
REMARK H PARENT 8 29 10 32 10 33 10 34 16 36 16 37 17 39 17 40 19 45 39 47
REMARK H PARENT 21 49 24 54 36 60 27 65 28 67 30 69 30 70 30 71 34 73 34 74
REMARK Flexibility Score: inf
ROOT
ATOM      1  C   UNL     1     -46.255  30.549  22.978  1.00  0.00     0.043 A 
ATOM      2  C   UNL     1     -47.393  29.873  23.397  1.00  0.00    -0.017 A 
ATOM      3  C   UNL     1     -48.259  30.472  24.316  1.00  0.00     0.048 A 
ATOM      4  C   UNL     1     -47.906  31.755  24.825  1.00  0.00     0.059 A 
ATOM      5  C   UNL     1     -48.660  32.478  25.778  1.00  0.00     0.134 A 
ATOM      6  F   UNL     1     -49.806  31.968  26.262  1.00  0.00    -0.206 F 
ATOM      7  C   UNL     1     -48.279  33.736  26.238  1.00  0.00    -0.022 A 
ATOM      8  C   UNL     1     -47.116  34.323  25.751  1.00  0.00    -0.043 A 
ATOM      9  C   UNL     1     -46.364  33.618  24.800  1.00  0.00    -0.032 A 
ATOM     10  C   UNL     1     -46.731  32.359  24.336  1.00  0.00     0.076 A 
ATOM     11  N   UNL     1     -45.931  31.777  23.433  1.00  0.00    -0.253 NA
ATOM     12  H   UNL     1     -47.584  28.881  23.006  1.00  0.00     0.066 H 
ATOM     13  H   UNL     1     -48.903  34.239  26.970  1.00  0.00     0.066 H 
ATOM     14  H   UNL     1     -45.455  34.062  24.394  1.00  0.00     0.065 H 
ENDROOT
BRANCH   1  15
ATOM     15  C   UNL     1     -45.329  29.934  21.962  1.00  0.00    -0.013 C 
ATOM     16  H   UNL     1     -44.579  30.668  21.646  1.00  0.00     0.033 H 
ATOM     17  H   UNL     1     -45.903  29.670  21.064  1.00  0.00     0.033 H 
BRANCH  15  18
ATOM     18  C   UNL     1     -44.647  28.689  22.507  1.00  0.00    -0.060 C 
ATOM     19  H   UNL     1     -43.728  28.486  21.949  1.00  0.00     0.023 H 
ATOM     20  H   UNL     1     -44.382  28.812  23.563  1.00  0.00     0.023 H 
ATOM     21  H   UNL     1     -45.297  27.812  22.423  1.00  0.00     0.023 H 
ENDBRANCH  15  18
ENDBRANCH   1  15
BRANCH   3  22
ATOM     22  N   UNL     1     -49.375  29.784  24.823  1.00  0.00    -0.382 N 
ATOM     23  H   UNL     1     -50.253  30.215  24.530  1.00  0.00     0.160 HD
BRANCH  22  24
ATOM     24  C   UNL     1     -49.437  28.323  24.799  1.00  0.00     0.038 C 
ATOM     25  H   UNL     1     -49.043  27.909  23.865  1.00  0.00     0.051 H 
ATOM     26  H   UNL     1     -50.492  28.020  24.815  1.00  0.00     0.051 H 
BRANCH  24  27
ATOM     27  C   UNL     1     -48.753  27.718  26.031  1.00  0.00     0.063 C 
ATOM     28  H   UNL     1     -48.621  28.503  26.785  1.00  0.00     0.059 H 
ATOM     29  H   UNL     1     -47.751  27.334  25.802  1.00  0.00     0.059 H 
BRANCH  27  30
ATOM     30  O   UNL     1     -49.551  26.695  26.634  1.00  0.00    -0.383 OA
BRANCH  30  31
ATOM     31  C   UNL     1     -49.301  25.406  26.091  1.00  0.00     0.036 C 
ATOM     32  H   UNL     1     -50.141  25.067  25.479  1.00  0.00     0.053 H 
ATOM     33  H   UNL     1     -48.382  25.412  25.496  1.00  0.00     0.053 H 
ATOM     34  H   UNL     1     -49.172  24.704  26.919  1.00  0.00     0.053 H 
ENDBRANCH  30  31
ENDBRANCH  27  30
ENDBRANCH  24  27
ENDBRANCH  22  24
ENDBRANCH   3  22
BRANCH   8  35
ATOM     35  C   UNL     1     -46.684  35.694  26.210  1.00  0.00    -0.024 C 
ATOM     36  H   UNL     1     -45.956  36.085  25.489  1.00  0.00     0.032 H 
ATOM     37  H   UNL     1     -47.538  36.384  26.174  1.00  0.00     0.032 H 
BRANCH  35  38
ATOM     38  C   UNL     1     -46.051  35.700  27.609  1.00  0.00    -0.022 C 
ATOM     39  H   UNL     1     -45.187  35.024  27.612  1.00  0.00     0.032 H 
ATOM     40  H   UNL     1     -46.754  35.288  28.344  1.00  0.00     0.032 H 
BRANCH  38  41
ATOM     41  C   UNL     1     -45.583  37.061  28.056  1.00  0.00    -0.027 A 
ATOM     42  C   UNL     1     -44.858  37.217  29.229  1.00  0.00     0.030 A 
ATOM     43  C   UNL     1     -45.870  38.214  27.313  1.00  0.00    -0.032 A 
ATOM     44  N   UNL     1     -44.411  38.404  29.683  1.00  0.00    -0.262 NA
ATOM     45  H   UNL     1     -44.608  36.369  29.861  1.00  0.00     0.084 H 
ATOM     46  C   UNL     1     -45.430  39.472  27.754  1.00  0.00     0.066 A 
ATOM     47  H   UNL     1     -46.420  38.093  26.386  1.00  0.00     0.065 H 
ATOM     48  C   UNL     1     -44.706  39.502  28.941  1.00  0.00     0.051 A 
ATOM     49  H   UNL     1     -44.336  40.415  29.392  1.00  0.00     0.086 H 
BRANCH  46  50
ATOM     50  N   UNL     1     -45.726  40.663  27.016  1.00  0.00    -0.299 N 
ATOM     51  C   UNL     1     -44.846  41.300  26.155  1.00  0.00     0.021 A 
ATOM     52  C   UNL     1     -46.911  41.399  27.011  1.00  0.00     0.150 A 
ATOM     53  C   UNL     1     -45.454  42.412  25.609  1.00  0.00     0.033 A 
ATOM     54  H   UNL     1     -43.853  40.918  25.979  1.00  0.00     0.083 H 
ATOM     55  C   UNL     1     -46.775  42.476  26.134  1.00  0.00     0.071 A 
ATOM     56  N   UNL     1     -48.010  41.137  27.747  1.00  0.00    -0.218 NA
ATOM     57  C   UNL     1     -47.897  43.314  25.987  1.00  0.00     0.137 A 
ATOM     58  C   UNL     1     -48.998  42.018  27.544  1.00  0.00     0.120 A 
ATOM     59  N   UNL     1     -49.000  43.073  26.720  1.00  0.00    -0.219 NA
ATOM     60  H   UNL     1     -49.908  41.857  28.114  1.00  0.00     0.106 H 
BRANCH  53  61
ATOM     61  C   UNL     1     -44.837  43.354  24.672  1.00  0.00     0.095 A 
ATOM     62  C   UNL     1     -43.881  43.000  23.693  1.00  0.00    -0.016 A 
ATOM     63  N   UNL     1     -45.092  44.670  24.660  1.00  0.00    -0.173 NA
ATOM     64  C   UNL     1     -43.566  44.178  23.058  1.00  0.00     0.025 A 
ATOM     65  H   UNL     1     -43.482  42.021  23.469  1.00  0.00     0.066 H 
ATOM     66  N   UNL     1     -44.313  45.141  23.667  1.00  0.00    -0.275 N 
ATOM     67  H   UNL     1     -42.891  44.402  22.244  1.00  0.00     0.084 H 
BRANCH  66  68
ATOM     68  C   UNL     1     -44.340  46.549  23.351  1.00  0.00     0.030 C 
ATOM     69  H   UNL     1     -43.389  46.989  23.659  1.00  0.00     0.048 H 
ATOM     70  H   UNL     1     -45.170  47.008  23.894  1.00  0.00     0.048 H 
ATOM     71  H   UNL     1     -44.481  46.678  22.275  1.00  0.00     0.048 H 
ENDBRANCH  66  68
ENDBRANCH  53  61
BRANCH  57  72
ATOM     72  N   UNL     1     -47.951  44.399  25.126  1.00  0.00    -0.383 N 
ATOM     73  H   UNL     1     -48.847  44.864  25.173  1.00  0.00     0.158 HD
ATOM     74  H   UNL     1     -47.119  44.993  25.190  1.00  0.00     0.158 HD
ENDBRANCH  57  72
ENDBRANCH  46  50
ENDBRANCH  38  41
ENDBRANCH  35  38
ENDBRANCH   8  35
TORSDOF 14
ENDMDL
MODEL 6
REMARK VINA RESULT:      -8.6      2.191      3.146
REMARK SMILES CCc1cc(NCCOC)c2c(F)cc(CCc3cncc(-n4cc(-c5ccn(C)n5)c5c(N)ncnc54)c3)cc2n1
REMARK SMILES IDX 3 1 4 2 5 3 11 4 12 5 13 6 14 7 15 8 40 9 41 10 42 11 2 15
REMARK SMILES IDX 1 18 6 22 7 24 8 27 9 30 10 31 16 35 17 38 18 41 19 42 39 43
REMARK SMILES IDX 20 44 22 46 21 48 23 50 24 51 38 52 25 53 32 55 37 56 33 57
REMARK SMILES IDX 36 58 35 59 26 61 27 62 31 63 28 64 29 66 30 68 34 72
REMARK H PARENT 4 12 14 13 40 14 2 16 2 17 1 19 1 20 1 21 6 23 7 25 7 26 8 28
REMARK H PARENT 8 29 10 32 10 33 10 34 16 36 16 37 17 39 17 40 19 45 39 47
REMARK H PARENT 21 49 24 54 36 60 27 65 28 67 30 69 30 70 30 71 34 73 34 74
REMARK Flexibility Score: inf
ROOT
ATOM      1  C   UNL     1     -49.516  41.883  27.502  1.00  0.00     0.043 A 
ATOM      2  C   UNL     1     -48.392  42.407  26.878  1.00  0.00    -0.017 A 
ATOM      3  C   UNL     1     -47.326  41.566  26.545  1.00  0.00     0.048 A 
ATOM      4  C   UNL     1     -47.423  40.192  26.907  1.00  0.00     0.059 A 
ATOM      5  C   UNL     1     -46.422  39.223  26.666  1.00  0.00     0.134 A 
ATOM      6  F   UNL     1     -45.282  39.568  26.045  1.00  0.00    -0.206 F 
ATOM      7  C   UNL     1     -46.569  37.886  27.031  1.00  0.00    -0.022 A 
ATOM      8  C   UNL     1     -47.740  37.467  27.653  1.00  0.00    -0.043 A 
ATOM      9  C   UNL     1     -48.743  38.419  27.891  1.00  0.00    -0.032 A 
ATOM     10  C   UNL     1     -48.607  39.757  27.537  1.00  0.00     0.076 A 
ATOM     11  N   UNL     1     -49.627  40.577  27.820  1.00  0.00    -0.253 NA
ATOM     12  H   UNL     1     -48.359  43.469  26.668  1.00  0.00     0.066 H 
ATOM     13  H   UNL     1     -45.762  37.192  26.817  1.00  0.00     0.066 H 
ATOM     14  H   UNL     1     -49.675  38.113  28.366  1.00  0.00     0.065 H 
ENDROOT
BRANCH   1  15
ATOM     15  C   UNL     1     -50.689  42.767  27.835  1.00  0.00    -0.013 C 
ATOM     16  H   UNL     1     -51.249  43.005  26.924  1.00  0.00     0.033 H 
ATOM     17  H   UNL     1     -50.320  43.721  28.233  1.00  0.00     0.033 H 
BRANCH  15  18
ATOM     18  C   UNL     1     -51.606  42.116  28.858  1.00  0.00    -0.060 C 
ATOM     19  H   UNL     1     -51.940  41.138  28.500  1.00  0.00     0.023 H 
ATOM     20  H   UNL     1     -51.094  41.969  29.816  1.00  0.00     0.023 H 
ATOM     21  H   UNL     1     -52.493  42.731  29.044  1.00  0.00     0.023 H 
ENDBRANCH  15  18
ENDBRANCH   1  15
BRANCH   3  22
ATOM     22  N   UNL     1     -46.140  42.076  25.988  1.00  0.00    -0.382 N 
ATOM     23  H   UNL     1     -45.972  41.709  25.050  1.00  0.00     0.160 HD
BRANCH  22  24
ATOM     24  C   UNL     1     -45.801  43.494  26.100  1.00  0.00     0.038 C 
ATOM     25  H   UNL     1     -45.596  43.789  27.135  1.00  0.00     0.051 H 
ATOM     26  H   UNL     1     -46.681  44.085  25.813  1.00  0.00     0.051 H 
BRANCH  24  27
ATOM     27  C   UNL     1     -44.652  43.867  25.156  1.00  0.00     0.063 C 
ATOM     28  H   UNL     1     -45.072  44.194  24.197  1.00  0.00     0.059 H 
ATOM     29  H   UNL     1     -44.002  43.011  24.936  1.00  0.00     0.059 H 
BRANCH  27  30
ATOM     30  O   UNL     1     -43.880  44.960  25.663  1.00  0.00    -0.383 OA
BRANCH  30  31
ATOM     31  C   UNL     1     -44.286  46.215  25.135  1.00  0.00     0.036 C 
ATOM     32  H   UNL     1     -43.570  47.001  25.392  1.00  0.00     0.053 H 
ATOM     33  H   UNL     1     -44.401  46.155  24.048  1.00  0.00     0.053 H 
ATOM     34  H   UNL     1     -45.254  46.474  25.571  1.00  0.00     0.053 H 
ENDBRANCH  30  31
ENDBRANCH  27  30
ENDBRANCH  24  27
ENDBRANCH  22  24
ENDBRANCH   3  22
BRANCH   8  35
ATOM     35  C   UNL     1     -47.942  36.024  28.041  1.00  0.00    -0.024 C 
ATOM     36  H   UNL     1     -46.955  35.558  28.159  1.00  0.00     0.032 H 
ATOM     37  H   UNL     1     -48.415  35.967  29.030  1.00  0.00     0.032 H 
BRANCH  35  38
ATOM     38  C   UNL     1     -48.752  35.220  27.014  1.00  0.00    -0.022 C 
ATOM     39  H   UNL     1     -49.197  35.915  26.290  1.00  0.00     0.032 H 
ATOM     40  H   UNL     1     -49.597  34.721  27.505  1.00  0.00     0.032 H 
BRANCH  38  41
ATOM     41  C   UNL     1     -47.934  34.210  26.252  1.00  0.00    -0.027 A 
ATOM     42  C   UNL     1     -46.620  34.478  25.897  1.00  0.00     0.030 A 
ATOM     43  C   UNL     1     -48.470  32.974  25.867  1.00  0.00    -0.032 A 
ATOM     44  N   UNL     1     -45.836  33.618  25.218  1.00  0.00    -0.262 NA
ATOM     45  H   UNL     1     -46.141  35.419  26.153  1.00  0.00     0.084 H 
ATOM     46  C   UNL     1     -47.691  32.052  25.151  1.00  0.00     0.066 A 
ATOM     47  H   UNL     1     -49.492  32.754  26.160  1.00  0.00     0.065 H 
ATOM     48  C   UNL     1     -46.385  32.429  24.858  1.00  0.00     0.051 A 
ATOM     49  H   UNL     1     -45.698  31.812  24.291  1.00  0.00     0.086 H 
BRANCH  46  50
ATOM     50  N   UNL     1     -48.227  30.790  24.736  1.00  0.00    -0.299 N 
ATOM     51  C   UNL     1     -48.715  29.818  25.595  1.00  0.00     0.021 A 
ATOM     52  C   UNL     1     -48.363  30.299  23.438  1.00  0.00     0.150 A 
ATOM     53  C   UNL     1     -49.156  28.733  24.864  1.00  0.00     0.033 A 
ATOM     54  H   UNL     1     -48.726  29.961  26.663  1.00  0.00     0.083 H 
ATOM     55  C   UNL     1     -48.953  29.035  23.489  1.00  0.00     0.071 A 
ATOM     56  N   UNL     1     -47.971  30.923  22.309  1.00  0.00    -0.218 NA
ATOM     57  C   UNL     1     -49.188  28.400  22.254  1.00  0.00     0.137 A 
ATOM     58  C   UNL     1     -48.220  30.210  21.204  1.00  0.00     0.120 A 
ATOM     59  N   UNL     1     -48.795  29.004  21.117  1.00  0.00    -0.219 NA
ATOM     60  H   UNL     1     -47.922  30.664  20.263  1.00  0.00     0.106 H 
BRANCH  53  61
ATOM     61  C   UNL     1     -49.718  27.497  25.416  1.00  0.00     0.095 A 
ATOM     62  C   UNL     1     -49.008  26.281  25.543  1.00  0.00    -0.016 A 
ATOM     63  N   UNL     1     -50.985  27.376  25.837  1.00  0.00    -0.173 NA
ATOM     64  C   UNL     1     -49.910  25.396  26.084  1.00  0.00     0.025 A 
ATOM     65  H   UNL     1     -47.979  26.077  25.286  1.00  0.00     0.066 H 
ATOM     66  N   UNL     1     -51.069  26.094  26.243  1.00  0.00    -0.275 N 
ATOM     67  H   UNL     1     -49.822  24.355  26.363  1.00  0.00     0.084 H 
BRANCH  66  68
ATOM     68  C   UNL     1     -52.312  25.602  26.784  1.00  0.00     0.030 C 
ATOM     69  H   UNL     1     -52.729  24.875  26.083  1.00  0.00     0.048 H 
ATOM     70  H   UNL     1     -52.992  26.448  26.910  1.00  0.00     0.048 H 
ATOM     71  H   UNL     1     -52.127  25.125  27.750  1.00  0.00     0.048 H 
ENDBRANCH  66  68
ENDBRANCH  53  61
BRANCH  57  72
ATOM     72  N   UNL     1     -49.805  27.167  22.118  1.00  0.00    -0.383 N 
ATOM     73  H   UNL     1     -50.729  27.167  22.527  1.00  0.00     0.158 HD
ATOM     74  H   UNL     1     -49.721  26.788  21.169  1.00  0.00     0.158 HD
ENDBRANCH  57  72
ENDBRANCH  46  50
ENDBRANCH  38  41
ENDBRANCH  35  38
ENDBRANCH   8  35
TORSDOF 14
ENDMDL
MODEL 7
REMARK VINA RESULT:      -8.6      2.400      3.443
REMARK SMILES CCc1cc(NCCOC)c2c(F)cc(CCc3cncc(-n4cc(-c5ccn(C)n5)c5c(N)ncnc54)c3)cc2n1
REMARK SMILES IDX 3 1 4 2 5 3 11 4 12 5 13 6 14 7 15 8 40 9 41 10 42 11 2 15
REMARK SMILES IDX 1 18 6 22 7 24 8 27 9 30 10 31 16 35 17 38 18 41 19 42 39 43
REMARK SMILES IDX 20 44 22 46 21 48 23 50 24 51 38 52 25 53 32 55 37 56 33 57
REMARK SMILES IDX 36 58 35 59 26 61 27 62 31 63 28 64 29 66 30 68 34 72
REMARK H PARENT 4 12 14 13 40 14 2 16 2 17 1 19 1 20 1 21 6 23 7 25 7 26 8 28
REMARK H PARENT 8 29 10 32 10 33 10 34 16 36 16 37 17 39 17 40 19 45 39 47
REMARK H PARENT 21 49 24 54 36 60 27 65 28 67 30 69 30 70 30 71 34 73 34 74
REMARK Flexibility Score: inf
ROOT
ATOM      1  C   UNL     1     -44.124  42.888  25.245  1.00  0.00     0.043 A 
ATOM      2  C   UNL     1     -45.219  43.739  25.295  1.00  0.00    -0.017 A 
ATOM      3  C   UNL     1     -46.438  43.273  25.797  1.00  0.00     0.048 A 
ATOM      4  C   UNL     1     -46.515  41.910  26.202  1.00  0.00     0.059 A 
ATOM      5  C   UNL     1     -47.679  41.283  26.703  1.00  0.00     0.134 A 
ATOM      6  F   UNL     1     -48.820  41.981  26.837  1.00  0.00    -0.206 F 
ATOM      7  C   UNL     1     -47.702  39.947  27.096  1.00  0.00    -0.022 A 
ATOM      8  C   UNL     1     -46.543  39.183  27.003  1.00  0.00    -0.043 A 
ATOM      9  C   UNL     1     -45.381  39.796  26.514  1.00  0.00    -0.032 A 
ATOM     10  C   UNL     1     -45.346  41.128  26.114  1.00  0.00     0.076 A 
ATOM     11  N   UNL     1     -44.181  41.605  25.655  1.00  0.00    -0.253 NA
ATOM     12  H   UNL     1     -45.110  44.753  24.932  1.00  0.00     0.066 H 
ATOM     13  H   UNL     1     -48.629  39.525  27.473  1.00  0.00     0.066 H 
ATOM     14  H   UNL     1     -44.457  39.222  26.443  1.00  0.00     0.065 H 
ENDROOT
BRANCH   1  15
ATOM     15  C   UNL     1     -42.793  43.382  24.741  1.00  0.00    -0.013 C 
ATOM     16  H   UNL     1     -42.124  42.534  24.557  1.00  0.00     0.033 H 
ATOM     17  H   UNL     1     -42.317  43.992  25.519  1.00  0.00     0.033 H 
BRANCH  15  18
ATOM     18  C   UNL     1     -42.948  44.212  23.476  1.00  0.00    -0.060 C 
ATOM     19  H   UNL     1     -43.990  44.205  23.143  1.00  0.00     0.023 H 
ATOM     20  H   UNL     1     -42.653  45.254  23.645  1.00  0.00     0.023 H 
ATOM     21  H   UNL     1     -42.329  43.815  22.665  1.00  0.00     0.023 H 
ENDBRANCH  15  18
ENDBRANCH   1  15
BRANCH   3  22
ATOM     22  N   UNL     1     -47.589  44.081  25.785  1.00  0.00    -0.382 N 
ATOM     23  H   UNL     1     -48.436  43.539  25.967  1.00  0.00     0.160 HD
BRANCH  22  24
ATOM     24  C   UNL     1     -47.606  45.381  26.455  1.00  0.00     0.038 C 
ATOM     25  H   UNL     1     -48.195  46.122  25.903  1.00  0.00     0.051 H 
ATOM     26  H   UNL     1     -46.585  45.783  26.458  1.00  0.00     0.051 H 
BRANCH  24  27
ATOM     27  C   UNL     1     -48.068  45.249  27.912  1.00  0.00     0.063 C 
ATOM     28  H   UNL     1     -48.358  44.208  28.099  1.00  0.00     0.059 H 
ATOM     29  H   UNL     1     -48.952  45.862  28.124  1.00  0.00     0.059 H 
BRANCH  27  30
ATOM     30  O   UNL     1     -47.017  45.557  28.833  1.00  0.00    -0.383 OA
BRANCH  30  31
ATOM     31  C   UNL     1     -45.904  46.185  28.211  1.00  0.00     0.036 C 
ATOM     32  H   UNL     1     -46.214  47.067  27.645  1.00  0.00     0.053 H 
ATOM     33  H   UNL     1     -45.154  46.464  28.959  1.00  0.00     0.053 H 
ATOM     34  H   UNL     1     -45.450  45.471  27.518  1.00  0.00     0.053 H 
ENDBRANCH  30  31
ENDBRANCH  27  30
ENDBRANCH  24  27
ENDBRANCH  22  24
ENDBRANCH   3  22
BRANCH   8  35
ATOM     35  C   UNL     1     -46.525  37.739  27.441  1.00  0.00    -0.024 C 
ATOM     36  H   UNL     1     -45.517  37.502  27.803  1.00  0.00     0.032 H 
ATOM     37  H   UNL     1     -47.189  37.604  28.305  1.00  0.00     0.032 H 
BRANCH  35  38
ATOM     38  C   UNL     1     -46.897  36.755  26.322  1.00  0.00    -0.022 C 
ATOM     39  H   UNL     1     -46.259  36.949  25.451  1.00  0.00     0.032 H 
ATOM     40  H   UNL     1     -47.925  36.937  25.985  1.00  0.00     0.032 H 
BRANCH  38  41
ATOM     41  C   UNL     1     -46.734  35.308  26.710  1.00  0.00    -0.027 A 
ATOM     42  C   UNL     1     -46.108  34.952  27.895  1.00  0.00     0.030 A 
ATOM     43  C   UNL     1     -47.198  34.273  25.886  1.00  0.00    -0.032 A 
ATOM     44  N   UNL     1     -45.932  33.679  28.299  1.00  0.00    -0.262 NA
ATOM     45  H   UNL     1     -45.714  35.700  28.578  1.00  0.00     0.084 H 
ATOM     46  C   UNL     1     -47.028  32.932  26.264  1.00  0.00     0.066 A 
ATOM     47  H   UNL     1     -47.705  34.549  24.967  1.00  0.00     0.065 H 
ATOM     48  C   UNL     1     -46.391  32.699  27.477  1.00  0.00     0.051 A 
ATOM     49  H   UNL     1     -46.182  31.708  27.862  1.00  0.00     0.086 H 
BRANCH  46  50
ATOM     50  N   UNL     1     -47.482  31.862  25.428  1.00  0.00    -0.299 N 
ATOM     51  C   UNL     1     -48.452  30.938  25.782  1.00  0.00     0.021 A 
ATOM     52  C   UNL     1     -47.058  31.539  24.138  1.00  0.00     0.150 A 
ATOM     53  C   UNL     1     -48.649  30.050  24.744  1.00  0.00     0.033 A 
ATOM     54  H   UNL     1     -48.945  30.977  26.740  1.00  0.00     0.083 H 
ATOM     55  C   UNL     1     -47.779  30.433  23.685  1.00  0.00     0.071 A 
ATOM     56  N   UNL     1     -46.094  32.171  23.439  1.00  0.00    -0.218 NA
ATOM     57  C   UNL     1     -47.494  29.987  22.381  1.00  0.00     0.137 A 
ATOM     58  C   UNL     1     -45.893  31.639  22.227  1.00  0.00     0.120 A 
ATOM     59  N   UNL     1     -46.528  30.599  21.671  1.00  0.00    -0.219 NA
ATOM     60  H   UNL     1     -45.124  32.107  21.620  1.00  0.00     0.106 H 
BRANCH  53  61
ATOM     61  C   UNL     1     -49.578  28.917  24.748  1.00  0.00     0.095 A 
ATOM     62  C   UNL     1     -50.745  28.834  23.955  1.00  0.00    -0.016 A 
ATOM     63  N   UNL     1     -49.436  27.839  25.533  1.00  0.00    -0.173 NA
ATOM     64  C   UNL     1     -51.316  27.628  24.285  1.00  0.00     0.025 A 
ATOM     65  H   UNL     1     -51.116  29.548  23.234  1.00  0.00     0.066 H 
ATOM     66  N   UNL     1     -50.500  27.073  25.224  1.00  0.00    -0.275 N 
ATOM     67  H   UNL     1     -52.211  27.133  23.934  1.00  0.00     0.084 H 
BRANCH  66  68
ATOM     68  C   UNL     1     -50.671  25.798  25.879  1.00  0.00     0.030 C 
ATOM     69  H   UNL     1     -51.292  25.164  25.241  1.00  0.00     0.048 H 
ATOM     70  H   UNL     1     -51.158  25.969  26.842  1.00  0.00     0.048 H 
ATOM     71  H   UNL     1     -49.694  25.333  26.031  1.00  0.00     0.048 H 
ENDBRANCH  66  68
ENDBRANCH  53  61
BRANCH  57  72
ATOM     72  N   UNL     1     -48.145  28.934  21.758  1.00  0.00    -0.383 N 
ATOM     73  H   UNL     1     -48.806  29.263  21.069  1.00  0.00     0.158 HD
ATOM     74  H   UNL     1     -47.502  28.193  21.463  1.00  0.00     0.158 HD
ENDBRANCH  57  72
ENDBRANCH  46  50
ENDBRANCH  38  41
ENDBRANCH  35  38
ENDBRANCH   8  35
TORSDOF 14
ENDMDL
