MODEL 1
REMARK VINA RESULT:     -11.0      0.000      0.000
REMARK SMILES Cn1ccc(-c2cn(-c3cncc(C[S@+]([O-])c4ccc5ccc(N6CCC6)nc5c4)c3)c3ncnc(N)c23)n1
REMARK SMILES IDX 9 1 10 2 11 3 12 4 13 5 31 6 8 10 6 11 7 12 38 13 32 15
REMARK SMILES IDX 36 16 33 17 35 18 34 19 5 21 2 22 3 23 39 24 4 25 1 28 37 32
REMARK SMILES IDX 14 35 15 38 16 39 17 40 18 41 30 42 19 43 29 45 20 47 28 49
REMARK SMILES IDX 21 50 23 51 22 52 24 55 25 56 27 57 26 58
REMARK H PARENT 10 7 12 8 31 9 7 14 34 20 3 26 4 27 1 29 1 30 1 31 37 33 37 34
REMARK H PARENT 14 36 14 37 18 44 30 46 19 48 21 53 22 54 25 59 25 60 27 61
REMARK H PARENT 27 62 26 63 26 64
REMARK Flexibility Score: inf
ROOT
ATOM      1  C   UNL     1     -45.368  38.058  28.734  1.00  0.00     0.066 A 
ATOM      2  C   UNL     1     -45.711  37.844  30.063  1.00  0.00     0.051 A 
ATOM      3  N   UNL     1     -46.166  36.661  30.549  1.00  0.00    -0.262 NA
ATOM      4  C   UNL     1     -46.278  35.635  29.681  1.00  0.00     0.035 A 
ATOM      5  C   UNL     1     -45.991  35.738  28.327  1.00  0.00     0.022 A 
ATOM      6  C   UNL     1     -45.543  36.981  27.854  1.00  0.00    -0.027 A 
ATOM      7  H   UNL     1     -45.608  38.597  30.835  1.00  0.00     0.086 H 
ATOM      8  H   UNL     1     -46.605  34.696  30.124  1.00  0.00     0.084 H 
ATOM      9  H   UNL     1     -45.331  37.080  26.794  1.00  0.00     0.065 H 
ENDROOT
BRANCH   1  10
ATOM     10  N   UNL     1     -44.825  39.302  28.278  1.00  0.00    -0.299 N 
ATOM     11  C   UNL     1     -44.529  41.153  27.016  1.00  0.00     0.033 A 
ATOM     12  C   UNL     1     -45.317  40.037  27.213  1.00  0.00     0.021 A 
ATOM     13  C   UNL     1     -43.525  41.148  28.025  1.00  0.00     0.071 A 
ATOM     14  H   UNL     1     -46.158  39.693  26.629  1.00  0.00     0.083 H 
ATOM     15  C   UNL     1     -43.717  39.988  28.776  1.00  0.00     0.150 A 
ATOM     16  C   UNL     1     -42.462  41.982  28.420  1.00  0.00     0.137 A 
ATOM     17  N   UNL     1     -42.963  39.614  29.831  1.00  0.00    -0.218 NA
ATOM     18  N   UNL     1     -41.678  41.610  29.449  1.00  0.00    -0.219 NA
ATOM     19  C   UNL     1     -41.970  40.472  30.091  1.00  0.00     0.120 A 
ATOM     20  H   UNL     1     -41.324  40.217  30.926  1.00  0.00     0.106 H 
BRANCH  11  21
ATOM     21  C   UNL     1     -44.695  42.144  25.946  1.00  0.00     0.095 A 
ATOM     22  N   UNL     1     -44.334  43.350  24.247  1.00  0.00    -0.275 N 
ATOM     23  C   UNL     1     -45.586  43.700  24.650  1.00  0.00     0.025 A 
ATOM     24  N   UNL     1     -43.770  42.393  25.009  1.00  0.00    -0.173 NA
ATOM     25  C   UNL     1     -45.855  42.928  25.756  1.00  0.00    -0.016 A 
ATOM     26  H   UNL     1     -46.175  44.445  24.134  1.00  0.00     0.084 H 
ATOM     27  H   UNL     1     -46.766  42.934  26.336  1.00  0.00     0.066 H 
BRANCH  22  28
ATOM     28  C   UNL     1     -43.600  43.890  23.128  1.00  0.00     0.030 C 
ATOM     29  H   UNL     1     -43.316  43.079  22.454  1.00  0.00     0.048 H 
ATOM     30  H   UNL     1     -44.243  44.602  22.606  1.00  0.00     0.048 H 
ATOM     31  H   UNL     1     -42.706  44.388  23.512  1.00  0.00     0.048 H 
ENDBRANCH  22  28
ENDBRANCH  11  21
BRANCH  16  32
ATOM     32  N   UNL     1     -42.153  43.191  27.814  1.00  0.00    -0.383 N 
ATOM     33  H   UNL     1     -42.433  43.220  26.829  1.00  0.00     0.158 HD
ATOM     34  H   UNL     1     -41.213  43.489  28.033  1.00  0.00     0.158 HD
ENDBRANCH  16  32
ENDBRANCH   1  10
BRANCH   5  35
ATOM     35  C   UNL     1     -46.108  34.548  27.414  1.00  0.00     0.137 C 
ATOM     36  H   UNL     1     -45.209  34.467  26.794  1.00  0.00     0.091 H 
ATOM     37  H   UNL     1     -46.174  33.620  27.992  1.00  0.00     0.091 H 
BRANCH  35  38
ATOM     38  S   UNL     1     -47.542  34.595  26.275  1.00  0.00    -0.010 S 
ATOM     39  O   UNL     1     -48.923  34.433  27.180  1.00  0.00    -0.611 OA
BRANCH  38  40
ATOM     40  C   UNL     1     -47.261  33.026  25.427  1.00  0.00     0.155 A 
ATOM     41  C   UNL     1     -46.318  32.925  24.404  1.00  0.00    -0.006 A 
ATOM     42  C   UNL     1     -48.037  31.910  25.764  1.00  0.00     0.020 A 
ATOM     43  C   UNL     1     -46.190  31.734  23.694  1.00  0.00    -0.048 A 
ATOM     44  H   UNL     1     -45.703  33.782  24.129  1.00  0.00     0.068 H 
ATOM     45  C   UNL     1     -47.936  30.719  25.061  1.00  0.00     0.078 A 
ATOM     46  H   UNL     1     -48.763  31.967  26.571  1.00  0.00     0.070 H 
ATOM     47  C   UNL     1     -47.005  30.635  24.010  1.00  0.00     0.001 A 
ATOM     48  H   UNL     1     -45.467  31.676  22.882  1.00  0.00     0.063 H 
ATOM     49  N   UNL     1     -48.749  29.703  25.393  1.00  0.00    -0.231 NA
ATOM     50  C   UNL     1     -46.940  29.437  23.295  1.00  0.00    -0.049 A 
ATOM     51  C   UNL     1     -48.668  28.542  24.705  1.00  0.00     0.129 A 
ATOM     52  C   UNL     1     -47.782  28.385  23.645  1.00  0.00    -0.019 A 
ATOM     53  H   UNL     1     -46.250  29.317  22.464  1.00  0.00     0.063 H 
ATOM     54  H   UNL     1     -47.749  27.459  23.080  1.00  0.00     0.066 H 
BRANCH  51  55
ATOM     55  N   UNL     1     -49.533  27.490  25.060  1.00  0.00    -0.356 N 
ATOM     56  C   UNL     1     -49.667  26.895  26.357  1.00  0.00     0.021 C 
ATOM     57  C   UNL     1     -50.950  27.493  24.839  1.00  0.00     0.021 C 
ATOM     58  C   UNL     1     -51.022  26.365  25.874  1.00  0.00    -0.018 C 
ATOM     59  H   UNL     1     -49.721  27.634  27.164  1.00  0.00     0.049 H 
ATOM     60  H   UNL     1     -48.912  26.136  26.573  1.00  0.00     0.049 H 
ATOM     61  H   UNL     1     -51.233  27.224  23.819  1.00  0.00     0.049 H 
ATOM     62  H   UNL     1     -51.431  28.430  25.143  1.00  0.00     0.049 H 
ATOM     63  H   UNL     1     -50.985  25.356  25.445  1.00  0.00     0.030 H 
ATOM     64  H   UNL     1     -51.842  26.427  26.593  1.00  0.00     0.030 H 
ENDBRANCH  51  55
ENDBRANCH  38  40
ENDBRANCH  35  38
ENDBRANCH   5  35
TORSDOF 8
ENDMDL
MODEL 2
REMARK VINA RESULT:     -10.3      2.133     12.342
REMARK SMILES Cn1ccc(-c2cn(-c3cncc(C[S@+]([O-])c4ccc5ccc(N6CCC6)nc5c4)c3)c3ncnc(N)c23)n1
REMARK SMILES IDX 9 1 10 2 11 3 12 4 13 5 31 6 8 10 6 11 7 12 38 13 32 15
REMARK SMILES IDX 36 16 33 17 35 18 34 19 5 21 2 22 3 23 39 24 4 25 1 28 37 32
REMARK SMILES IDX 14 35 15 38 16 39 17 40 18 41 30 42 19 43 29 45 20 47 28 49
REMARK SMILES IDX 21 50 23 51 22 52 24 55 25 56 27 57 26 58
REMARK H PARENT 10 7 12 8 31 9 7 14 34 20 3 26 4 27 1 29 1 30 1 31 37 33 37 34
REMARK H PARENT 14 36 14 37 18 44 30 46 19 48 21 53 22 54 25 59 25 60 27 61
REMARK H PARENT 27 62 26 63 26 64
REMARK Flexibility Score: inf
ROOT
ATOM      1  C   UNL     1     -46.974  33.000  26.252  1.00  0.00     0.066 A 
ATOM      2  C   UNL     1     -46.308  32.725  27.439  1.00  0.00     0.051 A 
ATOM      3  N   UNL     1     -45.881  33.677  28.308  1.00  0.00    -0.262 NA
ATOM      4  C   UNL     1     -46.136  34.964  27.995  1.00  0.00     0.035 A 
ATOM      5  C   UNL     1     -46.769  35.359  26.825  1.00  0.00     0.022 A 
ATOM      6  C   UNL     1     -47.178  34.351  25.938  1.00  0.00    -0.027 A 
ATOM      7  H   UNL     1     -46.103  31.721  27.791  1.00  0.00     0.086 H 
ATOM      8  H   UNL     1     -45.814  35.688  28.742  1.00  0.00     0.084 H 
ATOM      9  H   UNL     1     -47.660  34.648  25.012  1.00  0.00     0.065 H 
ENDROOT
BRANCH   1  10
ATOM     10  N   UNL     1     -47.468  31.962  25.399  1.00  0.00    -0.299 N 
ATOM     11  C   UNL     1     -48.666  30.176  24.705  1.00  0.00     0.033 A 
ATOM     12  C   UNL     1     -48.475  31.074  25.735  1.00  0.00     0.021 A 
ATOM     13  C   UNL     1     -47.776  30.539  23.655  1.00  0.00     0.071 A 
ATOM     14  H   UNL     1     -48.952  31.099  26.705  1.00  0.00     0.083 H 
ATOM     15  C   UNL     1     -47.035  31.628  24.115  1.00  0.00     0.150 A 
ATOM     16  C   UNL     1     -47.490  30.092  22.351  1.00  0.00     0.137 A 
ATOM     17  N   UNL     1     -46.077  32.266  23.412  1.00  0.00    -0.218 NA
ATOM     18  N   UNL     1     -46.514  30.695  21.646  1.00  0.00    -0.219 NA
ATOM     19  C   UNL     1     -45.878  31.734  22.201  1.00  0.00     0.120 A 
ATOM     20  H   UNL     1     -45.111  32.203  21.592  1.00  0.00     0.106 H 
BRANCH  11  21
ATOM     21  C   UNL     1     -49.604  29.048  24.711  1.00  0.00     0.095 A 
ATOM     22  N   UNL     1     -50.535  27.207  25.179  1.00  0.00    -0.275 N 
ATOM     23  C   UNL     1     -51.351  27.771  24.246  1.00  0.00     0.025 A 
ATOM     24  N   UNL     1     -49.470  27.968  25.494  1.00  0.00    -0.173 NA
ATOM     25  C   UNL     1     -50.774  28.976  23.921  1.00  0.00    -0.016 A 
ATOM     26  H   UNL     1     -52.253  27.289  23.897  1.00  0.00     0.084 H 
ATOM     27  H   UNL     1     -51.153  29.699  23.213  1.00  0.00     0.066 H 
BRANCH  22  28
ATOM     28  C   UNL     1     -50.710  25.929  25.826  1.00  0.00     0.030 C 
ATOM     29  H   UNL     1     -51.291  26.061  26.741  1.00  0.00     0.048 H 
ATOM     30  H   UNL     1     -51.240  25.265  25.139  1.00  0.00     0.048 H 
ATOM     31  H   UNL     1     -49.723  25.528  26.065  1.00  0.00     0.048 H 
ENDBRANCH  22  28
ENDBRANCH  11  21
BRANCH  16  32
ATOM     32  N   UNL     1     -48.154  29.051  21.721  1.00  0.00    -0.383 N 
ATOM     33  H   UNL     1     -48.417  28.302  22.368  1.00  0.00     0.158 HD
ATOM     34  H   UNL     1     -47.692  28.776  20.865  1.00  0.00     0.158 HD
ENDBRANCH  16  32
ENDBRANCH   1  10
BRANCH   5  35
ATOM     35  C   UNL     1     -47.051  36.810  26.546  1.00  0.00     0.137 C 
ATOM     36  H   UNL     1     -46.219  37.248  25.984  1.00  0.00     0.091 H 
ATOM     37  H   UNL     1     -47.943  36.920  25.920  1.00  0.00     0.091 H 
BRANCH  35  38
ATOM     38  S   UNL     1     -47.292  37.845  28.039  1.00  0.00    -0.010 S 
ATOM     39  O   UNL     1     -48.652  38.767  27.811  1.00  0.00    -0.611 OA
BRANCH  38  40
ATOM     40  C   UNL     1     -45.861  38.929  27.846  1.00  0.00     0.155 A 
ATOM     41  C   UNL     1     -44.835  38.934  28.792  1.00  0.00    -0.006 A 
ATOM     42  C   UNL     1     -45.806  39.814  26.763  1.00  0.00     0.020 A 
ATOM     43  C   UNL     1     -43.793  39.851  28.679  1.00  0.00    -0.048 A 
ATOM     44  H   UNL     1     -44.859  38.251  29.641  1.00  0.00     0.068 H 
ATOM     45  C   UNL     1     -44.786  40.744  26.639  1.00  0.00     0.078 A 
ATOM     46  H   UNL     1     -46.588  39.809  26.008  1.00  0.00     0.070 H 
ATOM     47  C   UNL     1     -43.772  40.765  27.614  1.00  0.00     0.001 A 
ATOM     48  H   UNL     1     -43.011  39.860  29.436  1.00  0.00     0.063 H 
ATOM     49  N   UNL     1     -44.820  41.607  25.610  1.00  0.00    -0.231 NA
ATOM     50  C   UNL     1     -42.769  41.729  27.486  1.00  0.00    -0.049 A 
ATOM     51  C   UNL     1     -43.836  42.526  25.486  1.00  0.00     0.129 A 
ATOM     52  C   UNL     1     -42.806  42.618  26.416  1.00  0.00    -0.019 A 
ATOM     53  H   UNL     1     -41.967  41.802  28.216  1.00  0.00     0.063 H 
ATOM     54  H   UNL     1     -42.040  43.381  26.324  1.00  0.00     0.066 H 
BRANCH  51  55
ATOM     55  N   UNL     1     -43.891  43.427  24.407  1.00  0.00    -0.356 N 
ATOM     56  C   UNL     1     -43.984  44.855  24.489  1.00  0.00     0.021 C 
ATOM     57  C   UNL     1     -42.927  43.482  23.345  1.00  0.00     0.021 C 
ATOM     58  C   UNL     1     -43.477  44.880  23.042  1.00  0.00    -0.018 C 
ATOM     59  H   UNL     1     -43.300  45.286  25.226  1.00  0.00     0.049 H 
ATOM     60  H   UNL     1     -45.002  45.221  24.640  1.00  0.00     0.049 H 
ATOM     61  H   UNL     1     -43.087  42.728  22.571  1.00  0.00     0.049 H 
ATOM     62  H   UNL     1     -41.892  43.460  23.702  1.00  0.00     0.049 H 
ATOM     63  H   UNL     1     -44.271  44.899  22.285  1.00  0.00     0.030 H 
ATOM     64  H   UNL     1     -42.733  45.646  22.811  1.00  0.00     0.030 H 
ENDBRANCH  51  55
ENDBRANCH  38  40
ENDBRANCH  35  38
ENDBRANCH   5  35
TORSDOF 8
ENDMDL
MODEL 3
REMARK VINA RESULT:     -10.1      1.698      2.790
REMARK SMILES Cn1ccc(-c2cn(-c3cncc(C[S@+]([O-])c4ccc5ccc(N6CCC6)nc5c4)c3)c3ncnc(N)c23)n1
REMARK SMILES IDX 9 1 10 2 11 3 12 4 13 5 31 6 8 10 6 11 7 12 38 13 32 15
REMARK SMILES IDX 36 16 33 17 35 18 34 19 5 21 2 22 3 23 39 24 4 25 1 28 37 32
REMARK SMILES IDX 14 35 15 38 16 39 17 40 18 41 30 42 19 43 29 45 20 47 28 49
REMARK SMILES IDX 21 50 23 51 22 52 24 55 25 56 27 57 26 58
REMARK H PARENT 10 7 12 8 31 9 7 14 34 20 3 26 4 27 1 29 1 30 1 31 37 33 37 34
REMARK H PARENT 14 36 14 37 18 44 30 46 19 48 21 53 22 54 25 59 25 60 27 61
REMARK H PARENT 27 62 26 63 26 64
REMARK Flexibility Score: inf
ROOT
ATOM      1  C   UNL     1     -45.623  38.860  28.403  1.00  0.00     0.066 A 
ATOM      2  C   UNL     1     -44.861  38.741  29.558  1.00  0.00     0.051 A 
ATOM      3  N   UNL     1     -44.866  37.647  30.362  1.00  0.00    -0.262 NA
ATOM      4  C   UNL     1     -45.654  36.614  30.001  1.00  0.00     0.035 A 
ATOM      5  C   UNL     1     -46.478  36.629  28.884  1.00  0.00     0.022 A 
ATOM      6  C   UNL     1     -46.465  37.784  28.087  1.00  0.00    -0.027 A 
ATOM      7  H   UNL     1     -44.167  39.500  29.897  1.00  0.00     0.086 H 
ATOM      8  H   UNL     1     -45.592  35.743  30.651  1.00  0.00     0.084 H 
ATOM      9  H   UNL     1     -47.117  37.816  27.219  1.00  0.00     0.065 H 
ENDROOT
BRANCH   1  10
ATOM     10  N   UNL     1     -45.534  40.003  27.546  1.00  0.00    -0.299 N 
ATOM     11  C   UNL     1     -44.632  41.602  26.228  1.00  0.00     0.033 A 
ATOM     12  C   UNL     1     -44.371  40.449  26.940  1.00  0.00     0.021 A 
ATOM     13  C   UNL     1     -46.025  41.871  26.350  1.00  0.00     0.071 A 
ATOM     14  H   UNL     1     -43.424  39.954  27.099  1.00  0.00     0.083 H 
ATOM     15  C   UNL     1     -46.552  40.884  27.183  1.00  0.00     0.150 A 
ATOM     16  C   UNL     1     -46.932  42.829  25.859  1.00  0.00     0.137 A 
ATOM     17  N   UNL     1     -47.848  40.791  27.549  1.00  0.00    -0.218 NA
ATOM     18  N   UNL     1     -48.222  42.771  26.238  1.00  0.00    -0.219 NA
ATOM     19  C   UNL     1     -48.604  41.770  27.042  1.00  0.00     0.120 A 
ATOM     20  H   UNL     1     -49.656  41.750  27.310  1.00  0.00     0.106 H 
BRANCH  11  21
ATOM     21  C   UNL     1     -43.643  42.403  25.499  1.00  0.00     0.095 A 
ATOM     22  N   UNL     1     -42.674  43.508  23.977  1.00  0.00    -0.275 N 
ATOM     23  C   UNL     1     -41.822  43.573  25.037  1.00  0.00     0.025 A 
ATOM     24  N   UNL     1     -43.800  42.814  24.233  1.00  0.00    -0.173 NA
ATOM     25  C   UNL     1     -42.426  42.865  26.049  1.00  0.00    -0.016 A 
ATOM     26  H   UNL     1     -40.882  44.105  24.993  1.00  0.00     0.084 H 
ATOM     27  H   UNL     1     -42.036  42.711  27.045  1.00  0.00     0.066 H 
BRANCH  22  28
ATOM     28  C   UNL     1     -42.482  44.093  22.672  1.00  0.00     0.030 C 
ATOM     29  H   UNL     1     -41.594  43.661  22.207  1.00  0.00     0.048 H 
ATOM     30  H   UNL     1     -43.365  43.878  22.065  1.00  0.00     0.048 H 
ATOM     31  H   UNL     1     -42.353  45.171  22.795  1.00  0.00     0.048 H 
ENDBRANCH  22  28
ENDBRANCH  11  21
BRANCH  16  32
ATOM     32  N   UNL     1     -46.589  43.853  24.989  1.00  0.00    -0.383 N 
ATOM     33  H   UNL     1     -46.789  44.780  25.375  1.00  0.00     0.158 HD
ATOM     34  H   UNL     1     -46.911  43.669  24.049  1.00  0.00     0.158 HD
ENDBRANCH  16  32
ENDBRANCH   1  10
BRANCH   5  35
ATOM     35  C   UNL     1     -47.313  35.434  28.517  1.00  0.00     0.137 C 
ATOM     36  H   UNL     1     -46.667  34.561  28.371  1.00  0.00     0.091 H 
ATOM     37  H   UNL     1     -48.005  35.178  29.327  1.00  0.00     0.091 H 
BRANCH  35  38
ATOM     38  S   UNL     1     -48.301  35.630  26.986  1.00  0.00    -0.010 S 
ATOM     39  O   UNL     1     -49.896  35.391  27.371  1.00  0.00    -0.611 OA
BRANCH  38  40
ATOM     40  C   UNL     1     -47.727  34.160  26.108  1.00  0.00     0.155 A 
ATOM     41  C   UNL     1     -46.533  34.180  25.386  1.00  0.00    -0.006 A 
ATOM     42  C   UNL     1     -48.516  33.004  26.106  1.00  0.00     0.020 A 
ATOM     43  C   UNL     1     -46.160  33.070  24.632  1.00  0.00    -0.048 A 
ATOM     44  H   UNL     1     -45.904  35.069  25.378  1.00  0.00     0.068 H 
ATOM     45  C   UNL     1     -48.173  31.894  25.351  1.00  0.00     0.078 A 
ATOM     46  H   UNL     1     -49.440  32.968  26.678  1.00  0.00     0.070 H 
ATOM     47  C   UNL     1     -46.983  31.932  24.601  1.00  0.00     0.001 A 
ATOM     48  H   UNL     1     -45.239  33.106  24.055  1.00  0.00     0.063 H 
ATOM     49  N   UNL     1     -49.001  30.837  25.343  1.00  0.00    -0.231 NA
ATOM     50  C   UNL     1     -46.670  30.815  23.824  1.00  0.00    -0.049 A 
ATOM     51  C   UNL     1     -48.682  29.753  24.600  1.00  0.00     0.129 A 
ATOM     52  C   UNL     1     -47.529  29.720  23.822  1.00  0.00    -0.019 A 
ATOM     53  H   UNL     1     -45.772  30.791  23.213  1.00  0.00     0.063 H 
ATOM     54  H   UNL     1     -47.300  28.858  23.205  1.00  0.00     0.066 H 
BRANCH  51  55
ATOM     55  N   UNL     1     -49.564  28.657  24.597  1.00  0.00    -0.356 N 
ATOM     56  C   UNL     1     -49.716  27.686  23.555  1.00  0.00     0.021 C 
ATOM     57  C   UNL     1     -49.626  27.662  25.628  1.00  0.00     0.021 C 
ATOM     58  C   UNL     1     -50.369  26.787  24.612  1.00  0.00    -0.018 C 
ATOM     59  H   UNL     1     -48.760  27.323  23.165  1.00  0.00     0.049 H 
ATOM     60  H   UNL     1     -50.370  28.012  22.742  1.00  0.00     0.049 H 
ATOM     61  H   UNL     1     -50.204  27.973  26.501  1.00  0.00     0.049 H 
ATOM     62  H   UNL     1     -48.641  27.288  25.926  1.00  0.00     0.049 H 
ATOM     63  H   UNL     1     -51.461  26.866  24.660  1.00  0.00     0.030 H 
ATOM     64  H   UNL     1     -50.079  25.734  24.586  1.00  0.00     0.030 H 
ENDBRANCH  51  55
ENDBRANCH  38  40
ENDBRANCH  35  38
ENDBRANCH   5  35
TORSDOF 8
ENDMDL
MODEL 4
REMARK VINA RESULT:      -9.8      1.785      2.342
REMARK SMILES Cn1ccc(-c2cn(-c3cncc(C[S@+]([O-])c4ccc5ccc(N6CCC6)nc5c4)c3)c3ncnc(N)c23)n1
REMARK SMILES IDX 9 1 10 2 11 3 12 4 13 5 31 6 8 10 6 11 7 12 38 13 32 15
REMARK SMILES IDX 36 16 33 17 35 18 34 19 5 21 2 22 3 23 39 24 4 25 1 28 37 32
REMARK SMILES IDX 14 35 15 38 16 39 17 40 18 41 30 42 19 43 29 45 20 47 28 49
REMARK SMILES IDX 21 50 23 51 22 52 24 55 25 56 27 57 26 58
REMARK H PARENT 10 7 12 8 31 9 7 14 34 20 3 26 4 27 1 29 1 30 1 31 37 33 37 34
REMARK H PARENT 14 36 14 37 18 44 30 46 19 48 21 53 22 54 25 59 25 60 27 61
REMARK H PARENT 27 62 26 63 26 64
REMARK Flexibility Score: inf
ROOT
ATOM      1  C   UNL     1     -46.542  40.178  26.878  1.00  0.00     0.066 A 
ATOM      2  C   UNL     1     -47.563  40.363  27.801  1.00  0.00     0.051 A 
ATOM      3  N   UNL     1     -48.339  39.361  28.287  1.00  0.00    -0.262 NA
ATOM      4  C   UNL     1     -48.084  38.110  27.850  1.00  0.00     0.035 A 
ATOM      5  C   UNL     1     -47.109  37.808  26.911  1.00  0.00     0.022 A 
ATOM      6  C   UNL     1     -46.340  38.871  26.412  1.00  0.00    -0.027 A 
ATOM      7  H   UNL     1     -47.805  41.324  28.239  1.00  0.00     0.086 H 
ATOM      8  H   UNL     1     -48.701  37.335  28.301  1.00  0.00     0.084 H 
ATOM      9  H   UNL     1     -45.584  38.651  25.664  1.00  0.00     0.065 H 
ENDROOT
BRANCH   1  10
ATOM     10  N   UNL     1     -45.703  41.254  26.444  1.00  0.00    -0.299 N 
ATOM     11  C   UNL     1     -45.031  43.109  25.343  1.00  0.00     0.033 A 
ATOM     12  C   UNL     1     -46.099  42.272  25.593  1.00  0.00     0.021 A 
ATOM     13  C   UNL     1     -43.927  42.628  26.102  1.00  0.00     0.071 A 
ATOM     14  H   UNL     1     -47.095  42.305  25.176  1.00  0.00     0.083 H 
ATOM     15  C   UNL     1     -44.361  41.473  26.754  1.00  0.00     0.150 A 
ATOM     16  C   UNL     1     -42.595  43.018  26.336  1.00  0.00     0.137 A 
ATOM     17  N   UNL     1     -43.603  40.715  27.573  1.00  0.00    -0.218 NA
ATOM     18  N   UNL     1     -41.813  42.257  27.125  1.00  0.00    -0.219 NA
ATOM     19  C   UNL     1     -42.352  41.172  27.695  1.00  0.00     0.120 A 
ATOM     20  H   UNL     1     -41.693  40.595  28.338  1.00  0.00     0.106 H 
BRANCH  11  21
ATOM     21  C   UNL     1     -45.041  44.268  24.443  1.00  0.00     0.095 A 
ATOM     22  N   UNL     1     -44.991  45.460  22.696  1.00  0.00    -0.275 N 
ATOM     23  C   UNL     1     -45.158  46.353  23.711  1.00  0.00     0.025 A 
ATOM     24  N   UNL     1     -44.931  44.180  23.110  1.00  0.00    -0.173 NA
ATOM     25  C   UNL     1     -45.198  45.607  24.865  1.00  0.00    -0.016 A 
ATOM     26  H   UNL     1     -45.237  47.417  23.540  1.00  0.00     0.084 H 
ATOM     27  H   UNL     1     -45.327  45.986  25.869  1.00  0.00     0.066 H 
BRANCH  22  28
ATOM     28  C   UNL     1     -44.882  45.757  21.289  1.00  0.00     0.030 C 
ATOM     29  H   UNL     1     -45.684  45.251  20.747  1.00  0.00     0.048 H 
ATOM     30  H   UNL     1     -44.966  46.838  21.157  1.00  0.00     0.048 H 
ATOM     31  H   UNL     1     -43.911  45.400  20.937  1.00  0.00     0.048 H 
ENDBRANCH  22  28
ENDBRANCH  11  21
BRANCH  16  32
ATOM     32  N   UNL     1     -42.011  44.158  25.804  1.00  0.00    -0.383 N 
ATOM     33  H   UNL     1     -42.257  45.005  26.323  1.00  0.00     0.158 HD
ATOM     34  H   UNL     1     -42.106  44.192  24.798  1.00  0.00     0.158 HD
ENDBRANCH  16  32
ENDBRANCH   1  10
BRANCH   5  35
ATOM     35  C   UNL     1     -46.853  36.389  26.484  1.00  0.00     0.137 C 
ATOM     36  H   UNL     1     -46.992  36.296  25.402  1.00  0.00     0.091 H 
ATOM     37  H   UNL     1     -45.817  36.100  26.693  1.00  0.00     0.091 H 
BRANCH  35  38
ATOM     38  S   UNL     1     -47.944  35.145  27.272  1.00  0.00    -0.010 S 
ATOM     39  O   UNL     1     -47.361  34.841  28.795  1.00  0.00    -0.611 OA
BRANCH  38  40
ATOM     40  C   UNL     1     -47.523  33.727  26.236  1.00  0.00     0.155 A 
ATOM     41  C   UNL     1     -46.529  33.823  25.261  1.00  0.00    -0.006 A 
ATOM     42  C   UNL     1     -48.240  32.532  26.375  1.00  0.00     0.020 A 
ATOM     43  C   UNL     1     -46.292  32.751  24.405  1.00  0.00    -0.048 A 
ATOM     44  H   UNL     1     -45.959  34.744  25.140  1.00  0.00     0.068 H 
ATOM     45  C   UNL     1     -48.030  31.458  25.525  1.00  0.00     0.078 A 
ATOM     46  H   UNL     1     -49.005  32.435  27.142  1.00  0.00     0.070 H 
ATOM     47  C   UNL     1     -47.048  31.575  24.524  1.00  0.00     0.001 A 
ATOM     48  H   UNL     1     -45.530  32.848  23.634  1.00  0.00     0.063 H 
ATOM     49  N   UNL     1     -48.791  30.361  25.670  1.00  0.00    -0.231 NA
ATOM     50  C   UNL     1     -46.873  30.493  23.658  1.00  0.00    -0.049 A 
ATOM     51  C   UNL     1     -48.603  29.312  24.837  1.00  0.00     0.129 A 
ATOM     52  C   UNL     1     -47.660  29.355  23.815  1.00  0.00    -0.019 A 
ATOM     53  H   UNL     1     -46.139  30.529  22.858  1.00  0.00     0.063 H 
ATOM     54  H   UNL     1     -47.541  28.521  23.134  1.00  0.00     0.066 H 
BRANCH  51  55
ATOM     55  N   UNL     1     -49.413  28.173  24.999  1.00  0.00    -0.356 N 
ATOM     56  C   UNL     1     -49.638  27.140  24.031  1.00  0.00     0.021 C 
ATOM     57  C   UNL     1     -49.286  27.232  26.075  1.00  0.00     0.021 C 
ATOM     58  C   UNL     1     -50.098  26.267  25.204  1.00  0.00    -0.018 C 
ATOM     59  H   UNL     1     -48.719  26.807  23.539  1.00  0.00     0.049 H 
ATOM     60  H   UNL     1     -50.407  27.388  23.296  1.00  0.00     0.049 H 
ATOM     61  H   UNL     1     -49.767  27.559  27.000  1.00  0.00     0.049 H 
ATOM     62  H   UNL     1     -48.250  26.927  26.260  1.00  0.00     0.049 H 
ATOM     63  H   UNL     1     -51.178  26.291  25.390  1.00  0.00     0.030 H 
ATOM     64  H   UNL     1     -49.752  25.230  25.190  1.00  0.00     0.030 H 
ENDBRANCH  51  55
ENDBRANCH  38  40
ENDBRANCH  35  38
ENDBRANCH   5  35
TORSDOF 8
ENDMDL
MODEL 5
REMARK VINA RESULT:      -9.7      2.212     12.584
REMARK SMILES Cn1ccc(-c2cn(-c3cncc(C[S@+]([O-])c4ccc5ccc(N6CCC6)nc5c4)c3)c3ncnc(N)c23)n1
REMARK SMILES IDX 9 1 10 2 11 3 12 4 13 5 31 6 8 10 6 11 7 12 38 13 32 15
REMARK SMILES IDX 36 16 33 17 35 18 34 19 5 21 2 22 3 23 39 24 4 25 1 28 37 32
REMARK SMILES IDX 14 35 15 38 16 39 17 40 18 41 30 42 19 43 29 45 20 47 28 49
REMARK SMILES IDX 21 50 23 51 22 52 24 55 25 56 27 57 26 58
REMARK H PARENT 10 7 12 8 31 9 7 14 34 20 3 26 4 27 1 29 1 30 1 31 37 33 37 34
REMARK H PARENT 14 36 14 37 18 44 30 46 19 48 21 53 22 54 25 59 25 60 27 61
REMARK H PARENT 27 62 26 63 26 64
REMARK Flexibility Score: inf
ROOT
ATOM      1  C   UNL     1     -48.297  32.527  26.015  1.00  0.00     0.066 A 
ATOM      2  C   UNL     1     -49.461  33.251  26.241  1.00  0.00     0.051 A 
ATOM      3  N   UNL     1     -49.483  34.534  26.684  1.00  0.00    -0.262 NA
ATOM      4  C   UNL     1     -48.296  35.136  26.903  1.00  0.00     0.035 A 
ATOM      5  C   UNL     1     -47.071  34.505  26.737  1.00  0.00     0.022 A 
ATOM      6  C   UNL     1     -47.085  33.171  26.299  1.00  0.00    -0.027 A 
ATOM      7  H   UNL     1     -50.453  32.863  26.048  1.00  0.00     0.086 H 
ATOM      8  H   UNL     1     -48.363  36.177  27.214  1.00  0.00     0.084 H 
ATOM      9  H   UNL     1     -46.135  32.660  26.181  1.00  0.00     0.065 H 
ENDROOT
BRANCH   1  10
ATOM     10  N   UNL     1     -48.319  31.199  25.480  1.00  0.00    -0.299 N 
ATOM     11  C   UNL     1     -48.483  28.946  25.400  1.00  0.00     0.033 A 
ATOM     12  C   UNL     1     -48.598  30.056  26.211  1.00  0.00     0.021 A 
ATOM     13  C   UNL     1     -48.163  29.407  24.092  1.00  0.00     0.071 A 
ATOM     14  H   UNL     1     -48.805  30.099  27.271  1.00  0.00     0.083 H 
ATOM     15  C   UNL     1     -48.047  30.796  24.173  1.00  0.00     0.150 A 
ATOM     16  C   UNL     1     -47.955  28.834  22.824  1.00  0.00     0.137 A 
ATOM     17  N   UNL     1     -47.748  31.609  23.139  1.00  0.00    -0.218 NA
ATOM     18  N   UNL     1     -47.624  29.626  21.787  1.00  0.00    -0.219 NA
ATOM     19  C   UNL     1     -47.547  30.946  21.995  1.00  0.00     0.120 A 
ATOM     20  H   UNL     1     -47.295  31.552  21.130  1.00  0.00     0.106 H 
BRANCH  11  21
ATOM     21  C   UNL     1     -48.645  27.551  25.825  1.00  0.00     0.095 A 
ATOM     22  N   UNL     1     -48.220  25.579  26.460  1.00  0.00    -0.275 N 
ATOM     23  C   UNL     1     -49.579  25.632  26.409  1.00  0.00     0.025 A 
ATOM     24  N   UNL     1     -47.622  26.738  26.124  1.00  0.00    -0.173 NA
ATOM     25  C   UNL     1     -49.890  26.908  26.001  1.00  0.00    -0.016 A 
ATOM     26  H   UNL     1     -50.203  24.787  26.662  1.00  0.00     0.084 H 
ATOM     27  H   UNL     1     -50.882  27.311  25.856  1.00  0.00     0.066 H 
BRANCH  22  28
ATOM     28  C   UNL     1     -47.410  24.443  26.829  1.00  0.00     0.030 C 
ATOM     29  H   UNL     1     -47.992  23.527  26.709  1.00  0.00     0.048 H 
ATOM     30  H   UNL     1     -46.534  24.419  26.175  1.00  0.00     0.048 H 
ATOM     31  H   UNL     1     -47.108  24.561  27.872  1.00  0.00     0.048 H 
ENDBRANCH  22  28
ENDBRANCH  11  21
BRANCH  16  32
ATOM     32  N   UNL     1     -48.069  27.478  22.553  1.00  0.00    -0.383 N 
ATOM     33  H   UNL     1     -47.331  27.138  21.931  1.00  0.00     0.158 HD
ATOM     34  H   UNL     1     -49.019  27.222  22.320  1.00  0.00     0.158 HD
ENDBRANCH  16  32
ENDBRANCH   1  10
BRANCH   5  35
ATOM     35  C   UNL     1     -45.780  35.239  26.970  1.00  0.00     0.137 C 
ATOM     36  H   UNL     1     -44.937  34.544  26.884  1.00  0.00     0.091 H 
ATOM     37  H   UNL     1     -45.627  36.010  26.207  1.00  0.00     0.091 H 
BRANCH  35  38
ATOM     38  S   UNL     1     -45.643  36.048  28.609  1.00  0.00    -0.010 S 
ATOM     39  O   UNL     1     -46.846  35.446  29.580  1.00  0.00    -0.611 OA
BRANCH  38  40
ATOM     40  C   UNL     1     -46.121  37.720  28.122  1.00  0.00     0.155 A 
ATOM     41  C   UNL     1     -47.453  38.129  28.185  1.00  0.00    -0.006 A 
ATOM     42  C   UNL     1     -45.151  38.599  27.625  1.00  0.00     0.020 A 
ATOM     43  C   UNL     1     -47.815  39.386  27.708  1.00  0.00    -0.048 A 
ATOM     44  H   UNL     1     -48.221  37.460  28.571  1.00  0.00     0.068 H 
ATOM     45  C   UNL     1     -45.490  39.849  27.132  1.00  0.00     0.078 A 
ATOM     46  H   UNL     1     -44.106  38.301  27.587  1.00  0.00     0.070 H 
ATOM     47  C   UNL     1     -46.841  40.242  27.169  1.00  0.00     0.001 A 
ATOM     48  H   UNL     1     -48.861  39.685  27.741  1.00  0.00     0.063 H 
ATOM     49  N   UNL     1     -44.523  40.623  26.613  1.00  0.00    -0.231 NA
ATOM     50  C   UNL     1     -47.166  41.493  26.641  1.00  0.00    -0.049 A 
ATOM     51  C   UNL     1     -44.846  41.839  26.118  1.00  0.00     0.129 A 
ATOM     52  C   UNL     1     -46.161  42.294  26.108  1.00  0.00    -0.019 A 
ATOM     53  H   UNL     1     -48.194  41.846  26.629  1.00  0.00     0.063 H 
ATOM     54  H   UNL     1     -46.412  43.258  25.678  1.00  0.00     0.066 H 
BRANCH  51  55
ATOM     55  N   UNL     1     -43.823  42.634  25.571  1.00  0.00    -0.356 N 
ATOM     56  C   UNL     1     -43.840  44.058  25.411  1.00  0.00     0.021 C 
ATOM     57  C   UNL     1     -42.462  42.634  26.027  1.00  0.00     0.021 C 
ATOM     58  C   UNL     1     -42.314  43.974  25.298  1.00  0.00    -0.018 C 
ATOM     59  H   UNL     1     -44.211  44.584  26.297  1.00  0.00     0.049 H 
ATOM     60  H   UNL     1     -44.363  44.393  24.512  1.00  0.00     0.049 H 
ATOM     61  H   UNL     1     -41.869  41.807  25.630  1.00  0.00     0.049 H 
ATOM     62  H   UNL     1     -42.374  42.689  27.118  1.00  0.00     0.049 H 
ATOM     63  H   UNL     1     -41.940  43.890  24.271  1.00  0.00     0.030 H 
ATOM     64  H   UNL     1     -41.753  44.747  25.829  1.00  0.00     0.030 H 
ENDBRANCH  51  55
ENDBRANCH  38  40
ENDBRANCH  35  38
ENDBRANCH   5  35
TORSDOF 8
ENDMDL
MODEL 6
REMARK VINA RESULT:      -9.2      2.044     12.628
REMARK SMILES Cn1ccc(-c2cn(-c3cncc(C[S@+]([O-])c4ccc5ccc(N6CCC6)nc5c4)c3)c3ncnc(N)c23)n1
REMARK SMILES IDX 9 1 10 2 11 3 12 4 13 5 31 6 8 10 6 11 7 12 38 13 32 15
REMARK SMILES IDX 36 16 33 17 35 18 34 19 5 21 2 22 3 23 39 24 4 25 1 28 37 32
REMARK SMILES IDX 14 35 15 38 16 39 17 40 18 41 30 42 19 43 29 45 20 47 28 49
REMARK SMILES IDX 21 50 23 51 22 52 24 55 25 56 27 57 26 58
REMARK H PARENT 10 7 12 8 31 9 7 14 34 20 3 26 4 27 1 29 1 30 1 31 37 33 37 34
REMARK H PARENT 14 36 14 37 18 44 30 46 19 48 21 53 22 54 25 59 25 60 27 61
REMARK H PARENT 27 62 26 63 26 64
REMARK Flexibility Score: inf
ROOT
ATOM      1  C   UNL     1     -47.706  32.181  25.167  1.00  0.00     0.066 A 
ATOM      2  C   UNL     1     -46.320  32.121  25.116  1.00  0.00     0.051 A 
ATOM      3  N   UNL     1     -45.501  33.138  25.488  1.00  0.00    -0.262 NA
ATOM      4  C   UNL     1     -46.081  34.267  25.945  1.00  0.00     0.035 A 
ATOM      5  C   UNL     1     -47.454  34.451  26.016  1.00  0.00     0.022 A 
ATOM      6  C   UNL     1     -48.272  33.387  25.602  1.00  0.00    -0.027 A 
ATOM      7  H   UNL     1     -45.771  31.239  24.807  1.00  0.00     0.086 H 
ATOM      8  H   UNL     1     -45.385  35.037  26.273  1.00  0.00     0.084 H 
ATOM      9  H   UNL     1     -49.348  33.524  25.637  1.00  0.00     0.065 H 
ENDROOT
BRANCH   1  10
ATOM     10  N   UNL     1     -48.530  31.059  24.830  1.00  0.00    -0.299 N 
ATOM     11  C   UNL     1     -49.517  29.032  24.976  1.00  0.00     0.033 A 
ATOM     12  C   UNL     1     -48.702  29.937  25.624  1.00  0.00     0.021 A 
ATOM     13  C   UNL     1     -49.914  29.622  23.744  1.00  0.00     0.071 A 
ATOM     14  H   UNL     1     -48.190  29.830  26.569  1.00  0.00     0.083 H 
ATOM     15  C   UNL     1     -49.276  30.861  23.669  1.00  0.00     0.150 A 
ATOM     16  C   UNL     1     -50.744  29.277  22.661  1.00  0.00     0.137 A 
ATOM     17  N   UNL     1     -49.394  31.732  22.645  1.00  0.00    -0.218 NA
ATOM     18  N   UNL     1     -50.848  30.119  21.615  1.00  0.00    -0.219 NA
ATOM     19  C   UNL     1     -50.186  31.281  21.666  1.00  0.00     0.120 A 
ATOM     20  H   UNL     1     -50.311  31.939  20.810  1.00  0.00     0.106 H 
BRANCH  11  21
ATOM     21  C   UNL     1     -49.882  27.699  25.471  1.00  0.00     0.095 A 
ATOM     22  N   UNL     1     -50.994  26.076  26.248  1.00  0.00    -0.275 N 
ATOM     23  C   UNL     1     -49.751  25.563  26.034  1.00  0.00     0.025 A 
ATOM     24  N   UNL     1     -51.109  27.372  25.901  1.00  0.00    -0.173 NA
ATOM     25  C   UNL     1     -49.001  26.596  25.523  1.00  0.00    -0.016 A 
ATOM     26  H   UNL     1     -49.503  24.534  26.251  1.00  0.00     0.084 H 
ATOM     27  H   UNL     1     -47.963  26.550  25.228  1.00  0.00     0.066 H 
BRANCH  22  28
ATOM     28  C   UNL     1     -52.138  25.382  26.787  1.00  0.00     0.030 C 
ATOM     29  H   UNL     1     -52.004  25.237  27.861  1.00  0.00     0.048 H 
ATOM     30  H   UNL     1     -53.028  25.987  26.598  1.00  0.00     0.048 H 
ATOM     31  H   UNL     1     -52.218  24.413  26.286  1.00  0.00     0.048 H 
ENDBRANCH  22  28
ENDBRANCH  11  21
BRANCH  16  32
ATOM     32  N   UNL     1     -51.483  28.106  22.587  1.00  0.00    -0.383 N 
ATOM     33  H   UNL     1     -52.478  28.257  22.776  1.00  0.00     0.158 HD
ATOM     34  H   UNL     1     -51.033  27.348  23.079  1.00  0.00     0.158 HD
ENDBRANCH  16  32
ENDBRANCH   1  10
BRANCH   5  35
ATOM     35  C   UNL     1     -48.041  35.723  26.563  1.00  0.00     0.137 C 
ATOM     36  H   UNL     1     -47.424  36.576  26.261  1.00  0.00     0.091 H 
ATOM     37  H   UNL     1     -49.041  35.899  26.152  1.00  0.00     0.091 H 
BRANCH  35  38
ATOM     38  S   UNL     1     -48.175  35.780  28.390  1.00  0.00    -0.010 S 
ATOM     39  O   UNL     1     -49.529  36.658  28.777  1.00  0.00    -0.611 OA
BRANCH  38  40
ATOM     40  C   UNL     1     -46.738  36.819  28.731  1.00  0.00     0.155 A 
ATOM     41  C   UNL     1     -46.064  36.729  29.949  1.00  0.00    -0.006 A 
ATOM     42  C   UNL     1     -46.328  37.764  27.783  1.00  0.00     0.020 A 
ATOM     43  C   UNL     1     -45.024  37.611  30.232  1.00  0.00    -0.048 A 
ATOM     44  H   UNL     1     -46.367  35.998  30.698  1.00  0.00     0.068 H 
ATOM     45  C   UNL     1     -45.305  38.660  28.049  1.00  0.00     0.078 A 
ATOM     46  H   UNL     1     -46.832  37.834  26.821  1.00  0.00     0.070 H 
ATOM     47  C   UNL     1     -44.651  38.584  29.292  1.00  0.00     0.001 A 
ATOM     48  H   UNL     1     -44.522  37.545  31.196  1.00  0.00     0.063 H 
ATOM     49  N   UNL     1     -44.997  39.583  27.122  1.00  0.00    -0.231 NA
ATOM     50  C   UNL     1     -43.643  39.515  29.552  1.00  0.00    -0.049 A 
ATOM     51  C   UNL     1     -44.009  40.470  27.377  1.00  0.00     0.129 A 
ATOM     52  C   UNL     1     -43.324  40.467  28.588  1.00  0.00    -0.019 A 
ATOM     53  H   UNL     1     -43.112  39.515  30.500  1.00  0.00     0.063 H 
ATOM     54  H   UNL     1     -42.556  41.204  28.793  1.00  0.00     0.066 H 
BRANCH  51  55
ATOM     55  N   UNL     1     -43.704  41.434  26.399  1.00  0.00    -0.356 N 
ATOM     56  C   UNL     1     -44.543  41.844  25.313  1.00  0.00     0.021 C 
ATOM     57  C   UNL     1     -43.298  42.780  26.685  1.00  0.00     0.021 C 
ATOM     58  C   UNL     1     -43.671  43.103  25.233  1.00  0.00    -0.018 C 
ATOM     59  H   UNL     1     -45.581  42.018  25.615  1.00  0.00     0.049 H 
ATOM     60  H   UNL     1     -44.495  41.181  24.446  1.00  0.00     0.049 H 
ATOM     61  H   UNL     1     -42.240  42.873  26.937  1.00  0.00     0.049 H 
ATOM     62  H   UNL     1     -43.924  43.267  27.441  1.00  0.00     0.049 H 
ATOM     63  H   UNL     1     -42.836  43.031  24.526  1.00  0.00     0.030 H 
ATOM     64  H   UNL     1     -44.205  44.043  25.075  1.00  0.00     0.030 H 
ENDBRANCH  51  55
ENDBRANCH  38  40
ENDBRANCH  35  38
ENDBRANCH   5  35
TORSDOF 8
ENDMDL
MODEL 7
REMARK VINA RESULT:      -9.2      2.448      3.331
REMARK SMILES Cn1ccc(-c2cn(-c3cncc(C[S@+]([O-])c4ccc5ccc(N6CCC6)nc5c4)c3)c3ncnc(N)c23)n1
REMARK SMILES IDX 9 1 10 2 11 3 12 4 13 5 31 6 8 10 6 11 7 12 38 13 32 15
REMARK SMILES IDX 36 16 33 17 35 18 34 19 5 21 2 22 3 23 39 24 4 25 1 28 37 32
REMARK SMILES IDX 14 35 15 38 16 39 17 40 18 41 30 42 19 43 29 45 20 47 28 49
REMARK SMILES IDX 21 50 23 51 22 52 24 55 25 56 27 57 26 58
REMARK H PARENT 10 7 12 8 31 9 7 14 34 20 3 26 4 27 1 29 1 30 1 31 37 33 37 34
REMARK H PARENT 14 36 14 37 18 44 30 46 19 48 21 53 22 54 25 59 25 60 27 61
REMARK H PARENT 27 62 26 63 26 64
REMARK Flexibility Score: inf
ROOT
ATOM      1  C   UNL     1     -46.265  38.624  27.963  1.00  0.00     0.066 A 
ATOM      2  C   UNL     1     -45.618  38.523  29.188  1.00  0.00     0.051 A 
ATOM      3  N   UNL     1     -45.144  37.360  29.703  1.00  0.00    -0.262 NA
ATOM      4  C   UNL     1     -45.306  36.242  28.966  1.00  0.00     0.035 A 
ATOM      5  C   UNL     1     -45.959  36.217  27.742  1.00  0.00     0.022 A 
ATOM      6  C   UNL     1     -46.457  37.433  27.249  1.00  0.00    -0.027 A 
ATOM      7  H   UNL     1     -45.404  39.375  29.823  1.00  0.00     0.086 H 
ATOM      8  H   UNL     1     -44.871  35.343  29.399  1.00  0.00     0.084 H 
ATOM      9  H   UNL     1     -46.984  37.424  26.300  1.00  0.00     0.065 H 
ENDROOT
BRANCH   1  10
ATOM     10  N   UNL     1     -46.687  39.882  27.426  1.00  0.00    -0.299 N 
ATOM     11  C   UNL     1     -48.036  41.612  26.882  1.00  0.00     0.033 A 
ATOM     12  C   UNL     1     -47.959  40.413  27.562  1.00  0.00     0.021 A 
ATOM     13  C   UNL     1     -46.749  41.872  26.332  1.00  0.00     0.071 A 
ATOM     14  H   UNL     1     -48.742  39.881  28.082  1.00  0.00     0.083 H 
ATOM     15  C   UNL     1     -45.943  40.783  26.664  1.00  0.00     0.150 A 
ATOM     16  C   UNL     1     -46.139  42.900  25.589  1.00  0.00     0.137 A 
ATOM     17  N   UNL     1     -44.645  40.647  26.322  1.00  0.00    -0.218 NA
ATOM     18  N   UNL     1     -44.854  42.768  25.210  1.00  0.00    -0.219 NA
ATOM     19  C   UNL     1     -44.187  41.673  25.596  1.00  0.00     0.120 A 
ATOM     20  H   UNL     1     -43.148  41.613  25.285  1.00  0.00     0.106 H 
BRANCH  11  21
ATOM     21  C   UNL     1     -49.236  42.444  26.742  1.00  0.00     0.095 A 
ATOM     22  N   UNL     1     -51.052  43.251  26.019  1.00  0.00    -0.275 N 
ATOM     23  C   UNL     1     -50.783  43.975  27.141  1.00  0.00     0.025 A 
ATOM     24  N   UNL     1     -50.135  42.301  25.758  1.00  0.00    -0.173 NA
ATOM     25  C   UNL     1     -49.605  43.471  27.640  1.00  0.00    -0.016 A 
ATOM     26  H   UNL     1     -51.431  44.766  27.490  1.00  0.00     0.084 H 
ATOM     27  H   UNL     1     -49.092  43.803  28.531  1.00  0.00     0.066 H 
BRANCH  22  28
ATOM     28  C   UNL     1     -52.182  43.409  25.135  1.00  0.00     0.030 C 
ATOM     29  H   UNL     1     -53.019  43.841  25.688  1.00  0.00     0.048 H 
ATOM     30  H   UNL     1     -51.890  44.074  24.319  1.00  0.00     0.048 H 
ATOM     31  H   UNL     1     -52.456  42.424  24.750  1.00  0.00     0.048 H 
ENDBRANCH  22  28
ENDBRANCH  11  21
BRANCH  16  32
ATOM     32  N   UNL     1     -46.777  44.071  25.207  1.00  0.00    -0.383 N 
ATOM     33  H   UNL     1     -47.459  43.921  24.459  1.00  0.00     0.158 HD
ATOM     34  H   UNL     1     -46.123  44.831  25.086  1.00  0.00     0.158 HD
ENDBRANCH  16  32
ENDBRANCH   1  10
BRANCH   5  35
ATOM     35  C   UNL     1     -46.082  34.942  26.953  1.00  0.00     0.137 C 
ATOM     36  H   UNL     1     -45.310  34.911  26.177  1.00  0.00     0.091 H 
ATOM     37  H   UNL     1     -45.917  34.070  27.594  1.00  0.00     0.091 H 
BRANCH  35  38
ATOM     38  S   UNL     1     -47.695  34.715  26.113  1.00  0.00    -0.010 S 
ATOM     39  O   UNL     1     -48.863  34.552  27.280  1.00  0.00    -0.611 OA
BRANCH  38  40
ATOM     40  C   UNL     1     -47.400  33.080  25.406  1.00  0.00     0.155 A 
ATOM     41  C   UNL     1     -46.514  32.910  24.342  1.00  0.00    -0.006 A 
ATOM     42  C   UNL     1     -48.109  31.977  25.897  1.00  0.00     0.020 A 
ATOM     43  C   UNL     1     -46.379  31.659  23.745  1.00  0.00    -0.048 A 
ATOM     44  H   UNL     1     -45.951  33.755  23.948  1.00  0.00     0.068 H 
ATOM     45  C   UNL     1     -48.002  30.726  25.310  1.00  0.00     0.078 A 
ATOM     46  H   UNL     1     -48.789  32.089  26.738  1.00  0.00     0.070 H 
ATOM     47  C   UNL     1     -47.130  30.570  24.216  1.00  0.00     0.001 A 
ATOM     48  H   UNL     1     -45.703  31.545  22.901  1.00  0.00     0.063 H 
ATOM     49  N   UNL     1     -48.753  29.721  25.788  1.00  0.00    -0.231 NA
ATOM     50  C   UNL     1     -47.058  29.309  23.620  1.00  0.00    -0.049 A 
ATOM     51  C   UNL     1     -48.665  28.500  25.214  1.00  0.00     0.129 A 
ATOM     52  C   UNL     1     -47.835  28.269  24.121  1.00  0.00    -0.019 A 
ATOM     53  H   UNL     1     -46.413  29.131  22.763  1.00  0.00     0.063 H 
ATOM     54  H   UNL     1     -47.797  27.293  23.649  1.00  0.00     0.066 H 
BRANCH  51  55
ATOM     55  N   UNL     1     -49.464  27.460  25.722  1.00  0.00    -0.356 N 
ATOM     56  C   UNL     1     -50.701  26.987  25.175  1.00  0.00     0.021 C 
ATOM     57  C   UNL     1     -48.994  26.130  25.987  1.00  0.00     0.021 C 
ATOM     58  C   UNL     1     -50.468  25.708  25.988  1.00  0.00    -0.018 C 
ATOM     59  H   UNL     1     -50.667  26.858  24.088  1.00  0.00     0.049 H 
ATOM     60  H   UNL     1     -51.568  27.583  25.470  1.00  0.00     0.049 H 
ATOM     61  H   UNL     1     -48.471  26.034  26.941  1.00  0.00     0.049 H 
ATOM     62  H   UNL     1     -48.395  25.714  25.170  1.00  0.00     0.049 H 
ATOM     63  H   UNL     1     -50.938  25.710  26.979  1.00  0.00     0.030 H 
ATOM     64  H   UNL     1     -50.697  24.770  25.476  1.00  0.00     0.030 H 
ENDBRANCH  51  55
ENDBRANCH  38  40
ENDBRANCH  35  38
ENDBRANCH   5  35
TORSDOF 8
ENDMDL
