MODEL 1
REMARK VINA RESULT:     -11.0      0.000      0.000
REMARK SMILES Cc1cc2c(N)ncnc2n1[C@@H]1C[C@H](CCc2ccc3nc(N)ccc3c2)[C@@H](O)[C@H]1O
REMARK SMILES IDX 15 1 14 4 12 5 13 6 30 7 28 11 11 15 2 16 3 17 4 18 10 20
REMARK SMILES IDX 5 21 9 22 7 23 8 24 1 26 6 30 31 33 29 35 16 37 17 40 18 41
REMARK SMILES IDX 27 42 19 43 26 45 20 47 25 49 21 50 24 51 22 53 23 55
REMARK H PARENT 15 2 15 3 12 8 13 9 13 10 30 12 14 13 28 14 3 19 8 25 1 27
REMARK H PARENT 1 28 1 29 6 31 6 32 31 34 29 36 16 38 16 39 18 44 27 46 19 48
REMARK H PARENT 25 52 24 54 23 56 23 57
REMARK Flexibility Score: inf
ROOT
ATOM      1  C   UNL     1     -47.265  35.227  27.355  1.00  0.00    -0.044 C 
ATOM      2  H   UNL     1     -48.025  36.016  27.275  1.00  0.00     0.027 H 
ATOM      3  H   UNL     1     -47.779  34.359  27.792  1.00  0.00     0.027 H 
ENDROOT
BRANCH   1   4
ATOM      4  C   UNL     1     -46.188  35.702  28.348  1.00  0.00    -0.010 C 
ATOM      5  C   UNL     1     -45.115  37.867  28.782  1.00  0.00     0.064 C 
ATOM      6  C   UNL     1     -45.216  36.740  27.745  1.00  0.00    -0.024 C 
ATOM      7  C   UNL     1     -46.483  37.852  29.478  1.00  0.00     0.101 C 
ATOM      8  H   UNL     1     -44.357  37.587  29.524  1.00  0.00     0.056 H 
ATOM      9  H   UNL     1     -45.558  37.099  26.769  1.00  0.00     0.029 H 
ATOM     10  H   UNL     1     -44.230  36.294  27.573  1.00  0.00     0.029 H 
ATOM     11  C   UNL     1     -46.749  36.348  29.625  1.00  0.00     0.085 C 
ATOM     12  H   UNL     1     -47.279  38.315  28.890  1.00  0.00     0.065 H 
ATOM     13  H   UNL     1     -45.600  34.814  28.620  1.00  0.00     0.033 H 
ATOM     14  H   UNL     1     -47.802  36.124  29.819  1.00  0.00     0.063 H 
BRANCH   5  15
ATOM     15  N   UNL     1     -44.716  39.154  28.237  1.00  0.00    -0.324 N 
ATOM     16  C   UNL     1     -45.273  39.769  27.126  1.00  0.00     0.018 A 
ATOM     17  C   UNL     1     -44.601  40.962  26.935  1.00  0.00    -0.028 A 
ATOM     18  C   UNL     1     -43.618  41.088  27.948  1.00  0.00     0.061 A 
ATOM     19  H   UNL     1     -44.797  41.672  26.140  1.00  0.00     0.065 H 
ATOM     20  C   UNL     1     -43.710  39.953  28.739  1.00  0.00     0.146 A 
ATOM     21  C   UNL     1     -42.643  42.031  28.302  1.00  0.00     0.136 A 
ATOM     22  N   UNL     1     -42.949  39.675  29.812  1.00  0.00    -0.218 NA
ATOM     23  N   UNL     1     -41.863  41.792  29.373  1.00  0.00    -0.219 NA
ATOM     24  C   UNL     1     -42.052  40.647  30.053  1.00  0.00     0.120 A 
ATOM     25  H   UNL     1     -41.398  40.491  30.906  1.00  0.00     0.106 H 
BRANCH  16  26
ATOM     26  C   UNL     1     -46.391  39.193  26.327  1.00  0.00    -0.024 C 
ATOM     27  H   UNL     1     -47.358  39.485  26.748  1.00  0.00     0.029 H 
ATOM     28  H   UNL     1     -46.344  38.099  26.327  1.00  0.00     0.029 H 
ATOM     29  H   UNL     1     -46.337  39.529  25.288  1.00  0.00     0.029 H 
ENDBRANCH  16  26
BRANCH  21  30
ATOM     30  N   UNL     1     -42.437  43.219  27.615  1.00  0.00    -0.383 N 
ATOM     31  H   UNL     1     -42.352  44.039  28.200  1.00  0.00     0.158 HD
ATOM     32  H   UNL     1     -41.728  43.099  26.901  1.00  0.00     0.158 HD
ENDBRANCH  21  30
ENDBRANCH   5  15
BRANCH   7  33
ATOM     33  O   UNL     1     -46.450  38.464  30.768  1.00  0.00    -0.388 OA
ATOM     34  H   UNL     1     -45.562  38.294  31.135  1.00  0.00     0.211 HD
ENDBRANCH   7  33
BRANCH  11  35
ATOM     35  O   UNL     1     -46.004  35.857  30.747  1.00  0.00    -0.390 OA
ATOM     36  H   UNL     1     -46.010  34.883  30.643  1.00  0.00     0.211 HD
ENDBRANCH  11  35
ENDBRANCH   1   4
BRANCH   1  37
ATOM     37  C   UNL     1     -46.771  34.872  25.948  1.00  0.00    -0.028 C 
ATOM     38  H   UNL     1     -47.148  35.589  25.211  1.00  0.00     0.032 H 
ATOM     39  H   UNL     1     -45.680  34.924  25.893  1.00  0.00     0.032 H 
BRANCH  37  40
ATOM     40  C   UNL     1     -47.206  33.485  25.544  1.00  0.00    -0.047 A 
ATOM     41  C   UNL     1     -48.326  32.890  26.129  1.00  0.00    -0.057 A 
ATOM     42  C   UNL     1     -46.481  32.760  24.592  1.00  0.00    -0.050 A 
ATOM     43  C   UNL     1     -48.715  31.599  25.756  1.00  0.00    -0.035 A 
ATOM     44  H   UNL     1     -48.908  33.422  26.879  1.00  0.00     0.063 H 
ATOM     45  C   UNL     1     -46.877  31.461  24.222  1.00  0.00     0.001 A 
ATOM     46  H   UNL     1     -45.601  33.208  24.134  1.00  0.00     0.063 H 
ATOM     47  C   UNL     1     -48.012  30.867  24.809  1.00  0.00     0.073 A 
ATOM     48  H   UNL     1     -49.592  31.150  26.218  1.00  0.00     0.065 H 
ATOM     49  C   UNL     1     -46.174  30.719  23.269  1.00  0.00    -0.049 A 
ATOM     50  N   UNL     1     -48.427  29.628  24.488  1.00  0.00    -0.231 NA
ATOM     51  C   UNL     1     -46.607  29.441  22.938  1.00  0.00    -0.019 A 
ATOM     52  H   UNL     1     -45.295  31.130  22.778  1.00  0.00     0.063 H 
ATOM     53  C   UNL     1     -47.729  28.935  23.573  1.00  0.00     0.124 A 
ATOM     54  H   UNL     1     -46.085  28.856  22.189  1.00  0.00     0.066 H 
BRANCH  53  55
ATOM     55  N   UNL     1     -48.208  27.666  23.258  1.00  0.00    -0.384 N 
ATOM     56  H   UNL     1     -47.757  27.295  22.430  1.00  0.00     0.158 HD
ATOM     57  H   UNL     1     -48.038  27.081  24.072  1.00  0.00     0.158 HD
ENDBRANCH  53  55
ENDBRANCH  37  40
ENDBRANCH   1  37
TORSDOF 9
ENDMDL
MODEL 2
REMARK VINA RESULT:      -9.7      1.777      2.726
REMARK SMILES Cc1cc2c(N)ncnc2n1[C@@H]1C[C@H](CCc2ccc3nc(N)ccc3c2)[C@@H](O)[C@H]1O
REMARK SMILES IDX 15 1 14 4 12 5 13 6 30 7 28 11 11 15 2 16 3 17 4 18 10 20
REMARK SMILES IDX 5 21 9 22 7 23 8 24 1 26 6 30 31 33 29 35 16 37 17 40 18 41
REMARK SMILES IDX 27 42 19 43 26 45 20 47 25 49 21 50 24 51 22 53 23 55
REMARK H PARENT 15 2 15 3 12 8 13 9 13 10 30 12 14 13 28 14 3 19 8 25 1 27
REMARK H PARENT 1 28 1 29 6 31 6 32 31 34 29 36 16 38 16 39 18 44 27 46 19 48
REMARK H PARENT 25 52 24 54 23 56 23 57
REMARK Flexibility Score: inf
ROOT
ATOM      1  C   UNL     1     -46.782  36.557  26.527  1.00  0.00    -0.044 C 
ATOM      2  H   UNL     1     -46.319  37.052  25.663  1.00  0.00     0.027 H 
ATOM      3  H   UNL     1     -47.834  36.397  26.253  1.00  0.00     0.027 H 
ENDROOT
BRANCH   1   4
ATOM      4  C   UNL     1     -46.735  37.534  27.716  1.00  0.00    -0.010 C 
ATOM      5  C   UNL     1     -45.534  39.632  28.144  1.00  0.00     0.064 C 
ATOM      6  C   UNL     1     -45.328  38.121  27.969  1.00  0.00    -0.024 C 
ATOM      7  C   UNL     1     -46.760  39.940  27.275  1.00  0.00     0.101 C 
ATOM      8  H   UNL     1     -45.804  39.826  29.189  1.00  0.00     0.056 H 
ATOM      9  H   UNL     1     -44.635  37.884  27.156  1.00  0.00     0.029 H 
ATOM     10  H   UNL     1     -44.887  37.692  28.876  1.00  0.00     0.029 H 
ATOM     11  C   UNL     1     -47.673  38.744  27.575  1.00  0.00     0.085 C 
ATOM     12  H   UNL     1     -46.541  39.982  26.206  1.00  0.00     0.065 H 
ATOM     13  H   UNL     1     -47.020  36.957  28.606  1.00  0.00     0.033 H 
ATOM     14  H   UNL     1     -48.462  38.619  26.829  1.00  0.00     0.063 H 
BRANCH   5  15
ATOM     15  N   UNL     1     -44.357  40.437  27.856  1.00  0.00    -0.324 N 
ATOM     16  C   UNL     1     -43.214  40.505  28.637  1.00  0.00     0.018 A 
ATOM     17  C   UNL     1     -42.348  41.391  28.024  1.00  0.00    -0.028 A 
ATOM     18  C   UNL     1     -42.965  41.873  26.842  1.00  0.00     0.061 A 
ATOM     19  H   UNL     1     -41.368  41.668  28.393  1.00  0.00     0.065 H 
ATOM     20  C   UNL     1     -44.209  41.267  26.764  1.00  0.00     0.146 A 
ATOM     21  C   UNL     1     -42.626  42.761  25.812  1.00  0.00     0.136 A 
ATOM     22  N   UNL     1     -45.119  41.455  25.793  1.00  0.00    -0.218 NA
ATOM     23  N   UNL     1     -43.507  42.974  24.817  1.00  0.00    -0.219 NA
ATOM     24  C   UNL     1     -44.686  42.325  24.864  1.00  0.00     0.120 A 
ATOM     25  H   UNL     1     -45.370  42.530  24.046  1.00  0.00     0.106 H 
BRANCH  16  26
ATOM     26  C   UNL     1     -43.019  39.737  29.899  1.00  0.00    -0.024 C 
ATOM     27  H   UNL     1     -43.980  39.399  30.298  1.00  0.00     0.029 H 
ATOM     28  H   UNL     1     -42.542  40.360  30.663  1.00  0.00     0.029 H 
ATOM     29  H   UNL     1     -42.377  38.868  29.728  1.00  0.00     0.029 H 
ENDBRANCH  16  26
BRANCH  21  30
ATOM     30  N   UNL     1     -41.414  43.435  25.745  1.00  0.00    -0.383 N 
ATOM     31  H   UNL     1     -41.438  44.386  26.084  1.00  0.00     0.158 HD
ATOM     32  H   UNL     1     -40.663  42.850  26.093  1.00  0.00     0.158 HD
ENDBRANCH  21  30
ENDBRANCH   5  15
BRANCH   7  33
ATOM     33  O   UNL     1     -47.414  41.153  27.657  1.00  0.00    -0.388 OA
ATOM     34  H   UNL     1     -47.143  41.338  28.576  1.00  0.00     0.211 HD
ENDBRANCH   7  33
BRANCH  11  35
ATOM     35  O   UNL     1     -48.320  38.965  28.836  1.00  0.00    -0.390 OA
ATOM     36  H   UNL     1     -47.909  38.317  29.444  1.00  0.00     0.211 HD
ENDBRANCH  11  35
ENDBRANCH   1   4
BRANCH   1  37
ATOM     37  C   UNL     1     -46.100  35.202  26.745  1.00  0.00    -0.028 C 
ATOM     38  H   UNL     1     -45.086  35.205  26.330  1.00  0.00     0.032 H 
ATOM     39  H   UNL     1     -45.991  34.987  27.811  1.00  0.00     0.032 H 
BRANCH  37  40
ATOM     40  C   UNL     1     -46.883  34.081  26.106  1.00  0.00    -0.047 A 
ATOM     41  C   UNL     1     -48.224  33.873  26.431  1.00  0.00    -0.057 A 
ATOM     42  C   UNL     1     -46.271  33.217  25.191  1.00  0.00    -0.050 A 
ATOM     43  C   UNL     1     -48.939  32.824  25.842  1.00  0.00    -0.035 A 
ATOM     44  H   UNL     1     -48.729  34.521  27.145  1.00  0.00     0.063 H 
ATOM     45  C   UNL     1     -46.995  32.163  24.603  1.00  0.00     0.001 A 
ATOM     46  H   UNL     1     -45.224  33.363  24.933  1.00  0.00     0.063 H 
ATOM     47  C   UNL     1     -48.351  31.959  24.928  1.00  0.00     0.073 A 
ATOM     48  H   UNL     1     -49.984  32.676  26.103  1.00  0.00     0.065 H 
ATOM     49  C   UNL     1     -46.410  31.290  23.681  1.00  0.00    -0.049 A 
ATOM     50  N   UNL     1     -49.083  30.966  24.392  1.00  0.00    -0.231 NA
ATOM     51  C   UNL     1     -47.169  30.266  23.128  1.00  0.00    -0.019 A 
ATOM     52  H   UNL     1     -45.370  31.404  23.387  1.00  0.00     0.063 H 
ATOM     53  C   UNL     1     -48.493  30.138  23.514  1.00  0.00     0.124 A 
ATOM     54  H   UNL     1     -46.737  29.589  22.399  1.00  0.00     0.066 H 
BRANCH  53  55
ATOM     55  N   UNL     1     -49.293  29.137  22.970  1.00  0.00    -0.384 N 
ATOM     56  H   UNL     1     -50.277  29.325  23.122  1.00  0.00     0.158 HD
ATOM     57  H   UNL     1     -49.067  29.090  21.980  1.00  0.00     0.158 HD
ENDBRANCH  53  55
ENDBRANCH  37  40
ENDBRANCH   1  37
TORSDOF 9
ENDMDL
MODEL 3
REMARK VINA RESULT:      -9.1      4.170     11.344
REMARK SMILES Cc1cc2c(N)ncnc2n1[C@@H]1C[C@H](CCc2ccc3nc(N)ccc3c2)[C@@H](O)[C@H]1O
REMARK SMILES IDX 15 1 14 4 12 5 13 6 30 7 28 11 11 15 2 16 3 17 4 18 10 20
REMARK SMILES IDX 5 21 9 22 7 23 8 24 1 26 6 30 31 33 29 35 16 37 17 40 18 41
REMARK SMILES IDX 27 42 19 43 26 45 20 47 25 49 21 50 24 51 22 53 23 55
REMARK H PARENT 15 2 15 3 12 8 13 9 13 10 30 12 14 13 28 14 3 19 8 25 1 27
REMARK H PARENT 1 28 1 29 6 31 6 32 31 34 29 36 16 38 16 39 18 44 27 46 19 48
REMARK H PARENT 25 52 24 54 23 56 23 57
REMARK Flexibility Score: inf
ROOT
ATOM      1  C   UNL     1     -49.412  32.132  24.348  1.00  0.00    -0.044 C 
ATOM      2  H   UNL     1     -50.427  31.713  24.340  1.00  0.00     0.027 H 
ATOM      3  H   UNL     1     -49.514  33.171  24.003  1.00  0.00     0.027 H 
ENDROOT
BRANCH   1   4
ATOM      4  C   UNL     1     -48.569  31.360  23.317  1.00  0.00    -0.010 C 
ATOM      5  C   UNL     1     -47.673  29.076  23.225  1.00  0.00     0.064 C 
ATOM      6  C   UNL     1     -47.530  30.414  23.962  1.00  0.00    -0.024 C 
ATOM      7  C   UNL     1     -49.150  29.038  22.811  1.00  0.00     0.101 C 
ATOM      8  H   UNL     1     -47.068  29.118  22.311  1.00  0.00     0.056 H 
ATOM      9  H   UNL     1     -47.684  30.317  25.042  1.00  0.00     0.029 H 
ATOM     10  H   UNL     1     -46.515  30.810  23.837  1.00  0.00     0.029 H 
ATOM     11  C   UNL     1     -49.392  30.484  22.359  1.00  0.00     0.085 C 
ATOM     12  H   UNL     1     -49.828  28.785  23.629  1.00  0.00     0.065 H 
ATOM     13  H   UNL     1     -48.018  32.113  22.737  1.00  0.00     0.033 H 
ATOM     14  H   UNL     1     -50.454  30.739  22.315  1.00  0.00     0.063 H 
BRANCH   5  15
ATOM     15  N   UNL     1     -47.215  27.921  23.980  1.00  0.00    -0.324 N 
ATOM     16  C   UNL     1     -45.969  27.323  23.867  1.00  0.00     0.018 A 
ATOM     17  C   UNL     1     -45.944  26.252  24.741  1.00  0.00    -0.028 A 
ATOM     18  C   UNL     1     -47.193  26.193  25.410  1.00  0.00     0.061 A 
ATOM     19  H   UNL     1     -45.110  25.576  24.882  1.00  0.00     0.065 H 
ATOM     20  C   UNL     1     -47.961  27.237  24.918  1.00  0.00     0.146 A 
ATOM     21  C   UNL     1     -47.783  25.375  26.383  1.00  0.00     0.136 A 
ATOM     22  N   UNL     1     -49.219  27.533  25.288  1.00  0.00    -0.218 NA
ATOM     23  N   UNL     1     -49.040  25.641  26.784  1.00  0.00    -0.219 NA
ATOM     24  C   UNL     1     -49.679  26.683  26.222  1.00  0.00     0.120 A 
ATOM     25  H   UNL     1     -50.692  26.859  26.569  1.00  0.00     0.106 H 
BRANCH  16  26
ATOM     26  C   UNL     1     -44.898  27.797  22.947  1.00  0.00    -0.024 C 
ATOM     27  H   UNL     1     -43.921  27.420  23.264  1.00  0.00     0.029 H 
ATOM     28  H   UNL     1     -44.847  28.891  22.942  1.00  0.00     0.029 H 
ATOM     29  H   UNL     1     -45.093  27.468  21.922  1.00  0.00     0.029 H 
ENDBRANCH  16  26
BRANCH  21  30
ATOM     30  N   UNL     1     -47.138  24.299  26.978  1.00  0.00    -0.383 N 
ATOM     31  H   UNL     1     -47.467  23.391  26.683  1.00  0.00     0.158 HD
ATOM     32  H   UNL     1     -46.134  24.439  26.972  1.00  0.00     0.158 HD
ENDBRANCH  21  30
ENDBRANCH   5  15
BRANCH   7  33
ATOM     33  O   UNL     1     -49.393  28.145  21.722  1.00  0.00    -0.388 OA
ATOM     34  H   UNL     1     -48.889  28.491  20.960  1.00  0.00     0.211 HD
ENDBRANCH   7  33
BRANCH  11  35
ATOM     35  O   UNL     1     -48.867  30.644  21.034  1.00  0.00    -0.390 OA
ATOM     36  H   UNL     1     -47.909  30.805  21.163  1.00  0.00     0.211 HD
ENDBRANCH  11  35
ENDBRANCH   1   4
BRANCH   1  37
ATOM     37  C   UNL     1     -48.886  32.123  25.788  1.00  0.00    -0.028 C 
ATOM     38  H   UNL     1     -49.702  31.953  26.499  1.00  0.00     0.032 H 
ATOM     39  H   UNL     1     -48.176  31.305  25.938  1.00  0.00     0.032 H 
BRANCH  37  40
ATOM     40  C   UNL     1     -48.201  33.422  26.133  1.00  0.00    -0.047 A 
ATOM     41  C   UNL     1     -46.842  33.603  25.874  1.00  0.00    -0.057 A 
ATOM     42  C   UNL     1     -48.913  34.463  26.741  1.00  0.00    -0.050 A 
ATOM     43  C   UNL     1     -46.213  34.808  26.208  1.00  0.00    -0.035 A 
ATOM     44  H   UNL     1     -46.256  32.813  25.410  1.00  0.00     0.063 H 
ATOM     45  C   UNL     1     -48.276  35.671  27.076  1.00  0.00     0.001 A 
ATOM     46  H   UNL     1     -49.972  34.332  26.957  1.00  0.00     0.063 H 
ATOM     47  C   UNL     1     -46.904  35.853  26.807  1.00  0.00     0.073 A 
ATOM     48  H   UNL     1     -45.154  34.936  25.997  1.00  0.00     0.065 H 
ATOM     49  C   UNL     1     -48.965  36.727  27.678  1.00  0.00    -0.049 A 
ATOM     50  N   UNL     1     -46.252  36.991  27.110  1.00  0.00    -0.231 NA
ATOM     51  C   UNL     1     -48.289  37.901  27.988  1.00  0.00    -0.019 A 
ATOM     52  H   UNL     1     -50.026  36.646  27.902  1.00  0.00     0.063 H 
ATOM     53  C   UNL     1     -46.939  37.986  27.693  1.00  0.00     0.124 A 
ATOM     54  H   UNL     1     -48.811  38.738  28.440  1.00  0.00     0.066 H 
BRANCH  53  55
ATOM     55  N   UNL     1     -46.228  39.152  27.970  1.00  0.00    -0.384 N 
ATOM     56  H   UNL     1     -45.910  39.603  27.121  1.00  0.00     0.158 HD
ATOM     57  H   UNL     1     -46.850  39.751  28.506  1.00  0.00     0.158 HD
ENDBRANCH  53  55
ENDBRANCH  37  40
ENDBRANCH   1  37
TORSDOF 9
ENDMDL
MODEL 4
REMARK VINA RESULT:      -9.1      1.718      2.724
REMARK SMILES Cc1cc2c(N)ncnc2n1[C@@H]1C[C@H](CCc2ccc3nc(N)ccc3c2)[C@@H](O)[C@H]1O
REMARK SMILES IDX 15 1 14 4 12 5 13 6 30 7 28 11 11 15 2 16 3 17 4 18 10 20
REMARK SMILES IDX 5 21 9 22 7 23 8 24 1 26 6 30 31 33 29 35 16 37 17 40 18 41
REMARK SMILES IDX 27 42 19 43 26 45 20 47 25 49 21 50 24 51 22 53 23 55
REMARK H PARENT 15 2 15 3 12 8 13 9 13 10 30 12 14 13 28 14 3 19 8 25 1 27
REMARK H PARENT 1 28 1 29 6 31 6 32 31 34 29 36 16 38 16 39 18 44 27 46 19 48
REMARK H PARENT 25 52 24 54 23 56 23 57
REMARK Flexibility Score: inf
ROOT
ATOM      1  C   UNL     1     -47.144  35.189  26.085  1.00  0.00    -0.044 C 
ATOM      2  H   UNL     1     -46.841  36.001  25.411  1.00  0.00     0.027 H 
ATOM      3  H   UNL     1     -48.147  34.884  25.755  1.00  0.00     0.027 H 
ENDROOT
BRANCH   1   4
ATOM      4  C   UNL     1     -47.257  35.767  27.508  1.00  0.00    -0.010 C 
ATOM      5  C   UNL     1     -46.310  37.742  28.618  1.00  0.00     0.064 C 
ATOM      6  C   UNL     1     -45.935  36.376  28.026  1.00  0.00    -0.024 C 
ATOM      7  C   UNL     1     -47.523  38.183  27.787  1.00  0.00     0.101 C 
ATOM      8  H   UNL     1     -46.647  37.590  29.651  1.00  0.00     0.056 H 
ATOM      9  H   UNL     1     -45.184  36.456  27.233  1.00  0.00     0.029 H 
ATOM     10  H   UNL     1     -45.491  35.738  28.799  1.00  0.00     0.029 H 
ATOM     11  C   UNL     1     -48.313  36.875  27.656  1.00  0.00     0.085 C 
ATOM     12  H   UNL     1     -47.261  38.561  26.796  1.00  0.00     0.065 H 
ATOM     13  H   UNL     1     -47.517  34.928  28.167  1.00  0.00     0.033 H 
ATOM     14  H   UNL     1     -49.049  36.906  26.848  1.00  0.00     0.063 H 
BRANCH   5  15
ATOM     15  N   UNL     1     -45.216  38.699  28.667  1.00  0.00    -0.324 N 
ATOM     16  C   UNL     1     -44.304  38.831  29.703  1.00  0.00     0.018 A 
ATOM     17  C   UNL     1     -43.445  39.860  29.367  1.00  0.00    -0.028 A 
ATOM     18  C   UNL     1     -43.829  40.367  28.099  1.00  0.00     0.061 A 
ATOM     19  H   UNL     1     -42.622  40.215  29.976  1.00  0.00     0.065 H 
ATOM     20  C   UNL     1     -44.930  39.630  27.691  1.00  0.00     0.146 A 
ATOM     21  C   UNL     1     -43.381  41.373  27.232  1.00  0.00     0.136 A 
ATOM     22  N   UNL     1     -45.607  39.795  26.541  1.00  0.00    -0.218 NA
ATOM     23  N   UNL     1     -44.028  41.567  26.068  1.00  0.00    -0.219 NA
ATOM     24  C   UNL     1     -45.089  40.785  25.794  1.00  0.00     0.120 A 
ATOM     25  H   UNL     1     -45.586  40.979  24.848  1.00  0.00     0.106 H 
BRANCH  16  26
ATOM     26  C   UNL     1     -44.307  37.985  30.929  1.00  0.00    -0.024 C 
ATOM     27  H   UNL     1     -43.396  38.147  31.512  1.00  0.00     0.029 H 
ATOM     28  H   UNL     1     -44.352  36.922  30.668  1.00  0.00     0.029 H 
ATOM     29  H   UNL     1     -45.176  38.212  31.554  1.00  0.00     0.029 H 
ENDBRANCH  16  26
BRANCH  21  30
ATOM     30  N   UNL     1     -42.287  42.185  27.496  1.00  0.00    -0.383 N 
ATOM     31  H   UNL     1     -41.430  41.904  27.041  1.00  0.00     0.158 HD
ATOM     32  H   UNL     1     -42.541  43.162  27.416  1.00  0.00     0.158 HD
ENDBRANCH  21  30
ENDBRANCH   5  15
BRANCH   7  33
ATOM     33  O   UNL     1     -48.320  39.163  28.456  1.00  0.00    -0.388 OA
ATOM     34  H   UNL     1     -47.702  39.825  28.819  1.00  0.00     0.211 HD
ENDBRANCH   7  33
BRANCH  11  35
ATOM     35  O   UNL     1     -49.037  36.651  28.873  1.00  0.00    -0.390 OA
ATOM     36  H   UNL     1     -49.007  35.681  29.007  1.00  0.00     0.211 HD
ENDBRANCH  11  35
ENDBRANCH   1   4
BRANCH   1  37
ATOM     37  C   UNL     1     -46.172  34.016  25.913  1.00  0.00    -0.028 C 
ATOM     38  H   UNL     1     -45.248  34.345  25.424  1.00  0.00     0.032 H 
ATOM     39  H   UNL     1     -45.875  33.610  26.884  1.00  0.00     0.032 H 
BRANCH  37  40
ATOM     40  C   UNL     1     -46.786  32.906  25.096  1.00  0.00    -0.047 A 
ATOM     41  C   UNL     1     -45.992  32.098  24.280  1.00  0.00    -0.057 A 
ATOM     42  C   UNL     1     -48.168  32.682  25.123  1.00  0.00    -0.050 A 
ATOM     43  C   UNL     1     -46.573  31.079  23.516  1.00  0.00    -0.035 A 
ATOM     44  H   UNL     1     -44.917  32.250  24.227  1.00  0.00     0.063 H 
ATOM     45  C   UNL     1     -48.745  31.657  24.353  1.00  0.00     0.001 A 
ATOM     46  H   UNL     1     -48.799  33.309  25.749  1.00  0.00     0.063 H 
ATOM     47  C   UNL     1     -47.940  30.838  23.535  1.00  0.00     0.073 A 
ATOM     48  H   UNL     1     -45.941  30.456  22.888  1.00  0.00     0.065 H 
ATOM     49  C   UNL     1     -50.121  31.408  24.368  1.00  0.00    -0.049 A 
ATOM     50  N   UNL     1     -48.448  29.846  22.781  1.00  0.00    -0.231 NA
ATOM     51  C   UNL     1     -50.641  30.381  23.589  1.00  0.00    -0.019 A 
ATOM     52  H   UNL     1     -50.789  32.002  24.986  1.00  0.00     0.063 H 
ATOM     53  C   UNL     1     -49.774  29.634  22.811  1.00  0.00     0.124 A 
ATOM     54  H   UNL     1     -51.703  30.162  23.600  1.00  0.00     0.066 H 
BRANCH  53  55
ATOM     55  N   UNL     1     -50.252  28.584  22.029  1.00  0.00    -0.384 N 
ATOM     56  H   UNL     1     -50.188  28.798  21.042  1.00  0.00     0.158 HD
ATOM     57  H   UNL     1     -49.701  27.765  22.273  1.00  0.00     0.158 HD
ENDBRANCH  53  55
ENDBRANCH  37  40
ENDBRANCH   1  37
TORSDOF 9
ENDMDL
MODEL 5
REMARK VINA RESULT:      -9.1      3.758      5.798
REMARK SMILES Cc1cc2c(N)ncnc2n1[C@@H]1C[C@H](CCc2ccc3nc(N)ccc3c2)[C@@H](O)[C@H]1O
REMARK SMILES IDX 15 1 14 4 12 5 13 6 30 7 28 11 11 15 2 16 3 17 4 18 10 20
REMARK SMILES IDX 5 21 9 22 7 23 8 24 1 26 6 30 31 33 29 35 16 37 17 40 18 41
REMARK SMILES IDX 27 42 19 43 26 45 20 47 25 49 21 50 24 51 22 53 23 55
REMARK H PARENT 15 2 15 3 12 8 13 9 13 10 30 12 14 13 28 14 3 19 8 25 1 27
REMARK H PARENT 1 28 1 29 6 31 6 32 31 34 29 36 16 38 16 39 18 44 27 46 19 48
REMARK H PARENT 25 52 24 54 23 56 23 57
REMARK Flexibility Score: inf
ROOT
ATOM      1  C   UNL     1     -44.981  39.350  28.105  1.00  0.00    -0.044 C 
ATOM      2  H   UNL     1     -44.863  39.681  29.146  1.00  0.00     0.027 H 
ATOM      3  H   UNL     1     -44.716  38.283  28.098  1.00  0.00     0.027 H 
ENDROOT
BRANCH   1   4
ATOM      4  C   UNL     1     -43.955  40.110  27.245  1.00  0.00    -0.010 C 
ATOM      5  C   UNL     1     -44.040  42.190  25.943  1.00  0.00     0.064 C 
ATOM      6  C   UNL     1     -44.573  40.751  25.982  1.00  0.00    -0.024 C 
ATOM      7  C   UNL     1     -43.834  42.547  27.421  1.00  0.00     0.101 C 
ATOM      8  H   UNL     1     -43.056  42.181  25.459  1.00  0.00     0.056 H 
ATOM      9  H   UNL     1     -45.667  40.710  25.998  1.00  0.00     0.029 H 
ATOM     10  H   UNL     1     -44.264  40.208  25.081  1.00  0.00     0.029 H 
ATOM     11  C   UNL     1     -43.236  41.250  27.983  1.00  0.00     0.085 C 
ATOM     12  H   UNL     1     -44.760  42.788  27.948  1.00  0.00     0.065 H 
ATOM     13  H   UNL     1     -43.215  39.369  26.914  1.00  0.00     0.033 H 
ATOM     14  H   UNL     1     -43.300  41.194  29.073  1.00  0.00     0.063 H 
BRANCH   5  15
ATOM     15  N   UNL     1     -44.869  43.120  25.195  1.00  0.00    -0.324 N 
ATOM     16  C   UNL     1     -44.470  43.843  24.081  1.00  0.00     0.018 A 
ATOM     17  C   UNL     1     -45.545  44.617  23.685  1.00  0.00    -0.028 A 
ATOM     18  C   UNL     1     -46.628  44.362  24.565  1.00  0.00     0.061 A 
ATOM     19  H   UNL     1     -45.550  45.302  22.846  1.00  0.00     0.065 H 
ATOM     20  C   UNL     1     -46.180  43.433  25.491  1.00  0.00     0.146 A 
ATOM     21  C   UNL     1     -47.950  44.807  24.701  1.00  0.00     0.136 A 
ATOM     22  N   UNL     1     -46.898  42.923  26.507  1.00  0.00    -0.218 NA
ATOM     23  N   UNL     1     -48.704  44.318  25.702  1.00  0.00    -0.219 NA
ATOM     24  C   UNL     1     -48.145  43.423  26.538  1.00  0.00     0.120 A 
ATOM     25  H   UNL     1     -48.785  43.058  27.335  1.00  0.00     0.106 H 
BRANCH  16  26
ATOM     26  C   UNL     1     -43.113  43.757  23.474  1.00  0.00    -0.024 C 
ATOM     27  H   UNL     1     -42.344  44.023  24.206  1.00  0.00     0.029 H 
ATOM     28  H   UNL     1     -43.021  44.447  22.628  1.00  0.00     0.029 H 
ATOM     29  H   UNL     1     -42.918  42.747  23.102  1.00  0.00     0.029 H 
ENDBRANCH  16  26
BRANCH  21  30
ATOM     30  N   UNL     1     -48.543  45.726  23.845  1.00  0.00    -0.383 N 
ATOM     31  H   UNL     1     -47.899  46.241  23.263  1.00  0.00     0.158 HD
ATOM     32  H   UNL     1     -49.342  45.312  23.378  1.00  0.00     0.158 HD
ENDBRANCH  21  30
ENDBRANCH   5  15
BRANCH   7  33
ATOM     33  O   UNL     1     -42.910  43.622  27.604  1.00  0.00    -0.388 OA
ATOM     34  H   UNL     1     -42.035  43.287  27.332  1.00  0.00     0.211 HD
ENDBRANCH   7  33
BRANCH  11  35
ATOM     35  O   UNL     1     -41.843  41.203  27.643  1.00  0.00    -0.390 OA
ATOM     36  H   UNL     1     -41.402  41.753  28.324  1.00  0.00     0.211 HD
ENDBRANCH  11  35
ENDBRANCH   1   4
BRANCH   1  37
ATOM     37  C   UNL     1     -46.450  39.513  27.699  1.00  0.00    -0.028 C 
ATOM     38  H   UNL     1     -47.007  40.066  28.463  1.00  0.00     0.032 H 
ATOM     39  H   UNL     1     -46.538  40.096  26.778  1.00  0.00     0.032 H 
BRANCH  37  40
ATOM     40  C   UNL     1     -47.115  38.175  27.485  1.00  0.00    -0.047 A 
ATOM     41  C   UNL     1     -48.371  37.908  28.032  1.00  0.00    -0.057 A 
ATOM     42  C   UNL     1     -46.473  37.169  26.754  1.00  0.00    -0.050 A 
ATOM     43  C   UNL     1     -48.974  36.660  27.839  1.00  0.00    -0.035 A 
ATOM     44  H   UNL     1     -48.895  38.663  28.613  1.00  0.00     0.063 H 
ATOM     45  C   UNL     1     -47.084  35.917  26.564  1.00  0.00     0.001 A 
ATOM     46  H   UNL     1     -45.490  37.361  26.329  1.00  0.00     0.063 H 
ATOM     47  C   UNL     1     -48.355  35.652  27.112  1.00  0.00     0.073 A 
ATOM     48  H   UNL     1     -49.955  36.468  28.268  1.00  0.00     0.065 H 
ATOM     49  C   UNL     1     -46.467  34.898  25.832  1.00  0.00    -0.049 A 
ATOM     50  N   UNL     1     -48.978  34.469  26.956  1.00  0.00    -0.231 NA
ATOM     51  C   UNL     1     -47.114  33.678  25.673  1.00  0.00    -0.019 A 
ATOM     52  H   UNL     1     -45.490  35.048  25.380  1.00  0.00     0.063 H 
ATOM     53  C   UNL     1     -48.359  33.507  26.254  1.00  0.00     0.124 A 
ATOM     54  H   UNL     1     -46.659  32.882  25.094  1.00  0.00     0.066 H 
BRANCH  53  55
ATOM     55  N   UNL     1     -49.050  32.307  26.103  1.00  0.00    -0.384 N 
ATOM     56  H   UNL     1     -48.862  31.672  26.869  1.00  0.00     0.158 HD
ATOM     57  H   UNL     1     -50.037  32.545  26.044  1.00  0.00     0.158 HD
ENDBRANCH  53  55
ENDBRANCH  37  40
ENDBRANCH   1  37
TORSDOF 9
ENDMDL
MODEL 6
REMARK VINA RESULT:      -9.0      3.732      5.764
REMARK SMILES Cc1cc2c(N)ncnc2n1[C@@H]1C[C@H](CCc2ccc3nc(N)ccc3c2)[C@@H](O)[C@H]1O
REMARK SMILES IDX 15 1 14 4 12 5 13 6 30 7 28 11 11 15 2 16 3 17 4 18 10 20
REMARK SMILES IDX 5 21 9 22 7 23 8 24 1 26 6 30 31 33 29 35 16 37 17 40 18 41
REMARK SMILES IDX 27 42 19 43 26 45 20 47 25 49 21 50 24 51 22 53 23 55
REMARK H PARENT 15 2 15 3 12 8 13 9 13 10 30 12 14 13 28 14 3 19 8 25 1 27
REMARK H PARENT 1 28 1 29 6 31 6 32 31 34 29 36 16 38 16 39 18 44 27 46 19 48
REMARK H PARENT 25 52 24 54 23 56 23 57
REMARK Flexibility Score: inf
ROOT
ATOM      1  C   UNL     1     -45.232  39.462  28.100  1.00  0.00    -0.044 C 
ATOM      2  H   UNL     1     -45.304  39.960  29.076  1.00  0.00     0.027 H 
ATOM      3  H   UNL     1     -44.980  38.414  28.316  1.00  0.00     0.027 H 
ENDROOT
BRANCH   1   4
ATOM      4  C   UNL     1     -44.058  40.094  27.330  1.00  0.00    -0.010 C 
ATOM      5  C   UNL     1     -43.829  42.094  25.925  1.00  0.00     0.064 C 
ATOM      6  C   UNL     1     -44.475  40.703  25.972  1.00  0.00    -0.024 C 
ATOM      7  C   UNL     1     -43.765  42.522  27.397  1.00  0.00     0.101 C 
ATOM      8  H   UNL     1     -42.800  41.985  25.561  1.00  0.00     0.056 H 
ATOM      9  H   UNL     1     -45.563  40.742  25.861  1.00  0.00     0.029 H 
ATOM     10  H   UNL     1     -44.109  40.087  25.142  1.00  0.00     0.029 H 
ATOM     11  C   UNL     1     -43.339  41.220  28.089  1.00  0.00     0.085 C 
ATOM     12  H   UNL     1     -44.723  42.860  27.798  1.00  0.00     0.065 H 
ATOM     13  H   UNL     1     -43.346  39.282  27.126  1.00  0.00     0.033 H 
ATOM     14  H   UNL     1     -43.531  41.233  29.165  1.00  0.00     0.063 H 
BRANCH   5  15
ATOM     15  N   UNL     1     -44.492  43.036  25.038  1.00  0.00    -0.324 N 
ATOM     16  C   UNL     1     -45.810  43.454  25.143  1.00  0.00     0.018 A 
ATOM     17  C   UNL     1     -46.048  44.333  24.102  1.00  0.00    -0.028 A 
ATOM     18  C   UNL     1     -44.854  44.464  23.347  1.00  0.00     0.061 A 
ATOM     19  H   UNL     1     -46.990  44.829  23.902  1.00  0.00     0.065 H 
ATOM     20  C   UNL     1     -43.909  43.649  23.948  1.00  0.00     0.146 A 
ATOM     21  C   UNL     1     -44.447  45.178  22.211  1.00  0.00     0.136 A 
ATOM     22  N   UNL     1     -42.639  43.480  23.540  1.00  0.00    -0.218 NA
ATOM     23  N   UNL     1     -43.183  45.040  21.773  1.00  0.00    -0.219 NA
ATOM     24  C   UNL     1     -42.364  44.211  22.446  1.00  0.00     0.120 A 
ATOM     25  H   UNL     1     -41.355  44.123  22.055  1.00  0.00     0.106 H 
BRANCH  16  26
ATOM     26  C   UNL     1     -46.747  42.998  26.207  1.00  0.00    -0.024 C 
ATOM     27  H   UNL     1     -47.693  42.662  25.771  1.00  0.00     0.029 H 
ATOM     28  H   UNL     1     -46.972  43.814  26.902  1.00  0.00     0.029 H 
ATOM     29  H   UNL     1     -46.308  42.180  26.785  1.00  0.00     0.029 H 
ENDBRANCH  16  26
BRANCH  21  30
ATOM     30  N   UNL     1     -45.276  46.041  21.508  1.00  0.00    -0.383 N 
ATOM     31  H   UNL     1     -45.240  45.940  20.503  1.00  0.00     0.158 HD
ATOM     32  H   UNL     1     -46.199  46.068  21.926  1.00  0.00     0.158 HD
ENDBRANCH  21  30
ENDBRANCH   5  15
BRANCH   7  33
ATOM     33  O   UNL     1     -42.786  43.536  27.633  1.00  0.00    -0.388 OA
ATOM     34  H   UNL     1     -41.927  43.080  27.720  1.00  0.00     0.211 HD
ENDBRANCH   7  33
BRANCH  11  35
ATOM     35  O   UNL     1     -41.925  41.052  27.919  1.00  0.00    -0.390 OA
ATOM     36  H   UNL     1     -41.737  40.155  28.268  1.00  0.00     0.211 HD
ENDBRANCH  11  35
ENDBRANCH   1   4
BRANCH   1  37
ATOM     37  C   UNL     1     -46.599  39.526  27.410  1.00  0.00    -0.028 C 
ATOM     38  H   UNL     1     -47.286  40.175  27.966  1.00  0.00     0.032 H 
ATOM     39  H   UNL     1     -46.512  39.962  26.411  1.00  0.00     0.032 H 
BRANCH  37  40
ATOM     40  C   UNL     1     -47.218  38.156  27.285  1.00  0.00    -0.047 A 
ATOM     41  C   UNL     1     -48.447  37.871  27.883  1.00  0.00    -0.057 A 
ATOM     42  C   UNL     1     -46.561  37.139  26.584  1.00  0.00    -0.050 A 
ATOM     43  C   UNL     1     -49.007  36.594  27.771  1.00  0.00    -0.035 A 
ATOM     44  H   UNL     1     -48.981  38.635  28.443  1.00  0.00     0.063 H 
ATOM     45  C   UNL     1     -47.129  35.857  26.475  1.00  0.00     0.001 A 
ATOM     46  H   UNL     1     -45.598  37.345  26.118  1.00  0.00     0.063 H 
ATOM     47  C   UNL     1     -48.372  35.574  27.075  1.00  0.00     0.073 A 
ATOM     48  H   UNL     1     -49.967  36.388  28.240  1.00  0.00     0.065 H 
ATOM     49  C   UNL     1     -46.495  34.826  25.775  1.00  0.00    -0.049 A 
ATOM     50  N   UNL     1     -48.954  34.363  26.998  1.00  0.00    -0.231 NA
ATOM     51  C   UNL     1     -47.100  33.577  25.697  1.00  0.00    -0.019 A 
ATOM     52  H   UNL     1     -45.539  34.988  25.286  1.00  0.00     0.063 H 
ATOM     53  C   UNL     1     -48.320  33.390  26.325  1.00  0.00     0.124 A 
ATOM     54  H   UNL     1     -46.632  32.769  25.144  1.00  0.00     0.066 H 
BRANCH  53  55
ATOM     55  N   UNL     1     -48.968  32.159  26.255  1.00  0.00    -0.384 N 
ATOM     56  H   UNL     1     -48.568  31.491  26.903  1.00  0.00     0.158 HD
ATOM     57  H   UNL     1     -49.949  32.335  26.455  1.00  0.00     0.158 HD
ENDBRANCH  53  55
ENDBRANCH  37  40
ENDBRANCH   1  37
TORSDOF 9
ENDMDL
MODEL 7
REMARK VINA RESULT:      -8.7      3.014      4.701
REMARK SMILES Cc1cc2c(N)ncnc2n1[C@@H]1C[C@H](CCc2ccc3nc(N)ccc3c2)[C@@H](O)[C@H]1O
REMARK SMILES IDX 15 1 14 4 12 5 13 6 30 7 28 11 11 15 2 16 3 17 4 18 10 20
REMARK SMILES IDX 5 21 9 22 7 23 8 24 1 26 6 30 31 33 29 35 16 37 17 40 18 41
REMARK SMILES IDX 27 42 19 43 26 45 20 47 25 49 21 50 24 51 22 53 23 55
REMARK H PARENT 15 2 15 3 12 8 13 9 13 10 30 12 14 13 28 14 3 19 8 25 1 27
REMARK H PARENT 1 28 1 29 6 31 6 32 31 34 29 36 16 38 16 39 18 44 27 46 19 48
REMARK H PARENT 25 52 24 54 23 56 23 57
REMARK Flexibility Score: inf
ROOT
ATOM      1  C   UNL     1     -47.489  33.773  25.706  1.00  0.00    -0.044 C 
ATOM      2  H   UNL     1     -47.506  33.999  24.631  1.00  0.00     0.027 H 
ATOM      3  H   UNL     1     -48.490  34.029  26.082  1.00  0.00     0.027 H 
ENDROOT
BRANCH   1   4
ATOM      4  C   UNL     1     -46.467  34.711  26.374  1.00  0.00    -0.010 C 
ATOM      5  C   UNL     1     -46.661  36.789  27.666  1.00  0.00     0.064 C 
ATOM      6  C   UNL     1     -46.842  36.205  26.259  1.00  0.00    -0.024 C 
ATOM      7  C   UNL     1     -46.956  35.606  28.598  1.00  0.00     0.101 C 
ATOM      8  H   UNL     1     -45.606  37.063  27.794  1.00  0.00     0.056 H 
ATOM      9  H   UNL     1     -47.859  36.342  25.877  1.00  0.00     0.029 H 
ATOM     10  H   UNL     1     -46.182  36.717  25.548  1.00  0.00     0.029 H 
ATOM     11  C   UNL     1     -46.257  34.448  27.874  1.00  0.00     0.085 C 
ATOM     12  H   UNL     1     -48.021  35.388  28.706  1.00  0.00     0.065 H 
ATOM     13  H   UNL     1     -45.516  34.565  25.844  1.00  0.00     0.033 H 
ATOM     14  H   UNL     1     -46.604  33.468  28.213  1.00  0.00     0.063 H 
BRANCH   5  15
ATOM     15  N   UNL     1     -47.441  37.988  27.927  1.00  0.00    -0.324 N 
ATOM     16  C   UNL     1     -46.928  39.262  28.112  1.00  0.00     0.018 A 
ATOM     17  C   UNL     1     -47.996  40.107  28.349  1.00  0.00    -0.028 A 
ATOM     18  C   UNL     1     -49.189  39.341  28.303  1.00  0.00     0.061 A 
ATOM     19  H   UNL     1     -47.925  41.171  28.540  1.00  0.00     0.065 H 
ATOM     20  C   UNL     1     -48.815  38.033  28.042  1.00  0.00     0.146 A 
ATOM     21  C   UNL     1     -50.560  39.592  28.454  1.00  0.00     0.136 A 
ATOM     22  N   UNL     1     -49.647  36.983  27.923  1.00  0.00    -0.218 NA
ATOM     23  N   UNL     1     -51.427  38.570  28.338  1.00  0.00    -0.219 NA
ATOM     24  C   UNL     1     -50.932  37.343  28.088  1.00  0.00     0.120 A 
ATOM     25  H   UNL     1     -51.664  36.546  28.008  1.00  0.00     0.106 H 
BRANCH  16  26
ATOM     26  C   UNL     1     -45.476  39.593  28.054  1.00  0.00    -0.024 C 
ATOM     27  H   UNL     1     -44.895  38.726  27.724  1.00  0.00     0.029 H 
ATOM     28  H   UNL     1     -45.106  39.885  29.043  1.00  0.00     0.029 H 
ATOM     29  H   UNL     1     -45.295  40.426  27.370  1.00  0.00     0.029 H 
ENDBRANCH  16  26
BRANCH  21  30
ATOM     30  N   UNL     1     -51.088  40.851  28.707  1.00  0.00    -0.383 N 
ATOM     31  H   UNL     1     -50.416  41.604  28.694  1.00  0.00     0.158 HD
ATOM     32  H   UNL     1     -51.937  40.995  28.172  1.00  0.00     0.158 HD
ENDBRANCH  21  30
ENDBRANCH   5  15
BRANCH   7  33
ATOM     33  O   UNL     1     -46.388  35.775  29.898  1.00  0.00    -0.388 OA
ATOM     34  H   UNL     1     -46.604  34.968  30.403  1.00  0.00     0.211 HD
ENDBRANCH   7  33
BRANCH  11  35
ATOM     35  O   UNL     1     -44.852  34.513  28.154  1.00  0.00    -0.390 OA
ATOM     36  H   UNL     1     -44.428  34.622  27.277  1.00  0.00     0.211 HD
ENDBRANCH  11  35
ENDBRANCH   1   4
BRANCH   1  37
ATOM     37  C   UNL     1     -47.244  32.271  25.891  1.00  0.00    -0.028 C 
ATOM     38  H   UNL     1     -46.218  32.083  26.228  1.00  0.00     0.032 H 
ATOM     39  H   UNL     1     -47.898  31.862  26.665  1.00  0.00     0.032 H 
BRANCH  37  40
ATOM     40  C   UNL     1     -47.481  31.512  24.609  1.00  0.00    -0.047 A 
ATOM     41  C   UNL     1     -46.418  31.190  23.763  1.00  0.00    -0.057 A 
ATOM     42  C   UNL     1     -48.776  31.135  24.234  1.00  0.00    -0.050 A 
ATOM     43  C   UNL     1     -46.650  30.496  22.571  1.00  0.00    -0.035 A 
ATOM     44  H   UNL     1     -45.401  31.475  24.019  1.00  0.00     0.063 H 
ATOM     45  C   UNL     1     -49.003  30.438  23.034  1.00  0.00     0.001 A 
ATOM     46  H   UNL     1     -49.615  31.386  24.880  1.00  0.00     0.063 H 
ATOM     47  C   UNL     1     -47.927  30.109  22.185  1.00  0.00     0.073 A 
ATOM     48  H   UNL     1     -45.812  30.249  21.924  1.00  0.00     0.065 H 
ATOM     49  C   UNL     1     -50.285  30.044  22.639  1.00  0.00    -0.049 A 
ATOM     50  N   UNL     1     -48.095  29.444  21.027  1.00  0.00    -0.231 NA
ATOM     51  C   UNL     1     -50.455  29.356  21.444  1.00  0.00    -0.019 A 
ATOM     52  H   UNL     1     -51.151  30.264  23.258  1.00  0.00     0.063 H 
ATOM     53  C   UNL     1     -49.339  29.084  20.671  1.00  0.00     0.124 A 
ATOM     54  H   UNL     1     -51.440  29.028  21.129  1.00  0.00     0.066 H 
BRANCH  53  55
ATOM     55  N   UNL     1     -49.463  28.380  19.475  1.00  0.00    -0.384 N 
ATOM     56  H   UNL     1     -49.030  28.877  18.706  1.00  0.00     0.158 HD
ATOM     57  H   UNL     1     -49.033  27.471  19.626  1.00  0.00     0.158 HD
ENDBRANCH  53  55
ENDBRANCH  37  40
ENDBRANCH   1  37
TORSDOF 9
ENDMDL
