MODEL 1
REMARK VINA RESULT:      -9.0      0.000      0.000
REMARK SMILES CCc1cc(NCCOC)c2ccc(OCc3cncc(-n4cc([C@H]5CCCO5)c5c(N)ncnc54)c3)cc2n1
REMARK SMILES IDX 3 1 4 2 5 3 11 4 12 5 13 6 14 7 38 8 39 9 40 10 2 15 1 18
REMARK SMILES IDX 6 22 7 24 8 27 9 30 10 31 15 35 16 36 17 39 18 40 37 41
REMARK SMILES IDX 19 42 21 44 20 46 22 48 23 49 36 50 24 51 30 53 35 54 31 55
REMARK SMILES IDX 34 56 33 57 25 59 26 60 29 61 27 63 28 66 32 71
REMARK H PARENT 4 11 12 12 13 13 38 14 2 16 2 17 1 19 1 20 1 21 6 23 7 25 7 26
REMARK H PARENT 8 28 8 29 10 32 10 33 10 34 16 37 16 38 18 43 37 45 20 47
REMARK H PARENT 23 52 34 58 25 62 26 64 26 65 27 67 27 68 28 69 28 70 32 72
REMARK H PARENT 32 73
REMARK Flexibility Score: inf
ROOT
ATOM      1  C   UNL     1     -46.332  30.417  22.765  1.00  0.00     0.043 A 
ATOM      2  C   UNL     1     -47.558  29.781  22.919  1.00  0.00    -0.017 A 
ATOM      3  C   UNL     1     -48.524  30.331  23.766  1.00  0.00     0.045 A 
ATOM      4  C   UNL     1     -48.169  31.487  24.519  1.00  0.00     0.024 A 
ATOM      5  C   UNL     1     -49.011  32.098  25.480  1.00  0.00    -0.047 A 
ATOM      6  C   UNL     1     -48.618  33.241  26.180  1.00  0.00    -0.019 A 
ATOM      7  C   UNL     1     -47.370  33.795  25.943  1.00  0.00     0.122 A 
ATOM      8  C   UNL     1     -46.533  33.199  24.996  1.00  0.00     0.007 A 
ATOM      9  C   UNL     1     -46.898  32.058  24.293  1.00  0.00     0.076 A 
ATOM     10  N   UNL     1     -46.008  31.543  23.433  1.00  0.00    -0.253 NA
ATOM     11  H   UNL     1     -47.743  28.868  22.367  1.00  0.00     0.066 H 
ATOM     12  H   UNL     1     -49.990  31.678  25.699  1.00  0.00     0.063 H 
ATOM     13  H   UNL     1     -49.320  33.673  26.885  1.00  0.00     0.066 H 
ATOM     14  H   UNL     1     -45.554  33.635  24.804  1.00  0.00     0.069 H 
ENDROOT
BRANCH   1  15
ATOM     15  C   UNL     1     -45.281  29.841  21.853  1.00  0.00    -0.013 C 
ATOM     16  H   UNL     1     -45.739  29.526  20.908  1.00  0.00     0.033 H 
ATOM     17  H   UNL     1     -44.555  30.625  21.601  1.00  0.00     0.033 H 
BRANCH  15  18
ATOM     18  C   UNL     1     -44.557  28.672  22.501  1.00  0.00    -0.060 C 
ATOM     19  H   UNL     1     -44.164  27.998  21.734  1.00  0.00     0.023 H 
ATOM     20  H   UNL     1     -43.717  29.016  23.114  1.00  0.00     0.023 H 
ATOM     21  H   UNL     1     -45.230  28.096  23.145  1.00  0.00     0.023 H 
ENDBRANCH  15  18
ENDBRANCH   1  15
BRANCH   3  22
ATOM     22  N   UNL     1     -49.770  29.705  23.978  1.00  0.00    -0.382 N 
ATOM     23  H   UNL     1     -50.408  29.906  23.204  1.00  0.00     0.160 HD
BRANCH  22  24
ATOM     24  C   UNL     1     -49.833  28.271  24.280  1.00  0.00     0.038 C 
ATOM     25  H   UNL     1     -49.326  27.693  23.498  1.00  0.00     0.051 H 
ATOM     26  H   UNL     1     -50.880  27.954  24.350  1.00  0.00     0.051 H 
BRANCH  24  27
ATOM     27  C   UNL     1     -49.135  28.002  25.620  1.00  0.00     0.063 C 
ATOM     28  H   UNL     1     -48.389  28.782  25.808  1.00  0.00     0.059 H 
ATOM     29  H   UNL     1     -49.868  27.998  26.435  1.00  0.00     0.059 H 
BRANCH  27  30
ATOM     30  O   UNL     1     -48.483  26.726  25.561  1.00  0.00    -0.383 OA
BRANCH  30  31
ATOM     31  C   UNL     1     -47.832  26.418  26.788  1.00  0.00     0.036 C 
ATOM     32  H   UNL     1     -47.238  25.505  26.686  1.00  0.00     0.053 H 
ATOM     33  H   UNL     1     -48.597  26.254  27.551  1.00  0.00     0.053 H 
ATOM     34  H   UNL     1     -47.196  27.249  27.103  1.00  0.00     0.053 H 
ENDBRANCH  30  31
ENDBRANCH  27  30
ENDBRANCH  24  27
ENDBRANCH  22  24
ENDBRANCH   3  22
BRANCH   7  35
ATOM     35  O   UNL     1     -46.861  34.916  26.536  1.00  0.00    -0.489 OA
BRANCH  35  36
ATOM     36  C   UNL     1     -47.482  35.387  27.734  1.00  0.00     0.115 C 
ATOM     37  H   UNL     1     -46.845  35.060  28.564  1.00  0.00     0.076 H 
ATOM     38  H   UNL     1     -48.456  34.904  27.887  1.00  0.00     0.076 H 
BRANCH  36  39
ATOM     39  C   UNL     1     -47.579  36.889  27.805  1.00  0.00     0.010 A 
ATOM     40  C   UNL     1     -48.792  37.533  28.003  1.00  0.00     0.034 A 
ATOM     41  C   UNL     1     -46.444  37.693  27.610  1.00  0.00    -0.028 A 
ATOM     42  N   UNL     1     -48.931  38.873  28.037  1.00  0.00    -0.262 NA
ATOM     43  H   UNL     1     -49.716  36.975  28.145  1.00  0.00     0.084 H 
ATOM     44  C   UNL     1     -46.544  39.093  27.642  1.00  0.00     0.066 A 
ATOM     45  H   UNL     1     -45.501  37.190  27.421  1.00  0.00     0.065 H 
ATOM     46  C   UNL     1     -47.811  39.622  27.860  1.00  0.00     0.051 A 
ATOM     47  H   UNL     1     -48.017  40.683  27.919  1.00  0.00     0.086 H 
BRANCH  44  48
ATOM     48  N   UNL     1     -45.392  39.927  27.459  1.00  0.00    -0.299 N 
ATOM     49  C   UNL     1     -45.199  40.793  26.389  1.00  0.00     0.018 A 
ATOM     50  C   UNL     1     -44.270  40.038  28.279  1.00  0.00     0.150 A 
ATOM     51  C   UNL     1     -43.989  41.452  26.510  1.00  0.00     0.012 A 
ATOM     52  H   UNL     1     -45.930  40.871  25.600  1.00  0.00     0.083 H 
ATOM     53  C   UNL     1     -43.401  40.973  27.722  1.00  0.00     0.067 A 
ATOM     54  N   UNL     1     -44.047  39.374  29.431  1.00  0.00    -0.218 NA
ATOM     55  C   UNL     1     -42.209  41.231  28.423  1.00  0.00     0.136 A 
ATOM     56  C   UNL     1     -42.880  39.698  30.003  1.00  0.00     0.120 A 
ATOM     57  N   UNL     1     -41.965  40.579  29.571  1.00  0.00    -0.219 NA
ATOM     58  H   UNL     1     -42.645  39.188  30.932  1.00  0.00     0.106 H 
BRANCH  51  59
ATOM     59  C   UNL     1     -43.363  42.459  25.577  1.00  0.00     0.085 C 
ATOM     60  C   UNL     1     -44.167  42.814  24.333  1.00  0.00    -0.020 C 
ATOM     61  O   UNL     1     -43.159  43.712  26.271  1.00  0.00    -0.373 OA
ATOM     62  H   UNL     1     -42.378  42.075  25.282  1.00  0.00     0.066 H 
ATOM     63  C   UNL     1     -45.005  43.975  24.805  1.00  0.00    -0.027 C 
ATOM     64  H   UNL     1     -43.484  43.171  23.552  1.00  0.00     0.030 H 
ATOM     65  H   UNL     1     -44.751  41.996  23.904  1.00  0.00     0.030 H 
ATOM     66  C   UNL     1     -44.043  44.699  25.720  1.00  0.00     0.048 C 
ATOM     67  H   UNL     1     -45.868  43.613  25.376  1.00  0.00     0.029 H 
ATOM     68  H   UNL     1     -45.376  44.608  23.995  1.00  0.00     0.029 H 
ATOM     69  H   UNL     1     -43.432  45.417  25.163  1.00  0.00     0.057 H 
ATOM     70  H   UNL     1     -44.551  45.230  26.529  1.00  0.00     0.057 H 
ENDBRANCH  51  59
BRANCH  55  71
ATOM     71  N   UNL     1     -41.259  42.157  28.007  1.00  0.00    -0.383 N 
ATOM     72  H   UNL     1     -41.371  42.413  27.025  1.00  0.00     0.158 HD
ATOM     73  H   UNL     1     -41.229  42.936  28.654  1.00  0.00     0.158 HD
ENDBRANCH  55  71
ENDBRANCH  44  48
ENDBRANCH  36  39
ENDBRANCH  35  36
ENDBRANCH   7  35
TORSDOF 13
ENDMDL
MODEL 2
REMARK VINA RESULT:      -9.0      2.055     12.399
REMARK SMILES CCc1cc(NCCOC)c2ccc(OCc3cncc(-n4cc([C@H]5CCCO5)c5c(N)ncnc54)c3)cc2n1
REMARK SMILES IDX 3 1 4 2 5 3 11 4 12 5 13 6 14 7 38 8 39 9 40 10 2 15 1 18
REMARK SMILES IDX 6 22 7 24 8 27 9 30 10 31 15 35 16 36 17 39 18 40 37 41
REMARK SMILES IDX 19 42 21 44 20 46 22 48 23 49 36 50 24 51 30 53 35 54 31 55
REMARK SMILES IDX 34 56 33 57 25 59 26 60 29 61 27 63 28 66 32 71
REMARK H PARENT 4 11 12 12 13 13 38 14 2 16 2 17 1 19 1 20 1 21 6 23 7 25 7 26
REMARK H PARENT 8 28 8 29 10 32 10 33 10 34 16 37 16 38 18 43 37 45 20 47
REMARK H PARENT 23 52 34 58 25 62 26 64 26 65 27 67 27 68 28 69 28 70 32 72
REMARK H PARENT 32 73
REMARK Flexibility Score: inf
ROOT
ATOM      1  C   UNL     1     -43.438  40.097  28.918  1.00  0.00     0.043 A 
ATOM      2  C   UNL     1     -43.582  40.886  27.783  1.00  0.00    -0.017 A 
ATOM      3  C   UNL     1     -44.641  40.650  26.903  1.00  0.00     0.045 A 
ATOM      4  C   UNL     1     -45.487  39.534  27.163  1.00  0.00     0.024 A 
ATOM      5  C   UNL     1     -46.541  39.123  26.311  1.00  0.00    -0.047 A 
ATOM      6  C   UNL     1     -47.351  38.027  26.622  1.00  0.00    -0.019 A 
ATOM      7  C   UNL     1     -47.120  37.312  27.787  1.00  0.00     0.122 A 
ATOM      8  C   UNL     1     -46.082  37.712  28.633  1.00  0.00     0.007 A 
ATOM      9  C   UNL     1     -45.258  38.792  28.341  1.00  0.00     0.076 A 
ATOM     10  N   UNL     1     -44.268  39.071  29.200  1.00  0.00    -0.253 NA
ATOM     11  H   UNL     1     -42.866  41.679  27.608  1.00  0.00     0.066 H 
ATOM     12  H   UNL     1     -46.738  39.654  25.383  1.00  0.00     0.063 H 
ATOM     13  H   UNL     1     -48.156  37.779  25.940  1.00  0.00     0.066 H 
ATOM     14  H   UNL     1     -45.901  37.156  29.550  1.00  0.00     0.069 H 
ENDROOT
BRANCH   1  15
ATOM     15  C   UNL     1     -42.305  40.339  29.880  1.00  0.00    -0.013 C 
ATOM     16  H   UNL     1     -42.689  40.372  30.907  1.00  0.00     0.033 H 
ATOM     17  H   UNL     1     -41.609  39.493  29.836  1.00  0.00     0.033 H 
BRANCH  15  18
ATOM     18  C   UNL     1     -41.561  41.624  29.556  1.00  0.00    -0.060 C 
ATOM     19  H   UNL     1     -40.672  41.717  30.189  1.00  0.00     0.023 H 
ATOM     20  H   UNL     1     -41.236  41.641  28.510  1.00  0.00     0.023 H 
ATOM     21  H   UNL     1     -42.191  42.503  29.727  1.00  0.00     0.023 H 
ENDBRANCH  15  18
ENDBRANCH   1  15
BRANCH   3  22
ATOM     22  N   UNL     1     -44.809  41.405  25.722  1.00  0.00    -0.382 N 
ATOM     23  H   UNL     1     -45.133  40.806  24.959  1.00  0.00     0.160 HD
BRANCH  22  24
ATOM     24  C   UNL     1     -45.619  42.628  25.739  1.00  0.00     0.038 C 
ATOM     25  H   UNL     1     -46.219  42.678  26.654  1.00  0.00     0.051 H 
ATOM     26  H   UNL     1     -46.280  42.644  24.864  1.00  0.00     0.051 H 
BRANCH  24  27
ATOM     27  C   UNL     1     -44.693  43.851  25.691  1.00  0.00     0.063 C 
ATOM     28  H   UNL     1     -45.143  44.628  25.062  1.00  0.00     0.059 H 
ATOM     29  H   UNL     1     -44.537  44.249  26.701  1.00  0.00     0.059 H 
BRANCH  27  30
ATOM     30  O   UNL     1     -43.431  43.462  25.134  1.00  0.00    -0.383 OA
BRANCH  30  31
ATOM     31  C   UNL     1     -43.129  44.206  23.960  1.00  0.00     0.036 C 
ATOM     32  H   UNL     1     -43.898  44.962  23.777  1.00  0.00     0.053 H 
ATOM     33  H   UNL     1     -43.109  43.516  23.111  1.00  0.00     0.053 H 
ATOM     34  H   UNL     1     -42.147  44.678  24.048  1.00  0.00     0.053 H 
ENDBRANCH  30  31
ENDBRANCH  27  30
ENDBRANCH  24  27
ENDBRANCH  22  24
ENDBRANCH   3  22
BRANCH   7  35
ATOM     35  O   UNL     1     -47.839  36.236  28.227  1.00  0.00    -0.489 OA
BRANCH  35  36
ATOM     36  C   UNL     1     -48.687  35.564  27.294  1.00  0.00     0.115 C 
ATOM     37  H   UNL     1     -49.027  36.323  26.581  1.00  0.00     0.076 H 
ATOM     38  H   UNL     1     -49.591  35.183  27.789  1.00  0.00     0.076 H 
BRANCH  36  39
ATOM     39  C   UNL     1     -47.979  34.490  26.509  1.00  0.00     0.010 A 
ATOM     40  C   UNL     1     -46.672  34.649  26.071  1.00  0.00     0.034 A 
ATOM     41  C   UNL     1     -48.647  33.312  26.140  1.00  0.00    -0.028 A 
ATOM     42  N   UNL     1     -46.014  33.731  25.335  1.00  0.00    -0.262 NA
ATOM     43  H   UNL     1     -46.098  35.543  26.304  1.00  0.00     0.084 H 
ATOM     44  C   UNL     1     -47.996  32.328  25.378  1.00  0.00     0.066 A 
ATOM     45  H   UNL     1     -49.680  33.203  26.454  1.00  0.00     0.065 H 
ATOM     46  C   UNL     1     -46.683  32.595  25.008  1.00  0.00     0.051 A 
ATOM     47  H   UNL     1     -46.070  31.913  24.432  1.00  0.00     0.086 H 
BRANCH  44  48
ATOM     48  N   UNL     1     -48.660  31.113  25.005  1.00  0.00    -0.299 N 
ATOM     49  C   UNL     1     -48.610  29.926  25.726  1.00  0.00     0.018 A 
ATOM     50  C   UNL     1     -49.457  30.876  23.886  1.00  0.00     0.150 A 
ATOM     51  C   UNL     1     -49.357  28.945  25.098  1.00  0.00     0.012 A 
ATOM     52  H   UNL     1     -48.032  29.852  26.632  1.00  0.00     0.083 H 
ATOM     53  C   UNL     1     -49.902  29.557  23.926  1.00  0.00     0.067 A 
ATOM     54  N   UNL     1     -49.772  31.763  22.920  1.00  0.00    -0.218 NA
ATOM     55  C   UNL     1     -50.738  29.135  22.877  1.00  0.00     0.136 A 
ATOM     56  C   UNL     1     -50.566  31.245  21.974  1.00  0.00     0.120 A 
ATOM     57  N   UNL     1     -51.062  30.001  21.903  1.00  0.00    -0.219 NA
ATOM     58  H   UNL     1     -50.847  31.914  21.166  1.00  0.00     0.106 H 
BRANCH  51  59
ATOM     59  C   UNL     1     -49.567  27.509  25.508  1.00  0.00     0.085 C 
ATOM     60  C   UNL     1     -48.782  26.464  24.728  1.00  0.00    -0.020 C 
ATOM     61  O   UNL     1     -49.175  27.330  26.890  1.00  0.00    -0.373 OA
ATOM     62  H   UNL     1     -50.641  27.293  25.434  1.00  0.00     0.066 H 
ATOM     63  C   UNL     1     -47.501  26.360  25.517  1.00  0.00    -0.027 C 
ATOM     64  H   UNL     1     -49.306  25.501  24.785  1.00  0.00     0.030 H 
ATOM     65  H   UNL     1     -48.628  26.688  23.669  1.00  0.00     0.030 H 
ATOM     66  C   UNL     1     -48.000  26.507  26.936  1.00  0.00     0.048 C 
ATOM     67  H   UNL     1     -46.831  27.190  25.265  1.00  0.00     0.029 H 
ATOM     68  H   UNL     1     -46.958  25.425  25.353  1.00  0.00     0.029 H 
ATOM     69  H   UNL     1     -48.291  25.538  27.355  1.00  0.00     0.057 H 
ATOM     70  H   UNL     1     -47.258  26.962  27.598  1.00  0.00     0.057 H 
ENDBRANCH  51  59
BRANCH  55  71
ATOM     71  N   UNL     1     -51.282  27.858  22.796  1.00  0.00    -0.383 N 
ATOM     72  H   UNL     1     -50.899  27.227  23.501  1.00  0.00     0.158 HD
ATOM     73  H   UNL     1     -52.294  27.914  22.773  1.00  0.00     0.158 HD
ENDBRANCH  55  71
ENDBRANCH  44  48
ENDBRANCH  36  39
ENDBRANCH  35  36
ENDBRANCH   7  35
TORSDOF 13
ENDMDL
MODEL 3
REMARK VINA RESULT:      -8.4      2.421     11.882
REMARK SMILES CCc1cc(NCCOC)c2ccc(OCc3cncc(-n4cc([C@H]5CCCO5)c5c(N)ncnc54)c3)cc2n1
REMARK SMILES IDX 3 1 4 2 5 3 11 4 12 5 13 6 14 7 38 8 39 9 40 10 2 15 1 18
REMARK SMILES IDX 6 22 7 24 8 27 9 30 10 31 15 35 16 36 17 39 18 40 37 41
REMARK SMILES IDX 19 42 21 44 20 46 22 48 23 49 36 50 24 51 30 53 35 54 31 55
REMARK SMILES IDX 34 56 33 57 25 59 26 60 29 61 27 63 28 66 32 71
REMARK H PARENT 4 11 12 12 13 13 38 14 2 16 2 17 1 19 1 20 1 21 6 23 7 25 7 26
REMARK H PARENT 8 28 8 29 10 32 10 33 10 34 16 37 16 38 18 43 37 45 20 47
REMARK H PARENT 23 52 34 58 25 62 26 64 26 65 27 67 27 68 28 69 28 70 32 72
REMARK H PARENT 32 73
REMARK Flexibility Score: inf
ROOT
ATOM      1  C   UNL     1     -43.218  41.245  28.194  1.00  0.00     0.043 A 
ATOM      2  C   UNL     1     -43.865  42.004  27.226  1.00  0.00    -0.017 A 
ATOM      3  C   UNL     1     -44.979  41.481  26.564  1.00  0.00     0.045 A 
ATOM      4  C   UNL     1     -45.351  40.136  26.847  1.00  0.00     0.024 A 
ATOM      5  C   UNL     1     -46.399  39.447  26.188  1.00  0.00    -0.047 A 
ATOM      6  C   UNL     1     -46.733  38.131  26.515  1.00  0.00    -0.019 A 
ATOM      7  C   UNL     1     -46.020  37.468  27.503  1.00  0.00     0.122 A 
ATOM      8  C   UNL     1     -44.985  38.141  28.158  1.00  0.00     0.007 A 
ATOM      9  C   UNL     1     -44.630  39.446  27.845  1.00  0.00     0.076 A 
ATOM     10  N   UNL     1     -43.598  39.988  28.507  1.00  0.00    -0.253 NA
ATOM     11  H   UNL     1     -43.493  42.997  27.011  1.00  0.00     0.066 H 
ATOM     12  H   UNL     1     -46.967  39.934  25.399  1.00  0.00     0.063 H 
ATOM     13  H   UNL     1     -47.561  37.669  25.990  1.00  0.00     0.066 H 
ATOM     14  H   UNL     1     -44.427  37.625  28.937  1.00  0.00     0.069 H 
ENDROOT
BRANCH   1  15
ATOM     15  C   UNL     1     -42.019  41.793  28.921  1.00  0.00    -0.013 C 
ATOM     16  H   UNL     1     -41.192  41.944  28.217  1.00  0.00     0.033 H 
ATOM     17  H   UNL     1     -42.266  42.781  29.328  1.00  0.00     0.033 H 
BRANCH  15  18
ATOM     18  C   UNL     1     -41.584  40.876  30.052  1.00  0.00    -0.060 C 
ATOM     19  H   UNL     1     -41.768  41.353  31.020  1.00  0.00     0.023 H 
ATOM     20  H   UNL     1     -42.135  39.929  30.030  1.00  0.00     0.023 H 
ATOM     21  H   UNL     1     -40.515  40.644  29.988  1.00  0.00     0.023 H 
ENDBRANCH  15  18
ENDBRANCH   1  15
BRANCH   3  22
ATOM     22  N   UNL     1     -45.649  42.202  25.553  1.00  0.00    -0.382 N 
ATOM     23  H   UNL     1     -46.495  41.706  25.260  1.00  0.00     0.160 HD
BRANCH  22  24
ATOM     24  C   UNL     1     -45.978  43.618  25.753  1.00  0.00     0.038 C 
ATOM     25  H   UNL     1     -45.775  44.190  24.840  1.00  0.00     0.051 H 
ATOM     26  H   UNL     1     -45.383  44.022  26.580  1.00  0.00     0.051 H 
BRANCH  24  27
ATOM     27  C   UNL     1     -47.469  43.750  26.094  1.00  0.00     0.063 C 
ATOM     28  H   UNL     1     -47.920  44.532  25.472  1.00  0.00     0.059 H 
ATOM     29  H   UNL     1     -47.986  42.801  25.913  1.00  0.00     0.059 H 
BRANCH  27  30
ATOM     30  O   UNL     1     -47.603  44.107  27.476  1.00  0.00    -0.383 OA
BRANCH  30  31
ATOM     31  C   UNL     1     -47.865  45.497  27.632  1.00  0.00     0.036 C 
ATOM     32  H   UNL     1     -48.682  45.655  28.342  1.00  0.00     0.053 H 
ATOM     33  H   UNL     1     -48.164  45.901  26.660  1.00  0.00     0.053 H 
ATOM     34  H   UNL     1     -46.966  46.021  27.966  1.00  0.00     0.053 H 
ENDBRANCH  30  31
ENDBRANCH  27  30
ENDBRANCH  24  27
ENDBRANCH  22  24
ENDBRANCH   3  22
BRANCH   7  35
ATOM     35  O   UNL     1     -46.245  36.193  27.940  1.00  0.00    -0.489 OA
BRANCH  35  36
ATOM     36  C   UNL     1     -46.025  35.117  27.024  1.00  0.00     0.115 C 
ATOM     37  H   UNL     1     -45.415  34.377  27.554  1.00  0.00     0.076 H 
ATOM     38  H   UNL     1     -45.425  35.448  26.166  1.00  0.00     0.076 H 
BRANCH  36  39
ATOM     39  C   UNL     1     -47.295  34.431  26.594  1.00  0.00     0.010 A 
ATOM     40  C   UNL     1     -48.538  34.844  27.050  1.00  0.00     0.034 A 
ATOM     41  C   UNL     1     -47.254  33.303  25.758  1.00  0.00    -0.028 A 
ATOM     42  N   UNL     1     -49.696  34.236  26.720  1.00  0.00    -0.262 NA
ATOM     43  H   UNL     1     -48.646  35.700  27.713  1.00  0.00     0.084 H 
ATOM     44  C   UNL     1     -48.436  32.643  25.387  1.00  0.00     0.066 A 
ATOM     45  H   UNL     1     -46.279  32.959  25.429  1.00  0.00     0.065 H 
ATOM     46  C   UNL     1     -49.623  33.157  25.898  1.00  0.00     0.051 A 
ATOM     47  H   UNL     1     -50.600  32.747  25.676  1.00  0.00     0.086 H 
BRANCH  44  48
ATOM     48  N   UNL     1     -48.413  31.498  24.524  1.00  0.00    -0.299 N 
ATOM     49  C   UNL     1     -48.293  31.548  23.140  1.00  0.00     0.018 A 
ATOM     50  C   UNL     1     -48.505  30.152  24.876  1.00  0.00     0.150 A 
ATOM     51  C   UNL     1     -48.302  30.272  22.606  1.00  0.00     0.012 A 
ATOM     52  H   UNL     1     -48.226  32.492  22.623  1.00  0.00     0.083 H 
ATOM     53  C   UNL     1     -48.431  29.383  23.718  1.00  0.00     0.067 A 
ATOM     54  N   UNL     1     -48.630  29.654  26.122  1.00  0.00    -0.218 NA
ATOM     55  C   UNL     1     -48.494  27.986  23.877  1.00  0.00     0.136 A 
ATOM     56  C   UNL     1     -48.685  28.316  26.146  1.00  0.00     0.120 A 
ATOM     57  N   UNL     1     -48.621  27.468  25.109  1.00  0.00    -0.219 NA
ATOM     58  H   UNL     1     -48.793  27.860  27.126  1.00  0.00     0.106 H 
BRANCH  51  59
ATOM     59  C   UNL     1     -48.219  29.851  21.159  1.00  0.00     0.085 C 
ATOM     60  C   UNL     1     -49.545  29.691  20.428  1.00  0.00    -0.020 C 
ATOM     61  O   UNL     1     -47.481  30.840  20.402  1.00  0.00    -0.373 OA
ATOM     62  H   UNL     1     -47.658  28.909  21.117  1.00  0.00     0.066 H 
ATOM     63  C   UNL     1     -49.782  31.072  19.872  1.00  0.00    -0.027 C 
ATOM     64  H   UNL     1     -49.412  28.995  19.589  1.00  0.00     0.030 H 
ATOM     65  H   UNL     1     -50.372  29.313  21.035  1.00  0.00     0.030 H 
ATOM     66  C   UNL     1     -48.380  31.499  19.499  1.00  0.00     0.048 C 
ATOM     67  H   UNL     1     -50.181  31.732  20.651  1.00  0.00     0.029 H 
ATOM     68  H   UNL     1     -50.471  31.092  19.023  1.00  0.00     0.029 H 
ATOM     69  H   UNL     1     -48.126  31.177  18.484  1.00  0.00     0.057 H 
ATOM     70  H   UNL     1     -48.239  32.581  19.564  1.00  0.00     0.057 H 
ENDBRANCH  51  59
BRANCH  55  71
ATOM     71  N   UNL     1     -48.404  27.089  22.818  1.00  0.00    -0.383 N 
ATOM     72  H   UNL     1     -49.052  27.314  22.062  1.00  0.00     0.158 HD
ATOM     73  H   UNL     1     -47.436  26.979  22.538  1.00  0.00     0.158 HD
ENDBRANCH  55  71
ENDBRANCH  44  48
ENDBRANCH  36  39
ENDBRANCH  35  36
ENDBRANCH   7  35
TORSDOF 13
ENDMDL
MODEL 4
REMARK VINA RESULT:      -8.1      1.230      2.202
REMARK SMILES CCc1cc(NCCOC)c2ccc(OCc3cncc(-n4cc([C@H]5CCCO5)c5c(N)ncnc54)c3)cc2n1
REMARK SMILES IDX 3 1 4 2 5 3 11 4 12 5 13 6 14 7 38 8 39 9 40 10 2 15 1 18
REMARK SMILES IDX 6 22 7 24 8 27 9 30 10 31 15 35 16 36 17 39 18 40 37 41
REMARK SMILES IDX 19 42 21 44 20 46 22 48 23 49 36 50 24 51 30 53 35 54 31 55
REMARK SMILES IDX 34 56 33 57 25 59 26 60 29 61 27 63 28 66 32 71
REMARK H PARENT 4 11 12 12 13 13 38 14 2 16 2 17 1 19 1 20 1 21 6 23 7 25 7 26
REMARK H PARENT 8 28 8 29 10 32 10 33 10 34 16 37 16 38 18 43 37 45 20 47
REMARK H PARENT 23 52 34 58 25 62 26 64 26 65 27 67 27 68 28 69 28 70 32 72
REMARK H PARENT 32 73
REMARK Flexibility Score: inf
ROOT
ATOM      1  C   UNL     1     -50.159  31.301  24.209  1.00  0.00     0.043 A 
ATOM      2  C   UNL     1     -49.204  30.365  23.832  1.00  0.00    -0.017 A 
ATOM      3  C   UNL     1     -47.872  30.540  24.214  1.00  0.00     0.045 A 
ATOM      4  C   UNL     1     -47.529  31.738  24.903  1.00  0.00     0.024 A 
ATOM      5  C   UNL     1     -46.207  32.092  25.271  1.00  0.00    -0.047 A 
ATOM      6  C   UNL     1     -45.928  33.274  25.961  1.00  0.00    -0.019 A 
ATOM      7  C   UNL     1     -46.963  34.136  26.290  1.00  0.00     0.122 A 
ATOM      8  C   UNL     1     -48.269  33.795  25.931  1.00  0.00     0.007 A 
ATOM      9  C   UNL     1     -48.571  32.629  25.239  1.00  0.00     0.076 A 
ATOM     10  N   UNL     1     -49.852  32.413  24.910  1.00  0.00    -0.253 NA
ATOM     11  H   UNL     1     -49.519  29.507  23.252  1.00  0.00     0.066 H 
ATOM     12  H   UNL     1     -45.373  31.444  25.013  1.00  0.00     0.063 H 
ATOM     13  H   UNL     1     -44.898  33.474  26.233  1.00  0.00     0.066 H 
ATOM     14  H   UNL     1     -49.084  34.467  26.193  1.00  0.00     0.069 H 
ENDROOT
BRANCH   1  15
ATOM     15  C   UNL     1     -51.602  31.126  23.811  1.00  0.00    -0.013 C 
ATOM     16  H   UNL     1     -52.242  31.173  24.700  1.00  0.00     0.033 H 
ATOM     17  H   UNL     1     -51.901  31.963  23.168  1.00  0.00     0.033 H 
BRANCH  15  18
ATOM     18  C   UNL     1     -51.824  29.817  23.072  1.00  0.00    -0.060 C 
ATOM     19  H   UNL     1     -51.061  29.685  22.298  1.00  0.00     0.023 H 
ATOM     20  H   UNL     1     -51.767  28.962  23.755  1.00  0.00     0.023 H 
ATOM     21  H   UNL     1     -52.805  29.796  22.587  1.00  0.00     0.023 H 
ENDBRANCH  15  18
ENDBRANCH   1  15
BRANCH   3  22
ATOM     22  N   UNL     1     -46.862  29.633  23.828  1.00  0.00    -0.382 N 
ATOM     23  H   UNL     1     -46.091  29.650  24.499  1.00  0.00     0.160 HD
BRANCH  22  24
ATOM     24  C   UNL     1     -47.201  28.236  23.533  1.00  0.00     0.038 C 
ATOM     25  H   UNL     1     -46.357  27.732  23.049  1.00  0.00     0.051 H 
ATOM     26  H   UNL     1     -48.077  28.200  22.876  1.00  0.00     0.051 H 
BRANCH  24  27
ATOM     27  C   UNL     1     -47.524  27.504  24.843  1.00  0.00     0.063 C 
ATOM     28  H   UNL     1     -47.447  28.204  25.683  1.00  0.00     0.059 H 
ATOM     29  H   UNL     1     -48.539  27.092  24.807  1.00  0.00     0.059 H 
BRANCH  27  30
ATOM     30  O   UNL     1     -46.584  26.437  25.027  1.00  0.00    -0.383 OA
BRANCH  30  31
ATOM     31  C   UNL     1     -46.864  25.695  26.208  1.00  0.00     0.036 C 
ATOM     32  H   UNL     1     -46.154  25.951  26.999  1.00  0.00     0.053 H 
ATOM     33  H   UNL     1     -46.762  24.630  25.977  1.00  0.00     0.053 H 
ATOM     34  H   UNL     1     -47.888  25.882  26.543  1.00  0.00     0.053 H 
ENDBRANCH  30  31
ENDBRANCH  27  30
ENDBRANCH  24  27
ENDBRANCH  22  24
ENDBRANCH   3  22
BRANCH   7  35
ATOM     35  O   UNL     1     -46.843  35.313  26.976  1.00  0.00    -0.489 OA
BRANCH  35  36
ATOM     36  C   UNL     1     -48.016  35.867  27.574  1.00  0.00     0.115 C 
ATOM     37  H   UNL     1     -48.077  35.449  28.585  1.00  0.00     0.076 H 
ATOM     38  H   UNL     1     -48.921  35.531  27.050  1.00  0.00     0.076 H 
BRANCH  36  39
ATOM     39  C   UNL     1     -47.966  37.367  27.708  1.00  0.00     0.010 A 
ATOM     40  C   UNL     1     -49.092  38.108  28.034  1.00  0.00     0.034 A 
ATOM     41  C   UNL     1     -46.781  38.073  27.445  1.00  0.00    -0.028 A 
ATOM     42  N   UNL     1     -49.101  39.453  28.128  1.00  0.00    -0.262 NA
ATOM     43  H   UNL     1     -50.049  37.631  28.235  1.00  0.00     0.084 H 
ATOM     44  C   UNL     1     -46.745  39.473  27.536  1.00  0.00     0.066 A 
ATOM     45  H   UNL     1     -45.908  37.495  27.157  1.00  0.00     0.065 H 
ATOM     46  C   UNL     1     -47.935  40.104  27.883  1.00  0.00     0.051 A 
ATOM     47  H   UNL     1     -48.035  41.177  27.998  1.00  0.00     0.086 H 
BRANCH  44  48
ATOM     48  N   UNL     1     -45.540  40.207  27.284  1.00  0.00    -0.299 N 
ATOM     49  C   UNL     1     -45.321  41.023  26.180  1.00  0.00     0.018 A 
ATOM     50  C   UNL     1     -44.381  40.253  28.059  1.00  0.00     0.150 A 
ATOM     51  C   UNL     1     -44.059  41.587  26.236  1.00  0.00     0.012 A 
ATOM     52  H   UNL     1     -46.074  41.136  25.417  1.00  0.00     0.083 H 
ATOM     53  C   UNL     1     -43.464  41.098  27.440  1.00  0.00     0.067 A 
ATOM     54  N   UNL     1     -44.166  39.607  29.223  1.00  0.00    -0.218 NA
ATOM     55  C   UNL     1     -42.229  41.280  28.088  1.00  0.00     0.136 A 
ATOM     56  C   UNL     1     -42.956  39.853  29.741  1.00  0.00     0.120 A 
ATOM     57  N   UNL     1     -41.993  40.645  29.247  1.00  0.00    -0.219 NA
ATOM     58  H   UNL     1     -42.726  39.353  30.677  1.00  0.00     0.106 H 
BRANCH  51  59
ATOM     59  C   UNL     1     -43.393  42.513  25.248  1.00  0.00     0.085 C 
ATOM     60  C   UNL     1     -44.274  43.049  24.128  1.00  0.00    -0.020 C 
ATOM     61  O   UNL     1     -42.891  43.684  25.934  1.00  0.00    -0.373 OA
ATOM     62  H   UNL     1     -42.534  41.982  24.819  1.00  0.00     0.066 H 
ATOM     63  C   UNL     1     -44.835  44.313  24.730  1.00  0.00    -0.027 C 
ATOM     64  H   UNL     1     -43.644  43.319  23.271  1.00  0.00     0.030 H 
ATOM     65  H   UNL     1     -45.040  42.359  23.764  1.00  0.00     0.030 H 
ATOM     66  C   UNL     1     -43.655  44.827  25.524  1.00  0.00     0.048 C 
ATOM     67  H   UNL     1     -45.667  44.077  25.402  1.00  0.00     0.029 H 
ATOM     68  H   UNL     1     -45.191  45.032  23.987  1.00  0.00     0.029 H 
ATOM     69  H   UNL     1     -43.005  45.455  24.905  1.00  0.00     0.057 H 
ATOM     70  H   UNL     1     -43.958  45.402  26.403  1.00  0.00     0.057 H 
ENDBRANCH  51  59
BRANCH  55  71
ATOM     71  N   UNL     1     -41.226  42.115  27.608  1.00  0.00    -0.383 N 
ATOM     72  H   UNL     1     -40.303  41.854  27.957  1.00  0.00     0.158 HD
ATOM     73  H   UNL     1     -41.298  42.199  26.600  1.00  0.00     0.158 HD
ENDBRANCH  55  71
ENDBRANCH  44  48
ENDBRANCH  36  39
ENDBRANCH  35  36
ENDBRANCH   7  35
TORSDOF 13
ENDMDL
MODEL 5
REMARK VINA RESULT:      -8.1      1.947      3.229
REMARK SMILES CCc1cc(NCCOC)c2ccc(OCc3cncc(-n4cc([C@H]5CCCO5)c5c(N)ncnc54)c3)cc2n1
REMARK SMILES IDX 3 1 4 2 5 3 11 4 12 5 13 6 14 7 38 8 39 9 40 10 2 15 1 18
REMARK SMILES IDX 6 22 7 24 8 27 9 30 10 31 15 35 16 36 17 39 18 40 37 41
REMARK SMILES IDX 19 42 21 44 20 46 22 48 23 49 36 50 24 51 30 53 35 54 31 55
REMARK SMILES IDX 34 56 33 57 25 59 26 60 29 61 27 63 28 66 32 71
REMARK H PARENT 4 11 12 12 13 13 38 14 2 16 2 17 1 19 1 20 1 21 6 23 7 25 7 26
REMARK H PARENT 8 28 8 29 10 32 10 33 10 34 16 37 16 38 18 43 37 45 20 47
REMARK H PARENT 23 52 34 58 25 62 26 64 26 65 27 67 27 68 28 69 28 70 32 72
REMARK H PARENT 32 73
REMARK Flexibility Score: inf
ROOT
ATOM      1  C   UNL     1     -46.348  30.468  22.761  1.00  0.00     0.043 A 
ATOM      2  C   UNL     1     -47.610  29.905  22.901  1.00  0.00    -0.017 A 
ATOM      3  C   UNL     1     -48.536  30.484  23.773  1.00  0.00     0.045 A 
ATOM      4  C   UNL     1     -48.106  31.589  24.563  1.00  0.00     0.024 A 
ATOM      5  C   UNL     1     -48.904  32.217  25.550  1.00  0.00    -0.047 A 
ATOM      6  C   UNL     1     -48.438  33.309  26.287  1.00  0.00    -0.019 A 
ATOM      7  C   UNL     1     -47.158  33.792  26.060  1.00  0.00     0.122 A 
ATOM      8  C   UNL     1     -46.364  33.178  25.087  1.00  0.00     0.007 A 
ATOM      9  C   UNL     1     -46.803  32.087  24.348  1.00  0.00     0.076 A 
ATOM     10  N   UNL     1     -45.950  31.549  23.465  1.00  0.00    -0.253 NA
ATOM     11  H   UNL     1     -47.854  29.025  22.319  1.00  0.00     0.066 H 
ATOM     12  H   UNL     1     -49.906  31.852  25.761  1.00  0.00     0.063 H 
ATOM     13  H   UNL     1     -49.107  33.759  27.011  1.00  0.00     0.066 H 
ATOM     14  H   UNL     1     -45.361  33.559  24.904  1.00  0.00     0.069 H 
ENDROOT
BRANCH   1  15
ATOM     15  C   UNL     1     -45.338  29.861  21.822  1.00  0.00    -0.013 C 
ATOM     16  H   UNL     1     -45.843  29.481  20.926  1.00  0.00     0.033 H 
ATOM     17  H   UNL     1     -44.648  30.642  21.482  1.00  0.00     0.033 H 
BRANCH  15  18
ATOM     18  C   UNL     1     -44.550  28.747  22.493  1.00  0.00    -0.060 C 
ATOM     19  H   UNL     1     -43.865  28.283  21.776  1.00  0.00     0.023 H 
ATOM     20  H   UNL     1     -43.958  29.130  23.331  1.00  0.00     0.023 H 
ATOM     21  H   UNL     1     -45.215  27.967  22.879  1.00  0.00     0.023 H 
ENDBRANCH  15  18
ENDBRANCH   1  15
BRANCH   3  22
ATOM     22  N   UNL     1     -49.818  29.930  23.972  1.00  0.00    -0.382 N 
ATOM     23  H   UNL     1     -50.320  29.863  23.084  1.00  0.00     0.160 HD
BRANCH  22  24
ATOM     24  C   UNL     1     -49.968  28.663  24.695  1.00  0.00     0.038 C 
ATOM     25  H   UNL     1     -50.560  28.810  25.606  1.00  0.00     0.051 H 
ATOM     26  H   UNL     1     -48.979  28.269  24.959  1.00  0.00     0.051 H 
BRANCH  24  27
ATOM     27  C   UNL     1     -50.690  27.647  23.798  1.00  0.00     0.063 C 
ATOM     28  H   UNL     1     -50.961  26.764  24.388  1.00  0.00     0.059 H 
ATOM     29  H   UNL     1     -51.598  28.093  23.376  1.00  0.00     0.059 H 
BRANCH  27  30
ATOM     30  O   UNL     1     -49.813  27.256  22.734  1.00  0.00    -0.383 OA
BRANCH  30  31
ATOM     31  C   UNL     1     -50.489  27.239  21.482  1.00  0.00     0.036 C 
ATOM     32  H   UNL     1     -50.779  26.218  21.218  1.00  0.00     0.053 H 
ATOM     33  H   UNL     1     -49.805  27.618  20.717  1.00  0.00     0.053 H 
ATOM     34  H   UNL     1     -51.370  27.886  21.515  1.00  0.00     0.053 H 
ENDBRANCH  30  31
ENDBRANCH  27  30
ENDBRANCH  24  27
ENDBRANCH  22  24
ENDBRANCH   3  22
BRANCH   7  35
ATOM     35  O   UNL     1     -46.577  34.858  26.688  1.00  0.00    -0.489 OA
BRANCH  35  36
ATOM     36  C   UNL     1     -47.189  36.141  26.544  1.00  0.00     0.115 C 
ATOM     37  H   UNL     1     -48.144  36.093  27.080  1.00  0.00     0.076 H 
ATOM     38  H   UNL     1     -47.440  36.342  25.493  1.00  0.00     0.076 H 
BRANCH  36  39
ATOM     39  C   UNL     1     -46.384  37.259  27.155  1.00  0.00     0.010 A 
ATOM     40  C   UNL     1     -45.587  37.058  28.272  1.00  0.00     0.034 A 
ATOM     41  C   UNL     1     -46.466  38.565  26.644  1.00  0.00    -0.028 A 
ATOM     42  N   UNL     1     -44.881  38.036  28.873  1.00  0.00    -0.262 NA
ATOM     43  H   UNL     1     -45.489  36.077  28.732  1.00  0.00     0.084 H 
ATOM     44  C   UNL     1     -45.743  39.612  27.237  1.00  0.00     0.066 A 
ATOM     45  H   UNL     1     -47.116  38.729  25.792  1.00  0.00     0.065 H 
ATOM     46  C   UNL     1     -44.969  39.285  28.345  1.00  0.00     0.051 A 
ATOM     47  H   UNL     1     -44.356  39.998  28.882  1.00  0.00     0.086 H 
BRANCH  44  48
ATOM     48  N   UNL     1     -45.804  40.948  26.720  1.00  0.00    -0.299 N 
ATOM     49  C   UNL     1     -44.700  41.715  26.366  1.00  0.00     0.018 A 
ATOM     50  C   UNL     1     -46.935  41.726  26.476  1.00  0.00     0.150 A 
ATOM     51  C   UNL     1     -45.100  42.956  25.902  1.00  0.00     0.012 A 
ATOM     52  H   UNL     1     -43.699  41.333  26.484  1.00  0.00     0.083 H 
ATOM     53  C   UNL     1     -46.528  42.957  25.967  1.00  0.00     0.067 A 
ATOM     54  N   UNL     1     -48.218  41.365  26.678  1.00  0.00    -0.218 NA
ATOM     55  C   UNL     1     -47.541  43.878  25.646  1.00  0.00     0.136 A 
ATOM     56  C   UNL     1     -49.090  42.325  26.342  1.00  0.00     0.120 A 
ATOM     57  N   UNL     1     -48.826  43.540  25.841  1.00  0.00    -0.219 NA
ATOM     58  H   UNL     1     -50.140  42.090  26.490  1.00  0.00     0.106 H 
BRANCH  51  59
ATOM     59  C   UNL     1     -44.249  44.109  25.433  1.00  0.00     0.085 C 
ATOM     60  C   UNL     1     -42.743  43.889  25.461  1.00  0.00    -0.020 C 
ATOM     61  O   UNL     1     -44.564  44.425  24.056  1.00  0.00    -0.373 OA
ATOM     62  H   UNL     1     -44.504  44.984  26.045  1.00  0.00     0.066 H 
ATOM     63  C   UNL     1     -42.471  43.309  24.095  1.00  0.00    -0.027 C 
ATOM     64  H   UNL     1     -42.237  44.860  25.535  1.00  0.00     0.030 H 
ATOM     65  H   UNL     1     -42.375  43.268  26.282  1.00  0.00     0.030 H 
ATOM     66  C   UNL     1     -43.439  44.087  23.232  1.00  0.00     0.048 C 
ATOM     67  H   UNL     1     -42.724  42.243  24.077  1.00  0.00     0.029 H 
ATOM     68  H   UNL     1     -41.433  43.418  23.770  1.00  0.00     0.029 H 
ATOM     69  H   UNL     1     -42.993  45.023  22.881  1.00  0.00     0.057 H 
ATOM     70  H   UNL     1     -43.779  43.518  22.363  1.00  0.00     0.057 H 
ENDBRANCH  51  59
BRANCH  55  71
ATOM     71  N   UNL     1     -47.292  45.134  25.103  1.00  0.00    -0.383 N 
ATOM     72  H   UNL     1     -48.085  45.488  24.565  1.00  0.00     0.158 HD
ATOM     73  H   UNL     1     -46.945  45.759  25.821  1.00  0.00     0.158 HD
ENDBRANCH  55  71
ENDBRANCH  44  48
ENDBRANCH  36  39
ENDBRANCH  35  36
ENDBRANCH   7  35
TORSDOF 13
ENDMDL
MODEL 6
REMARK VINA RESULT:      -7.8      1.963     12.681
REMARK SMILES CCc1cc(NCCOC)c2ccc(OCc3cncc(-n4cc([C@H]5CCCO5)c5c(N)ncnc54)c3)cc2n1
REMARK SMILES IDX 3 1 4 2 5 3 11 4 12 5 13 6 14 7 38 8 39 9 40 10 2 15 1 18
REMARK SMILES IDX 6 22 7 24 8 27 9 30 10 31 15 35 16 36 17 39 18 40 37 41
REMARK SMILES IDX 19 42 21 44 20 46 22 48 23 49 36 50 24 51 30 53 35 54 31 55
REMARK SMILES IDX 34 56 33 57 25 59 26 60 29 61 27 63 28 66 32 71
REMARK H PARENT 4 11 12 12 13 13 38 14 2 16 2 17 1 19 1 20 1 21 6 23 7 25 7 26
REMARK H PARENT 8 28 8 29 10 32 10 33 10 34 16 37 16 38 18 43 37 45 20 47
REMARK H PARENT 23 52 34 58 25 62 26 64 26 65 27 67 27 68 28 69 28 70 32 72
REMARK H PARENT 32 73
REMARK Flexibility Score: inf
ROOT
ATOM      1  C   UNL     1     -45.283  40.601  26.901  1.00  0.00     0.043 A 
ATOM      2  C   UNL     1     -44.568  40.474  28.084  1.00  0.00    -0.017 A 
ATOM      3  C   UNL     1     -44.591  39.264  28.784  1.00  0.00     0.045 A 
ATOM      4  C   UNL     1     -45.436  38.228  28.293  1.00  0.00     0.024 A 
ATOM      5  C   UNL     1     -45.629  36.986  28.946  1.00  0.00    -0.047 A 
ATOM      6  C   UNL     1     -46.459  35.997  28.413  1.00  0.00    -0.019 A 
ATOM      7  C   UNL     1     -47.124  36.231  27.219  1.00  0.00     0.122 A 
ATOM      8  C   UNL     1     -46.939  37.453  26.568  1.00  0.00     0.007 A 
ATOM      9  C   UNL     1     -46.125  38.455  27.083  1.00  0.00     0.076 A 
ATOM     10  N   UNL     1     -46.044  39.605  26.400  1.00  0.00    -0.253 NA
ATOM     11  H   UNL     1     -43.995  41.322  28.439  1.00  0.00     0.066 H 
ATOM     12  H   UNL     1     -45.133  36.779  29.891  1.00  0.00     0.063 H 
ATOM     13  H   UNL     1     -46.545  35.059  28.950  1.00  0.00     0.066 H 
ATOM     14  H   UNL     1     -47.455  37.638  25.629  1.00  0.00     0.069 H 
ENDROOT
BRANCH   1  15
ATOM     15  C   UNL     1     -45.267  41.896  26.131  1.00  0.00    -0.013 C 
ATOM     16  H   UNL     1     -46.280  42.136  25.784  1.00  0.00     0.033 H 
ATOM     17  H   UNL     1     -44.966  42.709  26.802  1.00  0.00     0.033 H 
BRANCH  15  18
ATOM     18  C   UNL     1     -44.310  41.833  24.952  1.00  0.00    -0.060 C 
ATOM     19  H   UNL     1     -44.377  40.857  24.461  1.00  0.00     0.023 H 
ATOM     20  H   UNL     1     -44.545  42.604  24.209  1.00  0.00     0.023 H 
ATOM     21  H   UNL     1     -43.273  41.979  25.273  1.00  0.00     0.023 H 
ENDBRANCH  15  18
ENDBRANCH   1  15
BRANCH   3  22
ATOM     22  N   UNL     1     -43.905  39.098  30.005  1.00  0.00    -0.382 N 
ATOM     23  H   UNL     1     -44.177  38.220  30.452  1.00  0.00     0.160 HD
BRANCH  22  24
ATOM     24  C   UNL     1     -42.444  39.218  30.052  1.00  0.00     0.038 C 
ATOM     25  H   UNL     1     -41.999  38.849  29.121  1.00  0.00     0.051 H 
ATOM     26  H   UNL     1     -42.053  38.641  30.899  1.00  0.00     0.051 H 
BRANCH  24  27
ATOM     27  C   UNL     1     -42.059  40.694  30.229  1.00  0.00     0.063 C 
ATOM     28  H   UNL     1     -42.963  41.290  30.398  1.00  0.00     0.059 H 
ATOM     29  H   UNL     1     -41.384  40.810  31.085  1.00  0.00     0.059 H 
BRANCH  27  30
ATOM     30  O   UNL     1     -41.403  41.152  29.040  1.00  0.00    -0.383 OA
BRANCH  30  31
ATOM     31  C   UNL     1     -41.893  42.424  28.633  1.00  0.00     0.036 C 
ATOM     32  H   UNL     1     -42.343  42.950  29.479  1.00  0.00     0.053 H 
ATOM     33  H   UNL     1     -42.661  42.267  27.870  1.00  0.00     0.053 H 
ATOM     34  H   UNL     1     -41.088  43.023  28.200  1.00  0.00     0.053 H 
ENDBRANCH  30  31
ENDBRANCH  27  30
ENDBRANCH  24  27
ENDBRANCH  22  24
ENDBRANCH   3  22
BRANCH   7  35
ATOM     35  O   UNL     1     -47.949  35.354  26.572  1.00  0.00    -0.489 OA
BRANCH  35  36
ATOM     36  C   UNL     1     -47.868  33.970  26.918  1.00  0.00     0.115 C 
ATOM     37  H   UNL     1     -48.858  33.683  27.289  1.00  0.00     0.076 H 
ATOM     38  H   UNL     1     -47.172  33.814  27.754  1.00  0.00     0.076 H 
BRANCH  36  39
ATOM     39  C   UNL     1     -47.550  33.079  25.746  1.00  0.00     0.010 A 
ATOM     40  C   UNL     1     -46.400  33.251  24.990  1.00  0.00     0.034 A 
ATOM     41  C   UNL     1     -48.447  32.077  25.341  1.00  0.00    -0.028 A 
ATOM     42  N   UNL     1     -46.094  32.501  23.911  1.00  0.00    -0.262 NA
ATOM     43  H   UNL     1     -45.668  34.018  25.233  1.00  0.00     0.084 H 
ATOM     44  C   UNL     1     -48.165  31.271  24.227  1.00  0.00     0.066 A 
ATOM     45  H   UNL     1     -49.363  31.965  25.912  1.00  0.00     0.065 H 
ATOM     46  C   UNL     1     -46.975  31.530  23.556  1.00  0.00     0.051 A 
ATOM     47  H   UNL     1     -46.639  30.971  22.691  1.00  0.00     0.086 H 
BRANCH  44  48
ATOM     48  N   UNL     1     -49.064  30.234  23.809  1.00  0.00    -0.299 N 
ATOM     49  C   UNL     1     -49.147  28.973  24.387  1.00  0.00     0.018 A 
ATOM     50  C   UNL     1     -50.000  30.271  22.776  1.00  0.00     0.150 A 
ATOM     51  C   UNL     1     -50.113  28.211  23.753  1.00  0.00     0.012 A 
ATOM     52  H   UNL     1     -48.501  28.694  25.204  1.00  0.00     0.083 H 
ATOM     53  C   UNL     1     -50.660  29.046  22.729  1.00  0.00     0.067 A 
ATOM     54  N   UNL     1     -50.253  31.311  21.956  1.00  0.00    -0.218 NA
ATOM     55  C   UNL     1     -51.659  28.898  21.750  1.00  0.00     0.136 A 
ATOM     56  C   UNL     1     -51.217  31.050  21.064  1.00  0.00     0.120 A 
ATOM     57  N   UNL     1     -51.926  29.921  20.921  1.00  0.00    -0.219 NA
ATOM     58  H   UNL     1     -51.458  31.853  20.373  1.00  0.00     0.106 H 
BRANCH  51  59
ATOM     59  C   UNL     1     -50.526  26.787  24.030  1.00  0.00     0.085 C 
ATOM     60  C   UNL     1     -49.678  26.025  25.039  1.00  0.00    -0.020 C 
ATOM     61  O   UNL     1     -51.871  26.761  24.563  1.00  0.00    -0.373 OA
ATOM     62  H   UNL     1     -50.534  26.249  23.074  1.00  0.00     0.066 H 
ATOM     63  C   UNL     1     -50.365  26.336  26.345  1.00  0.00    -0.027 C 
ATOM     64  H   UNL     1     -49.767  24.948  24.845  1.00  0.00     0.030 H 
ATOM     65  H   UNL     1     -48.613  26.268  25.034  1.00  0.00     0.030 H 
ATOM     66  C   UNL     1     -51.820  26.343  25.935  1.00  0.00     0.048 C 
ATOM     67  H   UNL     1     -50.069  27.328  26.703  1.00  0.00     0.029 H 
ATOM     68  H   UNL     1     -50.152  25.612  27.136  1.00  0.00     0.029 H 
ATOM     69  H   UNL     1     -52.252  25.338  25.991  1.00  0.00     0.057 H 
ATOM     70  H   UNL     1     -52.426  27.016  26.548  1.00  0.00     0.057 H 
ENDBRANCH  51  59
BRANCH  55  71
ATOM     71  N   UNL     1     -52.422  27.746  21.600  1.00  0.00    -0.383 N 
ATOM     72  H   UNL     1     -51.875  26.896  21.744  1.00  0.00     0.158 HD
ATOM     73  H   UNL     1     -53.266  27.815  22.156  1.00  0.00     0.158 HD
ENDBRANCH  55  71
ENDBRANCH  44  48
ENDBRANCH  36  39
ENDBRANCH  35  36
ENDBRANCH   7  35
TORSDOF 13
ENDMDL
MODEL 7
REMARK VINA RESULT:      -7.8      1.774      3.209
REMARK SMILES CCc1cc(NCCOC)c2ccc(OCc3cncc(-n4cc([C@H]5CCCO5)c5c(N)ncnc54)c3)cc2n1
REMARK SMILES IDX 3 1 4 2 5 3 11 4 12 5 13 6 14 7 38 8 39 9 40 10 2 15 1 18
REMARK SMILES IDX 6 22 7 24 8 27 9 30 10 31 15 35 16 36 17 39 18 40 37 41
REMARK SMILES IDX 19 42 21 44 20 46 22 48 23 49 36 50 24 51 30 53 35 54 31 55
REMARK SMILES IDX 34 56 33 57 25 59 26 60 29 61 27 63 28 66 32 71
REMARK H PARENT 4 11 12 12 13 13 38 14 2 16 2 17 1 19 1 20 1 21 6 23 7 25 7 26
REMARK H PARENT 8 28 8 29 10 32 10 33 10 34 16 37 16 38 18 43 37 45 20 47
REMARK H PARENT 23 52 34 58 25 62 26 64 26 65 27 67 27 68 28 69 28 70 32 72
REMARK H PARENT 32 73
REMARK Flexibility Score: inf
ROOT
ATOM      1  C   UNL     1     -49.199  29.011  24.065  1.00  0.00     0.043 A 
ATOM      2  C   UNL     1     -48.336  29.042  22.976  1.00  0.00    -0.017 A 
ATOM      3  C   UNL     1     -47.310  29.990  22.929  1.00  0.00     0.045 A 
ATOM      4  C   UNL     1     -47.251  30.958  23.972  1.00  0.00     0.024 A 
ATOM      5  C   UNL     1     -46.325  32.029  24.008  1.00  0.00    -0.047 A 
ATOM      6  C   UNL     1     -46.300  32.944  25.064  1.00  0.00    -0.019 A 
ATOM      7  C   UNL     1     -47.208  32.815  26.104  1.00  0.00     0.122 A 
ATOM      8  C   UNL     1     -48.125  31.761  26.076  1.00  0.00     0.007 A 
ATOM      9  C   UNL     1     -48.174  30.844  25.033  1.00  0.00     0.076 A 
ATOM     10  N   UNL     1     -49.116  29.892  25.084  1.00  0.00    -0.253 NA
ATOM     11  H   UNL     1     -48.475  28.318  22.183  1.00  0.00     0.066 H 
ATOM     12  H   UNL     1     -45.610  32.166  23.200  1.00  0.00     0.063 H 
ATOM     13  H   UNL     1     -45.551  33.727  25.043  1.00  0.00     0.066 H 
ATOM     14  H   UNL     1     -48.835  31.654  26.893  1.00  0.00     0.069 H 
ENDROOT
BRANCH   1  15
ATOM     15  C   UNL     1     -50.308  27.994  24.135  1.00  0.00    -0.013 C 
ATOM     16  H   UNL     1     -50.135  27.202  23.395  1.00  0.00     0.033 H 
ATOM     17  H   UNL     1     -50.290  27.510  25.119  1.00  0.00     0.033 H 
BRANCH  15  18
ATOM     18  C   UNL     1     -51.668  28.633  23.910  1.00  0.00    -0.060 C 
ATOM     19  H   UNL     1     -52.228  28.673  24.851  1.00  0.00     0.023 H 
ATOM     20  H   UNL     1     -51.568  29.656  23.531  1.00  0.00     0.023 H 
ATOM     21  H   UNL     1     -52.261  28.063  23.188  1.00  0.00     0.023 H 
ENDBRANCH  15  18
ENDBRANCH   1  15
BRANCH   3  22
ATOM     22  N   UNL     1     -46.430  30.080  21.830  1.00  0.00    -0.382 N 
ATOM     23  H   UNL     1     -46.921  29.861  20.960  1.00  0.00     0.160 HD
BRANCH  22  24
ATOM     24  C   UNL     1     -45.627  31.291  21.626  1.00  0.00     0.038 C 
ATOM     25  H   UNL     1     -44.651  31.035  21.201  1.00  0.00     0.051 H 
ATOM     26  H   UNL     1     -45.488  31.806  22.584  1.00  0.00     0.051 H 
BRANCH  24  27
ATOM     27  C   UNL     1     -46.357  32.227  20.654  1.00  0.00     0.063 C 
ATOM     28  H   UNL     1     -47.260  32.623  21.133  1.00  0.00     0.059 H 
ATOM     29  H   UNL     1     -45.705  33.060  20.367  1.00  0.00     0.059 H 
BRANCH  27  30
ATOM     30  O   UNL     1     -46.728  31.489  19.482  1.00  0.00    -0.383 OA
BRANCH  30  31
ATOM     31  C   UNL     1     -48.118  31.187  19.475  1.00  0.00     0.036 C 
ATOM     32  H   UNL     1     -48.449  30.885  20.473  1.00  0.00     0.053 H 
ATOM     33  H   UNL     1     -48.285  30.355  18.785  1.00  0.00     0.053 H 
ATOM     34  H   UNL     1     -48.695  32.049  19.129  1.00  0.00     0.053 H 
ENDBRANCH  30  31
ENDBRANCH  27  30
ENDBRANCH  24  27
ENDBRANCH  22  24
ENDBRANCH   3  22
BRANCH   7  35
ATOM     35  O   UNL     1     -47.290  33.619  27.206  1.00  0.00    -0.489 OA
BRANCH  35  36
ATOM     36  C   UNL     1     -46.217  34.529  27.458  1.00  0.00     0.115 C 
ATOM     37  H   UNL     1     -45.551  34.474  26.589  1.00  0.00     0.076 H 
ATOM     38  H   UNL     1     -45.619  34.203  28.320  1.00  0.00     0.076 H 
BRANCH  36  39
ATOM     39  C   UNL     1     -46.666  35.961  27.592  1.00  0.00     0.010 A 
ATOM     40  C   UNL     1     -48.009  36.304  27.612  1.00  0.00     0.034 A 
ATOM     41  C   UNL     1     -45.729  37.006  27.640  1.00  0.00    -0.028 A 
ATOM     42  N   UNL     1     -48.456  37.574  27.693  1.00  0.00    -0.262 NA
ATOM     43  H   UNL     1     -48.791  35.550  27.561  1.00  0.00     0.084 H 
ATOM     44  C   UNL     1     -46.151  38.342  27.729  1.00  0.00     0.066 A 
ATOM     45  H   UNL     1     -44.679  36.739  27.590  1.00  0.00     0.065 H 
ATOM     46  C   UNL     1     -47.524  38.561  27.753  1.00  0.00     0.051 A 
ATOM     47  H   UNL     1     -47.975  39.543  27.833  1.00  0.00     0.086 H 
BRANCH  44  48
ATOM     48  N   UNL     1     -45.207  39.420  27.793  1.00  0.00    -0.299 N 
ATOM     49  C   UNL     1     -45.193  40.516  26.938  1.00  0.00     0.018 A 
ATOM     50  C   UNL     1     -44.149  39.586  28.685  1.00  0.00     0.150 A 
ATOM     51  C   UNL     1     -44.158  41.374  27.267  1.00  0.00     0.012 A 
ATOM     52  H   UNL     1     -45.912  40.606  26.140  1.00  0.00     0.083 H 
ATOM     53  C   UNL     1     -43.498  40.780  28.387  1.00  0.00     0.067 A 
ATOM     54  N   UNL     1     -43.803  38.752  29.687  1.00  0.00    -0.218 NA
ATOM     55  C   UNL     1     -42.401  41.126  29.197  1.00  0.00     0.136 A 
ATOM     56  C   UNL     1     -42.743  39.184  30.383  1.00  0.00     0.120 A 
ATOM     57  N   UNL     1     -42.037  40.309  30.199  1.00  0.00    -0.219 NA
ATOM     58  H   UNL     1     -42.416  38.546  31.199  1.00  0.00     0.106 H 
BRANCH  51  59
ATOM     59  C   UNL     1     -43.754  42.666  26.602  1.00  0.00     0.085 C 
ATOM     60  C   UNL     1     -43.570  42.617  25.091  1.00  0.00    -0.020 C 
ATOM     61  O   UNL     1     -44.767  43.674  26.831  1.00  0.00    -0.373 OA
ATOM     62  H   UNL     1     -42.826  43.010  27.075  1.00  0.00     0.066 H 
ATOM     63  C   UNL     1     -44.952  42.944  24.582  1.00  0.00    -0.027 C 
ATOM     64  H   UNL     1     -42.886  43.418  24.785  1.00  0.00     0.030 H 
ATOM     65  H   UNL     1     -43.168  41.679  24.699  1.00  0.00     0.030 H 
ATOM     66  C   UNL     1     -45.414  43.975  25.587  1.00  0.00     0.048 C 
ATOM     67  H   UNL     1     -45.593  42.057  24.629  1.00  0.00     0.029 H 
ATOM     68  H   UNL     1     -44.964  43.318  23.555  1.00  0.00     0.029 H 
ATOM     69  H   UNL     1     -45.108  44.983  25.289  1.00  0.00     0.057 H 
ATOM     70  H   UNL     1     -46.499  43.969  25.726  1.00  0.00     0.057 H 
ENDBRANCH  51  59
BRANCH  55  71
ATOM     71  N   UNL     1     -41.671  42.299  29.040  1.00  0.00    -0.383 N 
ATOM     72  H   UNL     1     -40.994  42.236  28.279  1.00  0.00     0.158 HD
ATOM     73  H   UNL     1     -42.298  43.094  28.993  1.00  0.00     0.158 HD
ENDBRANCH  55  71
ENDBRANCH  44  48
ENDBRANCH  36  39
ENDBRANCH  35  36
ENDBRANCH   7  35
TORSDOF 13
ENDMDL
