MODEL 1
REMARK VINA RESULT:      -9.7      0.000      0.000
REMARK SMILES CNc1ccc2ccc(OCc3cc(-n4cc(Cl)c5c(N)ncnc54)ccc3OC)cc2n1
REMARK SMILES IDX 11 1 10 4 9 5 3 6 4 7 33 8 5 9 32 11 6 12 31 14 7 15 8 17
REMARK SMILES IDX 2 20 1 22 12 26 13 27 28 28 14 29 27 31 26 32 29 35 30 36
REMARK SMILES IDX 15 40 16 41 25 42 17 43 19 45 24 46 18 47 20 48 23 49 22 50
REMARK SMILES IDX 21 52
REMARK H PARENT 11 2 11 3 4 10 5 13 31 16 7 18 8 19 2 21 1 23 1 24 1 25 13 30
REMARK H PARENT 27 33 26 34 30 37 30 38 30 39 16 44 23 51 21 53 21 54
REMARK Flexibility Score: inf
ROOT
ATOM      1  C   UNL     1     -46.481  35.275  27.656  1.00  0.00     0.117 C 
ATOM      2  H   UNL     1     -45.530  35.032  28.149  1.00  0.00     0.076 H 
ATOM      3  H   UNL     1     -47.273  34.678  28.122  1.00  0.00     0.076 H 
ENDROOT
BRANCH   1   4
ATOM      4  O   UNL     1     -46.396  35.009  26.257  1.00  0.00    -0.489 OA
BRANCH   4   5
ATOM      5  C   UNL     1     -47.033  33.891  25.792  1.00  0.00     0.122 A 
ATOM      6  C   UNL     1     -46.550  30.202  22.825  1.00  0.00     0.126 A 
ATOM      7  C   UNL     1     -47.805  29.707  23.145  1.00  0.00    -0.019 A 
ATOM      8  N   UNL     1     -46.058  31.330  23.369  1.00  0.00    -0.231 NA
ATOM      9  C   UNL     1     -48.579  30.390  24.078  1.00  0.00    -0.049 A 
ATOM     10  H   UNL     1     -48.190  28.816  22.664  1.00  0.00     0.066 H 
ATOM     11  C   UNL     1     -46.802  31.995  24.273  1.00  0.00     0.076 A 
ATOM     12  C   UNL     1     -48.082  31.557  24.664  1.00  0.00     0.001 A 
ATOM     13  H   UNL     1     -49.565  30.012  24.333  1.00  0.00     0.063 H 
ATOM     14  C   UNL     1     -46.306  33.156  24.849  1.00  0.00     0.007 A 
ATOM     15  C   UNL     1     -48.820  32.285  25.611  1.00  0.00    -0.049 A 
ATOM     16  H   UNL     1     -45.318  33.502  24.553  1.00  0.00     0.069 H 
ATOM     17  C   UNL     1     -48.296  33.450  26.174  1.00  0.00    -0.019 A 
ATOM     18  H   UNL     1     -49.810  31.949  25.914  1.00  0.00     0.063 H 
ATOM     19  H   UNL     1     -48.899  33.982  26.903  1.00  0.00     0.066 H 
BRANCH   6  20
ATOM     20  N   UNL     1     -45.723  29.579  21.887  1.00  0.00    -0.373 N 
ATOM     21  H   UNL     1     -45.328  30.359  21.361  1.00  0.00     0.161 HD
BRANCH  20  22
ATOM     22  C   UNL     1     -44.678  28.758  22.474  1.00  0.00     0.005 C 
ATOM     23  H   UNL     1     -43.834  29.399  22.750  1.00  0.00     0.045 H 
ATOM     24  H   UNL     1     -44.302  28.012  21.767  1.00  0.00     0.045 H 
ATOM     25  H   UNL     1     -45.024  28.253  23.383  1.00  0.00     0.045 H 
ENDBRANCH  20  22
ENDBRANCH   6  20
ENDBRANCH   4   5
ENDBRANCH   1   4
BRANCH   1  26
ATOM     26  C   UNL     1     -46.768  36.746  27.829  1.00  0.00     0.033 A 
ATOM     27  C   UNL     1     -45.716  37.678  27.739  1.00  0.00    -0.028 A 
ATOM     28  C   UNL     1     -48.067  37.217  28.030  1.00  0.00     0.125 A 
ATOM     29  C   UNL     1     -45.942  39.056  27.887  1.00  0.00     0.048 A 
ATOM     30  H   UNL     1     -44.726  37.285  27.521  1.00  0.00     0.065 H 
ATOM     31  C   UNL     1     -48.309  38.579  28.201  1.00  0.00    -0.017 A 
ATOM     32  C   UNL     1     -47.255  39.494  28.123  1.00  0.00    -0.034 A 
ATOM     33  H   UNL     1     -49.317  38.930  28.402  1.00  0.00     0.066 H 
ATOM     34  H   UNL     1     -47.501  40.539  28.282  1.00  0.00     0.065 H 
BRANCH  28  35
ATOM     35  O   UNL     1     -49.109  36.335  28.131  1.00  0.00    -0.496 OA
BRANCH  35  36
ATOM     36  C   UNL     1     -50.355  37.030  28.043  1.00  0.00     0.078 C 
ATOM     37  H   UNL     1     -50.199  38.082  27.780  1.00  0.00     0.067 H 
ATOM     38  H   UNL     1     -50.827  36.995  29.029  1.00  0.00     0.067 H 
ATOM     39  H   UNL     1     -51.032  36.554  27.325  1.00  0.00     0.067 H 
ENDBRANCH  35  36
ENDBRANCH  28  35
BRANCH  29  40
ATOM     40  N   UNL     1     -44.866  40.005  27.795  1.00  0.00    -0.300 N 
ATOM     41  C   UNL     1     -43.771  40.043  28.644  1.00  0.00     0.030 A 
ATOM     42  C   UNL     1     -44.706  41.046  26.872  1.00  0.00     0.151 A 
ATOM     43  C   UNL     1     -42.948  41.080  28.280  1.00  0.00     0.072 A 
ATOM     44  H   UNL     1     -43.664  39.355  29.468  1.00  0.00     0.084 H 
ATOM     45  C   UNL     1     -43.519  41.720  27.160  1.00  0.00     0.080 A 
ATOM     46  N   UNL     1     -45.530  41.351  25.849  1.00  0.00    -0.218 NA
ATOM     47  Cl  UNL     1     -41.500  41.515  29.059  1.00  0.00    -0.082 Cl
ATOM     48  C   UNL     1     -43.181  42.802  26.330  1.00  0.00     0.137 A 
ATOM     49  C   UNL     1     -45.108  42.400  25.131  1.00  0.00     0.120 A 
ATOM     50  N   UNL     1     -44.002  43.135  25.320  1.00  0.00    -0.219 NA
ATOM     51  H   UNL     1     -45.738  42.694  24.297  1.00  0.00     0.106 H 
BRANCH  48  52
ATOM     52  N   UNL     1     -42.039  43.570  26.484  1.00  0.00    -0.383 N 
ATOM     53  H   UNL     1     -42.123  44.547  26.235  1.00  0.00     0.158 HD
ATOM     54  H   UNL     1     -41.210  43.080  26.170  1.00  0.00     0.158 HD
ENDBRANCH  48  52
ENDBRANCH  29  40
ENDBRANCH   1  26
TORSDOF 9
ENDMDL
MODEL 2
REMARK VINA RESULT:      -9.2      2.349      3.592
REMARK SMILES CNc1ccc2ccc(OCc3cc(-n4cc(Cl)c5c(N)ncnc54)ccc3OC)cc2n1
REMARK SMILES IDX 11 1 10 4 9 5 3 6 4 7 33 8 5 9 32 11 6 12 31 14 7 15 8 17
REMARK SMILES IDX 2 20 1 22 12 26 13 27 28 28 14 29 27 31 26 32 29 35 30 36
REMARK SMILES IDX 15 40 16 41 25 42 17 43 19 45 24 46 18 47 20 48 23 49 22 50
REMARK SMILES IDX 21 52
REMARK H PARENT 11 2 11 3 4 10 5 13 31 16 7 18 8 19 2 21 1 23 1 24 1 25 13 30
REMARK H PARENT 27 33 26 34 30 37 30 38 30 39 16 44 23 51 21 53 21 54
REMARK Flexibility Score: inf
ROOT
ATOM      1  C   UNL     1     -46.612  33.572  26.377  1.00  0.00     0.117 C 
ATOM      2  H   UNL     1     -45.545  33.530  26.628  1.00  0.00     0.076 H 
ATOM      3  H   UNL     1     -47.126  32.770  26.919  1.00  0.00     0.076 H 
ENDROOT
BRANCH   1   4
ATOM      4  O   UNL     1     -46.796  33.437  24.968  1.00  0.00    -0.489 OA
BRANCH   4   5
ATOM      5  C   UNL     1     -46.944  32.170  24.475  1.00  0.00     0.122 A 
ATOM      6  C   UNL     1     -49.044  27.985  25.325  1.00  0.00     0.126 A 
ATOM      7  C   UNL     1     -48.499  27.416  24.184  1.00  0.00    -0.019 A 
ATOM      8  N   UNL     1     -48.799  29.259  25.684  1.00  0.00    -0.231 NA
ATOM      9  C   UNL     1     -47.684  28.194  23.368  1.00  0.00    -0.049 A 
ATOM     10  H   UNL     1     -48.684  26.377  23.939  1.00  0.00     0.066 H 
ATOM     11  C   UNL     1     -48.012  30.017  24.898  1.00  0.00     0.076 A 
ATOM     12  C   UNL     1     -47.427  29.523  23.716  1.00  0.00     0.001 A 
ATOM     13  H   UNL     1     -47.250  27.756  22.474  1.00  0.00     0.063 H 
ATOM     14  C   UNL     1     -47.756  31.334  25.250  1.00  0.00     0.007 A 
ATOM     15  C   UNL     1     -46.613  30.352  22.929  1.00  0.00    -0.049 A 
ATOM     16  H   UNL     1     -48.202  31.725  26.162  1.00  0.00     0.069 H 
ATOM     17  C   UNL     1     -46.372  31.674  23.308  1.00  0.00    -0.019 A 
ATOM     18  H   UNL     1     -46.159  29.972  22.016  1.00  0.00     0.063 H 
ATOM     19  H   UNL     1     -45.738  32.281  22.671  1.00  0.00     0.066 H 
BRANCH   6  20
ATOM     20  N   UNL     1     -49.858  27.262  26.199  1.00  0.00    -0.373 N 
ATOM     21  H   UNL     1     -50.210  27.973  26.842  1.00  0.00     0.161 HD
BRANCH  20  22
ATOM     22  C   UNL     1     -50.949  26.559  25.545  1.00  0.00     0.005 C 
ATOM     23  H   UNL     1     -51.263  27.128  24.664  1.00  0.00     0.045 H 
ATOM     24  H   UNL     1     -51.821  26.465  26.199  1.00  0.00     0.045 H 
ATOM     25  H   UNL     1     -50.641  25.563  25.207  1.00  0.00     0.045 H 
ENDBRANCH  20  22
ENDBRANCH   6  20
ENDBRANCH   4   5
ENDBRANCH   1   4
BRANCH   1  26
ATOM     26  C   UNL     1     -47.165  34.915  26.788  1.00  0.00     0.033 A 
ATOM     27  C   UNL     1     -46.303  36.023  26.891  1.00  0.00    -0.028 A 
ATOM     28  C   UNL     1     -48.529  35.101  27.024  1.00  0.00     0.125 A 
ATOM     29  C   UNL     1     -46.779  37.290  27.264  1.00  0.00     0.048 A 
ATOM     30  H   UNL     1     -45.257  35.860  26.643  1.00  0.00     0.065 H 
ATOM     31  C   UNL     1     -49.018  36.346  27.415  1.00  0.00    -0.017 A 
ATOM     32  C   UNL     1     -48.151  37.436  27.528  1.00  0.00    -0.034 A 
ATOM     33  H   UNL     1     -50.074  36.468  27.640  1.00  0.00     0.066 H 
ATOM     34  H   UNL     1     -48.584  38.375  27.854  1.00  0.00     0.065 H 
BRANCH  28  35
ATOM     35  O   UNL     1     -49.391  34.040  26.940  1.00  0.00    -0.496 OA
BRANCH  35  36
ATOM     36  C   UNL     1     -50.695  34.492  26.566  1.00  0.00     0.078 C 
ATOM     37  H   UNL     1     -50.703  35.576  26.408  1.00  0.00     0.067 H 
ATOM     38  H   UNL     1     -51.375  34.266  27.392  1.00  0.00     0.067 H 
ATOM     39  H   UNL     1     -51.061  33.974  25.673  1.00  0.00     0.067 H 
ENDBRANCH  35  36
ENDBRANCH  28  35
BRANCH  29  40
ATOM     40  N   UNL     1     -45.896  38.421  27.370  1.00  0.00    -0.300 N 
ATOM     41  C   UNL     1     -45.801  39.439  26.434  1.00  0.00     0.030 A 
ATOM     42  C   UNL     1     -44.987  38.716  28.392  1.00  0.00     0.151 A 
ATOM     43  C   UNL     1     -44.855  40.347  26.843  1.00  0.00     0.072 A 
ATOM     44  H   UNL     1     -46.385  39.437  25.527  1.00  0.00     0.084 H 
ATOM     45  C   UNL     1     -44.335  39.909  28.081  1.00  0.00     0.080 A 
ATOM     46  N   UNL     1     -44.776  38.001  29.516  1.00  0.00    -0.218 NA
ATOM     47  Cl  UNL     1     -44.391  41.744  25.993  1.00  0.00    -0.082 Cl
ATOM     48  C   UNL     1     -43.382  40.377  28.999  1.00  0.00     0.137 A 
ATOM     49  C   UNL     1     -43.845  38.540  30.313  1.00  0.00     0.120 A 
ATOM     50  N   UNL     1     -43.141  39.665  30.114  1.00  0.00    -0.219 NA
ATOM     51  H   UNL     1     -43.630  38.001  31.232  1.00  0.00     0.106 H 
BRANCH  48  52
ATOM     52  N   UNL     1     -42.652  41.542  28.835  1.00  0.00    -0.383 N 
ATOM     53  H   UNL     1     -42.447  42.062  29.679  1.00  0.00     0.158 HD
ATOM     54  H   UNL     1     -42.961  42.070  28.028  1.00  0.00     0.158 HD
ENDBRANCH  48  52
ENDBRANCH  29  40
ENDBRANCH   1  26
TORSDOF 9
ENDMDL
MODEL 3
REMARK VINA RESULT:      -9.1      2.919      5.175
REMARK SMILES CNc1ccc2ccc(OCc3cc(-n4cc(Cl)c5c(N)ncnc54)ccc3OC)cc2n1
REMARK SMILES IDX 11 1 10 4 9 5 3 6 4 7 33 8 5 9 32 11 6 12 31 14 7 15 8 17
REMARK SMILES IDX 2 20 1 22 12 26 13 27 28 28 14 29 27 31 26 32 29 35 30 36
REMARK SMILES IDX 15 40 16 41 25 42 17 43 19 45 24 46 18 47 20 48 23 49 22 50
REMARK SMILES IDX 21 52
REMARK H PARENT 11 2 11 3 4 10 5 13 31 16 7 18 8 19 2 21 1 23 1 24 1 25 13 30
REMARK H PARENT 27 33 26 34 30 37 30 38 30 39 16 44 23 51 21 53 21 54
REMARK Flexibility Score: inf
ROOT
ATOM      1  C   UNL     1     -44.891  38.955  28.009  1.00  0.00     0.117 C 
ATOM      2  H   UNL     1     -44.467  38.240  27.292  1.00  0.00     0.076 H 
ATOM      3  H   UNL     1     -44.683  38.593  29.022  1.00  0.00     0.076 H 
ENDROOT
BRANCH   1   4
ATOM      4  O   UNL     1     -46.295  39.098  27.795  1.00  0.00    -0.489 OA
BRANCH   4   5
ATOM      5  C   UNL     1     -47.013  37.957  27.565  1.00  0.00     0.122 A 
ATOM      6  C   UNL     1     -46.707  33.590  25.699  1.00  0.00     0.126 A 
ATOM      7  C   UNL     1     -48.031  33.307  26.001  1.00  0.00    -0.019 A 
ATOM      8  N   UNL     1     -46.139  34.775  25.987  1.00  0.00    -0.231 NA
ATOM      9  C   UNL     1     -48.795  34.275  26.644  1.00  0.00    -0.049 A 
ATOM     10  H   UNL     1     -48.473  32.357  25.725  1.00  0.00     0.066 H 
ATOM     11  C   UNL     1     -46.874  35.715  26.610  1.00  0.00     0.076 A 
ATOM     12  C   UNL     1     -48.220  35.508  26.964  1.00  0.00     0.001 A 
ATOM     13  H   UNL     1     -49.834  34.063  26.883  1.00  0.00     0.063 H 
ATOM     14  C   UNL     1     -46.299  36.940  26.921  1.00  0.00     0.007 A 
ATOM     15  C   UNL     1     -48.946  36.519  27.613  1.00  0.00    -0.049 A 
ATOM     16  H   UNL     1     -45.260  37.110  26.651  1.00  0.00     0.069 H 
ATOM     17  C   UNL     1     -48.343  37.742  27.913  1.00  0.00    -0.019 A 
ATOM     18  H   UNL     1     -49.987  36.362  27.886  1.00  0.00     0.063 H 
ATOM     19  H   UNL     1     -48.938  38.496  28.416  1.00  0.00     0.066 H 
BRANCH   6  20
ATOM     20  N   UNL     1     -45.884  32.674  25.041  1.00  0.00    -0.373 N 
ATOM     21  H   UNL     1     -45.318  32.278  25.793  1.00  0.00     0.161 HD
BRANCH  20  22
ATOM     22  C   UNL     1     -46.608  31.636  24.327  1.00  0.00     0.005 C 
ATOM     23  H   UNL     1     -47.366  32.103  23.689  1.00  0.00     0.045 H 
ATOM     24  H   UNL     1     -47.131  30.961  25.012  1.00  0.00     0.045 H 
ATOM     25  H   UNL     1     -45.943  31.052  23.680  1.00  0.00     0.045 H 
ENDBRANCH  20  22
ENDBRANCH   6  20
ENDBRANCH   4   5
ENDBRANCH   1   4
BRANCH   1  26
ATOM     26  C   UNL     1     -44.253  40.306  27.798  1.00  0.00     0.033 A 
ATOM     27  C   UNL     1     -44.640  41.098  26.699  1.00  0.00    -0.028 A 
ATOM     28  C   UNL     1     -43.315  40.818  28.697  1.00  0.00     0.125 A 
ATOM     29  C   UNL     1     -44.075  42.362  26.472  1.00  0.00     0.048 A 
ATOM     30  H   UNL     1     -45.416  40.697  26.052  1.00  0.00     0.065 H 
ATOM     31  C   UNL     1     -42.727  42.062  28.477  1.00  0.00    -0.017 A 
ATOM     32  C   UNL     1     -43.108  42.833  27.376  1.00  0.00    -0.034 A 
ATOM     33  H   UNL     1     -41.965  42.430  29.158  1.00  0.00     0.066 H 
ATOM     34  H   UNL     1     -42.604  43.785  27.245  1.00  0.00     0.065 H 
BRANCH  28  35
ATOM     35  O   UNL     1     -42.912  40.068  29.770  1.00  0.00    -0.496 OA
BRANCH  35  36
ATOM     36  C   UNL     1     -41.660  40.548  30.265  1.00  0.00     0.078 C 
ATOM     37  H   UNL     1     -41.738  41.595  30.578  1.00  0.00     0.067 H 
ATOM     38  H   UNL     1     -40.935  40.493  29.448  1.00  0.00     0.067 H 
ATOM     39  H   UNL     1     -41.288  39.930  31.090  1.00  0.00     0.067 H 
ENDBRANCH  35  36
ENDBRANCH  28  35
BRANCH  29  40
ATOM     40  N   UNL     1     -44.471  43.169  25.349  1.00  0.00    -0.300 N 
ATOM     41  C   UNL     1     -45.734  43.711  25.173  1.00  0.00     0.030 A 
ATOM     42  C   UNL     1     -43.701  43.556  24.247  1.00  0.00     0.151 A 
ATOM     43  C   UNL     1     -45.769  44.412  23.992  1.00  0.00     0.072 A 
ATOM     44  H   UNL     1     -46.533  43.539  25.877  1.00  0.00     0.084 H 
ATOM     45  C   UNL     1     -44.492  44.329  23.397  1.00  0.00     0.080 A 
ATOM     46  N   UNL     1     -42.401  43.269  24.029  1.00  0.00    -0.218 NA
ATOM     47  Cl  UNL     1     -47.124  45.223  23.361  1.00  0.00    -0.082 Cl
ATOM     48  C   UNL     1     -43.886  44.820  22.229  1.00  0.00     0.137 A 
ATOM     49  C   UNL     1     -41.934  43.785  22.886  1.00  0.00     0.120 A 
ATOM     50  N   UNL     1     -42.598  44.524  21.984  1.00  0.00    -0.219 NA
ATOM     51  H   UNL     1     -40.892  43.580  22.657  1.00  0.00     0.106 H 
BRANCH  48  52
ATOM     52  N   UNL     1     -44.535  45.601  21.287  1.00  0.00    -0.383 N 
ATOM     53  H   UNL     1     -44.160  46.529  21.144  1.00  0.00     0.158 HD
ATOM     54  H   UNL     1     -45.542  45.512  21.354  1.00  0.00     0.158 HD
ENDBRANCH  48  52
ENDBRANCH  29  40
ENDBRANCH   1  26
TORSDOF 9
ENDMDL
MODEL 4
REMARK VINA RESULT:      -9.0      4.431     11.374
REMARK SMILES CNc1ccc2ccc(OCc3cc(-n4cc(Cl)c5c(N)ncnc54)ccc3OC)cc2n1
REMARK SMILES IDX 11 1 10 4 9 5 3 6 4 7 33 8 5 9 32 11 6 12 31 14 7 15 8 17
REMARK SMILES IDX 2 20 1 22 12 26 13 27 28 28 14 29 27 31 26 32 29 35 30 36
REMARK SMILES IDX 15 40 16 41 25 42 17 43 19 45 24 46 18 47 20 48 23 49 22 50
REMARK SMILES IDX 21 52
REMARK H PARENT 11 2 11 3 4 10 5 13 31 16 7 18 8 19 2 21 1 23 1 24 1 25 13 30
REMARK H PARENT 27 33 26 34 30 37 30 38 30 39 16 44 23 51 21 53 21 54
REMARK Flexibility Score: inf
ROOT
ATOM      1  C   UNL     1     -46.158  32.869  24.214  1.00  0.00     0.117 C 
ATOM      2  H   UNL     1     -45.082  33.031  24.071  1.00  0.00     0.076 H 
ATOM      3  H   UNL     1     -46.698  33.695  23.736  1.00  0.00     0.076 H 
ENDROOT
BRANCH   1   4
ATOM      4  O   UNL     1     -46.467  32.791  25.604  1.00  0.00    -0.489 OA
BRANCH   4   5
ATOM      5  C   UNL     1     -47.076  33.876  26.172  1.00  0.00     0.122 A 
ATOM      6  C   UNL     1     -46.203  38.122  28.138  1.00  0.00     0.126 A 
ATOM      7  C   UNL     1     -47.551  38.356  28.367  1.00  0.00    -0.019 A 
ATOM      8  N   UNL     1     -45.754  36.989  27.567  1.00  0.00    -0.231 NA
ATOM      9  C   UNL     1     -48.476  37.394  27.975  1.00  0.00    -0.049 A 
ATOM     10  H   UNL     1     -47.881  39.261  28.861  1.00  0.00     0.066 H 
ATOM     11  C   UNL     1     -46.645  36.055  27.185  1.00  0.00     0.076 A 
ATOM     12  C   UNL     1     -48.032  36.216  27.369  1.00  0.00     0.001 A 
ATOM     13  H   UNL     1     -49.534  37.567  28.153  1.00  0.00     0.063 H 
ATOM     14  C   UNL     1     -46.198  34.884  26.588  1.00  0.00     0.007 A 
ATOM     15  C   UNL     1     -48.922  35.213  26.954  1.00  0.00    -0.049 A 
ATOM     16  H   UNL     1     -45.129  34.751  26.442  1.00  0.00     0.069 H 
ATOM     17  C   UNL     1     -48.444  34.045  26.356  1.00  0.00    -0.019 A 
ATOM     18  H   UNL     1     -49.994  35.334  27.096  1.00  0.00     0.063 H 
ATOM     19  H   UNL     1     -49.166  33.296  26.049  1.00  0.00     0.066 H 
BRANCH   6  20
ATOM     20  N   UNL     1     -45.216  39.034  28.518  1.00  0.00    -0.373 N 
ATOM     21  H   UNL     1     -44.547  38.461  29.033  1.00  0.00     0.161 HD
BRANCH  20  22
ATOM     22  C   UNL     1     -44.578  39.711  27.402  1.00  0.00     0.005 C 
ATOM     23  H   UNL     1     -44.086  40.618  27.768  1.00  0.00     0.045 H 
ATOM     24  H   UNL     1     -45.305  40.019  26.644  1.00  0.00     0.045 H 
ATOM     25  H   UNL     1     -43.811  39.083  26.934  1.00  0.00     0.045 H 
ENDBRANCH  20  22
ENDBRANCH   6  20
ENDBRANCH   4   5
ENDBRANCH   1   4
BRANCH   1  26
ATOM     26  C   UNL     1     -46.550  31.557  23.580  1.00  0.00     0.033 A 
ATOM     27  C   UNL     1     -47.189  30.570  24.356  1.00  0.00    -0.028 A 
ATOM     28  C   UNL     1     -46.338  31.310  22.222  1.00  0.00     0.125 A 
ATOM     29  C   UNL     1     -47.576  29.339  23.803  1.00  0.00     0.048 A 
ATOM     30  H   UNL     1     -47.394  30.816  25.395  1.00  0.00     0.065 H 
ATOM     31  C   UNL     1     -46.696  30.087  21.659  1.00  0.00    -0.017 A 
ATOM     32  C   UNL     1     -47.317  29.109  22.442  1.00  0.00    -0.034 A 
ATOM     33  H   UNL     1     -46.485  29.889  20.612  1.00  0.00     0.066 H 
ATOM     34  H   UNL     1     -47.556  28.170  21.954  1.00  0.00     0.065 H 
BRANCH  28  35
ATOM     35  O   UNL     1     -45.712  32.247  21.443  1.00  0.00    -0.496 OA
BRANCH  35  36
ATOM     36  C   UNL     1     -45.961  31.986  20.061  1.00  0.00     0.078 C 
ATOM     37  H   UNL     1     -46.860  32.509  19.719  1.00  0.00     0.067 H 
ATOM     38  H   UNL     1     -46.132  30.911  19.950  1.00  0.00     0.067 H 
ATOM     39  H   UNL     1     -45.101  32.257  19.437  1.00  0.00     0.067 H 
ENDBRANCH  35  36
ENDBRANCH  28  35
BRANCH  29  40
ATOM     40  N   UNL     1     -48.227  28.333  24.597  1.00  0.00    -0.300 N 
ATOM     41  C   UNL     1     -47.579  27.480  25.477  1.00  0.00     0.030 A 
ATOM     42  C   UNL     1     -49.589  28.016  24.646  1.00  0.00     0.151 A 
ATOM     43  C   UNL     1     -48.498  26.641  26.058  1.00  0.00     0.072 A 
ATOM     44  H   UNL     1     -46.509  27.502  25.610  1.00  0.00     0.084 H 
ATOM     45  C   UNL     1     -49.773  26.969  25.549  1.00  0.00     0.080 A 
ATOM     46  N   UNL     1     -50.584  28.622  23.966  1.00  0.00    -0.218 NA
ATOM     47  Cl  UNL     1     -48.148  25.416  27.184  1.00  0.00    -0.082 Cl
ATOM     48  C   UNL     1     -51.087  26.512  25.740  1.00  0.00     0.137 A 
ATOM     49  C   UNL     1     -51.790  28.100  24.225  1.00  0.00     0.120 A 
ATOM     50  N   UNL     1     -52.089  27.089  25.053  1.00  0.00    -0.219 NA
ATOM     51  H   UNL     1     -52.628  28.548  23.699  1.00  0.00     0.106 H 
BRANCH  48  52
ATOM     52  N   UNL     1     -51.434  25.483  26.601  1.00  0.00    -0.383 N 
ATOM     53  H   UNL     1     -52.366  25.526  26.991  1.00  0.00     0.158 HD
ATOM     54  H   UNL     1     -50.676  25.247  27.230  1.00  0.00     0.158 HD
ENDBRANCH  48  52
ENDBRANCH  29  40
ENDBRANCH   1  26
TORSDOF 9
ENDMDL
MODEL 5
REMARK VINA RESULT:      -9.0      1.788      2.625
REMARK SMILES CNc1ccc2ccc(OCc3cc(-n4cc(Cl)c5c(N)ncnc54)ccc3OC)cc2n1
REMARK SMILES IDX 11 1 10 4 9 5 3 6 4 7 33 8 5 9 32 11 6 12 31 14 7 15 8 17
REMARK SMILES IDX 2 20 1 22 12 26 13 27 28 28 14 29 27 31 26 32 29 35 30 36
REMARK SMILES IDX 15 40 16 41 25 42 17 43 19 45 24 46 18 47 20 48 23 49 22 50
REMARK SMILES IDX 21 52
REMARK H PARENT 11 2 11 3 4 10 5 13 31 16 7 18 8 19 2 21 1 23 1 24 1 25 13 30
REMARK H PARENT 27 33 26 34 30 37 30 38 30 39 16 44 23 51 21 53 21 54
REMARK Flexibility Score: inf
ROOT
ATOM      1  C   UNL     1     -47.072  35.180  27.952  1.00  0.00     0.117 C 
ATOM      2  H   UNL     1     -46.082  34.993  27.517  1.00  0.00     0.076 H 
ATOM      3  H   UNL     1     -47.061  34.839  28.994  1.00  0.00     0.076 H 
ENDROOT
BRANCH   1   4
ATOM      4  O   UNL     1     -48.079  34.500  27.202  1.00  0.00    -0.489 OA
BRANCH   4   5
ATOM      5  C   UNL     1     -47.658  33.601  26.261  1.00  0.00     0.122 A 
ATOM      6  C   UNL     1     -48.624  29.336  24.384  1.00  0.00     0.126 A 
ATOM      7  C   UNL     1     -47.550  29.415  23.509  1.00  0.00    -0.019 A 
ATOM      8  N   UNL     1     -48.910  30.311  25.266  1.00  0.00    -0.231 NA
ATOM      9  C   UNL     1     -46.749  30.552  23.530  1.00  0.00    -0.049 A 
ATOM     10  H   UNL     1     -47.322  28.598  22.835  1.00  0.00     0.066 H 
ATOM     11  C   UNL     1     -48.138  31.414  25.289  1.00  0.00     0.076 A 
ATOM     12  C   UNL     1     -47.036  31.582  24.429  1.00  0.00     0.001 A 
ATOM     13  H   UNL     1     -45.904  30.621  22.850  1.00  0.00     0.063 H 
ATOM     14  C   UNL     1     -48.425  32.433  26.188  1.00  0.00     0.007 A 
ATOM     15  C   UNL     1     -46.261  32.750  24.491  1.00  0.00    -0.049 A 
ATOM     16  H   UNL     1     -49.274  32.312  26.857  1.00  0.00     0.069 H 
ATOM     17  C   UNL     1     -46.572  33.759  25.405  1.00  0.00    -0.019 A 
ATOM     18  H   UNL     1     -45.408  32.882  23.828  1.00  0.00     0.063 H 
ATOM     19  H   UNL     1     -45.948  34.646  25.420  1.00  0.00     0.066 H 
BRANCH   6  20
ATOM     20  N   UNL     1     -49.462  28.220  24.431  1.00  0.00    -0.373 N 
ATOM     21  H   UNL     1     -49.470  27.885  23.467  1.00  0.00     0.161 HD
BRANCH  20  22
ATOM     22  C   UNL     1     -49.011  27.182  25.343  1.00  0.00     0.005 C 
ATOM     23  H   UNL     1     -48.236  27.593  25.997  1.00  0.00     0.045 H 
ATOM     24  H   UNL     1     -48.570  26.335  24.807  1.00  0.00     0.045 H 
ATOM     25  H   UNL     1     -49.828  26.821  25.979  1.00  0.00     0.045 H 
ENDBRANCH  20  22
ENDBRANCH   6  20
ENDBRANCH   4   5
ENDBRANCH   1   4
BRANCH   1  26
ATOM     26  C   UNL     1     -47.372  36.657  27.890  1.00  0.00     0.033 A 
ATOM     27  C   UNL     1     -46.337  37.568  27.600  1.00  0.00    -0.028 A 
ATOM     28  C   UNL     1     -48.667  37.147  28.069  1.00  0.00     0.125 A 
ATOM     29  C   UNL     1     -46.575  38.949  27.527  1.00  0.00     0.048 A 
ATOM     30  H   UNL     1     -45.352  37.150  27.406  1.00  0.00     0.065 H 
ATOM     31  C   UNL     1     -48.920  38.517  28.021  1.00  0.00    -0.017 A 
ATOM     32  C   UNL     1     -47.883  39.413  27.746  1.00  0.00    -0.034 A 
ATOM     33  H   UNL     1     -49.923  38.890  28.207  1.00  0.00     0.066 H 
ATOM     34  H   UNL     1     -48.135  40.468  27.740  1.00  0.00     0.065 H 
BRANCH  28  35
ATOM     35  O   UNL     1     -49.692  36.288  28.362  1.00  0.00    -0.496 OA
BRANCH  35  36
ATOM     36  C   UNL     1     -50.947  36.965  28.264  1.00  0.00     0.078 C 
ATOM     37  H   UNL     1     -50.818  37.972  27.854  1.00  0.00     0.067 H 
ATOM     38  H   UNL     1     -51.353  37.061  29.275  1.00  0.00     0.067 H 
ATOM     39  H   UNL     1     -51.666  36.397  27.663  1.00  0.00     0.067 H 
ENDBRANCH  35  36
ENDBRANCH  28  35
BRANCH  29  40
ATOM     40  N   UNL     1     -45.517  39.877  27.231  1.00  0.00    -0.300 N 
ATOM     41  C   UNL     1     -45.466  40.682  26.104  1.00  0.00     0.030 A 
ATOM     42  C   UNL     1     -44.369  40.149  27.983  1.00  0.00     0.151 A 
ATOM     43  C   UNL     1     -44.316  41.433  26.133  1.00  0.00     0.072 A 
ATOM     44  H   UNL     1     -46.228  40.646  25.341  1.00  0.00     0.084 H 
ATOM     45  C   UNL     1     -43.614  41.114  27.315  1.00  0.00     0.080 A 
ATOM     46  N   UNL     1     -44.034  39.605  29.171  1.00  0.00    -0.218 NA
ATOM     47  Cl  UNL     1     -43.828  42.543  24.940  1.00  0.00    -0.082 Cl
ATOM     48  C   UNL     1     -42.417  41.525  27.923  1.00  0.00     0.137 A 
ATOM     49  C   UNL     1     -42.874  40.070  29.652  1.00  0.00     0.120 A 
ATOM     50  N   UNL     1     -42.057  40.977  29.097  1.00  0.00    -0.219 NA
ATOM     51  H   UNL     1     -42.553  39.661  30.606  1.00  0.00     0.106 H 
BRANCH  48  52
ATOM     52  N   UNL     1     -41.560  42.472  27.388  1.00  0.00    -0.383 N 
ATOM     53  H   UNL     1     -40.698  42.119  26.994  1.00  0.00     0.158 HD
ATOM     54  H   UNL     1     -41.501  43.299  27.971  1.00  0.00     0.158 HD
ENDBRANCH  48  52
ENDBRANCH  29  40
ENDBRANCH   1  26
TORSDOF 9
ENDMDL
MODEL 6
REMARK VINA RESULT:      -9.0      1.449      1.879
REMARK SMILES CNc1ccc2ccc(OCc3cc(-n4cc(Cl)c5c(N)ncnc54)ccc3OC)cc2n1
REMARK SMILES IDX 11 1 10 4 9 5 3 6 4 7 33 8 5 9 32 11 6 12 31 14 7 15 8 17
REMARK SMILES IDX 2 20 1 22 12 26 13 27 28 28 14 29 27 31 26 32 29 35 30 36
REMARK SMILES IDX 15 40 16 41 25 42 17 43 19 45 24 46 18 47 20 48 23 49 22 50
REMARK SMILES IDX 21 52
REMARK H PARENT 11 2 11 3 4 10 5 13 31 16 7 18 8 19 2 21 1 23 1 24 1 25 13 30
REMARK H PARENT 27 33 26 34 30 37 30 38 30 39 16 44 23 51 21 53 21 54
REMARK Flexibility Score: inf
ROOT
ATOM      1  C   UNL     1     -47.766  35.964  28.462  1.00  0.00     0.117 C 
ATOM      2  H   UNL     1     -46.744  35.566  28.410  1.00  0.00     0.076 H 
ATOM      3  H   UNL     1     -48.170  35.748  29.457  1.00  0.00     0.076 H 
ENDROOT
BRANCH   1   4
ATOM      4  O   UNL     1     -48.577  35.382  27.442  1.00  0.00    -0.489 OA
BRANCH   4   5
ATOM      5  C   UNL     1     -47.973  34.502  26.587  1.00  0.00     0.122 A 
ATOM      6  C   UNL     1     -48.575  30.325  24.388  1.00  0.00     0.126 A 
ATOM      7  C   UNL     1     -47.331  30.401  23.780  1.00  0.00    -0.019 A 
ATOM      8  N   UNL     1     -49.033  31.280  25.217  1.00  0.00    -0.231 NA
ATOM      9  C   UNL     1     -46.532  31.515  24.022  1.00  0.00    -0.049 A 
ATOM     10  H   UNL     1     -46.973  29.600  23.145  1.00  0.00     0.066 H 
ATOM     11  C   UNL     1     -48.265  32.360  25.454  1.00  0.00     0.076 A 
ATOM     12  C   UNL     1     -46.994  32.524  24.870  1.00  0.00     0.001 A 
ATOM     13  H   UNL     1     -45.554  31.582  23.553  1.00  0.00     0.063 H 
ATOM     14  C   UNL     1     -48.727  33.358  26.301  1.00  0.00     0.007 A 
ATOM     15  C   UNL     1     -46.230  33.668  25.147  1.00  0.00    -0.049 A 
ATOM     16  H   UNL     1     -49.707  33.240  26.757  1.00  0.00     0.069 H 
ATOM     17  C   UNL     1     -46.719  34.656  26.004  1.00  0.00    -0.019 A 
ATOM     18  H   UNL     1     -45.247  33.797  24.699  1.00  0.00     0.063 H 
ATOM     19  H   UNL     1     -46.097  35.525  26.191  1.00  0.00     0.066 H 
BRANCH   6  20
ATOM     20  N   UNL     1     -49.425  29.232  24.205  1.00  0.00    -0.373 N 
ATOM     21  H   UNL     1     -50.344  29.660  24.089  1.00  0.00     0.161 HD
BRANCH  20  22
ATOM     22  C   UNL     1     -49.084  28.404  23.060  1.00  0.00     0.005 C 
ATOM     23  H   UNL     1     -49.378  27.370  23.266  1.00  0.00     0.045 H 
ATOM     24  H   UNL     1     -48.007  28.404  22.866  1.00  0.00     0.045 H 
ATOM     25  H   UNL     1     -49.615  28.727  22.157  1.00  0.00     0.045 H 
ENDBRANCH  20  22
ENDBRANCH   6  20
ENDBRANCH   4   5
ENDBRANCH   1   4
BRANCH   1  26
ATOM     26  C   UNL     1     -47.730  37.454  28.227  1.00  0.00     0.033 A 
ATOM     27  C   UNL     1     -46.490  38.115  28.120  1.00  0.00    -0.028 A 
ATOM     28  C   UNL     1     -48.902  38.196  28.066  1.00  0.00     0.125 A 
ATOM     29  C   UNL     1     -46.414  39.498  27.895  1.00  0.00     0.048 A 
ATOM     30  H   UNL     1     -45.597  37.500  28.189  1.00  0.00     0.065 H 
ATOM     31  C   UNL     1     -48.848  39.574  27.863  1.00  0.00    -0.017 A 
ATOM     32  C   UNL     1     -47.612  40.221  27.772  1.00  0.00    -0.034 A 
ATOM     33  H   UNL     1     -49.766  40.148  27.785  1.00  0.00     0.066 H 
ATOM     34  H   UNL     1     -47.631  41.297  27.633  1.00  0.00     0.065 H 
BRANCH  28  35
ATOM     35  O   UNL     1     -50.122  37.584  28.174  1.00  0.00    -0.496 OA
BRANCH  35  36
ATOM     36  C   UNL     1     -51.153  38.562  28.324  1.00  0.00     0.078 C 
ATOM     37  H   UNL     1     -51.949  38.410  27.587  1.00  0.00     0.067 H 
ATOM     38  H   UNL     1     -50.709  39.545  28.144  1.00  0.00     0.067 H 
ATOM     39  H   UNL     1     -51.568  38.559  29.339  1.00  0.00     0.067 H 
ENDBRANCH  35  36
ENDBRANCH  28  35
BRANCH  29  40
ATOM     40  N   UNL     1     -45.147  40.170  27.786  1.00  0.00    -0.300 N 
ATOM     41  C   UNL     1     -44.081  39.992  28.654  1.00  0.00     0.030 A 
ATOM     42  C   UNL     1     -44.743  41.105  26.826  1.00  0.00     0.151 A 
ATOM     43  C   UNL     1     -43.037  40.795  28.265  1.00  0.00     0.072 A 
ATOM     44  H   UNL     1     -44.143  39.334  29.507  1.00  0.00     0.084 H 
ATOM     45  C   UNL     1     -43.436  41.500  27.109  1.00  0.00     0.080 A 
ATOM     46  N   UNL     1     -45.465  41.547  25.776  1.00  0.00    -0.218 NA
ATOM     47  Cl  UNL     1     -41.536  40.918  29.053  1.00  0.00    -0.082 Cl
ATOM     48  C   UNL     1     -42.849  42.438  26.243  1.00  0.00     0.137 A 
ATOM     49  C   UNL     1     -44.806  42.439  25.025  1.00  0.00     0.120 A 
ATOM     50  N   UNL     1     -43.562  42.908  25.205  1.00  0.00    -0.219 NA
ATOM     51  H   UNL     1     -45.343  42.833  24.167  1.00  0.00     0.106 H 
BRANCH  48  52
ATOM     52  N   UNL     1     -41.562  42.929  26.388  1.00  0.00    -0.383 N 
ATOM     53  H   UNL     1     -41.323  43.726  25.813  1.00  0.00     0.158 HD
ATOM     54  H   UNL     1     -40.880  42.183  26.457  1.00  0.00     0.158 HD
ENDBRANCH  48  52
ENDBRANCH  29  40
ENDBRANCH   1  26
TORSDOF 9
ENDMDL
MODEL 7
REMARK VINA RESULT:      -8.9      2.281      3.372
REMARK SMILES CNc1ccc2ccc(OCc3cc(-n4cc(Cl)c5c(N)ncnc54)ccc3OC)cc2n1
REMARK SMILES IDX 11 1 10 4 9 5 3 6 4 7 33 8 5 9 32 11 6 12 31 14 7 15 8 17
REMARK SMILES IDX 2 20 1 22 12 26 13 27 28 28 14 29 27 31 26 32 29 35 30 36
REMARK SMILES IDX 15 40 16 41 25 42 17 43 19 45 24 46 18 47 20 48 23 49 22 50
REMARK SMILES IDX 21 52
REMARK H PARENT 11 2 11 3 4 10 5 13 31 16 7 18 8 19 2 21 1 23 1 24 1 25 13 30
REMARK H PARENT 27 33 26 34 30 37 30 38 30 39 16 44 23 51 21 53 21 54
REMARK Flexibility Score: inf
ROOT
ATOM      1  C   UNL     1     -47.025  37.575  27.045  1.00  0.00     0.117 C 
ATOM      2  H   UNL     1     -47.634  37.466  27.951  1.00  0.00     0.076 H 
ATOM      3  H   UNL     1     -47.690  37.824  26.209  1.00  0.00     0.076 H 
ENDROOT
BRANCH   1   4
ATOM      4  O   UNL     1     -46.304  36.372  26.783  1.00  0.00    -0.489 OA
BRANCH   4   5
ATOM      5  C   UNL     1     -47.035  35.261  26.464  1.00  0.00     0.122 A 
ATOM      6  C   UNL     1     -46.826  31.123  24.123  1.00  0.00     0.126 A 
ATOM      7  C   UNL     1     -48.136  30.806  24.451  1.00  0.00    -0.019 A 
ATOM      8  N   UNL     1     -46.242  32.270  24.513  1.00  0.00    -0.231 NA
ATOM      9  C   UNL     1     -48.868  31.698  25.228  1.00  0.00    -0.049 A 
ATOM     10  H   UNL     1     -48.593  29.891  24.093  1.00  0.00     0.066 H 
ATOM     11  C   UNL     1     -46.945  33.136  25.265  1.00  0.00     0.076 A 
ATOM     12  C   UNL     1     -48.276  32.889  25.654  1.00  0.00     0.001 A 
ATOM     13  H   UNL     1     -49.896  31.460  25.488  1.00  0.00     0.063 H 
ATOM     14  C   UNL     1     -46.354  34.321  25.682  1.00  0.00     0.007 A 
ATOM     15  C   UNL     1     -48.969  33.824  26.440  1.00  0.00    -0.049 A 
ATOM     16  H   UNL     1     -45.326  34.521  25.387  1.00  0.00     0.069 H 
ATOM     17  C   UNL     1     -48.349  35.007  26.844  1.00  0.00    -0.019 A 
ATOM     18  H   UNL     1     -49.998  33.636  26.740  1.00  0.00     0.063 H 
ATOM     19  H   UNL     1     -48.920  35.702  27.451  1.00  0.00     0.066 H 
BRANCH   6  20
ATOM     20  N   UNL     1     -46.035  30.284  23.334  1.00  0.00    -0.373 N 
ATOM     21  H   UNL     1     -46.012  29.411  23.862  1.00  0.00     0.161 HD
BRANCH  20  22
ATOM     22  C   UNL     1     -46.555  30.073  21.993  1.00  0.00     0.005 C 
ATOM     23  H   UNL     1     -45.778  30.328  21.265  1.00  0.00     0.045 H 
ATOM     24  H   UNL     1     -47.418  30.714  21.786  1.00  0.00     0.045 H 
ATOM     25  H   UNL     1     -46.834  29.026  21.829  1.00  0.00     0.045 H 
ENDBRANCH  20  22
ENDBRANCH   6  20
ENDBRANCH   4   5
ENDBRANCH   1   4
BRANCH   1  26
ATOM     26  C   UNL     1     -46.018  38.679  27.254  1.00  0.00     0.033 A 
ATOM     27  C   UNL     1     -46.057  39.825  26.435  1.00  0.00    -0.028 A 
ATOM     28  C   UNL     1     -45.069  38.618  28.277  1.00  0.00     0.125 A 
ATOM     29  C   UNL     1     -45.143  40.877  26.601  1.00  0.00     0.048 A 
ATOM     30  H   UNL     1     -46.845  39.870  25.687  1.00  0.00     0.065 H 
ATOM     31  C   UNL     1     -44.140  39.643  28.445  1.00  0.00    -0.017 A 
ATOM     32  C   UNL     1     -44.179  40.768  27.617  1.00  0.00    -0.034 A 
ATOM     33  H   UNL     1     -43.378  39.563  29.215  1.00  0.00     0.066 H 
ATOM     34  H   UNL     1     -43.419  41.525  27.782  1.00  0.00     0.065 H 
BRANCH  28  35
ATOM     35  O   UNL     1     -45.000  37.514  29.084  1.00  0.00    -0.496 OA
BRANCH  35  36
ATOM     36  C   UNL     1     -44.877  37.909  30.452  1.00  0.00     0.078 C 
ATOM     37  H   UNL     1     -44.878  39.000  30.546  1.00  0.00     0.067 H 
ATOM     38  H   UNL     1     -43.915  37.539  30.820  1.00  0.00     0.067 H 
ATOM     39  H   UNL     1     -45.668  37.472  31.071  1.00  0.00     0.067 H 
ENDBRANCH  35  36
ENDBRANCH  28  35
BRANCH  29  40
ATOM     40  N   UNL     1     -45.185  42.045  25.763  1.00  0.00    -0.300 N 
ATOM     41  C   UNL     1     -44.315  42.295  24.714  1.00  0.00     0.030 A 
ATOM     42  C   UNL     1     -46.072  43.126  25.828  1.00  0.00     0.151 A 
ATOM     43  C   UNL     1     -44.630  43.502  24.138  1.00  0.00     0.072 A 
ATOM     44  H   UNL     1     -43.510  41.621  24.466  1.00  0.00     0.084 H 
ATOM     45  C   UNL     1     -45.741  44.037  24.825  1.00  0.00     0.080 A 
ATOM     46  N   UNL     1     -47.100  43.275  26.688  1.00  0.00    -0.218 NA
ATOM     47  Cl  UNL     1     -43.811  44.220  22.833  1.00  0.00    -0.082 Cl
ATOM     48  C   UNL     1     -46.530  45.195  24.726  1.00  0.00     0.137 A 
ATOM     49  C   UNL     1     -47.777  44.416  26.502  1.00  0.00     0.120 A 
ATOM     50  N   UNL     1     -47.545  45.372  25.590  1.00  0.00    -0.219 NA
ATOM     51  H   UNL     1     -48.614  44.591  27.172  1.00  0.00     0.106 H 
BRANCH  48  52
ATOM     52  N   UNL     1     -46.331  46.192  23.786  1.00  0.00    -0.383 N 
ATOM     53  H   UNL     1     -45.691  46.929  24.050  1.00  0.00     0.158 HD
ATOM     54  H   UNL     1     -47.197  46.466  23.338  1.00  0.00     0.158 HD
ENDBRANCH  48  52
ENDBRANCH  29  40
ENDBRANCH   1  26
TORSDOF 9
ENDMDL
