MODEL 1
REMARK VINA RESULT:      -9.8      0.000      0.000
REMARK SMILES COc1cnc(C#N)c(-c2cn(Cc3ccc4cc(CN5CCC(C)(C)CC5)[nH]c4c3)nn2)c1
REMARK SMILES IDX 13 1 12 4 10 5 11 6 33 7 32 9 9 10 3 11 4 12 34 13 5 14 6 17
REMARK SMILES IDX 2 18 1 19 7 23 8 24 14 25 15 26 31 27 16 28 30 30 17 32
REMARK SMILES IDX 29 34 18 35 19 36 20 39 21 42 22 43 28 44 23 45 27 48 24 51
REMARK SMILES IDX 25 56 26 60
REMARK H PARENT 13 2 13 3 11 8 4 15 34 16 1 20 1 21 1 22 15 29 31 31 16 33
REMARK H PARENT 29 37 18 38 20 40 20 41 22 46 22 47 28 49 28 50 23 52 23 53
REMARK H PARENT 27 54 27 55 25 57 25 58 25 59 26 61 26 62 26 63
REMARK Flexibility Score: inf
ROOT
ATOM      1  C   UNL     1     -48.304  35.128  27.017  1.00  0.00     0.068 C 
ATOM      2  H   UNL     1     -48.743  34.825  27.974  1.00  0.00     0.057 H 
ATOM      3  H   UNL     1     -49.043  35.739  26.485  1.00  0.00     0.057 H 
ENDROOT
BRANCH   1   4
ATOM      4  N   UNL     1     -47.150  35.953  27.330  1.00  0.00    -0.247 N 
ATOM      5  C   UNL     1     -45.709  37.538  27.570  1.00  0.00     0.116 A 
ATOM      6  C   UNL     1     -46.927  37.259  26.996  1.00  0.00     0.054 A 
ATOM      7  N   UNL     1     -45.232  36.421  28.196  1.00  0.00    -0.130 NA
ATOM      8  H   UNL     1     -47.634  37.843  26.426  1.00  0.00     0.086 H 
ATOM      9  N   UNL     1     -46.125  35.453  28.045  1.00  0.00    -0.066 NA
BRANCH   5  10
ATOM     10  C   UNL     1     -45.032  38.814  27.561  1.00  0.00     0.044 A 
ATOM     11  C   UNL     1     -44.377  40.820  26.363  1.00  0.00     0.137 A 
ATOM     12  C   UNL     1     -43.781  41.249  27.542  1.00  0.00     0.070 A 
ATOM     13  C   UNL     1     -45.007  39.579  26.380  1.00  0.00    -0.006 A 
ATOM     14  N   UNL     1     -43.778  40.547  28.700  1.00  0.00    -0.241 NA
ATOM     15  H   UNL     1     -43.273  42.210  27.586  1.00  0.00     0.088 H 
ATOM     16  H   UNL     1     -45.499  39.190  25.494  1.00  0.00     0.067 H 
ATOM     17  C   UNL     1     -44.410  39.341  28.694  1.00  0.00     0.150 A 
BRANCH  11  18
ATOM     18  O   UNL     1     -44.280  41.666  25.299  1.00  0.00    -0.495 OA
BRANCH  18  19
ATOM     19  C   UNL     1     -45.211  42.741  25.242  1.00  0.00     0.078 C 
ATOM     20  H   UNL     1     -46.044  42.500  25.910  1.00  0.00     0.067 H 
ATOM     21  H   UNL     1     -44.758  43.673  25.596  1.00  0.00     0.067 H 
ATOM     22  H   UNL     1     -45.617  42.858  24.231  1.00  0.00     0.067 H 
ENDBRANCH  18  19
ENDBRANCH  11  18
BRANCH  17  23
ATOM     23  C   UNL     1     -44.329  38.628  29.944  1.00  0.00     0.120 C 
ATOM     24  N   UNL     1     -44.295  38.048  30.951  1.00  0.00    -0.191 NA
ENDBRANCH  17  23
ENDBRANCH   5  10
ENDBRANCH   1   4
BRANCH   1  25
ATOM     25  C   UNL     1     -47.915  33.934  26.173  1.00  0.00    -0.024 A 
ATOM     26  C   UNL     1     -46.654  33.883  25.562  1.00  0.00    -0.056 A 
ATOM     27  C   UNL     1     -48.827  32.879  25.992  1.00  0.00    -0.033 A 
ATOM     28  C   UNL     1     -46.289  32.802  24.748  1.00  0.00    -0.052 A 
ATOM     29  H   UNL     1     -45.936  34.688  25.705  1.00  0.00     0.063 H 
ATOM     30  C   UNL     1     -48.446  31.815  25.166  1.00  0.00     0.046 A 
ATOM     31  H   UNL     1     -49.808  32.895  26.462  1.00  0.00     0.065 H 
ATOM     32  C   UNL     1     -47.205  31.755  24.539  1.00  0.00    -0.000 A 
ATOM     33  H   UNL     1     -45.310  32.778  24.277  1.00  0.00     0.063 H 
ATOM     34  N   UNL     1     -49.137  30.681  24.807  1.00  0.00    -0.357 N 
ATOM     35  C   UNL     1     -47.177  30.554  23.780  1.00  0.00    -0.032 A 
ATOM     36  C   UNL     1     -48.397  29.921  23.931  1.00  0.00     0.030 A 
ATOM     37  H   UNL     1     -50.073  30.460  25.115  1.00  0.00     0.166 HD
ATOM     38  H   UNL     1     -46.358  30.200  23.169  1.00  0.00     0.065 H 
BRANCH  36  39
ATOM     39  C   UNL     1     -48.922  28.648  23.352  1.00  0.00     0.038 C 
ATOM     40  H   UNL     1     -48.745  28.635  22.268  1.00  0.00     0.050 H 
ATOM     41  H   UNL     1     -50.014  28.627  23.459  1.00  0.00     0.050 H 
BRANCH  39  42
ATOM     42  N   UNL     1     -48.357  27.436  23.944  1.00  0.00    -0.298 NA
ATOM     43  C   UNL     1     -46.928  27.506  24.240  1.00  0.00    -0.001 C 
ATOM     44  C   UNL     1     -49.179  26.812  24.983  1.00  0.00    -0.001 C 
ATOM     45  C   UNL     1     -46.461  26.263  25.000  1.00  0.00    -0.035 C 
ATOM     46  H   UNL     1     -46.369  27.577  23.300  1.00  0.00     0.043 H 
ATOM     47  H   UNL     1     -46.673  28.390  24.835  1.00  0.00     0.043 H 
ATOM     48  C   UNL     1     -48.530  26.846  26.368  1.00  0.00    -0.035 C 
ATOM     49  H   UNL     1     -50.182  27.254  25.037  1.00  0.00     0.043 H 
ATOM     50  H   UNL     1     -49.343  25.767  24.695  1.00  0.00     0.043 H 
ATOM     51  C   UNL     1     -47.148  26.146  26.383  1.00  0.00    -0.033 C 
ATOM     52  H   UNL     1     -45.370  26.286  25.111  1.00  0.00     0.029 H 
ATOM     53  H   UNL     1     -46.681  25.378  24.385  1.00  0.00     0.029 H 
ATOM     54  H   UNL     1     -48.428  27.894  26.679  1.00  0.00     0.029 H 
ATOM     55  H   UNL     1     -49.203  26.382  27.100  1.00  0.00     0.029 H 
BRANCH  51  56
ATOM     56  C   UNL     1     -47.311  24.657  26.738  1.00  0.00    -0.060 C 
ATOM     57  H   UNL     1     -46.373  24.109  26.593  1.00  0.00     0.024 H 
ATOM     58  H   UNL     1     -47.613  24.526  27.783  1.00  0.00     0.024 H 
ATOM     59  H   UNL     1     -48.073  24.182  26.108  1.00  0.00     0.024 H 
ENDBRANCH  51  56
BRANCH  51  60
ATOM     60  C   UNL     1     -46.272  26.803  27.466  1.00  0.00    -0.060 C 
ATOM     61  H   UNL     1     -45.298  26.306  27.546  1.00  0.00     0.024 H 
ATOM     62  H   UNL     1     -46.751  26.752  28.450  1.00  0.00     0.024 H 
ATOM     63  H   UNL     1     -46.090  27.859  27.238  1.00  0.00     0.024 H 
ENDBRANCH  51  60
ENDBRANCH  39  42
ENDBRANCH  36  39
ENDBRANCH   1  25
TORSDOF 10
ENDMDL
MODEL 2
REMARK VINA RESULT:      -9.7      2.241      4.360
REMARK SMILES COc1cnc(C#N)c(-c2cn(Cc3ccc4cc(CN5CCC(C)(C)CC5)[nH]c4c3)nn2)c1
REMARK SMILES IDX 13 1 12 4 10 5 11 6 33 7 32 9 9 10 3 11 4 12 34 13 5 14 6 17
REMARK SMILES IDX 2 18 1 19 7 23 8 24 14 25 15 26 31 27 16 28 30 30 17 32
REMARK SMILES IDX 29 34 18 35 19 36 20 39 21 42 22 43 28 44 23 45 27 48 24 51
REMARK SMILES IDX 25 56 26 60
REMARK H PARENT 13 2 13 3 11 8 4 15 34 16 1 20 1 21 1 22 15 29 31 31 16 33
REMARK H PARENT 29 37 18 38 20 40 20 41 22 46 22 47 28 49 28 50 23 52 23 53
REMARK H PARENT 27 54 27 55 25 57 25 58 25 59 26 61 26 62 26 63
REMARK Flexibility Score: inf
ROOT
ATOM      1  C   UNL     1     -45.602  38.375  28.977  1.00  0.00     0.068 C 
ATOM      2  H   UNL     1     -44.610  38.045  29.304  1.00  0.00     0.057 H 
ATOM      3  H   UNL     1     -46.175  38.653  29.870  1.00  0.00     0.057 H 
ENDROOT
BRANCH   1   4
ATOM      4  N   UNL     1     -45.399  39.560  28.162  1.00  0.00    -0.247 N 
ATOM      5  C   UNL     1     -44.629  41.141  26.914  1.00  0.00     0.116 A 
ATOM      6  C   UNL     1     -44.241  40.008  27.592  1.00  0.00     0.054 A 
ATOM      7  N   UNL     1     -45.965  41.352  27.106  1.00  0.00    -0.130 NA
ATOM      8  H   UNL     1     -43.299  39.491  27.702  1.00  0.00     0.086 H 
ATOM      9  N   UNL     1     -46.430  40.376  27.872  1.00  0.00    -0.066 NA
BRANCH   5  10
ATOM     10  C   UNL     1     -43.786  41.974  26.089  1.00  0.00     0.044 A 
ATOM     11  C   UNL     1     -43.465  43.236  24.041  1.00  0.00     0.137 A 
ATOM     12  C   UNL     1     -42.211  43.581  24.530  1.00  0.00     0.070 A 
ATOM     13  C   UNL     1     -44.257  42.415  24.839  1.00  0.00    -0.006 A 
ATOM     14  N   UNL     1     -41.715  43.179  25.724  1.00  0.00    -0.241 NA
ATOM     15  H   UNL     1     -41.548  44.219  23.949  1.00  0.00     0.088 H 
ATOM     16  H   UNL     1     -45.251  42.116  24.518  1.00  0.00     0.067 H 
ATOM     17  C   UNL     1     -42.514  42.385  26.490  1.00  0.00     0.150 A 
BRANCH  11  18
ATOM     18  O   UNL     1     -43.792  43.740  22.818  1.00  0.00    -0.495 OA
BRANCH  18  19
ATOM     19  C   UNL     1     -45.087  44.313  22.680  1.00  0.00     0.078 C 
ATOM     20  H   UNL     1     -44.970  45.401  22.637  1.00  0.00     0.067 H 
ATOM     21  H   UNL     1     -45.562  43.991  21.747  1.00  0.00     0.067 H 
ATOM     22  H   UNL     1     -45.716  44.079  23.546  1.00  0.00     0.067 H 
ENDBRANCH  18  19
ENDBRANCH  11  18
BRANCH  17  23
ATOM     23  C   UNL     1     -41.908  41.958  27.725  1.00  0.00     0.120 C 
ATOM     24  N   UNL     1     -41.437  41.586  28.721  1.00  0.00    -0.191 NA
ENDBRANCH  17  23
ENDBRANCH   5  10
ENDBRANCH   1   4
BRANCH   1  25
ATOM     25  C   UNL     1     -46.330  37.295  28.209  1.00  0.00    -0.024 A 
ATOM     26  C   UNL     1     -47.729  37.312  28.122  1.00  0.00    -0.056 A 
ATOM     27  C   UNL     1     -45.600  36.263  27.592  1.00  0.00    -0.033 A 
ATOM     28  C   UNL     1     -48.423  36.301  27.445  1.00  0.00    -0.052 A 
ATOM     29  H   UNL     1     -48.303  38.112  28.586  1.00  0.00     0.063 H 
ATOM     30  C   UNL     1     -46.314  35.257  26.931  1.00  0.00     0.046 A 
ATOM     31  H   UNL     1     -44.513  36.234  27.641  1.00  0.00     0.065 H 
ATOM     32  C   UNL     1     -47.703  35.250  26.848  1.00  0.00    -0.000 A 
ATOM     33  H   UNL     1     -49.508  36.325  27.389  1.00  0.00     0.063 H 
ATOM     34  N   UNL     1     -45.863  34.140  26.268  1.00  0.00    -0.357 N 
ATOM     35  C   UNL     1     -48.073  34.084  26.124  1.00  0.00    -0.032 A 
ATOM     36  C   UNL     1     -46.920  33.392  25.805  1.00  0.00     0.030 A 
ATOM     37  H   UNL     1     -44.889  33.887  26.170  1.00  0.00     0.166 HD
ATOM     38  H   UNL     1     -49.080  33.772  25.881  1.00  0.00     0.065 H 
BRANCH  36  39
ATOM     39  C   UNL     1     -46.717  32.103  25.076  1.00  0.00     0.038 C 
ATOM     40  H   UNL     1     -46.224  31.379  25.738  1.00  0.00     0.050 H 
ATOM     41  H   UNL     1     -46.006  32.263  24.255  1.00  0.00     0.050 H 
BRANCH  39  42
ATOM     42  N   UNL     1     -47.943  31.510  24.543  1.00  0.00    -0.298 NA
ATOM     43  C   UNL     1     -47.810  30.916  23.215  1.00  0.00    -0.001 C 
ATOM     44  C   UNL     1     -48.720  30.724  25.504  1.00  0.00    -0.001 C 
ATOM     45  C   UNL     1     -49.090  30.183  22.809  1.00  0.00    -0.035 C 
ATOM     46  H   UNL     1     -47.608  31.708  22.485  1.00  0.00     0.043 H 
ATOM     47  H   UNL     1     -46.976  30.208  23.162  1.00  0.00     0.043 H 
ATOM     48  C   UNL     1     -48.784  29.236  25.154  1.00  0.00    -0.035 C 
ATOM     49  H   UNL     1     -48.352  30.845  26.530  1.00  0.00     0.043 H 
ATOM     50  H   UNL     1     -49.739  31.127  25.517  1.00  0.00     0.043 H 
ATOM     51  C   UNL     1     -49.390  28.990  23.751  1.00  0.00    -0.033 C 
ATOM     52  H   UNL     1     -49.007  29.843  21.769  1.00  0.00     0.029 H 
ATOM     53  H   UNL     1     -49.921  30.903  22.824  1.00  0.00     0.029 H 
ATOM     54  H   UNL     1     -47.768  28.823  25.207  1.00  0.00     0.029 H 
ATOM     55  H   UNL     1     -49.361  28.704  25.921  1.00  0.00     0.029 H 
BRANCH  51  56
ATOM     56  C   UNL     1     -50.915  28.805  23.855  1.00  0.00    -0.060 C 
ATOM     57  H   UNL     1     -51.318  28.314  22.962  1.00  0.00     0.024 H 
ATOM     58  H   UNL     1     -51.184  28.190  24.722  1.00  0.00     0.024 H 
ATOM     59  H   UNL     1     -51.423  29.771  23.961  1.00  0.00     0.024 H 
ENDBRANCH  51  56
BRANCH  51  60
ATOM     60  C   UNL     1     -48.790  27.695  23.171  1.00  0.00    -0.060 C 
ATOM     61  H   UNL     1     -48.791  26.889  23.913  1.00  0.00     0.024 H 
ATOM     62  H   UNL     1     -47.754  27.847  22.849  1.00  0.00     0.024 H 
ATOM     63  H   UNL     1     -49.361  27.350  22.302  1.00  0.00     0.024 H 
ENDBRANCH  51  60
ENDBRANCH  39  42
ENDBRANCH  36  39
ENDBRANCH   1  25
TORSDOF 10
ENDMDL
MODEL 3
REMARK VINA RESULT:      -9.4      3.229     11.845
REMARK SMILES COc1cnc(C#N)c(-c2cn(Cc3ccc4cc(CN5CCC(C)(C)CC5)[nH]c4c3)nn2)c1
REMARK SMILES IDX 13 1 12 4 10 5 11 6 33 7 32 9 9 10 3 11 4 12 34 13 5 14 6 17
REMARK SMILES IDX 2 18 1 19 7 23 8 24 14 25 15 26 31 27 16 28 30 30 17 32
REMARK SMILES IDX 29 34 18 35 19 36 20 39 21 42 22 43 28 44 23 45 27 48 24 51
REMARK SMILES IDX 25 56 26 60
REMARK H PARENT 13 2 13 3 11 8 4 15 34 16 1 20 1 21 1 22 15 29 31 31 16 33
REMARK H PARENT 29 37 18 38 20 40 20 41 22 46 22 47 28 49 28 50 23 52 23 53
REMARK H PARENT 27 54 27 55 25 57 25 58 25 59 26 61 26 62 26 63
REMARK Flexibility Score: inf
ROOT
ATOM      1  C   UNL     1     -48.536  35.161  26.690  1.00  0.00     0.068 C 
ATOM      2  H   UNL     1     -49.001  35.706  25.861  1.00  0.00     0.057 H 
ATOM      3  H   UNL     1     -49.321  34.912  27.413  1.00  0.00     0.057 H 
ENDROOT
BRANCH   1   4
ATOM      4  N   UNL     1     -48.004  33.930  26.132  1.00  0.00    -0.247 N 
ATOM      5  C   UNL     1     -47.692  31.949  25.340  1.00  0.00     0.116 A 
ATOM      6  C   UNL     1     -48.658  32.753  25.899  1.00  0.00     0.054 A 
ATOM      7  N   UNL     1     -46.511  32.634  25.272  1.00  0.00    -0.130 NA
ATOM      8  H   UNL     1     -49.705  32.614  26.125  1.00  0.00     0.086 H 
ATOM      9  N   UNL     1     -46.713  33.850  25.760  1.00  0.00    -0.066 NA
BRANCH   5  10
ATOM     10  C   UNL     1     -47.878  30.602  24.854  1.00  0.00     0.044 A 
ATOM     11  C   UNL     1     -48.793  28.377  25.172  1.00  0.00     0.137 A 
ATOM     12  C   UNL     1     -48.265  28.055  23.928  1.00  0.00     0.070 A 
ATOM     13  C   UNL     1     -48.588  29.674  25.636  1.00  0.00    -0.006 A 
ATOM     14  N   UNL     1     -47.573  28.914  23.142  1.00  0.00    -0.241 NA
ATOM     15  H   UNL     1     -48.393  27.057  23.516  1.00  0.00     0.088 H 
ATOM     16  H   UNL     1     -48.983  29.991  26.597  1.00  0.00     0.067 H 
ATOM     17  C   UNL     1     -47.395  30.178  23.615  1.00  0.00     0.150 A 
BRANCH  11  18
ATOM     18  O   UNL     1     -49.463  27.381  25.816  1.00  0.00    -0.495 OA
BRANCH  18  19
ATOM     19  C   UNL     1     -48.680  26.432  26.531  1.00  0.00     0.078 C 
ATOM     20  H   UNL     1     -48.724  25.483  25.987  1.00  0.00     0.067 H 
ATOM     21  H   UNL     1     -47.631  26.743  26.576  1.00  0.00     0.067 H 
ATOM     22  H   UNL     1     -49.086  26.261  27.534  1.00  0.00     0.067 H 
ENDBRANCH  18  19
ENDBRANCH  11  18
BRANCH  17  23
ATOM     23  C   UNL     1     -46.613  31.025  22.750  1.00  0.00     0.120 C 
ATOM     24  N   UNL     1     -45.989  31.688  22.027  1.00  0.00    -0.191 NA
ENDBRANCH  17  23
ENDBRANCH   5  10
ENDBRANCH   1   4
BRANCH   1  25
ATOM     25  C   UNL     1     -47.453  35.976  27.361  1.00  0.00    -0.024 A 
ATOM     26  C   UNL     1     -46.894  35.546  28.573  1.00  0.00    -0.056 A 
ATOM     27  C   UNL     1     -47.013  37.176  26.772  1.00  0.00    -0.033 A 
ATOM     28  C   UNL     1     -45.915  36.305  29.227  1.00  0.00    -0.052 A 
ATOM     29  H   UNL     1     -47.218  34.613  29.031  1.00  0.00     0.063 H 
ATOM     30  C   UNL     1     -46.043  37.924  27.448  1.00  0.00     0.046 A 
ATOM     31  H   UNL     1     -47.428  37.525  25.829  1.00  0.00     0.065 H 
ATOM     32  C   UNL     1     -45.490  37.519  28.660  1.00  0.00    -0.000 A 
ATOM     33  H   UNL     1     -45.495  35.962  30.168  1.00  0.00     0.063 H 
ATOM     34  N   UNL     1     -45.458  39.123  27.115  1.00  0.00    -0.357 N 
ATOM     35  C   UNL     1     -44.562  38.523  29.050  1.00  0.00    -0.032 A 
ATOM     36  C   UNL     1     -44.583  39.524  28.098  1.00  0.00     0.030 A 
ATOM     37  H   UNL     1     -45.672  39.652  26.281  1.00  0.00     0.166 HD
ATOM     38  H   UNL     1     -43.957  38.522  29.947  1.00  0.00     0.065 H 
BRANCH  36  39
ATOM     39  C   UNL     1     -43.832  40.813  28.010  1.00  0.00     0.038 C 
ATOM     40  H   UNL     1     -42.877  40.720  28.543  1.00  0.00     0.050 H 
ATOM     41  H   UNL     1     -44.384  41.589  28.554  1.00  0.00     0.050 H 
BRANCH  39  42
ATOM     42  N   UNL     1     -43.577  41.271  26.644  1.00  0.00    -0.298 NA
ATOM     43  C   UNL     1     -44.694  41.970  26.013  1.00  0.00    -0.001 C 
ATOM     44  C   UNL     1     -42.261  41.878  26.430  1.00  0.00    -0.001 C 
ATOM     45  C   UNL     1     -44.286  42.551  24.658  1.00  0.00    -0.035 C 
ATOM     46  H   UNL     1     -45.520  41.264  25.862  1.00  0.00     0.043 H 
ATOM     47  H   UNL     1     -45.076  42.785  26.637  1.00  0.00     0.043 H 
ATOM     48  C   UNL     1     -42.332  43.365  26.076  1.00  0.00    -0.035 C 
ATOM     49  H   UNL     1     -41.596  41.737  27.290  1.00  0.00     0.043 H 
ATOM     50  H   UNL     1     -41.778  41.342  25.604  1.00  0.00     0.043 H 
ATOM     51  C   UNL     1     -43.179  43.624  24.806  1.00  0.00    -0.033 C 
ATOM     52  H   UNL     1     -45.167  42.970  24.156  1.00  0.00     0.029 H 
ATOM     53  H   UNL     1     -43.939  41.727  24.017  1.00  0.00     0.029 H 
ATOM     54  H   UNL     1     -42.757  43.906  26.933  1.00  0.00     0.029 H 
ATOM     55  H   UNL     1     -41.317  43.760  25.948  1.00  0.00     0.029 H 
BRANCH  51  56
ATOM     56  C   UNL     1     -42.283  43.595  23.555  1.00  0.00    -0.060 C 
ATOM     57  H   UNL     1     -42.656  42.878  22.815  1.00  0.00     0.024 H 
ATOM     58  H   UNL     1     -42.240  44.578  23.072  1.00  0.00     0.024 H 
ATOM     59  H   UNL     1     -41.257  43.305  23.811  1.00  0.00     0.024 H 
ENDBRANCH  51  56
BRANCH  51  60
ATOM     60  C   UNL     1     -43.812  45.025  24.909  1.00  0.00    -0.060 C 
ATOM     61  H   UNL     1     -44.034  45.436  23.918  1.00  0.00     0.024 H 
ATOM     62  H   UNL     1     -43.141  45.728  25.416  1.00  0.00     0.024 H 
ATOM     63  H   UNL     1     -44.749  44.993  25.475  1.00  0.00     0.024 H 
ENDBRANCH  51  60
ENDBRANCH  39  42
ENDBRANCH  36  39
ENDBRANCH   1  25
TORSDOF 10
ENDMDL
MODEL 4
REMARK VINA RESULT:      -9.4      1.862      2.750
REMARK SMILES COc1cnc(C#N)c(-c2cn(Cc3ccc4cc(CN5CCC(C)(C)CC5)[nH]c4c3)nn2)c1
REMARK SMILES IDX 13 1 12 4 10 5 11 6 33 7 32 9 9 10 3 11 4 12 34 13 5 14 6 17
REMARK SMILES IDX 2 18 1 19 7 23 8 24 14 25 15 26 31 27 16 28 30 30 17 32
REMARK SMILES IDX 29 34 18 35 19 36 20 39 21 42 22 43 28 44 23 45 27 48 24 51
REMARK SMILES IDX 25 56 26 60
REMARK H PARENT 13 2 13 3 11 8 4 15 34 16 1 20 1 21 1 22 15 29 31 31 16 33
REMARK H PARENT 29 37 18 38 20 40 20 41 22 46 22 47 28 49 28 50 23 52 23 53
REMARK H PARENT 27 54 27 55 25 57 25 58 25 59 26 61 26 62 26 63
REMARK Flexibility Score: inf
ROOT
ATOM      1  C   UNL     1     -48.500  36.678  27.599  1.00  0.00     0.068 C 
ATOM      2  H   UNL     1     -48.888  36.423  28.592  1.00  0.00     0.057 H 
ATOM      3  H   UNL     1     -49.317  37.130  27.025  1.00  0.00     0.057 H 
ENDROOT
BRANCH   1   4
ATOM      4  N   UNL     1     -47.461  37.673  27.800  1.00  0.00    -0.247 N 
ATOM      5  C   UNL     1     -46.049  39.294  27.635  1.00  0.00     0.116 A 
ATOM      6  C   UNL     1     -46.998  38.606  26.915  1.00  0.00     0.054 A 
ATOM      7  N   UNL     1     -45.952  38.761  28.889  1.00  0.00    -0.130 NA
ATOM      8  H   UNL     1     -47.385  38.698  25.911  1.00  0.00     0.086 H 
ATOM      9  N   UNL     1     -46.823  37.766  28.982  1.00  0.00    -0.066 NA
BRANCH   5  10
ATOM     10  C   UNL     1     -45.288  40.432  27.176  1.00  0.00     0.044 A 
ATOM     11  C   UNL     1     -43.138  41.511  26.855  1.00  0.00     0.137 A 
ATOM     12  C   UNL     1     -43.831  42.569  26.279  1.00  0.00     0.070 A 
ATOM     13  C   UNL     1     -43.887  40.430  27.312  1.00  0.00    -0.006 A 
ATOM     14  N   UNL     1     -45.175  42.615  26.130  1.00  0.00    -0.241 NA
ATOM     15  H   UNL     1     -43.297  43.440  25.906  1.00  0.00     0.088 H 
ATOM     16  H   UNL     1     -43.406  39.568  27.763  1.00  0.00     0.067 H 
ATOM     17  C   UNL     1     -45.884  41.541  26.575  1.00  0.00     0.150 A 
BRANCH  11  18
ATOM     18  O   UNL     1     -41.783  41.642  26.915  1.00  0.00    -0.495 OA
BRANCH  18  19
ATOM     19  C   UNL     1     -41.176  41.504  28.194  1.00  0.00     0.078 C 
ATOM     20  H   UNL     1     -41.290  40.462  28.509  1.00  0.00     0.067 H 
ATOM     21  H   UNL     1     -40.103  41.721  28.146  1.00  0.00     0.067 H 
ATOM     22  H   UNL     1     -41.674  42.134  28.938  1.00  0.00     0.067 H 
ENDBRANCH  18  19
ENDBRANCH  11  18
BRANCH  17  23
ATOM     23  C   UNL     1     -47.311  41.677  26.426  1.00  0.00     0.120 C 
ATOM     24  N   UNL     1     -48.465  41.754  26.306  1.00  0.00    -0.191 NA
ENDBRANCH  17  23
ENDBRANCH   5  10
ENDBRANCH   1   4
BRANCH   1  25
ATOM     25  C   UNL     1     -47.967  35.463  26.874  1.00  0.00    -0.024 A 
ATOM     26  C   UNL     1     -46.629  35.418  26.461  1.00  0.00    -0.056 A 
ATOM     27  C   UNL     1     -48.823  34.379  26.602  1.00  0.00    -0.033 A 
ATOM     28  C   UNL     1     -46.126  34.316  25.757  1.00  0.00    -0.052 A 
ATOM     29  H   UNL     1     -45.955  36.246  26.676  1.00  0.00     0.063 H 
ATOM     30  C   UNL     1     -48.303  33.294  25.888  1.00  0.00     0.046 A 
ATOM     31  H   UNL     1     -49.864  34.390  26.920  1.00  0.00     0.065 H 
ATOM     32  C   UNL     1     -46.981  33.240  25.457  1.00  0.00    -0.000 A 
ATOM     33  H   UNL     1     -45.087  34.298  25.439  1.00  0.00     0.063 H 
ATOM     34  N   UNL     1     -48.911  32.131  25.477  1.00  0.00    -0.357 N 
ATOM     35  C   UNL     1     -46.818  32.012  24.761  1.00  0.00    -0.032 A 
ATOM     36  C   UNL     1     -48.034  31.356  24.755  1.00  0.00     0.030 A 
ATOM     37  H   UNL     1     -49.879  31.899  25.652  1.00  0.00     0.166 HD
ATOM     38  H   UNL     1     -45.910  31.654  24.295  1.00  0.00     0.065 H 
BRANCH  36  39
ATOM     39  C   UNL     1     -48.443  30.049  24.157  1.00  0.00     0.038 C 
ATOM     40  H   UNL     1     -48.035  29.964  23.141  1.00  0.00     0.050 H 
ATOM     41  H   UNL     1     -49.532  30.039  24.024  1.00  0.00     0.050 H 
BRANCH  39  42
ATOM     42  N   UNL     1     -48.043  28.876  24.934  1.00  0.00    -0.298 NA
ATOM     43  C   UNL     1     -48.822  28.651  26.149  1.00  0.00    -0.001 C 
ATOM     44  C   UNL     1     -47.758  27.676  24.145  1.00  0.00    -0.001 C 
ATOM     45  C   UNL     1     -48.443  27.323  26.809  1.00  0.00    -0.035 C 
ATOM     46  H   UNL     1     -48.629  29.466  26.857  1.00  0.00     0.043 H 
ATOM     47  H   UNL     1     -49.900  28.643  25.953  1.00  0.00     0.043 H 
ATOM     48  C   UNL     1     -48.742  26.535  24.405  1.00  0.00    -0.035 C 
ATOM     49  H   UNL     1     -47.718  27.889  23.070  1.00  0.00     0.043 H 
ATOM     50  H   UNL     1     -46.748  27.338  24.406  1.00  0.00     0.043 H 
ATOM     51  C   UNL     1     -48.772  26.116  25.895  1.00  0.00    -0.033 C 
ATOM     52  H   UNL     1     -48.957  27.230  27.773  1.00  0.00     0.029 H 
ATOM     53  H   UNL     1     -47.369  27.347  27.043  1.00  0.00     0.029 H 
ATOM     54  H   UNL     1     -49.741  26.856  24.080  1.00  0.00     0.029 H 
ATOM     55  H   UNL     1     -48.485  25.677  23.770  1.00  0.00     0.029 H 
BRANCH  51  56
ATOM     56  C   UNL     1     -47.747  24.997  26.154  1.00  0.00    -0.060 C 
ATOM     57  H   UNL     1     -48.210  24.144  26.663  1.00  0.00     0.024 H 
ATOM     58  H   UNL     1     -47.313  24.629  25.218  1.00  0.00     0.024 H 
ATOM     59  H   UNL     1     -46.925  25.354  26.785  1.00  0.00     0.024 H 
ENDBRANCH  51  56
BRANCH  51  60
ATOM     60  C   UNL     1     -50.173  25.568  26.228  1.00  0.00    -0.060 C 
ATOM     61  H   UNL     1     -50.675  26.189  26.980  1.00  0.00     0.024 H 
ATOM     62  H   UNL     1     -50.118  24.549  26.625  1.00  0.00     0.024 H 
ATOM     63  H   UNL     1     -50.809  25.545  25.336  1.00  0.00     0.024 H 
ENDBRANCH  51  60
ENDBRANCH  39  42
ENDBRANCH  36  39
ENDBRANCH   1  25
TORSDOF 10
ENDMDL
MODEL 5
REMARK VINA RESULT:      -9.4      3.614     11.437
REMARK SMILES COc1cnc(C#N)c(-c2cn(Cc3ccc4cc(CN5CCC(C)(C)CC5)[nH]c4c3)nn2)c1
REMARK SMILES IDX 13 1 12 4 10 5 11 6 33 7 32 9 9 10 3 11 4 12 34 13 5 14 6 17
REMARK SMILES IDX 2 18 1 19 7 23 8 24 14 25 15 26 31 27 16 28 30 30 17 32
REMARK SMILES IDX 29 34 18 35 19 36 20 39 21 42 22 43 28 44 23 45 27 48 24 51
REMARK SMILES IDX 25 56 26 60
REMARK H PARENT 13 2 13 3 11 8 4 15 34 16 1 20 1 21 1 22 15 29 31 31 16 33
REMARK H PARENT 29 37 18 38 20 40 20 41 22 46 22 47 28 49 28 50 23 52 23 53
REMARK H PARENT 27 54 27 55 25 57 25 58 25 59 26 61 26 62 26 63
REMARK Flexibility Score: inf
ROOT
ATOM      1  C   UNL     1     -46.399  32.500  26.975  1.00  0.00     0.068 C 
ATOM      2  H   UNL     1     -46.618  31.998  27.924  1.00  0.00     0.057 H 
ATOM      3  H   UNL     1     -45.369  32.255  26.693  1.00  0.00     0.057 H 
ENDROOT
BRANCH   1   4
ATOM      4  N   UNL     1     -47.303  31.936  25.987  1.00  0.00    -0.247 N 
ATOM      5  C   UNL     1     -48.317  31.301  24.194  1.00  0.00     0.116 A 
ATOM      6  C   UNL     1     -47.246  32.047  24.626  1.00  0.00     0.054 A 
ATOM      7  N   UNL     1     -48.985  30.793  25.273  1.00  0.00    -0.130 NA
ATOM      8  H   UNL     1     -46.473  32.605  24.119  1.00  0.00     0.086 H 
ATOM      9  N   UNL     1     -48.353  31.187  26.370  1.00  0.00    -0.066 NA
BRANCH   5  10
ATOM     10  C   UNL     1     -48.682  31.043  22.821  1.00  0.00     0.044 A 
ATOM     11  C   UNL     1     -50.334  31.147  21.046  1.00  0.00     0.137 A 
ATOM     12  C   UNL     1     -49.373  30.591  20.211  1.00  0.00     0.070 A 
ATOM     13  C   UNL     1     -49.975  31.370  22.373  1.00  0.00    -0.006 A 
ATOM     14  N   UNL     1     -48.120  30.257  20.599  1.00  0.00    -0.241 NA
ATOM     15  H   UNL     1     -49.599  30.392  19.166  1.00  0.00     0.088 H 
ATOM     16  H   UNL     1     -50.677  31.811  23.074  1.00  0.00     0.067 H 
ATOM     17  C   UNL     1     -47.790  30.495  21.898  1.00  0.00     0.150 A 
BRANCH  11  18
ATOM     18  O   UNL     1     -51.541  31.419  20.475  1.00  0.00    -0.495 OA
BRANCH  18  19
ATOM     19  C   UNL     1     -52.192  30.350  19.798  1.00  0.00     0.078 C 
ATOM     20  H   UNL     1     -52.605  30.746  18.865  1.00  0.00     0.067 H 
ATOM     21  H   UNL     1     -51.480  29.558  19.539  1.00  0.00     0.067 H 
ATOM     22  H   UNL     1     -53.024  29.956  20.391  1.00  0.00     0.067 H 
ENDBRANCH  18  19
ENDBRANCH  11  18
BRANCH  17  23
ATOM     23  C   UNL     1     -46.458  30.076  22.253  1.00  0.00     0.120 C 
ATOM     24  N   UNL     1     -45.393  29.734  22.569  1.00  0.00    -0.191 NA
ENDBRANCH  17  23
ENDBRANCH   5  10
ENDBRANCH   1   4
BRANCH   1  25
ATOM     25  C   UNL     1     -46.565  34.000  27.081  1.00  0.00    -0.024 A 
ATOM     26  C   UNL     1     -47.699  34.624  26.545  1.00  0.00    -0.056 A 
ATOM     27  C   UNL     1     -45.569  34.771  27.709  1.00  0.00    -0.033 A 
ATOM     28  C   UNL     1     -47.853  36.016  26.602  1.00  0.00    -0.052 A 
ATOM     29  H   UNL     1     -48.481  34.037  26.067  1.00  0.00     0.063 H 
ATOM     30  C   UNL     1     -45.738  36.159  27.745  1.00  0.00     0.046 A 
ATOM     31  H   UNL     1     -44.684  34.306  28.138  1.00  0.00     0.065 H 
ATOM     32  C   UNL     1     -46.850  36.797  27.204  1.00  0.00    -0.000 A 
ATOM     33  H   UNL     1     -48.736  36.486  26.178  1.00  0.00     0.063 H 
ATOM     34  N   UNL     1     -44.926  37.137  28.270  1.00  0.00    -0.357 N 
ATOM     35  C   UNL     1     -46.674  38.192  27.410  1.00  0.00    -0.032 A 
ATOM     36  C   UNL     1     -45.459  38.384  28.041  1.00  0.00     0.030 A 
ATOM     37  H   UNL     1     -44.042  36.962  28.728  1.00  0.00     0.166 HD
ATOM     38  H   UNL     1     -47.355  38.976  27.108  1.00  0.00     0.065 H 
BRANCH  36  39
ATOM     39  C   UNL     1     -44.764  39.633  28.476  1.00  0.00     0.038 C 
ATOM     40  H   UNL     1     -44.037  39.395  29.264  1.00  0.00     0.050 H 
ATOM     41  H   UNL     1     -45.491  40.300  28.957  1.00  0.00     0.050 H 
BRANCH  39  42
ATOM     42  N   UNL     1     -44.086  40.355  27.400  1.00  0.00    -0.298 NA
ATOM     43  C   UNL     1     -44.973  41.092  26.503  1.00  0.00    -0.001 C 
ATOM     44  C   UNL     1     -42.871  41.067  27.800  1.00  0.00    -0.001 C 
ATOM     45  C   UNL     1     -44.173  41.941  25.513  1.00  0.00    -0.035 C 
ATOM     46  H   UNL     1     -45.590  40.381  25.942  1.00  0.00     0.043 H 
ATOM     47  H   UNL     1     -45.656  41.751  27.049  1.00  0.00     0.043 H 
ATOM     48  C   UNL     1     -42.994  42.587  27.677  1.00  0.00    -0.035 C 
ATOM     49  H   UNL     1     -42.555  40.806  28.817  1.00  0.00     0.043 H 
ATOM     50  H   UNL     1     -42.056  40.725  27.151  1.00  0.00     0.043 H 
ATOM     51  C   UNL     1     -43.341  43.031  26.234  1.00  0.00    -0.033 C 
ATOM     52  H   UNL     1     -44.853  42.395  24.781  1.00  0.00     0.029 H 
ATOM     53  H   UNL     1     -43.515  41.274  24.936  1.00  0.00     0.029 H 
ATOM     54  H   UNL     1     -43.767  42.931  28.377  1.00  0.00     0.029 H 
ATOM     55  H   UNL     1     -42.060  43.058  28.009  1.00  0.00     0.029 H 
BRANCH  51  56
ATOM     56  C   UNL     1     -42.053  43.291  25.433  1.00  0.00    -0.060 C 
ATOM     57  H   UNL     1     -41.832  44.362  25.373  1.00  0.00     0.024 H 
ATOM     58  H   UNL     1     -41.189  42.799  25.896  1.00  0.00     0.024 H 
ATOM     59  H   UNL     1     -42.142  42.912  24.408  1.00  0.00     0.024 H 
ENDBRANCH  51  56
BRANCH  51  60
ATOM     60  C   UNL     1     -44.139  44.347  26.299  1.00  0.00    -0.060 C 
ATOM     61  H   UNL     1     -45.175  44.170  26.608  1.00  0.00     0.024 H 
ATOM     62  H   UNL     1     -44.166  44.844  25.323  1.00  0.00     0.024 H 
ATOM     63  H   UNL     1     -43.691  45.044  27.016  1.00  0.00     0.024 H 
ENDBRANCH  51  60
ENDBRANCH  39  42
ENDBRANCH  36  39
ENDBRANCH   1  25
TORSDOF 10
ENDMDL
MODEL 6
REMARK VINA RESULT:      -9.3      2.510      3.140
REMARK SMILES COc1cnc(C#N)c(-c2cn(Cc3ccc4cc(CN5CCC(C)(C)CC5)[nH]c4c3)nn2)c1
REMARK SMILES IDX 13 1 12 4 10 5 11 6 33 7 32 9 9 10 3 11 4 12 34 13 5 14 6 17
REMARK SMILES IDX 2 18 1 19 7 23 8 24 14 25 15 26 31 27 16 28 30 30 17 32
REMARK SMILES IDX 29 34 18 35 19 36 20 39 21 42 22 43 28 44 23 45 27 48 24 51
REMARK SMILES IDX 25 56 26 60
REMARK H PARENT 13 2 13 3 11 8 4 15 34 16 1 20 1 21 1 22 15 29 31 31 16 33
REMARK H PARENT 29 37 18 38 20 40 20 41 22 46 22 47 28 49 28 50 23 52 23 53
REMARK H PARENT 27 54 27 55 25 57 25 58 25 59 26 61 26 62 26 63
REMARK Flexibility Score: inf
ROOT
ATOM      1  C   UNL     1     -45.756  34.544  26.621  1.00  0.00     0.068 C 
ATOM      2  H   UNL     1     -45.176  35.017  25.821  1.00  0.00     0.057 H 
ATOM      3  H   UNL     1     -45.052  34.044  27.296  1.00  0.00     0.057 H 
ENDROOT
BRANCH   1   4
ATOM      4  N   UNL     1     -46.419  35.615  27.344  1.00  0.00    -0.247 N 
ATOM      5  C   UNL     1     -47.442  37.410  27.960  1.00  0.00     0.116 A 
ATOM      6  C   UNL     1     -46.884  36.804  26.859  1.00  0.00     0.054 A 
ATOM      7  N   UNL     1     -47.283  36.605  29.053  1.00  0.00    -0.130 NA
ATOM      8  H   UNL     1     -46.796  37.083  25.819  1.00  0.00     0.086 H 
ATOM      9  N   UNL     1     -46.655  35.504  28.665  1.00  0.00    -0.066 NA
BRANCH   5  10
ATOM     10  C   UNL     1     -48.129  38.680  27.981  1.00  0.00     0.044 A 
ATOM     11  C   UNL     1     -50.205  39.926  28.151  1.00  0.00     0.137 A 
ATOM     12  C   UNL     1     -49.440  41.082  28.057  1.00  0.00     0.070 A 
ATOM     13  C   UNL     1     -49.530  38.709  28.108  1.00  0.00    -0.006 A 
ATOM     14  N   UNL     1     -48.092  41.102  27.930  1.00  0.00    -0.241 NA
ATOM     15  H   UNL     1     -49.914  42.061  28.082  1.00  0.00     0.088 H 
ATOM     16  H   UNL     1     -50.069  37.769  28.187  1.00  0.00     0.067 H 
ATOM     17  C   UNL     1     -47.455  39.899  27.901  1.00  0.00     0.150 A 
BRANCH  11  18
ATOM     18  O   UNL     1     -51.550  40.105  28.277  1.00  0.00    -0.495 OA
BRANCH  18  19
ATOM     19  C   UNL     1     -51.998  41.404  28.644  1.00  0.00     0.078 C 
ATOM     20  H   UNL     1     -52.500  41.844  27.776  1.00  0.00     0.067 H 
ATOM     21  H   UNL     1     -52.727  41.353  29.461  1.00  0.00     0.067 H 
ATOM     22  H   UNL     1     -51.155  42.053  28.906  1.00  0.00     0.067 H 
ENDBRANCH  18  19
ENDBRANCH  11  18
BRANCH  17  23
ATOM     23  C   UNL     1     -46.029  39.993  27.720  1.00  0.00     0.120 C 
ATOM     24  N   UNL     1     -44.882  40.096  27.557  1.00  0.00    -0.191 NA
ENDBRANCH  17  23
ENDBRANCH   5  10
ENDBRANCH   1   4
BRANCH   1  25
ATOM     25  C   UNL     1     -46.753  33.545  26.078  1.00  0.00    -0.024 A 
ATOM     26  C   UNL     1     -48.105  33.630  26.438  1.00  0.00    -0.056 A 
ATOM     27  C   UNL     1     -46.318  32.519  25.219  1.00  0.00    -0.033 A 
ATOM     28  C   UNL     1     -49.037  32.693  25.974  1.00  0.00    -0.052 A 
ATOM     29  H   UNL     1     -48.454  34.426  27.093  1.00  0.00     0.063 H 
ATOM     30  C   UNL     1     -47.264  31.587  24.777  1.00  0.00     0.046 A 
ATOM     31  H   UNL     1     -45.275  32.438  24.921  1.00  0.00     0.065 H 
ATOM     32  C   UNL     1     -48.607  31.648  25.137  1.00  0.00    -0.000 A 
ATOM     33  H   UNL     1     -50.081  32.769  26.265  1.00  0.00     0.063 H 
ATOM     34  N   UNL     1     -47.112  30.491  23.959  1.00  0.00    -0.357 N 
ATOM     35  C   UNL     1     -49.255  30.544  24.519  1.00  0.00    -0.032 A 
ATOM     36  C   UNL     1     -48.305  29.821  23.823  1.00  0.00     0.030 A 
ATOM     37  H   UNL     1     -46.236  30.201  23.548  1.00  0.00     0.166 HD
ATOM     38  H   UNL     1     -50.304  30.293  24.594  1.00  0.00     0.065 H 
BRANCH  36  39
ATOM     39  C   UNL     1     -48.420  28.569  23.014  1.00  0.00     0.038 C 
ATOM     40  H   UNL     1     -47.824  28.666  22.098  1.00  0.00     0.050 H 
ATOM     41  H   UNL     1     -49.455  28.460  22.666  1.00  0.00     0.050 H 
BRANCH  39  42
ATOM     42  N   UNL     1     -48.020  27.353  23.721  1.00  0.00    -0.298 NA
ATOM     43  C   UNL     1     -46.613  27.307  24.114  1.00  0.00    -0.001 C 
ATOM     44  C   UNL     1     -48.966  26.886  24.737  1.00  0.00    -0.001 C 
ATOM     45  C   UNL     1     -46.324  26.081  24.983  1.00  0.00    -0.035 C 
ATOM     46  H   UNL     1     -45.990  27.258  23.213  1.00  0.00     0.043 H 
ATOM     47  H   UNL     1     -46.310  28.202  24.668  1.00  0.00     0.043 H 
ATOM     48  C   UNL     1     -48.408  26.955  26.159  1.00  0.00    -0.035 C 
ATOM     49  H   UNL     1     -49.921  27.425  24.691  1.00  0.00     0.043 H 
ATOM     50  H   UNL     1     -49.216  25.844  24.505  1.00  0.00     0.043 H 
ATOM     51  C   UNL     1     -47.108  26.128  26.318  1.00  0.00    -0.033 C 
ATOM     52  H   UNL     1     -45.245  26.008  25.170  1.00  0.00     0.029 H 
ATOM     53  H   UNL     1     -46.591  25.180  24.411  1.00  0.00     0.029 H 
ATOM     54  H   UNL     1     -48.222  28.007  26.410  1.00  0.00     0.029 H 
ATOM     55  H   UNL     1     -49.171  26.610  26.869  1.00  0.00     0.029 H 
BRANCH  51  56
ATOM     56  C   UNL     1     -47.442  24.690  26.754  1.00  0.00    -0.060 C 
ATOM     57  H   UNL     1     -47.564  24.030  25.887  1.00  0.00     0.024 H 
ATOM     58  H   UNL     1     -46.648  24.269  27.381  1.00  0.00     0.024 H 
ATOM     59  H   UNL     1     -48.374  24.659  27.330  1.00  0.00     0.024 H 
ENDBRANCH  51  56
BRANCH  51  60
ATOM     60  C   UNL     1     -46.242  26.773  27.417  1.00  0.00    -0.060 C 
ATOM     61  H   UNL     1     -46.858  27.318  28.141  1.00  0.00     0.024 H 
ATOM     62  H   UNL     1     -45.524  27.483  26.992  1.00  0.00     0.024 H 
ATOM     63  H   UNL     1     -45.673  26.014  27.966  1.00  0.00     0.024 H 
ENDBRANCH  51  60
ENDBRANCH  39  42
ENDBRANCH  36  39
ENDBRANCH   1  25
TORSDOF 10
ENDMDL
MODEL 7
REMARK VINA RESULT:      -9.3      2.127      3.027
REMARK SMILES COc1cnc(C#N)c(-c2cn(Cc3ccc4cc(CN5CCC(C)(C)CC5)[nH]c4c3)nn2)c1
REMARK SMILES IDX 13 1 12 4 10 5 11 6 33 7 32 9 9 10 3 11 4 12 34 13 5 14 6 17
REMARK SMILES IDX 2 18 1 19 7 23 8 24 14 25 15 26 31 27 16 28 30 30 17 32
REMARK SMILES IDX 29 34 18 35 19 36 20 39 21 42 22 43 28 44 23 45 27 48 24 51
REMARK SMILES IDX 25 56 26 60
REMARK H PARENT 13 2 13 3 11 8 4 15 34 16 1 20 1 21 1 22 15 29 31 31 16 33
REMARK H PARENT 29 37 18 38 20 40 20 41 22 46 22 47 28 49 28 50 23 52 23 53
REMARK H PARENT 27 54 27 55 25 57 25 58 25 59 26 61 26 62 26 63
REMARK Flexibility Score: inf
ROOT
ATOM      1  C   UNL     1     -45.795  34.563  26.614  1.00  0.00     0.068 C 
ATOM      2  H   UNL     1     -45.193  35.023  25.823  1.00  0.00     0.057 H 
ATOM      3  H   UNL     1     -45.110  34.081  27.321  1.00  0.00     0.057 H 
ENDROOT
BRANCH   1   4
ATOM      4  N   UNL     1     -46.486  35.645  27.294  1.00  0.00    -0.247 N 
ATOM      5  C   UNL     1     -47.572  37.428  27.835  1.00  0.00     0.116 A 
ATOM      6  C   UNL     1     -47.019  36.782  26.754  1.00  0.00     0.054 A 
ATOM      7  N   UNL     1     -47.345  36.698  28.968  1.00  0.00    -0.130 NA
ATOM      8  H   UNL     1     -46.973  37.001  25.697  1.00  0.00     0.086 H 
ATOM      9  N   UNL     1     -46.678  35.604  28.625  1.00  0.00    -0.066 NA
BRANCH   5  10
ATOM     10  C   UNL     1     -48.315  38.665  27.803  1.00  0.00     0.044 A 
ATOM     11  C   UNL     1     -48.358  41.064  27.442  1.00  0.00     0.137 A 
ATOM     12  C   UNL     1     -49.721  41.012  27.706  1.00  0.00     0.070 A 
ATOM     13  C   UNL     1     -47.650  39.867  27.497  1.00  0.00    -0.006 A 
ATOM     14  N   UNL     1     -50.401  39.881  28.007  1.00  0.00    -0.241 NA
ATOM     15  H   UNL     1     -50.323  41.918  27.679  1.00  0.00     0.088 H 
ATOM     16  H   UNL     1     -46.584  39.838  27.292  1.00  0.00     0.067 H 
ATOM     17  C   UNL     1     -49.689  38.722  28.044  1.00  0.00     0.150 A 
BRANCH  11  18
ATOM     18  O   UNL     1     -47.849  42.296  27.154  1.00  0.00    -0.495 OA
BRANCH  18  19
ATOM     19  C   UNL     1     -46.745  42.346  26.258  1.00  0.00     0.078 C 
ATOM     20  H   UNL     1     -46.958  41.669  25.425  1.00  0.00     0.067 H 
ATOM     21  H   UNL     1     -46.618  43.353  25.846  1.00  0.00     0.067 H 
ATOM     22  H   UNL     1     -45.826  41.999  26.744  1.00  0.00     0.067 H 
ENDBRANCH  18  19
ENDBRANCH  11  18
BRANCH  17  23
ATOM     23  C   UNL     1     -50.465  37.566  28.414  1.00  0.00     0.120 C 
ATOM     24  N   UNL     1     -51.065  36.619  28.724  1.00  0.00    -0.191 NA
ENDBRANCH  17  23
ENDBRANCH   5  10
ENDBRANCH   1   4
BRANCH   1  25
ATOM     25  C   UNL     1     -46.770  33.548  26.062  1.00  0.00    -0.024 A 
ATOM     26  C   UNL     1     -48.128  33.617  26.399  1.00  0.00    -0.056 A 
ATOM     27  C   UNL     1     -46.308  32.522  25.216  1.00  0.00    -0.033 A 
ATOM     28  C   UNL     1     -49.041  32.665  25.926  1.00  0.00    -0.052 A 
ATOM     29  H   UNL     1     -48.499  34.413  27.042  1.00  0.00     0.063 H 
ATOM     30  C   UNL     1     -47.234  31.576  24.764  1.00  0.00     0.046 A 
ATOM     31  H   UNL     1     -45.259  32.453  24.936  1.00  0.00     0.065 H 
ATOM     32  C   UNL     1     -48.583  31.621  25.102  1.00  0.00    -0.000 A 
ATOM     33  H   UNL     1     -50.090  32.729  26.199  1.00  0.00     0.063 H 
ATOM     34  N   UNL     1     -47.054  30.477  23.957  1.00  0.00    -0.357 N 
ATOM     35  C   UNL     1     -49.207  30.505  24.481  1.00  0.00    -0.032 A 
ATOM     36  C   UNL     1     -48.236  29.790  23.805  1.00  0.00     0.030 A 
ATOM     37  H   UNL     1     -46.168  30.196  23.561  1.00  0.00     0.166 HD
ATOM     38  H   UNL     1     -50.254  30.241  24.540  1.00  0.00     0.065 H 
BRANCH  36  39
ATOM     39  C   UNL     1     -48.322  28.532  23.003  1.00  0.00     0.038 C 
ATOM     40  H   UNL     1     -47.697  28.625  22.104  1.00  0.00     0.050 H 
ATOM     41  H   UNL     1     -49.345  28.417  22.623  1.00  0.00     0.050 H 
BRANCH  39  42
ATOM     42  N   UNL     1     -47.940  27.323  23.731  1.00  0.00    -0.298 NA
ATOM     43  C   UNL     1     -46.539  27.271  24.142  1.00  0.00    -0.001 C 
ATOM     44  C   UNL     1     -48.902  26.877  24.741  1.00  0.00    -0.001 C 
ATOM     45  C   UNL     1     -46.270  26.055  25.031  1.00  0.00    -0.035 C 
ATOM     46  H   UNL     1     -45.905  27.205  23.250  1.00  0.00     0.043 H 
ATOM     47  H   UNL     1     -46.236  28.171  24.687  1.00  0.00     0.043 H 
ATOM     48  C   UNL     1     -48.361  26.960  26.169  1.00  0.00    -0.035 C 
ATOM     49  H   UNL     1     -49.852  27.422  24.675  1.00  0.00     0.043 H 
ATOM     50  H   UNL     1     -49.157  25.833  24.520  1.00  0.00     0.043 H 
ATOM     51  C   UNL     1     -47.070  26.126  26.355  1.00  0.00    -0.033 C 
ATOM     52  H   UNL     1     -45.194  25.976  25.232  1.00  0.00     0.029 H 
ATOM     53  H   UNL     1     -46.537  25.149  24.468  1.00  0.00     0.029 H 
ATOM     54  H   UNL     1     -48.170  28.015  26.407  1.00  0.00     0.029 H 
ATOM     55  H   UNL     1     -49.136  26.632  26.874  1.00  0.00     0.029 H 
BRANCH  51  56
ATOM     56  C   UNL     1     -47.420  24.697  26.806  1.00  0.00    -0.060 C 
ATOM     57  H   UNL     1     -48.136  24.706  27.636  1.00  0.00     0.024 H 
ATOM     58  H   UNL     1     -47.868  24.119  25.989  1.00  0.00     0.024 H 
ATOM     59  H   UNL     1     -46.527  24.159  27.144  1.00  0.00     0.024 H 
ENDBRANCH  51  56
BRANCH  51  60
ATOM     60  C   UNL     1     -46.212  26.779  27.456  1.00  0.00    -0.060 C 
ATOM     61  H   UNL     1     -45.224  27.062  27.075  1.00  0.00     0.024 H 
ATOM     62  H   UNL     1     -46.059  26.096  28.298  1.00  0.00     0.024 H 
ATOM     63  H   UNL     1     -46.692  27.684  27.844  1.00  0.00     0.024 H 
ENDBRANCH  51  60
ENDBRANCH  39  42
ENDBRANCH  36  39
ENDBRANCH   1  25
TORSDOF 10
ENDMDL
