MODEL 1
REMARK VINA RESULT:     -11.4      0.000      0.000
REMARK SMILES O=C(NCc1ccc2cc(CNC[C@]34C[C@](F)(C3)C4)[nH]c2c1)c1cc(=O)n2ccccc2n1
REMARK SMILES IDX 5 1 6 2 7 3 8 4 9 5 10 6 20 7 21 8 22 9 4 15 3 18 1 19 2 20
REMARK SMILES IDX 23 22 24 23 33 24 25 25 32 27 26 28 27 29 31 30 28 31 30 32
REMARK SMILES IDX 29 34 11 38 12 41 13 43 14 46 18 47 15 48 19 49 16 50 17 57
REMARK H PARENT 6 10 7 11 9 12 20 13 22 14 4 16 4 17 3 21 24 26 31 33 28 35
REMARK H PARENT 30 36 29 37 11 39 11 40 12 42 13 44 13 45 18 51 18 52 15 53
REMARK H PARENT 15 54 19 55 19 56
REMARK Flexibility Score: inf
ROOT
ATOM      1  C   UNL     1     -47.908  35.054  26.857  1.00  0.00    -0.027 A 
ATOM      2  C   UNL     1     -46.574  35.089  26.431  1.00  0.00    -0.057 A 
ATOM      3  C   UNL     1     -46.046  34.082  25.612  1.00  0.00    -0.052 A 
ATOM      4  C   UNL     1     -46.875  33.021  25.207  1.00  0.00    -0.000 A 
ATOM      5  C   UNL     1     -46.680  31.865  24.403  1.00  0.00    -0.032 A 
ATOM      6  C   UNL     1     -47.875  31.175  24.343  1.00  0.00     0.030 A 
ATOM      7  N   UNL     1     -48.782  31.875  25.102  1.00  0.00    -0.357 N 
ATOM      8  C   UNL     1     -48.202  33.005  25.632  1.00  0.00     0.046 A 
ATOM      9  C   UNL     1     -48.748  34.003  26.450  1.00  0.00    -0.033 A 
ATOM     10  H   UNL     1     -45.928  35.913  26.735  1.00  0.00     0.063 H 
ATOM     11  H   UNL     1     -45.009  34.126  25.294  1.00  0.00     0.063 H 
ATOM     12  H   UNL     1     -45.758  31.572  23.916  1.00  0.00     0.065 H 
ATOM     13  H   UNL     1     -49.743  31.602  25.253  1.00  0.00     0.166 HD
ATOM     14  H   UNL     1     -49.787  33.962  26.761  1.00  0.00     0.065 H 
ENDROOT
BRANCH   1  15
ATOM     15  C   UNL     1     -48.447  36.167  27.721  1.00  0.00     0.043 C 
ATOM     16  H   UNL     1     -48.652  35.796  28.731  1.00  0.00     0.054 H 
ATOM     17  H   UNL     1     -49.393  36.542  27.314  1.00  0.00     0.054 H 
BRANCH  15  18
ATOM     18  N   UNL     1     -47.529  37.276  27.760  1.00  0.00    -0.347 N 
ATOM     19  O   UNL     1     -46.543  36.749  29.771  1.00  0.00    -0.268 OA
ATOM     20  C   UNL     1     -46.599  37.436  28.758  1.00  0.00     0.270 C 
ATOM     21  H   UNL     1     -47.391  37.840  26.928  1.00  0.00     0.164 HD
BRANCH  20  22
ATOM     22  C   UNL     1     -45.629  38.555  28.464  1.00  0.00     0.136 A 
ATOM     23  C   UNL     1     -45.874  39.279  27.368  1.00  0.00     0.035 A 
ATOM     24  N   UNL     1     -44.574  38.763  29.324  1.00  0.00    -0.225 NA
ATOM     25  C   UNL     1     -44.960  40.381  27.045  1.00  0.00     0.258 A 
ATOM     26  H   UNL     1     -46.707  39.106  26.701  1.00  0.00     0.071 H 
ATOM     27  C   UNL     1     -43.771  39.741  29.035  1.00  0.00     0.140 A 
ATOM     28  O   UNL     1     -45.176  41.051  26.036  1.00  0.00    -0.269 OA
ATOM     29  N   UNL     1     -43.907  40.572  27.928  1.00  0.00    -0.268 N 
ATOM     30  C   UNL     1     -42.616  40.005  29.939  1.00  0.00    -0.019 A 
ATOM     31  C   UNL     1     -43.001  41.599  27.689  1.00  0.00     0.014 A 
ATOM     32  C   UNL     1     -41.769  41.006  29.667  1.00  0.00    -0.057 A 
ATOM     33  H   UNL     1     -42.501  39.365  30.804  1.00  0.00     0.066 H 
ATOM     34  C   UNL     1     -41.965  41.831  28.505  1.00  0.00    -0.045 A 
ATOM     35  H   UNL     1     -43.169  42.209  26.806  1.00  0.00     0.082 H 
ATOM     36  H   UNL     1     -40.923  41.216  30.313  1.00  0.00     0.062 H 
ATOM     37  H   UNL     1     -41.264  42.635  28.308  1.00  0.00     0.064 H 
ENDBRANCH  20  22
ENDBRANCH  15  18
ENDBRANCH   1  15
BRANCH   6  38
ATOM     38  C   UNL     1     -48.240  29.906  23.652  1.00  0.00     0.036 C 
ATOM     39  H   UNL     1     -49.320  29.859  23.485  1.00  0.00     0.049 H 
ATOM     40  H   UNL     1     -47.782  29.899  22.656  1.00  0.00     0.049 H 
BRANCH  38  41
ATOM     41  N   UNL     1     -47.742  28.743  24.385  1.00  0.00    -0.311 NA
ATOM     42  H   UNL     1     -47.006  29.057  25.017  1.00  0.00     0.123 HD
BRANCH  41  43
ATOM     43  C   UNL     1     -48.771  28.065  25.172  1.00  0.00     0.002 C 
ATOM     44  H   UNL     1     -49.057  28.739  25.988  1.00  0.00     0.043 H 
ATOM     45  H   UNL     1     -49.686  27.893  24.595  1.00  0.00     0.043 H 
BRANCH  43  46
ATOM     46  C   UNL     1     -48.258  26.802  25.762  1.00  0.00    -0.008 C 
ATOM     47  C   UNL     1     -48.932  25.388  26.025  1.00  0.00    -0.012 C 
ATOM     48  C   UNL     1     -47.692  26.622  27.234  1.00  0.00    -0.012 C 
ATOM     49  C   UNL     1     -46.990  25.944  25.345  1.00  0.00    -0.012 C 
ATOM     50  C   UNL     1     -47.509  25.217  26.611  1.00  0.00     0.112 C 
ATOM     51  H   UNL     1     -49.770  25.364  26.729  1.00  0.00     0.031 H 
ATOM     52  H   UNL     1     -49.180  24.783  25.147  1.00  0.00     0.031 H 
ATOM     53  H   UNL     1     -48.411  26.716  28.054  1.00  0.00     0.031 H 
ATOM     54  H   UNL     1     -46.783  27.178  27.486  1.00  0.00     0.031 H 
ATOM     55  H   UNL     1     -47.052  25.400  24.397  1.00  0.00     0.031 H 
ATOM     56  H   UNL     1     -46.014  26.435  25.417  1.00  0.00     0.031 H 
ATOM     57  F   UNL     1     -47.000  24.142  27.189  1.00  0.00    -0.244 F 
ENDBRANCH  43  46
ENDBRANCH  41  43
ENDBRANCH  38  41
ENDBRANCH   6  38
TORSDOF 7
ENDMDL
MODEL 2
REMARK VINA RESULT:     -10.7      1.340      1.941
REMARK SMILES O=C(NCc1ccc2cc(CNC[C@]34C[C@](F)(C3)C4)[nH]c2c1)c1cc(=O)n2ccccc2n1
REMARK SMILES IDX 5 1 6 2 7 3 8 4 9 5 10 6 20 7 21 8 22 9 4 15 3 18 1 19 2 20
REMARK SMILES IDX 23 22 24 23 33 24 25 25 32 27 26 28 27 29 31 30 28 31 30 32
REMARK SMILES IDX 29 34 11 38 12 41 13 43 14 46 18 47 15 48 19 49 16 50 17 57
REMARK H PARENT 6 10 7 11 9 12 20 13 22 14 4 16 4 17 3 21 24 26 31 33 28 35
REMARK H PARENT 30 36 29 37 11 39 11 40 12 42 13 44 13 45 18 51 18 52 15 53
REMARK H PARENT 15 54 19 55 19 56
REMARK Flexibility Score: inf
ROOT
ATOM      1  C   UNL     1     -47.869  34.232  26.341  1.00  0.00    -0.027 A 
ATOM      2  C   UNL     1     -46.526  34.183  25.946  1.00  0.00    -0.057 A 
ATOM      3  C   UNL     1     -46.056  33.173  25.097  1.00  0.00    -0.052 A 
ATOM      4  C   UNL     1     -46.952  32.195  24.629  1.00  0.00    -0.000 A 
ATOM      5  C   UNL     1     -46.824  31.061  23.781  1.00  0.00    -0.032 A 
ATOM      6  C   UNL     1     -48.066  30.467  23.666  1.00  0.00     0.030 A 
ATOM      7  N   UNL     1     -48.936  31.202  24.435  1.00  0.00    -0.357 N 
ATOM      8  C   UNL     1     -48.286  32.263  25.024  1.00  0.00     0.046 A 
ATOM      9  C   UNL     1     -48.775  33.265  25.872  1.00  0.00    -0.033 A 
ATOM     10  H   UNL     1     -45.828  34.942  26.298  1.00  0.00     0.063 H 
ATOM     11  H   UNL     1     -45.011  33.150  24.803  1.00  0.00     0.063 H 
ATOM     12  H   UNL     1     -45.916  30.719  23.302  1.00  0.00     0.065 H 
ATOM     13  H   UNL     1     -49.919  30.998  24.554  1.00  0.00     0.166 HD
ATOM     14  H   UNL     1     -49.822  33.291  26.159  1.00  0.00     0.065 H 
ENDROOT
BRANCH   1  15
ATOM     15  C   UNL     1     -48.344  35.347  27.241  1.00  0.00     0.043 C 
ATOM     16  H   UNL     1     -48.612  34.950  28.226  1.00  0.00     0.054 H 
ATOM     17  H   UNL     1     -49.242  35.817  26.824  1.00  0.00     0.054 H 
BRANCH  15  18
ATOM     18  N   UNL     1     -47.340  36.373  27.358  1.00  0.00    -0.347 N 
ATOM     19  O   UNL     1     -48.764  38.088  27.929  1.00  0.00    -0.268 OA
ATOM     20  C   UNL     1     -47.631  37.653  27.764  1.00  0.00     0.270 C 
ATOM     21  H   UNL     1     -46.360  36.113  27.370  1.00  0.00     0.164 HD
BRANCH  20  22
ATOM     22  C   UNL     1     -46.386  38.475  28.002  1.00  0.00     0.136 A 
ATOM     23  C   UNL     1     -45.698  38.199  29.113  1.00  0.00     0.035 A 
ATOM     24  N   UNL     1     -46.038  39.435  27.079  1.00  0.00    -0.225 NA
ATOM     25  C   UNL     1     -44.478  38.969  29.383  1.00  0.00     0.258 A 
ATOM     26  H   UNL     1     -45.981  37.441  29.830  1.00  0.00     0.071 H 
ATOM     27  C   UNL     1     -44.957  40.111  27.321  1.00  0.00     0.140 A 
ATOM     28  O   UNL     1     -43.838  38.725  30.405  1.00  0.00    -0.269 OA
ATOM     29  N   UNL     1     -44.147  39.929  28.437  1.00  0.00    -0.268 N 
ATOM     30  C   UNL     1     -44.539  41.160  26.348  1.00  0.00    -0.019 A 
ATOM     31  C   UNL     1     -43.003  40.697  28.623  1.00  0.00     0.014 A 
ATOM     32  C   UNL     1     -43.429  41.874  26.570  1.00  0.00    -0.057 A 
ATOM     33  H   UNL     1     -45.162  41.309  25.476  1.00  0.00     0.066 H 
ATOM     34  C   UNL     1     -42.634  41.638  27.745  1.00  0.00    -0.045 A 
ATOM     35  H   UNL     1     -42.417  40.501  29.517  1.00  0.00     0.082 H 
ATOM     36  H   UNL     1     -43.108  42.641  25.874  1.00  0.00     0.062 H 
ATOM     37  H   UNL     1     -41.739  42.231  27.901  1.00  0.00     0.064 H 
ENDBRANCH  20  22
ENDBRANCH  15  18
ENDBRANCH   1  15
BRANCH   6  38
ATOM     38  C   UNL     1     -48.508  29.259  22.915  1.00  0.00     0.036 C 
ATOM     39  H   UNL     1     -49.588  29.292  22.740  1.00  0.00     0.049 H 
ATOM     40  H   UNL     1     -48.042  29.267  21.922  1.00  0.00     0.049 H 
BRANCH  38  41
ATOM     41  N   UNL     1     -48.095  28.032  23.596  1.00  0.00    -0.311 NA
ATOM     42  H   UNL     1     -47.091  28.087  23.766  1.00  0.00     0.123 HD
BRANCH  41  43
ATOM     43  C   UNL     1     -48.773  27.818  24.873  1.00  0.00     0.002 C 
ATOM     44  H   UNL     1     -48.681  28.744  25.453  1.00  0.00     0.043 H 
ATOM     45  H   UNL     1     -49.848  27.652  24.748  1.00  0.00     0.043 H 
BRANCH  43  46
ATOM     46  C   UNL     1     -48.141  26.715  25.644  1.00  0.00    -0.008 C 
ATOM     47  C   UNL     1     -46.898  25.773  25.345  1.00  0.00    -0.012 C 
ATOM     48  C   UNL     1     -48.847  25.368  26.094  1.00  0.00    -0.012 C 
ATOM     49  C   UNL     1     -47.578  26.725  27.127  1.00  0.00    -0.012 C 
ATOM     50  C   UNL     1     -47.429  25.243  26.700  1.00  0.00     0.112 C 
ATOM     51  H   UNL     1     -46.982  25.106  24.481  1.00  0.00     0.031 H 
ATOM     52  H   UNL     1     -45.907  26.237  25.351  1.00  0.00     0.031 H 
ATOM     53  H   UNL     1     -49.116  24.662  25.301  1.00  0.00     0.031 H 
ATOM     54  H   UNL     1     -49.683  25.457  26.796  1.00  0.00     0.031 H 
ATOM     55  H   UNL     1     -46.656  27.289  27.301  1.00  0.00     0.031 H 
ATOM     56  H   UNL     1     -48.293  26.944  27.927  1.00  0.00     0.031 H 
ATOM     57  F   UNL     1     -46.947  24.242  27.418  1.00  0.00    -0.244 F 
ENDBRANCH  43  46
ENDBRANCH  41  43
ENDBRANCH  38  41
ENDBRANCH   6  38
TORSDOF 7
ENDMDL
MODEL 3
REMARK VINA RESULT:     -10.6      1.514      2.269
REMARK SMILES O=C(NCc1ccc2cc(CNC[C@]34C[C@](F)(C3)C4)[nH]c2c1)c1cc(=O)n2ccccc2n1
REMARK SMILES IDX 5 1 6 2 7 3 8 4 9 5 10 6 20 7 21 8 22 9 4 15 3 18 1 19 2 20
REMARK SMILES IDX 23 22 24 23 33 24 25 25 32 27 26 28 27 29 31 30 28 31 30 32
REMARK SMILES IDX 29 34 11 38 12 41 13 43 14 46 18 47 15 48 19 49 16 50 17 57
REMARK H PARENT 6 10 7 11 9 12 20 13 22 14 4 16 4 17 3 21 24 26 31 33 28 35
REMARK H PARENT 30 36 29 37 11 39 11 40 12 42 13 44 13 45 18 51 18 52 15 53
REMARK H PARENT 15 54 19 55 19 56
REMARK Flexibility Score: inf
ROOT
ATOM      1  C   UNL     1     -46.335  35.482  27.713  1.00  0.00    -0.027 A 
ATOM      2  C   UNL     1     -47.687  35.797  27.526  1.00  0.00    -0.057 A 
ATOM      3  C   UNL     1     -48.540  34.944  26.813  1.00  0.00    -0.052 A 
ATOM      4  C   UNL     1     -48.028  33.746  26.282  1.00  0.00    -0.000 A 
ATOM      5  C   UNL     1     -48.588  32.679  25.529  1.00  0.00    -0.032 A 
ATOM      6  C   UNL     1     -47.594  31.749  25.293  1.00  0.00     0.030 A 
ATOM      7  N   UNL     1     -46.444  32.235  25.870  1.00  0.00    -0.357 N 
ATOM      8  C   UNL     1     -46.683  33.443  26.484  1.00  0.00     0.046 A 
ATOM      9  C   UNL     1     -45.815  34.283  27.194  1.00  0.00    -0.033 A 
ATOM     10  H   UNL     1     -48.093  36.719  27.941  1.00  0.00     0.063 H 
ATOM     11  H   UNL     1     -49.584  35.206  26.677  1.00  0.00     0.063 H 
ATOM     12  H   UNL     1     -49.616  32.600  25.198  1.00  0.00     0.065 H 
ATOM     13  H   UNL     1     -45.546  31.772  25.849  1.00  0.00     0.166 HD
ATOM     14  H   UNL     1     -44.773  34.016  27.337  1.00  0.00     0.065 H 
ENDROOT
BRANCH   1  15
ATOM     15  C   UNL     1     -45.452  36.415  28.504  1.00  0.00     0.043 C 
ATOM     16  H   UNL     1     -44.480  35.946  28.694  1.00  0.00     0.054 H 
ATOM     17  H   UNL     1     -45.903  36.634  29.478  1.00  0.00     0.054 H 
BRANCH  15  18
ATOM     18  N   UNL     1     -45.288  37.671  27.817  1.00  0.00    -0.347 N 
ATOM     19  O   UNL     1     -46.835  38.858  29.038  1.00  0.00    -0.268 OA
ATOM     20  C   UNL     1     -45.950  38.814  28.192  1.00  0.00     0.270 C 
ATOM     21  H   UNL     1     -44.503  37.796  27.186  1.00  0.00     0.164 HD
BRANCH  20  22
ATOM     22  C   UNL     1     -45.455  40.032  27.449  1.00  0.00     0.136 A 
ATOM     23  C   UNL     1     -46.383  40.766  26.828  1.00  0.00     0.035 A 
ATOM     24  N   UNL     1     -44.108  40.313  27.458  1.00  0.00    -0.225 NA
ATOM     25  C   UNL     1     -45.949  41.962  26.098  1.00  0.00     0.258 A 
ATOM     26  H   UNL     1     -47.440  40.535  26.830  1.00  0.00     0.071 H 
ATOM     27  C   UNL     1     -43.729  41.374  26.813  1.00  0.00     0.140 A 
ATOM     28  O   UNL     1     -46.795  42.643  25.520  1.00  0.00    -0.269 OA
ATOM     29  N   UNL     1     -44.587  42.225  26.124  1.00  0.00    -0.268 N 
ATOM     30  C   UNL     1     -42.279  41.719  26.796  1.00  0.00    -0.019 A 
ATOM     31  C   UNL     1     -44.100  43.343  25.456  1.00  0.00     0.014 A 
ATOM     32  C   UNL     1     -41.858  42.807  26.140  1.00  0.00    -0.057 A 
ATOM     33  H   UNL     1     -41.603  41.064  27.331  1.00  0.00     0.066 H 
ATOM     34  C   UNL     1     -42.796  43.647  25.446  1.00  0.00    -0.045 A 
ATOM     35  H   UNL     1     -44.827  43.964  24.939  1.00  0.00     0.082 H 
ATOM     36  H   UNL     1     -40.807  43.076  26.117  1.00  0.00     0.062 H 
ATOM     37  H   UNL     1     -42.428  44.523  24.921  1.00  0.00     0.064 H 
ENDBRANCH  20  22
ENDBRANCH  15  18
ENDBRANCH   1  15
BRANCH   6  38
ATOM     38  C   UNL     1     -47.618  30.454  24.559  1.00  0.00     0.036 C 
ATOM     39  H   UNL     1     -48.096  30.576  23.582  1.00  0.00     0.049 H 
ATOM     40  H   UNL     1     -46.587  30.144  24.351  1.00  0.00     0.049 H 
BRANCH  38  41
ATOM     41  N   UNL     1     -48.251  29.405  25.358  1.00  0.00    -0.311 NA
ATOM     42  H   UNL     1     -49.190  29.717  25.605  1.00  0.00     0.123 HD
BRANCH  41  43
ATOM     43  C   UNL     1     -48.355  28.123  24.661  1.00  0.00     0.002 C 
ATOM     44  H   UNL     1     -49.403  27.997  24.363  1.00  0.00     0.043 H 
ATOM     45  H   UNL     1     -47.778  28.111  23.730  1.00  0.00     0.043 H 
BRANCH  43  46
ATOM     46  C   UNL     1     -47.978  26.992  25.547  1.00  0.00    -0.008 C 
ATOM     47  C   UNL     1     -47.675  26.904  27.104  1.00  0.00    -0.012 C 
ATOM     48  C   UNL     1     -46.680  26.091  25.409  1.00  0.00    -0.012 C 
ATOM     49  C   UNL     1     -48.717  25.607  25.773  1.00  0.00    -0.012 C 
ATOM     50  C   UNL     1     -47.423  25.458  26.610  1.00  0.00     0.112 C 
ATOM     51  H   UNL     1     -46.809  27.465  27.470  1.00  0.00     0.031 H 
ATOM     52  H   UNL     1     -48.518  27.052  27.786  1.00  0.00     0.031 H 
ATOM     53  H   UNL     1     -45.719  26.574  25.614  1.00  0.00     0.031 H 
ATOM     54  H   UNL     1     -46.592  25.485  24.501  1.00  0.00     0.031 H 
ATOM     55  H   UNL     1     -49.665  25.636  26.320  1.00  0.00     0.031 H 
ATOM     56  H   UNL     1     -48.825  24.955  24.899  1.00  0.00     0.031 H 
ATOM     57  F   UNL     1     -47.044  24.415  27.330  1.00  0.00    -0.244 F 
ENDBRANCH  43  46
ENDBRANCH  41  43
ENDBRANCH  38  41
ENDBRANCH   6  38
TORSDOF 7
ENDMDL
MODEL 4
REMARK VINA RESULT:     -10.6      1.998      3.107
REMARK SMILES O=C(NCc1ccc2cc(CNC[C@]34C[C@](F)(C3)C4)[nH]c2c1)c1cc(=O)n2ccccc2n1
REMARK SMILES IDX 5 1 6 2 7 3 8 4 9 5 10 6 20 7 21 8 22 9 4 15 3 18 1 19 2 20
REMARK SMILES IDX 23 22 24 23 33 24 25 25 32 27 26 28 27 29 31 30 28 31 30 32
REMARK SMILES IDX 29 34 11 38 12 41 13 43 14 46 18 47 15 48 19 49 16 50 17 57
REMARK H PARENT 6 10 7 11 9 12 20 13 22 14 4 16 4 17 3 21 24 26 31 33 28 35
REMARK H PARENT 30 36 29 37 11 39 11 40 12 42 13 44 13 45 18 51 18 52 15 53
REMARK H PARENT 15 54 19 55 19 56
REMARK Flexibility Score: inf
ROOT
ATOM      1  C   UNL     1     -46.309  36.270  28.218  1.00  0.00    -0.027 A 
ATOM      2  C   UNL     1     -47.681  36.447  27.995  1.00  0.00    -0.057 A 
ATOM      3  C   UNL     1     -48.401  35.574  27.170  1.00  0.00    -0.052 A 
ATOM      4  C   UNL     1     -47.733  34.497  26.560  1.00  0.00    -0.000 A 
ATOM      5  C   UNL     1     -48.137  33.448  25.689  1.00  0.00    -0.032 A 
ATOM      6  C   UNL     1     -47.033  32.662  25.421  1.00  0.00     0.030 A 
ATOM      7  N   UNL     1     -45.970  33.218  26.093  1.00  0.00    -0.357 N 
ATOM      8  C   UNL     1     -46.370  34.329  26.799  1.00  0.00     0.046 A 
ATOM      9  C   UNL     1     -45.634  35.191  27.622  1.00  0.00    -0.033 A 
ATOM     10  H   UNL     1     -48.206  37.276  28.470  1.00  0.00     0.063 H 
ATOM     11  H   UNL     1     -49.463  35.729  27.007  1.00  0.00     0.063 H 
ATOM     12  H   UNL     1     -49.135  33.285  25.303  1.00  0.00     0.065 H 
ATOM     13  H   UNL     1     -45.025  32.863  26.075  1.00  0.00     0.166 HD
ATOM     14  H   UNL     1     -44.574  35.030  27.790  1.00  0.00     0.065 H 
ENDROOT
BRANCH   1  15
ATOM     15  C   UNL     1     -45.571  37.219  29.130  1.00  0.00     0.043 C 
ATOM     16  H   UNL     1     -44.845  36.670  29.740  1.00  0.00     0.054 H 
ATOM     17  H   UNL     1     -46.269  37.709  29.818  1.00  0.00     0.054 H 
BRANCH  15  18
ATOM     18  N   UNL     1     -44.920  38.256  28.372  1.00  0.00    -0.347 N 
ATOM     19  O   UNL     1     -46.648  39.774  28.438  1.00  0.00    -0.268 OA
ATOM     20  C   UNL     1     -45.494  39.484  28.147  1.00  0.00     0.270 C 
ATOM     21  H   UNL     1     -43.925  38.188  28.184  1.00  0.00     0.164 HD
BRANCH  20  22
ATOM     22  C   UNL     1     -44.532  40.457  27.507  1.00  0.00     0.136 A 
ATOM     23  C   UNL     1     -43.394  40.687  28.167  1.00  0.00     0.035 A 
ATOM     24  N   UNL     1     -44.874  41.034  26.305  1.00  0.00    -0.225 NA
ATOM     25  C   UNL     1     -42.428  41.621  27.580  1.00  0.00     0.258 A 
ATOM     26  H   UNL     1     -43.137  40.226  29.111  1.00  0.00     0.071 H 
ATOM     27  C   UNL     1     -44.014  41.857  25.788  1.00  0.00     0.140 A 
ATOM     28  O   UNL     1     -41.378  41.843  28.182  1.00  0.00    -0.269 OA
ATOM     29  N   UNL     1     -42.794  42.188  26.367  1.00  0.00    -0.268 N 
ATOM     30  C   UNL     1     -44.340  42.505  24.486  1.00  0.00    -0.019 A 
ATOM     31  C   UNL     1     -41.928  43.082  25.748  1.00  0.00     0.014 A 
ATOM     32  C   UNL     1     -43.474  43.359  23.928  1.00  0.00    -0.057 A 
ATOM     33  H   UNL     1     -45.287  42.253  24.026  1.00  0.00     0.066 H 
ATOM     34  C   UNL     1     -42.227  43.660  24.578  1.00  0.00    -0.045 A 
ATOM     35  H   UNL     1     -40.991  43.294  26.257  1.00  0.00     0.082 H 
ATOM     36  H   UNL     1     -43.692  43.840  22.980  1.00  0.00     0.062 H 
ATOM     37  H   UNL     1     -41.543  44.356  24.104  1.00  0.00     0.064 H 
ENDBRANCH  20  22
ENDBRANCH  15  18
ENDBRANCH   1  15
BRANCH   6  38
ATOM     38  C   UNL     1     -46.879  31.446  24.574  1.00  0.00     0.036 C 
ATOM     39  H   UNL     1     -47.001  31.698  23.517  1.00  0.00     0.049 H 
ATOM     40  H   UNL     1     -45.854  31.070  24.677  1.00  0.00     0.049 H 
BRANCH  38  41
ATOM     41  N   UNL     1     -47.792  30.386  25.001  1.00  0.00    -0.311 NA
ATOM     42  H   UNL     1     -48.723  30.789  25.099  1.00  0.00     0.123 HD
BRANCH  41  43
ATOM     43  C   UNL     1     -47.866  29.268  24.061  1.00  0.00     0.002 C 
ATOM     44  H   UNL     1     -48.668  29.493  23.347  1.00  0.00     0.043 H 
ATOM     45  H   UNL     1     -46.954  29.169  23.463  1.00  0.00     0.043 H 
BRANCH  43  46
ATOM     46  C   UNL     1     -48.198  27.997  24.756  1.00  0.00    -0.008 C 
ATOM     47  C   UNL     1     -49.312  26.894  24.502  1.00  0.00    -0.012 C 
ATOM     48  C   UNL     1     -48.631  27.849  26.275  1.00  0.00    -0.012 C 
ATOM     49  C   UNL     1     -47.263  26.754  25.071  1.00  0.00    -0.012 C 
ATOM     50  C   UNL     1     -48.593  26.385  25.775  1.00  0.00     0.112 C 
ATOM     51  H   UNL     1     -50.354  27.212  24.609  1.00  0.00     0.031 H 
ATOM     52  H   UNL     1     -49.212  26.282  23.600  1.00  0.00     0.031 H 
ATOM     53  H   UNL     1     -49.608  28.258  26.552  1.00  0.00     0.031 H 
ATOM     54  H   UNL     1     -47.892  28.138  27.031  1.00  0.00     0.031 H 
ATOM     55  H   UNL     1     -46.961  26.135  24.220  1.00  0.00     0.031 H 
ATOM     56  H   UNL     1     -46.394  26.938  25.711  1.00  0.00     0.031 H 
ATOM     57  F   UNL     1     -48.861  25.292  26.470  1.00  0.00    -0.244 F 
ENDBRANCH  43  46
ENDBRANCH  41  43
ENDBRANCH  38  41
ENDBRANCH   6  38
TORSDOF 7
ENDMDL
MODEL 5
REMARK VINA RESULT:     -10.4      2.567      3.349
REMARK SMILES O=C(NCc1ccc2cc(CNC[C@]34C[C@](F)(C3)C4)[nH]c2c1)c1cc(=O)n2ccccc2n1
REMARK SMILES IDX 5 1 6 2 7 3 8 4 9 5 10 6 20 7 21 8 22 9 4 15 3 18 1 19 2 20
REMARK SMILES IDX 23 22 24 23 33 24 25 25 32 27 26 28 27 29 31 30 28 31 30 32
REMARK SMILES IDX 29 34 11 38 12 41 13 43 14 46 18 47 15 48 19 49 16 50 17 57
REMARK H PARENT 6 10 7 11 9 12 20 13 22 14 4 16 4 17 3 21 24 26 31 33 28 35
REMARK H PARENT 30 36 29 37 11 39 11 40 12 42 13 44 13 45 18 51 18 52 15 53
REMARK H PARENT 15 54 19 55 19 56
REMARK Flexibility Score: inf
ROOT
ATOM      1  C   UNL     1     -48.135  35.588  26.873  1.00  0.00    -0.027 A 
ATOM      2  C   UNL     1     -46.909  35.557  26.198  1.00  0.00    -0.057 A 
ATOM      3  C   UNL     1     -46.458  34.392  25.564  1.00  0.00    -0.052 A 
ATOM      4  C   UNL     1     -47.256  33.235  25.604  1.00  0.00    -0.000 A 
ATOM      5  C   UNL     1     -47.116  31.918  25.086  1.00  0.00    -0.032 A 
ATOM      6  C   UNL     1     -48.241  31.196  25.433  1.00  0.00     0.030 A 
ATOM      7  N   UNL     1     -49.050  32.037  26.161  1.00  0.00    -0.357 N 
ATOM      8  C   UNL     1     -48.478  33.284  26.272  1.00  0.00     0.046 A 
ATOM      9  C   UNL     1     -48.946  34.440  26.910  1.00  0.00    -0.033 A 
ATOM     10  H   UNL     1     -46.289  36.452  26.157  1.00  0.00     0.063 H 
ATOM     11  H   UNL     1     -45.503  34.387  25.047  1.00  0.00     0.063 H 
ATOM     12  H   UNL     1     -46.278  31.541  24.514  1.00  0.00     0.065 H 
ATOM     13  H   UNL     1     -49.941  31.781  26.561  1.00  0.00     0.166 HD
ATOM     14  H   UNL     1     -49.904  34.446  27.420  1.00  0.00     0.065 H 
ENDROOT
BRANCH   1  15
ATOM     15  C   UNL     1     -48.598  36.867  27.527  1.00  0.00     0.043 C 
ATOM     16  H   UNL     1     -48.953  36.666  28.544  1.00  0.00     0.054 H 
ATOM     17  H   UNL     1     -49.438  37.298  26.969  1.00  0.00     0.054 H 
BRANCH  15  18
ATOM     18  N   UNL     1     -47.543  37.848  27.538  1.00  0.00    -0.347 N 
ATOM     19  O   UNL     1     -46.640  37.261  29.571  1.00  0.00    -0.268 OA
ATOM     20  C   UNL     1     -46.603  37.916  28.536  1.00  0.00     0.270 C 
ATOM     21  H   UNL     1     -47.331  38.362  26.689  1.00  0.00     0.164 HD
BRANCH  20  22
ATOM     22  C   UNL     1     -45.494  38.890  28.214  1.00  0.00     0.136 A 
ATOM     23  C   UNL     1     -45.541  39.463  27.008  1.00  0.00     0.035 A 
ATOM     24  N   UNL     1     -44.524  39.129  29.161  1.00  0.00    -0.225 NA
ATOM     25  C   UNL     1     -44.487  40.420  26.653  1.00  0.00     0.258 A 
ATOM     26  H   UNL     1     -46.310  39.267  26.273  1.00  0.00     0.071 H 
ATOM     27  C   UNL     1     -43.596  39.978  28.843  1.00  0.00     0.140 A 
ATOM     28  O   UNL     1     -44.519  40.950  25.543  1.00  0.00    -0.269 OA
ATOM     29  N   UNL     1     -43.523  40.645  27.624  1.00  0.00    -0.268 N 
ATOM     30  C   UNL     1     -42.525  40.270  29.837  1.00  0.00    -0.019 A 
ATOM     31  C   UNL     1     -42.492  41.541  27.361  1.00  0.00     0.014 A 
ATOM     32  C   UNL     1     -41.554  41.142  29.538  1.00  0.00    -0.057 A 
ATOM     33  H   UNL     1     -42.574  39.757  30.789  1.00  0.00     0.066 H 
ATOM     34  C   UNL     1     -41.534  41.799  28.259  1.00  0.00    -0.045 A 
ATOM     35  H   UNL     1     -42.498  42.027  26.389  1.00  0.00     0.082 H 
ATOM     36  H   UNL     1     -40.767  41.369  30.249  1.00  0.00     0.062 H 
ATOM     37  H   UNL     1     -40.735  42.501  28.042  1.00  0.00     0.064 H 
ENDBRANCH  20  22
ENDBRANCH  15  18
ENDBRANCH   1  15
BRANCH   6  38
ATOM     38  C   UNL     1     -48.620  29.782  25.162  1.00  0.00     0.036 C 
ATOM     39  H   UNL     1     -48.672  29.214  26.095  1.00  0.00     0.049 H 
ATOM     40  H   UNL     1     -49.633  29.760  24.740  1.00  0.00     0.049 H 
BRANCH  38  41
ATOM     41  N   UNL     1     -47.715  29.169  24.190  1.00  0.00    -0.311 NA
ATOM     42  H   UNL     1     -47.189  28.436  24.665  1.00  0.00     0.123 HD
BRANCH  41  43
ATOM     43  C   UNL     1     -48.403  28.578  23.043  1.00  0.00     0.002 C 
ATOM     44  H   UNL     1     -47.779  27.755  22.675  1.00  0.00     0.043 H 
ATOM     45  H   UNL     1     -49.359  28.123  23.325  1.00  0.00     0.043 H 
BRANCH  43  46
ATOM     46  C   UNL     1     -48.576  29.566  21.947  1.00  0.00    -0.008 C 
ATOM     47  C   UNL     1     -48.978  29.413  20.418  1.00  0.00    -0.012 C 
ATOM     48  C   UNL     1     -47.458  30.542  21.386  1.00  0.00    -0.012 C 
ATOM     49  C   UNL     1     -49.497  30.857  21.898  1.00  0.00    -0.012 C 
ATOM     50  C   UNL     1     -48.711  30.931  20.565  1.00  0.00     0.112 C 
ATOM     51  H   UNL     1     -48.292  28.844  19.783  1.00  0.00     0.031 H 
ATOM     52  H   UNL     1     -50.008  29.112  20.201  1.00  0.00     0.031 H 
ATOM     53  H   UNL     1     -46.627  30.081  20.843  1.00  0.00     0.031 H 
ATOM     54  H   UNL     1     -47.063  31.293  22.079  1.00  0.00     0.031 H 
ATOM     55  H   UNL     1     -50.578  30.690  21.831  1.00  0.00     0.031 H 
ATOM     56  H   UNL     1     -49.297  31.637  22.640  1.00  0.00     0.031 H 
ATOM     57  F   UNL     1     -48.800  31.860  19.627  1.00  0.00    -0.244 F 
ENDBRANCH  43  46
ENDBRANCH  41  43
ENDBRANCH  38  41
ENDBRANCH   6  38
TORSDOF 7
ENDMDL
MODEL 6
REMARK VINA RESULT:     -10.2      2.975      3.855
REMARK SMILES O=C(NCc1ccc2cc(CNC[C@]34C[C@](F)(C3)C4)[nH]c2c1)c1cc(=O)n2ccccc2n1
REMARK SMILES IDX 5 1 6 2 7 3 8 4 9 5 10 6 20 7 21 8 22 9 4 15 3 18 1 19 2 20
REMARK SMILES IDX 23 22 24 23 33 24 25 25 32 27 26 28 27 29 31 30 28 31 30 32
REMARK SMILES IDX 29 34 11 38 12 41 13 43 14 46 18 47 15 48 19 49 16 50 17 57
REMARK H PARENT 6 10 7 11 9 12 20 13 22 14 4 16 4 17 3 21 24 26 31 33 28 35
REMARK H PARENT 30 36 29 37 11 39 11 40 12 42 13 44 13 45 18 51 18 52 15 53
REMARK H PARENT 15 54 19 55 19 56
REMARK Flexibility Score: inf
ROOT
ATOM      1  C   UNL     1     -46.647  35.738  28.346  1.00  0.00    -0.027 A 
ATOM      2  C   UNL     1     -47.995  35.803  27.969  1.00  0.00    -0.057 A 
ATOM      3  C   UNL     1     -48.491  35.029  26.912  1.00  0.00    -0.052 A 
ATOM      4  C   UNL     1     -47.620  34.167  26.222  1.00  0.00    -0.000 A 
ATOM      5  C   UNL     1     -47.777  33.265  25.135  1.00  0.00    -0.032 A 
ATOM      6  C   UNL     1     -46.555  32.670  24.889  1.00  0.00     0.030 A 
ATOM      7  N   UNL     1     -45.660  33.201  25.788  1.00  0.00    -0.357 N 
ATOM      8  C   UNL     1     -46.284  34.107  26.615  1.00  0.00     0.046 A 
ATOM      9  C   UNL     1     -45.770  34.872  27.670  1.00  0.00    -0.033 A 
ATOM     10  H   UNL     1     -48.677  36.463  28.504  1.00  0.00     0.063 H 
ATOM     11  H   UNL     1     -49.538  35.095  26.633  1.00  0.00     0.063 H 
ATOM     12  H   UNL     1     -48.692  33.070  24.591  1.00  0.00     0.065 H 
ATOM     13  H   UNL     1     -44.680  32.961  25.840  1.00  0.00     0.166 HD
ATOM     14  H   UNL     1     -44.724  34.799  27.953  1.00  0.00     0.065 H 
ENDROOT
BRANCH   1  15
ATOM     15  C   UNL     1     -46.153  36.571  29.503  1.00  0.00     0.043 C 
ATOM     16  H   UNL     1     -45.433  36.000  30.099  1.00  0.00     0.054 H 
ATOM     17  H   UNL     1     -46.984  36.837  30.164  1.00  0.00     0.054 H 
BRANCH  15  18
ATOM     18  N   UNL     1     -45.567  37.801  29.035  1.00  0.00    -0.347 N 
ATOM     19  O   UNL     1     -44.163  38.139  30.826  1.00  0.00    -0.268 OA
ATOM     20  C   UNL     1     -44.563  38.450  29.710  1.00  0.00     0.270 C 
ATOM     21  H   UNL     1     -45.721  38.094  28.076  1.00  0.00     0.164 HD
BRANCH  20  22
ATOM     22  C   UNL     1     -43.985  39.597  28.915  1.00  0.00     0.136 A 
ATOM     23  C   UNL     1     -42.923  40.210  29.445  1.00  0.00     0.035 A 
ATOM     24  N   UNL     1     -44.570  39.933  27.715  1.00  0.00    -0.225 NA
ATOM     25  C   UNL     1     -42.325  41.326  28.704  1.00  0.00     0.258 A 
ATOM     26  H   UNL     1     -42.472  39.935  30.388  1.00  0.00     0.071 H 
ATOM     27  C   UNL     1     -44.035  40.919  27.062  1.00  0.00     0.140 A 
ATOM     28  O   UNL     1     -41.349  41.900  29.185  1.00  0.00    -0.269 OA
ATOM     29  N   UNL     1     -42.931  41.644  27.497  1.00  0.00    -0.268 N 
ATOM     30  C   UNL     1     -44.633  41.318  25.756  1.00  0.00    -0.019 A 
ATOM     31  C   UNL     1     -42.418  42.690  26.737  1.00  0.00     0.014 A 
ATOM     32  C   UNL     1     -44.104  42.331  25.060  1.00  0.00    -0.057 A 
ATOM     33  H   UNL     1     -45.492  40.759  25.409  1.00  0.00     0.066 H 
ATOM     34  C   UNL     1     -42.960  43.043  25.565  1.00  0.00    -0.045 A 
ATOM     35  H   UNL     1     -41.553  43.213  27.137  1.00  0.00     0.082 H 
ATOM     36  H   UNL     1     -44.524  42.636  24.107  1.00  0.00     0.062 H 
ATOM     37  H   UNL     1     -42.551  43.861  24.980  1.00  0.00     0.064 H 
ENDBRANCH  20  22
ENDBRANCH  15  18
ENDBRANCH   1  15
BRANCH   6  38
ATOM     38  C   UNL     1     -46.142  31.661  23.873  1.00  0.00     0.036 C 
ATOM     39  H   UNL     1     -46.375  32.016  22.865  1.00  0.00     0.049 H 
ATOM     40  H   UNL     1     -45.052  31.547  23.908  1.00  0.00     0.049 H 
BRANCH  38  41
ATOM     41  N   UNL     1     -46.740  30.356  24.152  1.00  0.00    -0.311 NA
ATOM     42  H   UNL     1     -47.431  30.474  24.892  1.00  0.00     0.123 HD
BRANCH  41  43
ATOM     43  C   UNL     1     -47.399  29.757  22.992  1.00  0.00     0.002 C 
ATOM     44  H   UNL     1     -47.016  30.264  22.099  1.00  0.00     0.043 H 
ATOM     45  H   UNL     1     -47.138  28.700  22.868  1.00  0.00     0.043 H 
BRANCH  43  46
ATOM     46  C   UNL     1     -48.872  29.948  23.047  1.00  0.00    -0.008 C 
ATOM     47  C   UNL     1     -50.089  29.053  22.557  1.00  0.00    -0.012 C 
ATOM     48  C   UNL     1     -49.685  31.133  22.375  1.00  0.00    -0.012 C 
ATOM     49  C   UNL     1     -49.797  30.242  24.302  1.00  0.00    -0.012 C 
ATOM     50  C   UNL     1     -50.781  30.324  23.108  1.00  0.00     0.112 C 
ATOM     51  H   UNL     1     -50.164  28.869  21.481  1.00  0.00     0.031 H 
ATOM     52  H   UNL     1     -50.271  28.118  23.098  1.00  0.00     0.031 H 
ATOM     53  H   UNL     1     -49.721  31.147  21.280  1.00  0.00     0.031 H 
ATOM     54  H   UNL     1     -49.480  32.144  22.742  1.00  0.00     0.031 H 
ATOM     55  H   UNL     1     -49.942  29.422  25.012  1.00  0.00     0.031 H 
ATOM     56  H   UNL     1     -49.604  31.169  24.853  1.00  0.00     0.031 H 
ATOM     57  F   UNL     1     -52.078  30.582  23.148  1.00  0.00    -0.244 F 
ENDBRANCH  43  46
ENDBRANCH  41  43
ENDBRANCH  38  41
ENDBRANCH   6  38
TORSDOF 7
ENDMDL
MODEL 7
REMARK VINA RESULT:     -10.1      4.444     12.003
REMARK SMILES O=C(NCc1ccc2cc(CNC[C@]34C[C@](F)(C3)C4)[nH]c2c1)c1cc(=O)n2ccccc2n1
REMARK SMILES IDX 5 1 6 2 7 3 8 4 9 5 10 6 20 7 21 8 22 9 4 15 3 18 1 19 2 20
REMARK SMILES IDX 23 22 24 23 33 24 25 25 32 27 26 28 27 29 31 30 28 31 30 32
REMARK SMILES IDX 29 34 11 38 12 41 13 43 14 46 18 47 15 48 19 49 16 50 17 57
REMARK H PARENT 6 10 7 11 9 12 20 13 22 14 4 16 4 17 3 21 24 26 31 33 28 35
REMARK H PARENT 30 36 29 37 11 39 11 40 12 42 13 44 13 45 18 51 18 52 15 53
REMARK H PARENT 15 54 19 55 19 56
REMARK Flexibility Score: inf
ROOT
ATOM      1  C   UNL     1     -48.355  34.152  26.407  1.00  0.00    -0.027 A 
ATOM      2  C   UNL     1     -47.028  33.750  26.204  1.00  0.00    -0.057 A 
ATOM      3  C   UNL     1     -45.956  34.547  26.623  1.00  0.00    -0.052 A 
ATOM      4  C   UNL     1     -46.218  35.771  27.265  1.00  0.00    -0.000 A 
ATOM      5  C   UNL     1     -45.399  36.799  27.806  1.00  0.00    -0.032 A 
ATOM      6  C   UNL     1     -46.223  37.775  28.331  1.00  0.00     0.030 A 
ATOM      7  N   UNL     1     -47.519  37.371  28.107  1.00  0.00    -0.357 N 
ATOM      8  C   UNL     1     -47.543  36.152  27.468  1.00  0.00     0.046 A 
ATOM      9  C   UNL     1     -48.628  35.368  27.057  1.00  0.00    -0.033 A 
ATOM     10  H   UNL     1     -46.818  32.800  25.714  1.00  0.00     0.063 H 
ATOM     11  H   UNL     1     -44.934  34.219  26.455  1.00  0.00     0.063 H 
ATOM     12  H   UNL     1     -44.317  36.819  27.813  1.00  0.00     0.065 H 
ATOM     13  H   UNL     1     -48.342  37.892  28.373  1.00  0.00     0.166 HD
ATOM     14  H   UNL     1     -49.649  35.693  27.233  1.00  0.00     0.065 H 
ENDROOT
BRANCH   1  15
ATOM     15  C   UNL     1     -49.485  33.258  25.960  1.00  0.00     0.043 C 
ATOM     16  H   UNL     1     -49.899  33.615  25.011  1.00  0.00     0.054 H 
ATOM     17  H   UNL     1     -50.298  33.273  26.696  1.00  0.00     0.054 H 
BRANCH  15  18
ATOM     18  N   UNL     1     -49.042  31.892  25.843  1.00  0.00    -0.347 N 
ATOM     19  O   UNL     1     -50.032  31.453  23.812  1.00  0.00    -0.268 OA
ATOM     20  C   UNL     1     -49.298  31.121  24.735  1.00  0.00     0.270 C 
ATOM     21  H   UNL     1     -48.330  31.542  26.475  1.00  0.00     0.164 HD
BRANCH  20  22
ATOM     22  C   UNL     1     -48.557  29.805  24.769  1.00  0.00     0.136 A 
ATOM     23  C   UNL     1     -47.549  29.670  23.904  1.00  0.00     0.035 A 
ATOM     24  N   UNL     1     -48.951  28.845  25.673  1.00  0.00    -0.225 NA
ATOM     25  C   UNL     1     -46.797  28.410  23.905  1.00  0.00     0.258 A 
ATOM     26  H   UNL     1     -47.248  30.434  23.199  1.00  0.00     0.071 H 
ATOM     27  C   UNL     1     -48.281  27.734  25.673  1.00  0.00     0.140 A 
ATOM     28  O   UNL     1     -45.868  28.275  23.109  1.00  0.00    -0.269 OA
ATOM     29  N   UNL     1     -47.211  27.459  24.826  1.00  0.00    -0.268 N 
ATOM     30  C   UNL     1     -48.670  26.665  26.635  1.00  0.00    -0.019 A 
ATOM     31  C   UNL     1     -46.545  26.240  24.888  1.00  0.00     0.014 A 
ATOM     32  C   UNL     1     -47.998  25.507  26.658  1.00  0.00    -0.057 A 
ATOM     33  H   UNL     1     -49.500  26.868  27.299  1.00  0.00     0.066 H 
ATOM     34  C   UNL     1     -46.900  25.285  25.756  1.00  0.00    -0.045 A 
ATOM     35  H   UNL     1     -45.718  26.095  24.198  1.00  0.00     0.082 H 
ATOM     36  H   UNL     1     -48.265  24.718  27.353  1.00  0.00     0.062 H 
ATOM     37  H   UNL     1     -46.372  24.338  25.795  1.00  0.00     0.064 H 
ENDBRANCH  20  22
ENDBRANCH  15  18
ENDBRANCH   1  15
BRANCH   6  38
ATOM     38  C   UNL     1     -45.909  39.064  29.008  1.00  0.00     0.036 C 
ATOM     39  H   UNL     1     -46.818  39.512  29.419  1.00  0.00     0.049 H 
ATOM     40  H   UNL     1     -45.257  38.865  29.867  1.00  0.00     0.049 H 
BRANCH  38  41
ATOM     41  N   UNL     1     -45.201  39.975  28.108  1.00  0.00    -0.311 NA
ATOM     42  H   UNL     1     -45.684  40.872  28.120  1.00  0.00     0.123 HD
BRANCH  41  43
ATOM     43  C   UNL     1     -43.804  40.193  28.481  1.00  0.00     0.002 C 
ATOM     44  H   UNL     1     -43.787  40.474  29.541  1.00  0.00     0.043 H 
ATOM     45  H   UNL     1     -43.208  39.277  28.407  1.00  0.00     0.043 H 
BRANCH  43  46
ATOM     46  C   UNL     1     -43.198  41.297  27.692  1.00  0.00    -0.008 C 
ATOM     47  C   UNL     1     -43.089  42.862  27.943  1.00  0.00    -0.012 C 
ATOM     48  C   UNL     1     -43.610  41.728  26.221  1.00  0.00    -0.012 C 
ATOM     49  C   UNL     1     -41.716  41.441  27.144  1.00  0.00    -0.012 C 
ATOM     50  C   UNL     1     -42.435  42.679  26.552  1.00  0.00     0.112 C 
ATOM     51  H   UNL     1     -44.030  43.421  27.984  1.00  0.00     0.031 H 
ATOM     52  H   UNL     1     -42.436  43.192  28.757  1.00  0.00     0.031 H 
ATOM     53  H   UNL     1     -44.600  42.179  26.098  1.00  0.00     0.031 H 
ATOM     54  H   UNL     1     -43.448  40.992  25.426  1.00  0.00     0.031 H 
ATOM     55  H   UNL     1     -40.932  41.627  27.885  1.00  0.00     0.031 H 
ATOM     56  H   UNL     1     -41.373  40.678  26.437  1.00  0.00     0.031 H 
ATOM     57  F   UNL     1     -41.918  43.617  25.775  1.00  0.00    -0.244 F 
ENDBRANCH  43  46
ENDBRANCH  41  43
ENDBRANCH  38  41
ENDBRANCH   6  38
TORSDOF 7
ENDMDL
