MODEL 1
REMARK VINA RESULT:     -10.3      0.000      0.000
REMARK SMILES CNc1ccc2ccc(OC[C@H]3O[C@@H](n4cc(C5=CCNC5)c5c(N)ncnc54)[C@@H](F)[C@@H]3O)cc2n1
REMARK SMILES IDX 11 1 10 4 9 5 3 6 4 7 36 8 5 9 35 11 6 12 34 14 7 15 8 17
REMARK SMILES IDX 2 20 1 22 12 26 13 27 32 28 14 30 30 31 31 34 33 36 15 38
REMARK SMILES IDX 16 39 29 40 17 41 23 43 28 44 24 45 27 46 26 47 18 49 19 50
REMARK SMILES IDX 22 51 20 52 21 54 25 60
REMARK H PARENT 11 2 11 3 4 10 5 13 34 16 7 18 8 19 2 21 1 23 1 24 1 25 12 29
REMARK H PARENT 32 32 14 33 30 35 33 37 16 42 27 48 19 53 22 55 22 56 20 57
REMARK H PARENT 20 58 21 59 25 61 25 62
REMARK Flexibility Score: inf
ROOT
ATOM      1  C   UNL     1     -45.637  35.403  27.269  1.00  0.00     0.117 C 
ATOM      2  H   UNL     1     -45.494  34.391  27.666  1.00  0.00     0.073 H 
ATOM      3  H   UNL     1     -44.687  35.744  26.835  1.00  0.00     0.073 H 
ENDROOT
BRANCH   1   4
ATOM      4  O   UNL     1     -46.673  35.420  26.286  1.00  0.00    -0.491 OA
BRANCH   4   5
ATOM      5  C   UNL     1     -47.192  34.214  25.907  1.00  0.00     0.121 A 
ATOM      6  C   UNL     1     -46.511  30.552  22.934  1.00  0.00     0.126 A 
ATOM      7  C   UNL     1     -47.631  29.889  23.423  1.00  0.00    -0.019 A 
ATOM      8  N   UNL     1     -46.131  31.748  23.424  1.00  0.00    -0.231 NA
ATOM      9  C   UNL     1     -48.392  30.480  24.425  1.00  0.00    -0.049 A 
ATOM     10  H   UNL     1     -47.904  28.912  23.036  1.00  0.00     0.066 H 
ATOM     11  C   UNL     1     -46.861  32.326  24.395  1.00  0.00     0.076 A 
ATOM     12  C   UNL     1     -48.013  31.725  24.932  1.00  0.00     0.001 A 
ATOM     13  H   UNL     1     -49.266  29.961  24.808  1.00  0.00     0.063 H 
ATOM     14  C   UNL     1     -46.474  33.562  24.897  1.00  0.00     0.007 A 
ATOM     15  C   UNL     1     -48.741  32.368  25.945  1.00  0.00    -0.049 A 
ATOM     16  H   UNL     1     -45.584  34.030  24.483  1.00  0.00     0.069 H 
ATOM     17  C   UNL     1     -48.332  33.611  26.431  1.00  0.00    -0.019 A 
ATOM     18  H   UNL     1     -49.632  31.904  26.363  1.00  0.00     0.063 H 
ATOM     19  H   UNL     1     -48.922  34.073  27.214  1.00  0.00     0.066 H 
BRANCH   6  20
ATOM     20  N   UNL     1     -45.749  29.910  21.939  1.00  0.00    -0.373 N 
ATOM     21  H   UNL     1     -45.269  30.614  21.387  1.00  0.00     0.161 HD
BRANCH  20  22
ATOM     22  C   UNL     1     -44.833  28.902  22.447  1.00  0.00     0.005 C 
ATOM     23  H   UNL     1     -44.113  29.331  23.152  1.00  0.00     0.045 H 
ATOM     24  H   UNL     1     -44.299  28.397  21.635  1.00  0.00     0.045 H 
ATOM     25  H   UNL     1     -45.406  28.143  22.989  1.00  0.00     0.045 H 
ENDBRANCH  20  22
ENDBRANCH   6  20
ENDBRANCH   4   5
ENDBRANCH   1   4
BRANCH   1  26
ATOM     26  C   UNL     1     -46.031  36.332  28.418  1.00  0.00     0.123 C 
ATOM     27  O   UNL     1     -44.930  37.177  28.782  1.00  0.00    -0.345 OA
ATOM     28  C   UNL     1     -47.189  37.255  28.062  1.00  0.00     0.119 C 
ATOM     29  H   UNL     1     -46.300  35.720  29.289  1.00  0.00     0.067 H 
ATOM     30  C   UNL     1     -45.481  38.449  29.213  1.00  0.00     0.169 C 
ATOM     31  C   UNL     1     -46.997  38.382  29.056  1.00  0.00     0.173 C 
ATOM     32  H   UNL     1     -47.119  37.642  27.039  1.00  0.00     0.066 H 
ATOM     33  H   UNL     1     -45.197  38.580  30.263  1.00  0.00     0.088 H 
ATOM     34  F   UNL     1     -47.532  39.529  28.570  1.00  0.00    -0.239 F 
ATOM     35  H   UNL     1     -47.487  38.157  30.010  1.00  0.00     0.074 H 
BRANCH  28  36
ATOM     36  O   UNL     1     -48.450  36.614  28.218  1.00  0.00    -0.387 OA
ATOM     37  H   UNL     1     -48.883  37.017  28.997  1.00  0.00     0.211 HD
ENDBRANCH  28  36
BRANCH  30  38
ATOM     38  N   UNL     1     -44.849  39.514  28.447  1.00  0.00    -0.302 N 
ATOM     39  C   UNL     1     -45.307  40.075  27.279  1.00  0.00     0.017 A 
ATOM     40  C   UNL     1     -43.676  40.125  28.821  1.00  0.00     0.148 A 
ATOM     41  C   UNL     1     -44.426  41.076  26.918  1.00  0.00     0.010 A 
ATOM     42  H   UNL     1     -46.219  39.734  26.810  1.00  0.00     0.083 H 
ATOM     43  C   UNL     1     -43.373  41.101  27.878  1.00  0.00     0.069 A 
ATOM     44  N   UNL     1     -42.957  39.815  29.914  1.00  0.00    -0.218 NA
ATOM     45  C   UNL     1     -42.181  41.815  28.085  1.00  0.00     0.136 A 
ATOM     46  C   UNL     1     -41.858  40.581  30.015  1.00  0.00     0.120 A 
ATOM     47  N   UNL     1     -41.431  41.538  29.170  1.00  0.00    -0.219 NA
ATOM     48  H   UNL     1     -41.231  40.403  30.882  1.00  0.00     0.106 H 
BRANCH  41  49
ATOM     49  C   UNL     1     -44.603  41.899  25.784  1.00  0.00    -0.027 C 
ATOM     50  C   UNL     1     -45.389  42.966  25.634  1.00  0.00    -0.066 C 
ATOM     51  C   UNL     1     -43.802  41.651  24.553  1.00  0.00     0.021 C 
ATOM     52  C   UNL     1     -45.212  43.543  24.278  1.00  0.00     0.014 C 
ATOM     53  H   UNL     1     -46.046  43.375  26.386  1.00  0.00     0.059 H 
ATOM     54  N   UNL     1     -44.291  42.641  23.563  1.00  0.00    -0.309 NA
ATOM     55  H   UNL     1     -42.735  41.819  24.736  1.00  0.00     0.048 H 
ATOM     56  H   UNL     1     -43.933  40.639  24.158  1.00  0.00     0.048 H 
ATOM     57  H   UNL     1     -44.780  44.547  24.339  1.00  0.00     0.047 H 
ATOM     58  H   UNL     1     -46.170  43.605  23.752  1.00  0.00     0.047 H 
ATOM     59  H   UNL     1     -44.819  42.137  22.852  1.00  0.00     0.123 HD
ENDBRANCH  41  49
BRANCH  45  60
ATOM     60  N   UNL     1     -41.688  42.779  27.213  1.00  0.00    -0.383 N 
ATOM     61  H   UNL     1     -41.748  42.441  26.260  1.00  0.00     0.158 HD
ATOM     62  H   UNL     1     -42.072  43.702  27.378  1.00  0.00     0.158 HD
ENDBRANCH  45  60
ENDBRANCH  30  38
ENDBRANCH   1  26
TORSDOF 9
ENDMDL
MODEL 2
REMARK VINA RESULT:     -10.1      1.446      1.998
REMARK SMILES CNc1ccc2ccc(OC[C@H]3O[C@@H](n4cc(C5=CCNC5)c5c(N)ncnc54)[C@@H](F)[C@@H]3O)cc2n1
REMARK SMILES IDX 11 1 10 4 9 5 3 6 4 7 36 8 5 9 35 11 6 12 34 14 7 15 8 17
REMARK SMILES IDX 2 20 1 22 12 26 13 27 32 28 14 30 30 31 31 34 33 36 15 38
REMARK SMILES IDX 16 39 29 40 17 41 23 43 28 44 24 45 27 46 26 47 18 49 19 50
REMARK SMILES IDX 22 51 20 52 21 54 25 60
REMARK H PARENT 11 2 11 3 4 10 5 13 34 16 7 18 8 19 2 21 1 23 1 24 1 25 12 29
REMARK H PARENT 32 32 14 33 30 35 33 37 16 42 27 48 19 53 22 55 22 56 20 57
REMARK H PARENT 20 58 21 59 25 61 25 62
REMARK Flexibility Score: inf
ROOT
ATOM      1  C   UNL     1     -46.666  35.856  26.478  1.00  0.00     0.117 C 
ATOM      2  H   UNL     1     -45.687  35.488  26.148  1.00  0.00     0.073 H 
ATOM      3  H   UNL     1     -46.993  36.643  25.785  1.00  0.00     0.073 H 
ENDROOT
BRANCH   1   4
ATOM      4  O   UNL     1     -47.619  34.793  26.518  1.00  0.00    -0.491 OA
BRANCH   4   5
ATOM      5  C   UNL     1     -47.345  33.682  25.769  1.00  0.00     0.121 A 
ATOM      6  C   UNL     1     -48.772  29.210  24.948  1.00  0.00     0.126 A 
ATOM      7  C   UNL     1     -47.787  29.025  23.985  1.00  0.00    -0.019 A 
ATOM      8  N   UNL     1     -48.908  30.381  25.601  1.00  0.00    -0.231 NA
ATOM      9  C   UNL     1     -46.905  30.063  23.700  1.00  0.00    -0.049 A 
ATOM     10  H   UNL     1     -47.712  28.084  23.449  1.00  0.00     0.066 H 
ATOM     11  C   UNL     1     -48.061  31.390  25.330  1.00  0.00     0.076 A 
ATOM     12  C   UNL     1     -47.031  31.276  24.379  1.00  0.00     0.001 A 
ATOM     13  H   UNL     1     -46.137  29.918  22.947  1.00  0.00     0.063 H 
ATOM     14  C   UNL     1     -48.196  32.596  26.006  1.00  0.00     0.007 A 
ATOM     15  C   UNL     1     -46.172  32.359  24.132  1.00  0.00    -0.049 A 
ATOM     16  H   UNL     1     -48.991  32.687  26.743  1.00  0.00     0.069 H 
ATOM     17  C   UNL     1     -46.329  33.559  24.827  1.00  0.00    -0.019 A 
ATOM     18  H   UNL     1     -45.375  32.273  23.396  1.00  0.00     0.063 H 
ATOM     19  H   UNL     1     -45.644  34.371  24.605  1.00  0.00     0.066 H 
BRANCH   6  20
ATOM     20  N   UNL     1     -49.663  28.147  25.190  1.00  0.00    -0.373 N 
ATOM     21  H   UNL     1     -49.818  27.645  24.322  1.00  0.00     0.161 HD
BRANCH  20  22
ATOM     22  C   UNL     1     -49.253  27.258  26.264  1.00  0.00     0.005 C 
ATOM     23  H   UNL     1     -49.954  27.290  27.104  1.00  0.00     0.045 H 
ATOM     24  H   UNL     1     -48.242  27.492  26.617  1.00  0.00     0.045 H 
ATOM     25  H   UNL     1     -49.241  26.230  25.888  1.00  0.00     0.045 H 
ENDBRANCH  20  22
ENDBRANCH   6  20
ENDBRANCH   4   5
ENDBRANCH   1   4
BRANCH   1  26
ATOM     26  C   UNL     1     -46.523  36.445  27.882  1.00  0.00     0.123 C 
ATOM     27  O   UNL     1     -45.223  37.026  28.054  1.00  0.00    -0.345 OA
ATOM     28  C   UNL     1     -47.534  37.549  28.166  1.00  0.00     0.119 C 
ATOM     29  H   UNL     1     -46.641  35.637  28.616  1.00  0.00     0.067 H 
ATOM     30  C   UNL     1     -45.369  38.167  28.939  1.00  0.00     0.169 C 
ATOM     31  C   UNL     1     -46.849  38.309  29.283  1.00  0.00     0.173 C 
ATOM     32  H   UNL     1     -47.690  38.208  27.305  1.00  0.00     0.066 H 
ATOM     33  H   UNL     1     -44.773  37.955  29.834  1.00  0.00     0.088 H 
ATOM     34  F   UNL     1     -47.269  39.598  29.295  1.00  0.00    -0.239 F 
ATOM     35  H   UNL     1     -47.075  37.869  30.260  1.00  0.00     0.074 H 
BRANCH  28  36
ATOM     36  O   UNL     1     -48.794  37.026  28.571  1.00  0.00    -0.387 OA
ATOM     37  H   UNL     1     -49.236  36.686  27.768  1.00  0.00     0.211 HD
ENDBRANCH  28  36
BRANCH  30  38
ATOM     38  N   UNL     1     -44.793  39.336  28.290  1.00  0.00    -0.302 N 
ATOM     39  C   UNL     1     -45.236  39.946  27.142  1.00  0.00     0.017 A 
ATOM     40  C   UNL     1     -43.698  40.012  28.775  1.00  0.00     0.148 A 
ATOM     41  C   UNL     1     -44.428  41.041  26.906  1.00  0.00     0.010 A 
ATOM     42  H   UNL     1     -46.090  39.569  26.597  1.00  0.00     0.083 H 
ATOM     43  C   UNL     1     -43.432  41.079  27.925  1.00  0.00     0.069 A 
ATOM     44  N   UNL     1     -43.012  39.678  29.883  1.00  0.00    -0.218 NA
ATOM     45  C   UNL     1     -42.319  41.871  28.252  1.00  0.00     0.136 A 
ATOM     46  C   UNL     1     -41.991  40.522  30.103  1.00  0.00     0.120 A 
ATOM     47  N   UNL     1     -41.605  41.573  29.356  1.00  0.00    -0.219 NA
ATOM     48  H   UNL     1     -41.397  40.330  30.990  1.00  0.00     0.106 H 
BRANCH  41  49
ATOM     49  C   UNL     1     -44.616  41.932  25.826  1.00  0.00    -0.027 C 
ATOM     50  C   UNL     1     -43.923  42.037  24.692  1.00  0.00    -0.066 C 
ATOM     51  C   UNL     1     -45.758  42.889  25.841  1.00  0.00     0.021 C 
ATOM     52  C   UNL     1     -44.515  43.087  23.827  1.00  0.00     0.014 C 
ATOM     53  H   UNL     1     -43.067  41.438  24.420  1.00  0.00     0.059 H 
ATOM     54  N   UNL     1     -45.606  43.698  24.608  1.00  0.00    -0.309 NA
ATOM     55  H   UNL     1     -46.717  42.360  25.811  1.00  0.00     0.048 H 
ATOM     56  H   UNL     1     -45.749  43.546  26.717  1.00  0.00     0.048 H 
ATOM     57  H   UNL     1     -44.912  42.652  22.906  1.00  0.00     0.047 H 
ATOM     58  H   UNL     1     -43.767  43.843  23.563  1.00  0.00     0.047 H 
ATOM     59  H   UNL     1     -45.321  44.637  24.884  1.00  0.00     0.123 HD
ENDBRANCH  41  49
BRANCH  45  60
ATOM     60  N   UNL     1     -41.867  42.937  27.483  1.00  0.00    -0.383 N 
ATOM     61  H   UNL     1     -40.945  42.728  27.117  1.00  0.00     0.158 HD
ATOM     62  H   UNL     1     -42.547  43.258  26.805  1.00  0.00     0.158 HD
ENDBRANCH  45  60
ENDBRANCH  30  38
ENDBRANCH   1  26
TORSDOF 9
ENDMDL
MODEL 3
REMARK VINA RESULT:      -9.5      3.117     11.394
REMARK SMILES CNc1ccc2ccc(OC[C@H]3O[C@@H](n4cc(C5=CCNC5)c5c(N)ncnc54)[C@@H](F)[C@@H]3O)cc2n1
REMARK SMILES IDX 11 1 10 4 9 5 3 6 4 7 36 8 5 9 35 11 6 12 34 14 7 15 8 17
REMARK SMILES IDX 2 20 1 22 12 26 13 27 32 28 14 30 30 31 31 34 33 36 15 38
REMARK SMILES IDX 16 39 29 40 17 41 23 43 28 44 24 45 27 46 26 47 18 49 19 50
REMARK SMILES IDX 22 51 20 52 21 54 25 60
REMARK H PARENT 11 2 11 3 4 10 5 13 34 16 7 18 8 19 2 21 1 23 1 24 1 25 12 29
REMARK H PARENT 32 32 14 33 30 35 33 37 16 42 27 48 19 53 22 55 22 56 20 57
REMARK H PARENT 20 58 21 59 25 61 25 62
REMARK Flexibility Score: inf
ROOT
ATOM      1  C   UNL     1     -46.979  33.498  26.872  1.00  0.00     0.117 C 
ATOM      2  H   UNL     1     -45.952  33.782  26.612  1.00  0.00     0.073 H 
ATOM      3  H   UNL     1     -46.947  32.564  27.447  1.00  0.00     0.073 H 
ENDROOT
BRANCH   1   4
ATOM      4  O   UNL     1     -47.614  34.531  27.626  1.00  0.00    -0.491 OA
BRANCH   4   5
ATOM      5  C   UNL     1     -46.847  35.607  27.979  1.00  0.00     0.121 A 
ATOM      6  C   UNL     1     -45.657  40.025  26.645  1.00  0.00     0.126 A 
ATOM      7  C   UNL     1     -44.826  40.182  27.748  1.00  0.00    -0.019 A 
ATOM      8  N   UNL     1     -46.352  38.888  26.442  1.00  0.00    -0.231 NA
ATOM      9  C   UNL     1     -44.688  39.137  28.655  1.00  0.00    -0.049 A 
ATOM     10  H   UNL     1     -44.297  41.116  27.909  1.00  0.00     0.066 H 
ATOM     11  C   UNL     1     -46.226  37.873  27.317  1.00  0.00     0.076 A 
ATOM     12  C   UNL     1     -45.395  37.950  28.448  1.00  0.00     0.001 A 
ATOM     13  H   UNL     1     -44.039  39.260  29.517  1.00  0.00     0.063 H 
ATOM     14  C   UNL     1     -46.936  36.698  27.106  1.00  0.00     0.007 A 
ATOM     15  C   UNL     1     -45.297  36.863  29.331  1.00  0.00    -0.049 A 
ATOM     16  H   UNL     1     -47.579  36.635  26.232  1.00  0.00     0.069 H 
ATOM     17  C   UNL     1     -46.021  35.693  29.096  1.00  0.00    -0.019 A 
ATOM     18  H   UNL     1     -44.655  36.921  30.208  1.00  0.00     0.063 H 
ATOM     19  H   UNL     1     -45.916  34.877  29.803  1.00  0.00     0.066 H 
BRANCH   6  20
ATOM     20  N   UNL     1     -45.793  41.114  25.763  1.00  0.00    -0.373 N 
ATOM     21  H   UNL     1     -46.463  41.770  26.152  1.00  0.00     0.161 HD
BRANCH  20  22
ATOM     22  C   UNL     1     -44.538  41.761  25.418  1.00  0.00     0.005 C 
ATOM     23  H   UNL     1     -43.707  41.374  26.016  1.00  0.00     0.045 H 
ATOM     24  H   UNL     1     -44.601  42.849  25.533  1.00  0.00     0.045 H 
ATOM     25  H   UNL     1     -44.309  41.552  24.368  1.00  0.00     0.045 H 
ENDBRANCH  20  22
ENDBRANCH   6  20
ENDBRANCH   4   5
ENDBRANCH   1   4
BRANCH   1  26
ATOM     26  C   UNL     1     -47.769  33.272  25.582  1.00  0.00     0.123 C 
ATOM     27  O   UNL     1     -47.061  32.381  24.709  1.00  0.00    -0.345 OA
ATOM     28  C   UNL     1     -49.136  32.646  25.827  1.00  0.00     0.119 C 
ATOM     29  H   UNL     1     -47.890  34.235  25.070  1.00  0.00     0.067 H 
ATOM     30  C   UNL     1     -48.050  31.606  23.982  1.00  0.00     0.169 C 
ATOM     31  C   UNL     1     -49.431  32.021  24.479  1.00  0.00     0.173 C 
ATOM     32  H   UNL     1     -49.110  31.871  26.602  1.00  0.00     0.066 H 
ATOM     33  H   UNL     1     -47.924  31.843  22.919  1.00  0.00     0.088 H 
ATOM     34  F   UNL     1     -50.279  30.974  24.627  1.00  0.00    -0.239 F 
ATOM     35  H   UNL     1     -49.899  32.743  23.802  1.00  0.00     0.074 H 
BRANCH  28  36
ATOM     36  O   UNL     1     -50.110  33.617  26.191  1.00  0.00    -0.387 OA
ATOM     37  H   UNL     1     -49.772  34.487  25.898  1.00  0.00     0.211 HD
ENDBRANCH  28  36
BRANCH  30  38
ATOM     38  N   UNL     1     -47.754  30.191  24.158  1.00  0.00    -0.302 N 
ATOM     39  C   UNL     1     -48.464  29.285  24.908  1.00  0.00     0.017 A 
ATOM     40  C   UNL     1     -46.691  29.557  23.558  1.00  0.00     0.148 A 
ATOM     41  C   UNL     1     -47.861  28.051  24.762  1.00  0.00     0.010 A 
ATOM     42  H   UNL     1     -49.342  29.581  25.466  1.00  0.00     0.083 H 
ATOM     43  C   UNL     1     -46.719  28.217  23.926  1.00  0.00     0.069 A 
ATOM     44  N   UNL     1     -45.788  30.151  22.759  1.00  0.00    -0.218 NA
ATOM     45  C   UNL     1     -45.681  27.414  23.425  1.00  0.00     0.136 A 
ATOM     46  C   UNL     1     -44.865  29.277  22.324  1.00  0.00     0.120 A 
ATOM     47  N   UNL     1     -44.756  27.969  22.617  1.00  0.00    -0.219 NA
ATOM     48  H   UNL     1     -44.107  29.677  21.658  1.00  0.00     0.106 H 
BRANCH  41  49
ATOM     49  C   UNL     1     -48.349  26.869  25.363  1.00  0.00    -0.027 C 
ATOM     50  C   UNL     1     -47.759  26.077  26.259  1.00  0.00    -0.066 C 
ATOM     51  C   UNL     1     -49.726  26.391  25.056  1.00  0.00     0.021 C 
ATOM     52  C   UNL     1     -48.672  24.971  26.641  1.00  0.00     0.014 C 
ATOM     53  H   UNL     1     -46.772  26.219  26.672  1.00  0.00     0.059 H 
ATOM     54  N   UNL     1     -49.869  25.113  25.793  1.00  0.00    -0.309 NA
ATOM     55  H   UNL     1     -50.479  27.102  25.414  1.00  0.00     0.048 H 
ATOM     56  H   UNL     1     -49.887  26.221  23.987  1.00  0.00     0.048 H 
ATOM     57  H   UNL     1     -48.949  25.045  27.696  1.00  0.00     0.047 H 
ATOM     58  H   UNL     1     -48.199  23.997  26.470  1.00  0.00     0.047 H 
ATOM     59  H   UNL     1     -49.874  24.358  25.109  1.00  0.00     0.123 HD
ENDBRANCH  41  49
BRANCH  45  60
ATOM     60  N   UNL     1     -45.513  26.070  23.739  1.00  0.00    -0.383 N 
ATOM     61  H   UNL     1     -46.006  25.856  24.598  1.00  0.00     0.158 HD
ATOM     62  H   UNL     1     -45.697  25.450  22.960  1.00  0.00     0.158 HD
ENDBRANCH  45  60
ENDBRANCH  30  38
ENDBRANCH   1  26
TORSDOF 9
ENDMDL
MODEL 4
REMARK VINA RESULT:      -9.3      2.608      4.053
REMARK SMILES CNc1ccc2ccc(OC[C@H]3O[C@@H](n4cc(C5=CCNC5)c5c(N)ncnc54)[C@@H](F)[C@@H]3O)cc2n1
REMARK SMILES IDX 11 1 10 4 9 5 3 6 4 7 36 8 5 9 35 11 6 12 34 14 7 15 8 17
REMARK SMILES IDX 2 20 1 22 12 26 13 27 32 28 14 30 30 31 31 34 33 36 15 38
REMARK SMILES IDX 16 39 29 40 17 41 23 43 28 44 24 45 27 46 26 47 18 49 19 50
REMARK SMILES IDX 22 51 20 52 21 54 25 60
REMARK H PARENT 11 2 11 3 4 10 5 13 34 16 7 18 8 19 2 21 1 23 1 24 1 25 12 29
REMARK H PARENT 32 32 14 33 30 35 33 37 16 42 27 48 19 53 22 55 22 56 20 57
REMARK H PARENT 20 58 21 59 25 61 25 62
REMARK Flexibility Score: inf
ROOT
ATOM      1  C   UNL     1     -47.397  34.421  26.799  1.00  0.00     0.117 C 
ATOM      2  H   UNL     1     -47.386  34.637  25.724  1.00  0.00     0.073 H 
ATOM      3  H   UNL     1     -48.373  34.720  27.204  1.00  0.00     0.073 H 
ENDROOT
BRANCH   1   4
ATOM      4  O   UNL     1     -47.157  33.034  27.038  1.00  0.00    -0.491 OA
BRANCH   4   5
ATOM      5  C   UNL     1     -47.525  32.159  26.054  1.00  0.00     0.121 A 
ATOM      6  C   UNL     1     -46.532  30.833  21.585  1.00  0.00     0.126 A 
ATOM      7  C   UNL     1     -47.513  29.847  21.613  1.00  0.00    -0.019 A 
ATOM      8  N   UNL     1     -46.293  31.619  22.654  1.00  0.00    -0.231 NA
ATOM      9  C   UNL     1     -48.282  29.679  22.759  1.00  0.00    -0.049 A 
ATOM     10  H   UNL     1     -47.670  29.205  20.752  1.00  0.00     0.066 H 
ATOM     11  C   UNL     1     -47.031  31.461  23.768  1.00  0.00     0.076 A 
ATOM     12  C   UNL     1     -48.049  30.496  23.868  1.00  0.00     0.001 A 
ATOM     13  H   UNL     1     -49.047  28.908  22.781  1.00  0.00     0.063 H 
ATOM     14  C   UNL     1     -46.790  32.274  24.867  1.00  0.00     0.007 A 
ATOM     15  C   UNL     1     -48.792  30.370  25.053  1.00  0.00    -0.049 A 
ATOM     16  H   UNL     1     -46.005  33.022  24.792  1.00  0.00     0.069 H 
ATOM     17  C   UNL     1     -48.531  31.201  26.143  1.00  0.00    -0.019 A 
ATOM     18  H   UNL     1     -49.579  29.623  25.133  1.00  0.00     0.063 H 
ATOM     19  H   UNL     1     -49.128  31.071  27.039  1.00  0.00     0.066 H 
BRANCH   6  20
ATOM     20  N   UNL     1     -45.756  30.955  20.418  1.00  0.00    -0.373 N 
ATOM     21  H   UNL     1     -45.661  30.040  19.988  1.00  0.00     0.161 HD
BRANCH  20  22
ATOM     22  C   UNL     1     -46.248  31.947  19.476  1.00  0.00     0.005 C 
ATOM     23  H   UNL     1     -46.734  31.478  18.614  1.00  0.00     0.045 H 
ATOM     24  H   UNL     1     -45.446  32.610  19.133  1.00  0.00     0.045 H 
ATOM     25  H   UNL     1     -47.000  32.567  19.975  1.00  0.00     0.045 H 
ENDBRANCH  20  22
ENDBRANCH   6  20
ENDBRANCH   4   5
ENDBRANCH   1   4
BRANCH   1  26
ATOM     26  C   UNL     1     -46.296  35.237  27.477  1.00  0.00     0.123 C 
ATOM     27  O   UNL     1     -46.086  36.474  26.782  1.00  0.00    -0.345 OA
ATOM     28  C   UNL     1     -46.630  35.600  28.918  1.00  0.00     0.119 C 
ATOM     29  H   UNL     1     -45.361  34.661  27.448  1.00  0.00     0.067 H 
ATOM     30  C   UNL     1     -45.713  37.471  27.768  1.00  0.00     0.169 C 
ATOM     31  C   UNL     1     -45.745  36.808  29.142  1.00  0.00     0.173 C 
ATOM     32  H   UNL     1     -47.682  35.877  29.048  1.00  0.00     0.066 H 
ATOM     33  H   UNL     1     -44.701  37.809  27.515  1.00  0.00     0.088 H 
ATOM     34  F   UNL     1     -46.275  37.603  30.103  1.00  0.00    -0.239 F 
ATOM     35  H   UNL     1     -44.741  36.510  29.465  1.00  0.00     0.074 H 
BRANCH  28  36
ATOM     36  O   UNL     1     -46.326  34.540  29.819  1.00  0.00    -0.387 OA
ATOM     37  H   UNL     1     -45.574  34.045  29.437  1.00  0.00     0.211 HD
ENDBRANCH  28  36
BRANCH  30  38
ATOM     38  N   UNL     1     -46.606  38.614  27.638  1.00  0.00    -0.302 N 
ATOM     39  C   UNL     1     -47.890  38.718  28.116  1.00  0.00     0.017 A 
ATOM     40  C   UNL     1     -46.256  39.784  27.006  1.00  0.00     0.148 A 
ATOM     41  C   UNL     1     -48.355  39.981  27.808  1.00  0.00     0.010 A 
ATOM     42  H   UNL     1     -48.362  37.901  28.645  1.00  0.00     0.083 H 
ATOM     43  C   UNL     1     -47.333  40.659  27.082  1.00  0.00     0.069 A 
ATOM     44  N   UNL     1     -45.070  40.019  26.419  1.00  0.00    -0.218 NA
ATOM     45  C   UNL     1     -47.164  41.907  26.458  1.00  0.00     0.136 A 
ATOM     46  C   UNL     1     -45.021  41.250  25.884  1.00  0.00     0.120 A 
ATOM     47  N   UNL     1     -45.989  42.186  25.860  1.00  0.00    -0.219 NA
ATOM     48  H   UNL     1     -44.088  41.524  25.403  1.00  0.00     0.106 H 
BRANCH  41  49
ATOM     49  C   UNL     1     -49.631  40.456  28.184  1.00  0.00    -0.027 C 
ATOM     50  C   UNL     1     -50.823  40.166  27.663  1.00  0.00    -0.066 C 
ATOM     51  C   UNL     1     -49.770  41.373  29.350  1.00  0.00     0.021 C 
ATOM     52  C   UNL     1     -51.893  40.867  28.414  1.00  0.00     0.014 C 
ATOM     53  H   UNL     1     -51.001  39.501  26.831  1.00  0.00     0.059 H 
ATOM     54  N   UNL     1     -51.212  41.716  29.408  1.00  0.00    -0.309 NA
ATOM     55  H   UNL     1     -49.479  40.873  30.282  1.00  0.00     0.048 H 
ATOM     56  H   UNL     1     -49.177  42.286  29.244  1.00  0.00     0.048 H 
ATOM     57  H   UNL     1     -52.545  40.150  28.920  1.00  0.00     0.047 H 
ATOM     58  H   UNL     1     -52.503  41.482  27.743  1.00  0.00     0.047 H 
ATOM     59  H   UNL     1     -51.311  42.690  29.125  1.00  0.00     0.123 HD
ENDBRANCH  41  49
BRANCH  45  60
ATOM     60  N   UNL     1     -48.154  42.879  26.378  1.00  0.00    -0.383 N 
ATOM     61  H   UNL     1     -48.928  42.534  25.822  1.00  0.00     0.158 HD
ATOM     62  H   UNL     1     -48.399  43.276  27.277  1.00  0.00     0.158 HD
ENDBRANCH  45  60
ENDBRANCH  30  38
ENDBRANCH   1  26
TORSDOF 9
ENDMDL
MODEL 5
REMARK VINA RESULT:      -9.0      1.824      2.884
REMARK SMILES CNc1ccc2ccc(OC[C@H]3O[C@@H](n4cc(C5=CCNC5)c5c(N)ncnc54)[C@@H](F)[C@@H]3O)cc2n1
REMARK SMILES IDX 11 1 10 4 9 5 3 6 4 7 36 8 5 9 35 11 6 12 34 14 7 15 8 17
REMARK SMILES IDX 2 20 1 22 12 26 13 27 32 28 14 30 30 31 31 34 33 36 15 38
REMARK SMILES IDX 16 39 29 40 17 41 23 43 28 44 24 45 27 46 26 47 18 49 19 50
REMARK SMILES IDX 22 51 20 52 21 54 25 60
REMARK H PARENT 11 2 11 3 4 10 5 13 34 16 7 18 8 19 2 21 1 23 1 24 1 25 12 29
REMARK H PARENT 32 32 14 33 30 35 33 37 16 42 27 48 19 53 22 55 22 56 20 57
REMARK H PARENT 20 58 21 59 25 61 25 62
REMARK Flexibility Score: inf
ROOT
ATOM      1  C   UNL     1     -47.671  36.493  28.467  1.00  0.00     0.117 C 
ATOM      2  H   UNL     1     -48.257  37.332  28.862  1.00  0.00     0.073 H 
ATOM      3  H   UNL     1     -47.986  35.576  28.983  1.00  0.00     0.073 H 
ENDROOT
BRANCH   1   4
ATOM      4  O   UNL     1     -47.858  36.365  27.057  1.00  0.00    -0.491 OA
BRANCH   4   5
ATOM      5  C   UNL     1     -48.145  35.118  26.576  1.00  0.00     0.121 A 
ATOM      6  C   UNL     1     -46.362  31.547  23.973  1.00  0.00     0.126 A 
ATOM      7  C   UNL     1     -47.509  30.782  24.155  1.00  0.00    -0.019 A 
ATOM      8  N   UNL     1     -46.237  32.771  24.522  1.00  0.00    -0.231 NA
ATOM      9  C   UNL     1     -48.562  31.297  24.903  1.00  0.00    -0.049 A 
ATOM     10  H   UNL     1     -47.579  29.786  23.729  1.00  0.00     0.066 H 
ATOM     11  C   UNL     1     -47.251  33.275  25.249  1.00  0.00     0.076 A 
ATOM     12  C   UNL     1     -48.447  32.569  25.468  1.00  0.00     0.001 A 
ATOM     13  H   UNL     1     -49.457  30.699  25.047  1.00  0.00     0.063 H 
ATOM     14  C   UNL     1     -47.126  34.539  25.811  1.00  0.00     0.007 A 
ATOM     15  C   UNL     1     -49.476  33.139  26.234  1.00  0.00    -0.049 A 
ATOM     16  H   UNL     1     -46.203  35.088  25.643  1.00  0.00     0.069 H 
ATOM     17  C   UNL     1     -49.326  34.411  26.786  1.00  0.00    -0.019 A 
ATOM     18  H   UNL     1     -50.402  32.593  26.405  1.00  0.00     0.063 H 
ATOM     19  H   UNL     1     -50.145  34.814  27.372  1.00  0.00     0.066 H 
BRANCH   6  20
ATOM     20  N   UNL     1     -45.306  30.982  23.233  1.00  0.00    -0.373 N 
ATOM     21  H   UNL     1     -44.558  30.728  23.870  1.00  0.00     0.161 HD
BRANCH  20  22
ATOM     22  C   UNL     1     -45.700  29.867  22.388  1.00  0.00     0.005 C 
ATOM     23  H   UNL     1     -46.653  29.434  22.710  1.00  0.00     0.045 H 
ATOM     24  H   UNL     1     -44.930  29.088  22.363  1.00  0.00     0.045 H 
ATOM     25  H   UNL     1     -45.837  30.229  21.364  1.00  0.00     0.045 H 
ENDBRANCH  20  22
ENDBRANCH   6  20
ENDBRANCH   4   5
ENDBRANCH   1   4
BRANCH   1  26
ATOM     26  C   UNL     1     -46.191  36.751  28.748  1.00  0.00     0.123 C 
ATOM     27  O   UNL     1     -45.545  37.294  27.588  1.00  0.00    -0.345 OA
ATOM     28  C   UNL     1     -45.968  37.749  29.877  1.00  0.00     0.119 C 
ATOM     29  H   UNL     1     -45.708  35.797  28.998  1.00  0.00     0.067 H 
ATOM     30  C   UNL     1     -44.512  38.203  28.049  1.00  0.00     0.169 C 
ATOM     31  C   UNL     1     -44.569  38.246  29.573  1.00  0.00     0.173 C 
ATOM     32  H   UNL     1     -46.677  38.584  29.846  1.00  0.00     0.066 H 
ATOM     33  H   UNL     1     -43.554  37.802  27.700  1.00  0.00     0.088 H 
ATOM     34  F   UNL     1     -44.398  39.493  30.076  1.00  0.00    -0.239 F 
ATOM     35  H   UNL     1     -43.811  37.593  30.019  1.00  0.00     0.074 H 
BRANCH  28  36
ATOM     36  O   UNL     1     -46.049  37.133  31.157  1.00  0.00    -0.387 OA
ATOM     37  H   UNL     1     -46.805  36.513  31.131  1.00  0.00     0.211 HD
ENDBRANCH  28  36
BRANCH  30  38
ATOM     38  N   UNL     1     -44.710  39.496  27.409  1.00  0.00    -0.302 N 
ATOM     39  C   UNL     1     -43.740  40.319  26.891  1.00  0.00     0.017 A 
ATOM     40  C   UNL     1     -45.945  40.071  27.225  1.00  0.00     0.148 A 
ATOM     41  C   UNL     1     -44.368  41.421  26.344  1.00  0.00     0.010 A 
ATOM     42  H   UNL     1     -42.693  40.053  26.935  1.00  0.00     0.083 H 
ATOM     43  C   UNL     1     -45.768  41.285  26.572  1.00  0.00     0.069 A 
ATOM     44  N   UNL     1     -47.114  39.535  27.619  1.00  0.00    -0.218 NA
ATOM     45  C   UNL     1     -46.932  42.033  26.324  1.00  0.00     0.136 A 
ATOM     46  C   UNL     1     -48.151  40.328  27.304  1.00  0.00     0.120 A 
ATOM     47  N   UNL     1     -48.125  41.531  26.700  1.00  0.00    -0.219 NA
ATOM     48  H   UNL     1     -49.134  39.958  27.575  1.00  0.00     0.106 H 
BRANCH  41  49
ATOM     49  C   UNL     1     -43.680  42.463  25.683  1.00  0.00    -0.027 C 
ATOM     50  C   UNL     1     -43.644  42.753  24.382  1.00  0.00    -0.066 C 
ATOM     51  C   UNL     1     -42.904  43.460  26.472  1.00  0.00     0.021 C 
ATOM     52  C   UNL     1     -42.826  43.970  24.153  1.00  0.00     0.014 C 
ATOM     53  H   UNL     1     -44.148  42.205  23.601  1.00  0.00     0.059 H 
ATOM     54  N   UNL     1     -42.270  44.346  25.466  1.00  0.00    -0.309 NA
ATOM     55  H   UNL     1     -43.563  44.055  27.114  1.00  0.00     0.048 H 
ATOM     56  H   UNL     1     -42.132  42.999  27.096  1.00  0.00     0.048 H 
ATOM     57  H   UNL     1     -43.444  44.783  23.762  1.00  0.00     0.047 H 
ATOM     58  H   UNL     1     -42.018  43.770  23.441  1.00  0.00     0.047 H 
ATOM     59  H   UNL     1     -41.270  44.149  25.463  1.00  0.00     0.123 HD
ENDBRANCH  41  49
BRANCH  45  60
ATOM     60  N   UNL     1     -46.939  43.295  25.741  1.00  0.00    -0.383 N 
ATOM     61  H   UNL     1     -46.565  43.239  24.801  1.00  0.00     0.158 HD
ATOM     62  H   UNL     1     -47.826  43.774  25.835  1.00  0.00     0.158 HD
ENDBRANCH  45  60
ENDBRANCH  30  38
ENDBRANCH   1  26
TORSDOF 9
ENDMDL
MODEL 6
REMARK VINA RESULT:      -8.9      2.599      4.865
REMARK SMILES CNc1ccc2ccc(OC[C@H]3O[C@@H](n4cc(C5=CCNC5)c5c(N)ncnc54)[C@@H](F)[C@@H]3O)cc2n1
REMARK SMILES IDX 11 1 10 4 9 5 3 6 4 7 36 8 5 9 35 11 6 12 34 14 7 15 8 17
REMARK SMILES IDX 2 20 1 22 12 26 13 27 32 28 14 30 30 31 31 34 33 36 15 38
REMARK SMILES IDX 16 39 29 40 17 41 23 43 28 44 24 45 27 46 26 47 18 49 19 50
REMARK SMILES IDX 22 51 20 52 21 54 25 60
REMARK H PARENT 11 2 11 3 4 10 5 13 34 16 7 18 8 19 2 21 1 23 1 24 1 25 12 29
REMARK H PARENT 32 32 14 33 30 35 33 37 16 42 27 48 19 53 22 55 22 56 20 57
REMARK H PARENT 20 58 21 59 25 61 25 62
REMARK Flexibility Score: inf
ROOT
ATOM      1  C   UNL     1     -45.927  39.315  28.123  1.00  0.00     0.117 C 
ATOM      2  H   UNL     1     -46.757  39.372  27.408  1.00  0.00     0.073 H 
ATOM      3  H   UNL     1     -46.119  40.028  28.936  1.00  0.00     0.073 H 
ENDROOT
BRANCH   1   4
ATOM      4  O   UNL     1     -45.794  37.990  28.638  1.00  0.00    -0.491 OA
BRANCH   4   5
ATOM      5  C   UNL     1     -46.590  37.024  28.088  1.00  0.00     0.121 A 
ATOM      6  C   UNL     1     -46.469  33.001  25.536  1.00  0.00     0.126 A 
ATOM      7  C   UNL     1     -47.853  32.878  25.583  1.00  0.00    -0.019 A 
ATOM      8  N   UNL     1     -45.832  34.025  26.139  1.00  0.00    -0.231 NA
ATOM      9  C   UNL     1     -48.604  33.842  26.246  1.00  0.00    -0.049 A 
ATOM     10  H   UNL     1     -48.344  32.030  25.116  1.00  0.00     0.066 H 
ATOM     11  C   UNL     1     -46.552  34.961  26.785  1.00  0.00     0.076 A 
ATOM     12  C   UNL     1     -47.955  34.912  26.865  1.00  0.00     0.001 A 
ATOM     13  H   UNL     1     -49.685  33.744  26.284  1.00  0.00     0.063 H 
ATOM     14  C   UNL     1     -45.898  36.019  27.401  1.00  0.00     0.007 A 
ATOM     15  C   UNL     1     -48.660  35.914  27.551  1.00  0.00    -0.049 A 
ATOM     16  H   UNL     1     -44.813  36.060  27.341  1.00  0.00     0.069 H 
ATOM     17  C   UNL     1     -47.979  36.968  28.161  1.00  0.00    -0.019 A 
ATOM     18  H   UNL     1     -49.746  35.877  27.615  1.00  0.00     0.063 H 
ATOM     19  H   UNL     1     -48.562  37.720  28.681  1.00  0.00     0.066 H 
BRANCH   6  20
ATOM     20  N   UNL     1     -45.740  31.992  24.880  1.00  0.00    -0.373 N 
ATOM     21  H   UNL     1     -45.397  31.332  25.570  1.00  0.00     0.161 HD
BRANCH  20  22
ATOM     22  C   UNL     1     -46.471  31.328  23.812  1.00  0.00     0.005 C 
ATOM     23  H   UNL     1     -46.066  30.332  23.605  1.00  0.00     0.045 H 
ATOM     24  H   UNL     1     -46.474  31.925  22.893  1.00  0.00     0.045 H 
ATOM     25  H   UNL     1     -47.512  31.197  24.124  1.00  0.00     0.045 H 
ENDBRANCH  20  22
ENDBRANCH   6  20
ENDBRANCH   4   5
ENDBRANCH   1   4
BRANCH   1  26
ATOM     26  C   UNL     1     -44.632  39.700  27.407  1.00  0.00     0.123 C 
ATOM     27  O   UNL     1     -44.913  40.186  26.087  1.00  0.00    -0.345 OA
ATOM     28  C   UNL     1     -43.865  40.804  28.123  1.00  0.00     0.119 C 
ATOM     29  H   UNL     1     -43.999  38.807  27.320  1.00  0.00     0.067 H 
ATOM     30  C   UNL     1     -43.924  41.202  25.777  1.00  0.00     0.169 C 
ATOM     31  C   UNL     1     -43.024  41.370  26.998  1.00  0.00     0.173 C 
ATOM     32  H   UNL     1     -44.525  41.581  28.525  1.00  0.00     0.066 H 
ATOM     33  H   UNL     1     -43.355  40.841  24.913  1.00  0.00     0.088 H 
ATOM     34  F   UNL     1     -42.714  42.665  27.254  1.00  0.00    -0.239 F 
ATOM     35  H   UNL     1     -42.088  40.813  26.883  1.00  0.00     0.074 H 
BRANCH  28  36
ATOM     36  O   UNL     1     -43.065  40.296  29.184  1.00  0.00    -0.387 OA
ATOM     37  H   UNL     1     -43.352  40.747  30.003  1.00  0.00     0.211 HD
ENDBRANCH  28  36
BRANCH  30  38
ATOM     38  N   UNL     1     -44.616  42.418  25.374  1.00  0.00    -0.302 N 
ATOM     39  C   UNL     1     -45.844  42.853  25.810  1.00  0.00     0.017 A 
ATOM     40  C   UNL     1     -44.097  43.327  24.482  1.00  0.00     0.148 A 
ATOM     41  C   UNL     1     -46.099  44.069  25.207  1.00  0.00     0.010 A 
ATOM     42  H   UNL     1     -46.426  42.280  26.518  1.00  0.00     0.083 H 
ATOM     43  C   UNL     1     -45.007  44.369  24.343  1.00  0.00     0.069 A 
ATOM     44  N   UNL     1     -42.912  43.207  23.858  1.00  0.00    -0.218 NA
ATOM     45  C   UNL     1     -44.653  45.385  23.439  1.00  0.00     0.136 A 
ATOM     46  C   UNL     1     -42.677  44.249  23.044  1.00  0.00     0.120 A 
ATOM     47  N   UNL     1     -43.472  45.306  22.794  1.00  0.00    -0.219 NA
ATOM     48  H   UNL     1     -41.730  44.235  22.514  1.00  0.00     0.106 H 
BRANCH  41  49
ATOM     49  C   UNL     1     -47.261  44.834  25.455  1.00  0.00    -0.027 C 
ATOM     50  C   UNL     1     -48.508  44.631  25.028  1.00  0.00    -0.066 C 
ATOM     51  C   UNL     1     -47.193  46.021  26.353  1.00  0.00     0.021 C 
ATOM     52  C   UNL     1     -49.412  45.670  25.581  1.00  0.00     0.014 C 
ATOM     53  H   UNL     1     -48.831  43.822  24.391  1.00  0.00     0.059 H 
ATOM     54  N   UNL     1     -48.554  46.609  26.327  1.00  0.00    -0.309 NA
ATOM     55  H   UNL     1     -46.946  45.726  27.379  1.00  0.00     0.048 H 
ATOM     56  H   UNL     1     -46.463  46.764  26.018  1.00  0.00     0.048 H 
ATOM     57  H   UNL     1     -50.149  45.223  26.253  1.00  0.00     0.047 H 
ATOM     58  H   UNL     1     -49.942  46.194  24.778  1.00  0.00     0.047 H 
ATOM     59  H   UNL     1     -48.505  47.485  25.808  1.00  0.00     0.123 HD
ENDBRANCH  41  49
BRANCH  45  60
ATOM     60  N   UNL     1     -45.467  46.467  23.126  1.00  0.00    -0.383 N 
ATOM     61  H   UNL     1     -45.999  46.264  22.287  1.00  0.00     0.158 HD
ATOM     62  H   UNL     1     -46.002  46.808  23.915  1.00  0.00     0.158 HD
ENDBRANCH  45  60
ENDBRANCH  30  38
ENDBRANCH   1  26
TORSDOF 9
ENDMDL
MODEL 7
REMARK VINA RESULT:      -8.9      2.849      4.042
REMARK SMILES CNc1ccc2ccc(OC[C@H]3O[C@@H](n4cc(C5=CCNC5)c5c(N)ncnc54)[C@@H](F)[C@@H]3O)cc2n1
REMARK SMILES IDX 11 1 10 4 9 5 3 6 4 7 36 8 5 9 35 11 6 12 34 14 7 15 8 17
REMARK SMILES IDX 2 20 1 22 12 26 13 27 32 28 14 30 30 31 31 34 33 36 15 38
REMARK SMILES IDX 16 39 29 40 17 41 23 43 28 44 24 45 27 46 26 47 18 49 19 50
REMARK SMILES IDX 22 51 20 52 21 54 25 60
REMARK H PARENT 11 2 11 3 4 10 5 13 34 16 7 18 8 19 2 21 1 23 1 24 1 25 12 29
REMARK H PARENT 32 32 14 33 30 35 33 37 16 42 27 48 19 53 22 55 22 56 20 57
REMARK H PARENT 20 58 21 59 25 61 25 62
REMARK Flexibility Score: inf
ROOT
ATOM      1  C   UNL     1     -47.952  34.981  26.970  1.00  0.00     0.117 C 
ATOM      2  H   UNL     1     -48.106  35.168  25.900  1.00  0.00     0.073 H 
ATOM      3  H   UNL     1     -48.807  35.397  27.521  1.00  0.00     0.073 H 
ENDROOT
BRANCH   1   4
ATOM      4  O   UNL     1     -47.821  33.583  27.225  1.00  0.00    -0.491 OA
BRANCH   4   5
ATOM      5  C   UNL     1     -47.537  32.778  26.157  1.00  0.00     0.121 A 
ATOM      6  C   UNL     1     -48.704  28.638  24.105  1.00  0.00     0.126 A 
ATOM      7  C   UNL     1     -47.800  28.845  23.070  1.00  0.00    -0.019 A 
ATOM      8  N   UNL     1     -48.865  29.542  25.092  1.00  0.00    -0.231 NA
ATOM      9  C   UNL     1     -47.026  30.000  23.059  1.00  0.00    -0.049 A 
ATOM     10  H   UNL     1     -47.706  28.119  22.269  1.00  0.00     0.066 H 
ATOM     11  C   UNL     1     -48.121  30.663  25.087  1.00  0.00     0.076 A 
ATOM     12  C   UNL     1     -47.177  30.938  24.082  1.00  0.00     0.001 A 
ATOM     13  H   UNL     1     -46.320  30.163  22.249  1.00  0.00     0.063 H 
ATOM     14  C   UNL     1     -48.281  31.593  26.106  1.00  0.00     0.007 A 
ATOM     15  C   UNL     1     -46.425  32.123  24.122  1.00  0.00    -0.049 A 
ATOM     16  H   UNL     1     -49.010  31.383  26.885  1.00  0.00     0.069 H 
ATOM     17  C   UNL     1     -46.604  33.041  25.158  1.00  0.00    -0.019 A 
ATOM     18  H   UNL     1     -45.694  32.338  23.345  1.00  0.00     0.063 H 
ATOM     19  H   UNL     1     -46.003  33.943  25.151  1.00  0.00     0.066 H 
BRANCH   6  20
ATOM     20  N   UNL     1     -49.490  27.471  24.068  1.00  0.00    -0.373 N 
ATOM     21  H   UNL     1     -49.435  27.067  23.138  1.00  0.00     0.161 HD
BRANCH  20  22
ATOM     22  C   UNL     1     -49.164  26.500  25.100  1.00  0.00     0.005 C 
ATOM     23  H   UNL     1     -49.994  26.365  25.802  1.00  0.00     0.045 H 
ATOM     24  H   UNL     1     -48.258  26.783  25.648  1.00  0.00     0.045 H 
ATOM     25  H   UNL     1     -48.976  25.530  24.628  1.00  0.00     0.045 H 
ENDBRANCH  20  22
ENDBRANCH   6  20
ENDBRANCH   4   5
ENDBRANCH   1   4
BRANCH   1  26
ATOM     26  C   UNL     1     -46.671  35.687  27.415  1.00  0.00     0.123 C 
ATOM     27  O   UNL     1     -46.425  36.842  26.600  1.00  0.00    -0.345 OA
ATOM     28  C   UNL     1     -46.735  36.177  28.856  1.00  0.00     0.119 C 
ATOM     29  H   UNL     1     -45.828  34.995  27.297  1.00  0.00     0.067 H 
ATOM     30  C   UNL     1     -45.788  37.841  27.440  1.00  0.00     0.169 C 
ATOM     31  C   UNL     1     -45.688  37.272  28.852  1.00  0.00     0.173 C 
ATOM     32  H   UNL     1     -47.714  36.596  29.114  1.00  0.00     0.066 H 
ATOM     33  H   UNL     1     -44.795  38.028  27.017  1.00  0.00     0.088 H 
ATOM     34  F   UNL     1     -45.966  38.186  29.814  1.00  0.00    -0.239 F 
ATOM     35  H   UNL     1     -44.689  36.866  29.049  1.00  0.00     0.074 H 
BRANCH  28  36
ATOM     36  O   UNL     1     -46.425  35.144  29.784  1.00  0.00    -0.387 OA
ATOM     37  H   UNL     1     -46.132  35.578  30.610  1.00  0.00     0.211 HD
ENDBRANCH  28  36
BRANCH  30  38
ATOM     38  N   UNL     1     -46.549  39.079  27.349  1.00  0.00    -0.302 N 
ATOM     39  C   UNL     1     -47.811  39.312  27.840  1.00  0.00     0.017 A 
ATOM     40  C   UNL     1     -46.072  40.221  26.749  1.00  0.00     0.148 A 
ATOM     41  C   UNL     1     -48.132  40.628  27.572  1.00  0.00     0.010 A 
ATOM     42  H   UNL     1     -48.369  38.538  28.349  1.00  0.00     0.083 H 
ATOM     43  C   UNL     1     -47.043  41.209  26.859  1.00  0.00     0.069 A 
ATOM     44  N   UNL     1     -44.869  40.340  26.160  1.00  0.00    -0.218 NA
ATOM     45  C   UNL     1     -46.738  42.448  26.270  1.00  0.00     0.136 A 
ATOM     46  C   UNL     1     -44.685  41.573  25.661  1.00  0.00     0.120 A 
ATOM     47  N   UNL     1     -45.542  42.611  25.671  1.00  0.00    -0.219 NA
ATOM     48  H   UNL     1     -43.729  41.755  25.181  1.00  0.00     0.106 H 
BRANCH  41  49
ATOM     49  C   UNL     1     -49.345  41.232  27.972  1.00  0.00    -0.027 C 
ATOM     50  C   UNL     1     -49.696  41.702  29.168  1.00  0.00    -0.066 C 
ATOM     51  C   UNL     1     -50.423  41.468  26.971  1.00  0.00     0.021 C 
ATOM     52  C   UNL     1     -51.055  42.294  29.106  1.00  0.00     0.014 C 
ATOM     53  H   UNL     1     -49.083  41.683  30.057  1.00  0.00     0.059 H 
ATOM     54  N   UNL     1     -51.553  42.041  27.742  1.00  0.00    -0.309 NA
ATOM     55  H   UNL     1     -50.104  42.187  26.208  1.00  0.00     0.048 H 
ATOM     56  H   UNL     1     -50.746  40.549  26.471  1.00  0.00     0.048 H 
ATOM     57  H   UNL     1     -51.018  43.370  29.298  1.00  0.00     0.047 H 
ATOM     58  H   UNL     1     -51.718  41.829  29.845  1.00  0.00     0.047 H 
ATOM     59  H   UNL     1     -52.287  41.336  27.790  1.00  0.00     0.123 HD
ENDBRANCH  41  49
BRANCH  45  60
ATOM     60  N   UNL     1     -47.613  43.527  26.226  1.00  0.00    -0.383 N 
ATOM     61  H   UNL     1     -47.238  44.294  26.772  1.00  0.00     0.158 HD
ATOM     62  H   UNL     1     -47.914  43.760  25.287  1.00  0.00     0.158 HD
ENDBRANCH  45  60
ENDBRANCH  30  38
ENDBRANCH   1  26
TORSDOF 9
ENDMDL
