MODEL 1
REMARK VINA RESULT:     -11.3      0.000      0.000
REMARK SMILES O=C(NCc1ccc2cc(CNCC3CCCC3)[nH]c2c1)c1cc(=O)n2ccccc2n1
REMARK SMILES IDX 5 1 6 2 7 3 8 4 9 5 10 6 19 7 20 8 21 9 4 15 3 18 1 19 2 20
REMARK SMILES IDX 22 22 23 23 32 24 24 25 31 27 25 28 26 29 30 30 27 31 29 32
REMARK SMILES IDX 28 34 11 38 12 41 13 43 14 46 15 47 18 48 16 50 17 53
REMARK H PARENT 6 10 7 11 9 12 19 13 21 14 4 16 4 17 3 21 23 26 30 33 27 35
REMARK H PARENT 29 36 28 37 11 39 11 40 12 42 13 44 13 45 14 49 15 51 15 52
REMARK H PARENT 18 54 18 55 16 56 16 57 17 58 17 59
REMARK Flexibility Score: inf
ROOT
ATOM      1  C   UNL     1     -48.013  35.274  26.876  1.00  0.00    -0.027 A 
ATOM      2  C   UNL     1     -46.702  35.292  26.380  1.00  0.00    -0.057 A 
ATOM      3  C   UNL     1     -46.211  34.241  25.595  1.00  0.00    -0.052 A 
ATOM      4  C   UNL     1     -47.045  33.145  25.307  1.00  0.00    -0.000 A 
ATOM      5  C   UNL     1     -46.880  31.941  24.571  1.00  0.00    -0.032 A 
ATOM      6  C   UNL     1     -48.060  31.226  24.644  1.00  0.00     0.030 A 
ATOM      7  N   UNL     1     -48.934  31.968  25.403  1.00  0.00    -0.357 N 
ATOM      8  C   UNL     1     -48.341  33.139  25.816  1.00  0.00     0.046 A 
ATOM      9  C   UNL     1     -48.851  34.180  26.600  1.00  0.00    -0.033 A 
ATOM     10  H   UNL     1     -46.044  36.130  26.601  1.00  0.00     0.063 H 
ATOM     11  H   UNL     1     -45.193  34.269  25.216  1.00  0.00     0.063 H 
ATOM     12  H   UNL     1     -45.989  31.618  24.050  1.00  0.00     0.065 H 
ATOM     13  H   UNL     1     -49.878  31.697  25.638  1.00  0.00     0.166 HD
ATOM     14  H   UNL     1     -49.864  34.143  26.993  1.00  0.00     0.065 H 
ENDROOT
BRANCH   1  15
ATOM     15  C   UNL     1     -48.518  36.400  27.743  1.00  0.00     0.043 C 
ATOM     16  H   UNL     1     -49.456  36.800  27.343  1.00  0.00     0.054 H 
ATOM     17  H   UNL     1     -48.727  36.034  28.755  1.00  0.00     0.054 H 
BRANCH  15  18
ATOM     18  N   UNL     1     -47.569  37.482  27.781  1.00  0.00    -0.347 N 
ATOM     19  O   UNL     1     -46.591  36.925  29.788  1.00  0.00    -0.268 OA
ATOM     20  C   UNL     1     -46.627  37.609  28.773  1.00  0.00     0.270 C 
ATOM     21  H   UNL     1     -47.405  38.028  26.941  1.00  0.00     0.164 HD
BRANCH  20  22
ATOM     22  C   UNL     1     -45.613  38.685  28.466  1.00  0.00     0.136 A 
ATOM     23  C   UNL     1     -45.824  39.401  27.359  1.00  0.00     0.035 A 
ATOM     24  N   UNL     1     -44.557  38.867  29.330  1.00  0.00    -0.225 NA
ATOM     25  C   UNL     1     -44.869  40.465  27.026  1.00  0.00     0.258 A 
ATOM     26  H   UNL     1     -46.660  39.250  26.689  1.00  0.00     0.071 H 
ATOM     27  C   UNL     1     -43.717  39.811  29.033  1.00  0.00     0.140 A 
ATOM     28  O   UNL     1     -45.055  41.129  26.008  1.00  0.00    -0.269 OA
ATOM     29  N   UNL     1     -43.816  40.631  27.914  1.00  0.00    -0.268 N 
ATOM     30  C   UNL     1     -42.560  40.047  29.943  1.00  0.00    -0.019 A 
ATOM     31  C   UNL     1     -42.870  41.620  27.667  1.00  0.00     0.014 A 
ATOM     32  C   UNL     1     -41.676  41.013  29.663  1.00  0.00    -0.057 A 
ATOM     33  H   UNL     1     -42.475  39.416  30.818  1.00  0.00     0.066 H 
ATOM     34  C   UNL     1     -41.834  41.827  28.488  1.00  0.00    -0.045 A 
ATOM     35  H   UNL     1     -43.010  42.224  26.773  1.00  0.00     0.082 H 
ATOM     36  H   UNL     1     -40.828  41.201  30.313  1.00  0.00     0.062 H 
ATOM     37  H   UNL     1     -41.102  42.602  28.285  1.00  0.00     0.064 H 
ENDBRANCH  20  22
ENDBRANCH  15  18
ENDBRANCH   1  15
BRANCH   6  38
ATOM     38  C   UNL     1     -48.440  29.910  24.061  1.00  0.00     0.036 C 
ATOM     39  H   UNL     1     -48.828  30.088  23.050  1.00  0.00     0.049 H 
ATOM     40  H   UNL     1     -49.253  29.437  24.624  1.00  0.00     0.049 H 
BRANCH  38  41
ATOM     41  N   UNL     1     -47.292  29.013  23.957  1.00  0.00    -0.311 NA
ATOM     42  H   UNL     1     -46.757  29.263  23.128  1.00  0.00     0.123 HD
BRANCH  41  43
ATOM     43  C   UNL     1     -47.682  27.605  23.869  1.00  0.00    -0.002 C 
ATOM     44  H   UNL     1     -46.959  27.052  23.257  1.00  0.00     0.043 H 
ATOM     45  H   UNL     1     -48.664  27.505  23.394  1.00  0.00     0.043 H 
BRANCH  43  46
ATOM     46  C   UNL     1     -47.733  26.978  25.265  1.00  0.00    -0.029 C 
ATOM     47  C   UNL     1     -46.556  26.042  25.531  1.00  0.00    -0.049 C 
ATOM     48  C   UNL     1     -48.933  26.059  25.497  1.00  0.00    -0.049 C 
ATOM     49  H   UNL     1     -47.734  27.771  26.027  1.00  0.00     0.032 H 
ATOM     50  C   UNL     1     -46.999  25.240  26.748  1.00  0.00    -0.053 C 
ATOM     51  H   UNL     1     -46.392  25.368  24.681  1.00  0.00     0.027 H 
ATOM     52  H   UNL     1     -45.624  26.586  25.716  1.00  0.00     0.027 H 
ATOM     53  C   UNL     1     -48.525  25.186  26.682  1.00  0.00    -0.053 C 
ATOM     54  H   UNL     1     -49.853  26.614  25.701  1.00  0.00     0.027 H 
ATOM     55  H   UNL     1     -49.112  25.425  24.619  1.00  0.00     0.027 H 
ATOM     56  H   UNL     1     -46.687  25.747  27.669  1.00  0.00     0.027 H 
ATOM     57  H   UNL     1     -46.553  24.240  26.757  1.00  0.00     0.027 H 
ATOM     58  H   UNL     1     -48.888  24.162  26.557  1.00  0.00     0.027 H 
ATOM     59  H   UNL     1     -48.954  25.574  27.613  1.00  0.00     0.027 H 
ENDBRANCH  43  46
ENDBRANCH  41  43
ENDBRANCH  38  41
ENDBRANCH   6  38
TORSDOF 7
ENDMDL
MODEL 2
REMARK VINA RESULT:     -10.9      1.878      2.940
REMARK SMILES O=C(NCc1ccc2cc(CNCC3CCCC3)[nH]c2c1)c1cc(=O)n2ccccc2n1
REMARK SMILES IDX 5 1 6 2 7 3 8 4 9 5 10 6 19 7 20 8 21 9 4 15 3 18 1 19 2 20
REMARK SMILES IDX 22 22 23 23 32 24 24 25 31 27 25 28 26 29 30 30 27 31 29 32
REMARK SMILES IDX 28 34 11 38 12 41 13 43 14 46 15 47 18 48 16 50 17 53
REMARK H PARENT 6 10 7 11 9 12 19 13 21 14 4 16 4 17 3 21 23 26 30 33 27 35
REMARK H PARENT 29 36 28 37 11 39 11 40 12 42 13 44 13 45 14 49 15 51 15 52
REMARK H PARENT 18 54 18 55 16 56 16 57 17 58 17 59
REMARK Flexibility Score: inf
ROOT
ATOM      1  C   UNL     1     -46.327  35.834  28.111  1.00  0.00    -0.027 A 
ATOM      2  C   UNL     1     -47.704  35.926  27.866  1.00  0.00    -0.057 A 
ATOM      3  C   UNL     1     -48.333  35.077  26.945  1.00  0.00    -0.052 A 
ATOM      4  C   UNL     1     -47.567  34.123  26.250  1.00  0.00    -0.000 A 
ATOM      5  C   UNL     1     -47.865  33.137  25.272  1.00  0.00    -0.032 A 
ATOM      6  C   UNL     1     -46.690  32.489  24.940  1.00  0.00     0.030 A 
ATOM      7  N   UNL     1     -45.692  33.059  25.694  1.00  0.00    -0.357 N 
ATOM      8  C   UNL     1     -46.199  34.052  26.499  1.00  0.00     0.046 A 
ATOM      9  C   UNL     1     -45.553  34.889  27.416  1.00  0.00    -0.033 A 
ATOM     10  H   UNL     1     -48.306  36.664  28.391  1.00  0.00     0.063 H 
ATOM     11  H   UNL     1     -49.401  35.159  26.766  1.00  0.00     0.063 H 
ATOM     12  H   UNL     1     -48.834  32.924  24.841  1.00  0.00     0.065 H 
ATOM     13  H   UNL     1     -44.716  32.798  25.664  1.00  0.00     0.166 HD
ATOM     14  H   UNL     1     -44.481  34.819  27.582  1.00  0.00     0.065 H 
ENDROOT
BRANCH   1  15
ATOM     15  C   UNL     1     -45.660  36.773  29.085  1.00  0.00     0.043 C 
ATOM     16  H   UNL     1     -46.399  37.204  29.769  1.00  0.00     0.054 H 
ATOM     17  H   UNL     1     -44.930  36.230  29.696  1.00  0.00     0.054 H 
BRANCH  15  18
ATOM     18  N   UNL     1     -45.027  37.865  28.391  1.00  0.00    -0.347 N 
ATOM     19  O   UNL     1     -46.813  39.316  28.466  1.00  0.00    -0.268 OA
ATOM     20  C   UNL     1     -45.639  39.082  28.207  1.00  0.00     0.270 C 
ATOM     21  H   UNL     1     -44.022  37.849  28.252  1.00  0.00     0.164 HD
BRANCH  20  22
ATOM     22  C   UNL     1     -44.691  40.122  27.659  1.00  0.00     0.136 A 
ATOM     23  C   UNL     1     -43.613  40.390  28.398  1.00  0.00     0.035 A 
ATOM     24  N   UNL     1     -44.983  40.715  26.451  1.00  0.00    -0.225 NA
ATOM     25  C   UNL     1     -42.659  41.388  27.900  1.00  0.00     0.258 A 
ATOM     26  H   UNL     1     -43.392  39.915  29.346  1.00  0.00     0.071 H 
ATOM     27  C   UNL     1     -44.135  41.594  26.014  1.00  0.00     0.140 A 
ATOM     28  O   UNL     1     -41.662  41.643  28.576  1.00  0.00    -0.269 OA
ATOM     29  N   UNL     1     -42.973  41.969  26.680  1.00  0.00    -0.268 N 
ATOM     30  C   UNL     1     -44.408  42.260  24.708  1.00  0.00    -0.019 A 
ATOM     31  C   UNL     1     -42.116  42.923  26.142  1.00  0.00     0.014 A 
ATOM     32  C   UNL     1     -43.552  43.171  24.231  1.00  0.00    -0.057 A 
ATOM     33  H   UNL     1     -45.309  41.974  24.180  1.00  0.00     0.066 H 
ATOM     34  C   UNL     1     -42.368  43.516  24.969  1.00  0.00    -0.045 A 
ATOM     35  H   UNL     1     -41.226  43.167  26.718  1.00  0.00     0.082 H 
ATOM     36  H   UNL     1     -43.733  43.666  23.282  1.00  0.00     0.062 H 
ATOM     37  H   UNL     1     -41.691  44.259  24.559  1.00  0.00     0.064 H 
ENDBRANCH  20  22
ENDBRANCH  15  18
ENDBRANCH   1  15
BRANCH   6  38
ATOM     38  C   UNL     1     -46.424  31.383  23.982  1.00  0.00     0.036 C 
ATOM     39  H   UNL     1     -45.357  31.135  24.039  1.00  0.00     0.049 H 
ATOM     40  H   UNL     1     -46.613  31.690  22.946  1.00  0.00     0.049 H 
BRANCH  38  41
ATOM     41  N   UNL     1     -47.190  30.184  24.314  1.00  0.00    -0.311 NA
ATOM     42  H   UNL     1     -46.907  29.862  25.238  1.00  0.00     0.123 HD
BRANCH  41  43
ATOM     43  C   UNL     1     -46.991  29.102  23.348  1.00  0.00    -0.002 C 
ATOM     44  H   UNL     1     -45.941  29.067  23.033  1.00  0.00     0.043 H 
ATOM     45  H   UNL     1     -47.601  29.267  22.453  1.00  0.00     0.043 H 
BRANCH  43  46
ATOM     46  C   UNL     1     -47.368  27.755  23.972  1.00  0.00    -0.029 C 
ATOM     47  C   UNL     1     -48.237  27.909  25.219  1.00  0.00    -0.049 C 
ATOM     48  C   UNL     1     -46.179  26.956  24.505  1.00  0.00    -0.049 C 
ATOM     49  H   UNL     1     -47.911  27.146  23.235  1.00  0.00     0.032 H 
ATOM     50  C   UNL     1     -48.152  26.544  25.890  1.00  0.00    -0.053 C 
ATOM     51  H   UNL     1     -47.830  28.677  25.887  1.00  0.00     0.027 H 
ATOM     52  H   UNL     1     -49.269  28.183  24.977  1.00  0.00     0.027 H 
ATOM     53  C   UNL     1     -46.794  25.966  25.492  1.00  0.00    -0.053 C 
ATOM     54  H   UNL     1     -45.627  26.445  23.711  1.00  0.00     0.027 H 
ATOM     55  H   UNL     1     -45.476  27.612  25.034  1.00  0.00     0.027 H 
ATOM     56  H   UNL     1     -48.953  25.891  25.522  1.00  0.00     0.027 H 
ATOM     57  H   UNL     1     -48.263  26.620  26.976  1.00  0.00     0.027 H 
ATOM     58  H   UNL     1     -46.144  25.825  26.361  1.00  0.00     0.027 H 
ATOM     59  H   UNL     1     -46.928  24.985  25.022  1.00  0.00     0.027 H 
ENDBRANCH  43  46
ENDBRANCH  41  43
ENDBRANCH  38  41
ENDBRANCH   6  38
TORSDOF 7
ENDMDL
MODEL 3
REMARK VINA RESULT:     -10.3      2.777     11.684
REMARK SMILES O=C(NCc1ccc2cc(CNCC3CCCC3)[nH]c2c1)c1cc(=O)n2ccccc2n1
REMARK SMILES IDX 5 1 6 2 7 3 8 4 9 5 10 6 19 7 20 8 21 9 4 15 3 18 1 19 2 20
REMARK SMILES IDX 22 22 23 23 32 24 24 25 31 27 25 28 26 29 30 30 27 31 29 32
REMARK SMILES IDX 28 34 11 38 12 41 13 43 14 46 15 47 18 48 16 50 17 53
REMARK H PARENT 6 10 7 11 9 12 19 13 21 14 4 16 4 17 3 21 23 26 30 33 27 35
REMARK H PARENT 29 36 28 37 11 39 11 40 12 42 13 44 13 45 14 49 15 51 15 52
REMARK H PARENT 18 54 18 55 16 56 16 57 17 58 17 59
REMARK Flexibility Score: inf
ROOT
ATOM      1  C   UNL     1     -48.224  33.804  26.109  1.00  0.00    -0.027 A 
ATOM      2  C   UNL     1     -46.876  33.524  25.843  1.00  0.00    -0.057 A 
ATOM      3  C   UNL     1     -45.851  34.281  26.427  1.00  0.00    -0.052 A 
ATOM      4  C   UNL     1     -46.182  35.344  27.288  1.00  0.00    -0.000 A 
ATOM      5  C   UNL     1     -45.424  36.292  28.026  1.00  0.00    -0.032 A 
ATOM      6  C   UNL     1     -46.305  37.119  28.699  1.00  0.00     0.030 A 
ATOM      7  N   UNL     1     -47.573  36.691  28.387  1.00  0.00    -0.357 N 
ATOM      8  C   UNL     1     -47.525  35.614  27.534  1.00  0.00     0.046 A 
ATOM      9  C   UNL     1     -48.563  34.869  26.962  1.00  0.00    -0.033 A 
ATOM     10  H   UNL     1     -46.607  32.710  25.174  1.00  0.00     0.063 H 
ATOM     11  H   UNL     1     -44.811  34.052  26.214  1.00  0.00     0.063 H 
ATOM     12  H   UNL     1     -44.346  36.377  28.057  1.00  0.00     0.065 H 
ATOM     13  H   UNL     1     -48.429  37.109  28.725  1.00  0.00     0.166 HD
ATOM     14  H   UNL     1     -49.604  35.110  27.163  1.00  0.00     0.065 H 
ENDROOT
BRANCH   1  15
ATOM     15  C   UNL     1     -49.316  32.999  25.450  1.00  0.00     0.043 C 
ATOM     16  H   UNL     1     -50.250  33.085  26.017  1.00  0.00     0.054 H 
ATOM     17  H   UNL     1     -49.512  33.381  24.442  1.00  0.00     0.054 H 
BRANCH  15  18
ATOM     18  N   UNL     1     -48.966  31.603  25.404  1.00  0.00    -0.347 N 
ATOM     19  O   UNL     1     -48.877  31.413  23.113  1.00  0.00    -0.268 OA
ATOM     20  C   UNL     1     -48.700  30.943  24.230  1.00  0.00     0.270 C 
ATOM     21  H   UNL     1     -48.655  31.141  26.253  1.00  0.00     0.164 HD
BRANCH  20  22
ATOM     22  C   UNL     1     -48.139  29.561  24.464  1.00  0.00     0.136 A 
ATOM     23  C   UNL     1     -47.067  29.225  23.742  1.00  0.00     0.035 A 
ATOM     24  N   UNL     1     -48.746  28.748  25.394  1.00  0.00    -0.225 NA
ATOM     25  C   UNL     1     -46.482  27.894  23.944  1.00  0.00     0.258 A 
ATOM     26  H   UNL     1     -46.597  29.874  23.016  1.00  0.00     0.071 H 
ATOM     27  C   UNL     1     -48.223  27.573  25.571  1.00  0.00     0.140 A 
ATOM     28  O   UNL     1     -45.495  27.576  23.283  1.00  0.00    -0.269 OA
ATOM     29  N   UNL     1     -47.109  27.095  24.889  1.00  0.00    -0.268 N 
ATOM     30  C   UNL     1     -48.845  26.659  26.572  1.00  0.00    -0.019 A 
ATOM     31  C   UNL     1     -46.611  25.820  25.137  1.00  0.00     0.014 A 
ATOM     32  C   UNL     1     -48.328  25.441  26.776  1.00  0.00    -0.057 A 
ATOM     33  H   UNL     1     -49.711  27.022  27.110  1.00  0.00     0.066 H 
ATOM     34  C   UNL     1     -47.175  25.005  26.036  1.00  0.00    -0.045 A 
ATOM     35  H   UNL     1     -45.738  25.512  24.567  1.00  0.00     0.082 H 
ATOM     36  H   UNL     1     -48.767  24.762  27.500  1.00  0.00     0.062 H 
ATOM     37  H   UNL     1     -46.777  24.012  26.222  1.00  0.00     0.064 H 
ENDBRANCH  20  22
ENDBRANCH  15  18
ENDBRANCH   1  15
BRANCH   6  38
ATOM     38  C   UNL     1     -46.058  38.269  29.609  1.00  0.00     0.036 C 
ATOM     39  H   UNL     1     -46.031  37.887  30.637  1.00  0.00     0.049 H 
ATOM     40  H   UNL     1     -46.878  38.997  29.573  1.00  0.00     0.049 H 
BRANCH  38  41
ATOM     41  N   UNL     1     -44.779  38.916  29.330  1.00  0.00    -0.311 NA
ATOM     42  H   UNL     1     -44.553  39.538  30.103  1.00  0.00     0.123 HD
BRANCH  41  43
ATOM     43  C   UNL     1     -44.796  39.686  28.085  1.00  0.00    -0.002 C 
ATOM     44  H   UNL     1     -45.642  40.385  28.086  1.00  0.00     0.043 H 
ATOM     45  H   UNL     1     -44.915  39.022  27.222  1.00  0.00     0.043 H 
BRANCH  43  46
ATOM     46  C   UNL     1     -43.496  40.481  27.932  1.00  0.00    -0.029 C 
ATOM     47  C   UNL     1     -42.755  40.654  29.257  1.00  0.00    -0.049 C 
ATOM     48  C   UNL     1     -43.695  41.929  27.483  1.00  0.00    -0.049 C 
ATOM     49  H   UNL     1     -42.833  39.971  27.220  1.00  0.00     0.032 H 
ATOM     50  C   UNL     1     -41.761  41.773  28.973  1.00  0.00    -0.053 C 
ATOM     51  H   UNL     1     -43.444  40.962  30.053  1.00  0.00     0.027 H 
ATOM     52  H   UNL     1     -42.256  39.735  29.579  1.00  0.00     0.027 H 
ATOM     53  C   UNL     1     -42.402  42.636  27.886  1.00  0.00    -0.053 C 
ATOM     54  H   UNL     1     -43.884  42.013  26.410  1.00  0.00     0.027 H 
ATOM     55  H   UNL     1     -44.542  42.386  28.010  1.00  0.00     0.027 H 
ATOM     56  H   UNL     1     -40.817  41.355  28.603  1.00  0.00     0.027 H 
ATOM     57  H   UNL     1     -41.534  42.350  29.874  1.00  0.00     0.027 H 
ATOM     58  H   UNL     1     -42.605  43.650  28.243  1.00  0.00     0.027 H 
ATOM     59  H   UNL     1     -41.726  42.721  27.028  1.00  0.00     0.027 H 
ENDBRANCH  43  46
ENDBRANCH  41  43
ENDBRANCH  38  41
ENDBRANCH   6  38
TORSDOF 7
ENDMDL
MODEL 4
REMARK VINA RESULT:     -10.3      2.425      4.097
REMARK SMILES O=C(NCc1ccc2cc(CNCC3CCCC3)[nH]c2c1)c1cc(=O)n2ccccc2n1
REMARK SMILES IDX 5 1 6 2 7 3 8 4 9 5 10 6 19 7 20 8 21 9 4 15 3 18 1 19 2 20
REMARK SMILES IDX 22 22 23 23 32 24 24 25 31 27 25 28 26 29 30 30 27 31 29 32
REMARK SMILES IDX 28 34 11 38 12 41 13 43 14 46 15 47 18 48 16 50 17 53
REMARK H PARENT 6 10 7 11 9 12 19 13 21 14 4 16 4 17 3 21 23 26 30 33 27 35
REMARK H PARENT 29 36 28 37 11 39 11 40 12 42 13 44 13 45 14 49 15 51 15 52
REMARK H PARENT 18 54 18 55 16 56 16 57 17 58 17 59
REMARK Flexibility Score: inf
ROOT
ATOM      1  C   UNL     1     -46.437  36.383  28.265  1.00  0.00    -0.027 A 
ATOM      2  C   UNL     1     -47.825  36.372  28.076  1.00  0.00    -0.057 A 
ATOM      3  C   UNL     1     -48.432  35.438  27.226  1.00  0.00    -0.052 A 
ATOM      4  C   UNL     1     -47.633  34.502  26.544  1.00  0.00    -0.000 A 
ATOM      5  C   UNL     1     -47.903  33.450  25.629  1.00  0.00    -0.032 A 
ATOM      6  C   UNL     1     -46.700  32.865  25.277  1.00  0.00     0.030 A 
ATOM      7  N   UNL     1     -45.713  33.537  25.958  1.00  0.00    -0.357 N 
ATOM      8  C   UNL     1     -46.254  34.534  26.736  1.00  0.00     0.046 A 
ATOM      9  C   UNL     1     -45.629  35.457  27.582  1.00  0.00    -0.033 A 
ATOM     10  H   UNL     1     -48.454  37.094  28.592  1.00  0.00     0.063 H 
ATOM     11  H   UNL     1     -49.510  35.440  27.090  1.00  0.00     0.063 H 
ATOM     12  H   UNL     1     -48.872  33.152  25.251  1.00  0.00     0.065 H 
ATOM     13  H   UNL     1     -44.724  33.339  25.897  1.00  0.00     0.166 HD
ATOM     14  H   UNL     1     -44.549  35.466  27.704  1.00  0.00     0.065 H 
ENDROOT
BRANCH   1  15
ATOM     15  C   UNL     1     -45.795  37.413  29.162  1.00  0.00     0.043 C 
ATOM     16  H   UNL     1     -46.558  37.941  29.745  1.00  0.00     0.054 H 
ATOM     17  H   UNL     1     -45.121  36.926  29.875  1.00  0.00     0.054 H 
BRANCH  15  18
ATOM     18  N   UNL     1     -45.087  38.398  28.386  1.00  0.00    -0.347 N 
ATOM     19  O   UNL     1     -46.816  39.906  28.206  1.00  0.00    -0.268 OA
ATOM     20  C   UNL     1     -45.641  39.605  28.036  1.00  0.00     0.270 C 
ATOM     21  H   UNL     1     -44.078  38.332  28.303  1.00  0.00     0.164 HD
BRANCH  20  22
ATOM     22  C   UNL     1     -44.627  40.545  27.429  1.00  0.00     0.136 A 
ATOM     23  C   UNL     1     -43.504  40.736  28.123  1.00  0.00     0.035 A 
ATOM     24  N   UNL     1     -44.911  41.132  26.216  1.00  0.00    -0.225 NA
ATOM     25  C   UNL     1     -42.485  41.635  27.565  1.00  0.00     0.258 A 
ATOM     26  H   UNL     1     -43.291  40.267  29.074  1.00  0.00     0.071 H 
ATOM     27  C   UNL     1     -44.006  41.923  25.725  1.00  0.00     0.140 A 
ATOM     28  O   UNL     1     -41.447  41.817  28.198  1.00  0.00    -0.269 OA
ATOM     29  N   UNL     1     -42.793  42.210  26.341  1.00  0.00    -0.268 N 
ATOM     30  C   UNL     1     -44.269  42.578  24.412  1.00  0.00    -0.019 A 
ATOM     31  C   UNL     1     -41.877  43.073  25.748  1.00  0.00     0.014 A 
ATOM     32  C   UNL     1     -43.355  43.399  23.881  1.00  0.00    -0.057 A 
ATOM     33  H   UNL     1     -45.209  42.359  23.923  1.00  0.00     0.066 H 
ATOM     34  C   UNL     1     -42.119  43.657  24.569  1.00  0.00    -0.045 A 
ATOM     35  H   UNL     1     -40.949  43.252  26.286  1.00  0.00     0.082 H 
ATOM     36  H   UNL     1     -43.527  43.884  22.925  1.00  0.00     0.062 H 
ATOM     37  H   UNL     1     -41.396  44.328  24.115  1.00  0.00     0.064 H 
ENDBRANCH  20  22
ENDBRANCH  15  18
ENDBRANCH   1  15
BRANCH   6  38
ATOM     38  C   UNL     1     -46.400  31.731  24.362  1.00  0.00     0.036 C 
ATOM     39  H   UNL     1     -45.411  31.337  24.626  1.00  0.00     0.049 H 
ATOM     40  H   UNL     1     -46.330  32.061  23.318  1.00  0.00     0.049 H 
BRANCH  38  41
ATOM     41  N   UNL     1     -47.373  30.651  24.500  1.00  0.00    -0.311 NA
ATOM     42  H   UNL     1     -47.173  30.140  25.358  1.00  0.00     0.123 HD
BRANCH  41  43
ATOM     43  C   UNL     1     -47.348  29.720  23.371  1.00  0.00    -0.002 C 
ATOM     44  H   UNL     1     -47.401  28.686  23.735  1.00  0.00     0.043 H 
ATOM     45  H   UNL     1     -46.415  29.825  22.805  1.00  0.00     0.043 H 
BRANCH  43  46
ATOM     46  C   UNL     1     -48.534  29.981  22.439  1.00  0.00    -0.029 C 
ATOM     47  C   UNL     1     -48.113  30.636  21.124  1.00  0.00    -0.049 C 
ATOM     48  C   UNL     1     -49.554  30.981  22.985  1.00  0.00    -0.049 C 
ATOM     49  H   UNL     1     -49.043  29.033  22.215  1.00  0.00     0.032 H 
ATOM     50  C   UNL     1     -49.421  31.168  20.550  1.00  0.00    -0.053 C 
ATOM     51  H   UNL     1     -47.422  31.468  21.305  1.00  0.00     0.027 H 
ATOM     52  H   UNL     1     -47.624  29.932  20.445  1.00  0.00     0.027 H 
ATOM     53  C   UNL     1     -50.318  31.462  21.753  1.00  0.00    -0.053 C 
ATOM     54  H   UNL     1     -50.222  30.536  23.727  1.00  0.00     0.027 H 
ATOM     55  H   UNL     1     -49.048  31.833  23.457  1.00  0.00     0.027 H 
ATOM     56  H   UNL     1     -49.892  30.407  19.916  1.00  0.00     0.027 H 
ATOM     57  H   UNL     1     -49.259  32.055  19.932  1.00  0.00     0.027 H 
ATOM     58  H   UNL     1     -50.554  32.527  21.830  1.00  0.00     0.027 H 
ATOM     59  H   UNL     1     -51.266  30.922  21.653  1.00  0.00     0.027 H 
ENDBRANCH  43  46
ENDBRANCH  41  43
ENDBRANCH  38  41
ENDBRANCH   6  38
TORSDOF 7
ENDMDL
MODEL 5
REMARK VINA RESULT:     -10.2      2.905     11.846
REMARK SMILES O=C(NCc1ccc2cc(CNCC3CCCC3)[nH]c2c1)c1cc(=O)n2ccccc2n1
REMARK SMILES IDX 5 1 6 2 7 3 8 4 9 5 10 6 19 7 20 8 21 9 4 15 3 18 1 19 2 20
REMARK SMILES IDX 22 22 23 23 32 24 24 25 31 27 25 28 26 29 30 30 27 31 29 32
REMARK SMILES IDX 28 34 11 38 12 41 13 43 14 46 15 47 18 48 16 50 17 53
REMARK H PARENT 6 10 7 11 9 12 19 13 21 14 4 16 4 17 3 21 23 26 30 33 27 35
REMARK H PARENT 29 36 28 37 11 39 11 40 12 42 13 44 13 45 14 49 15 51 15 52
REMARK H PARENT 18 54 18 55 16 56 16 57 17 58 17 59
REMARK Flexibility Score: inf
ROOT
ATOM      1  C   UNL     1     -46.789  33.739  25.825  1.00  0.00    -0.027 A 
ATOM      2  C   UNL     1     -48.118  34.137  26.022  1.00  0.00    -0.057 A 
ATOM      3  C   UNL     1     -48.450  35.103  26.981  1.00  0.00    -0.052 A 
ATOM      4  C   UNL     1     -47.432  35.678  27.763  1.00  0.00    -0.000 A 
ATOM      5  C   UNL     1     -47.408  36.651  28.798  1.00  0.00    -0.032 A 
ATOM      6  C   UNL     1     -46.098  36.812  29.209  1.00  0.00     0.030 A 
ATOM      7  N   UNL     1     -45.331  35.963  28.447  1.00  0.00    -0.357 N 
ATOM      8  C   UNL     1     -46.118  35.265  27.560  1.00  0.00     0.046 A 
ATOM      9  C   UNL     1     -45.766  34.302  26.607  1.00  0.00    -0.033 A 
ATOM     10  H   UNL     1     -48.916  33.695  25.429  1.00  0.00     0.063 H 
ATOM     11  H   UNL     1     -49.485  35.403  27.122  1.00  0.00     0.063 H 
ATOM     12  H   UNL     1     -48.258  37.175  29.214  1.00  0.00     0.065 H 
ATOM     13  H   UNL     1     -44.330  35.852  28.525  1.00  0.00     0.166 HD
ATOM     14  H   UNL     1     -44.732  33.991  26.479  1.00  0.00     0.065 H 
ENDROOT
BRANCH   1  15
ATOM     15  C   UNL     1     -46.451  32.677  24.808  1.00  0.00     0.043 C 
ATOM     16  H   UNL     1     -46.661  33.036  23.795  1.00  0.00     0.054 H 
ATOM     17  H   UNL     1     -45.383  32.436  24.853  1.00  0.00     0.054 H 
BRANCH  15  18
ATOM     18  N   UNL     1     -47.247  31.495  25.019  1.00  0.00    -0.347 N 
ATOM     19  O   UNL     1     -48.075  31.330  22.879  1.00  0.00    -0.268 OA
ATOM     20  C   UNL     1     -47.936  30.874  24.007  1.00  0.00     0.270 C 
ATOM     21  H   UNL     1     -47.107  30.947  25.862  1.00  0.00     0.164 HD
BRANCH  20  22
ATOM     22  C   UNL     1     -48.499  29.539  24.432  1.00  0.00     0.136 A 
ATOM     23  C   UNL     1     -49.816  29.377  24.290  1.00  0.00     0.035 A 
ATOM     24  N   UNL     1     -47.639  28.583  24.925  1.00  0.00    -0.225 NA
ATOM     25  C   UNL     1     -50.406  28.092  24.681  1.00  0.00     0.258 A 
ATOM     26  H   UNL     1     -50.482  30.136  23.898  1.00  0.00     0.071 H 
ATOM     27  C   UNL     1     -48.165  27.447  25.267  1.00  0.00     0.140 A 
ATOM     28  O   UNL     1     -51.620  27.934  24.554  1.00  0.00    -0.269 OA
ATOM     29  N   UNL     1     -49.519  27.144  25.171  1.00  0.00    -0.268 N 
ATOM     30  C   UNL     1     -47.271  26.380  25.802  1.00  0.00    -0.019 A 
ATOM     31  C   UNL     1     -50.003  25.900  25.562  1.00  0.00     0.014 A 
ATOM     32  C   UNL     1     -47.784  25.198  26.164  1.00  0.00    -0.057 A 
ATOM     33  H   UNL     1     -46.215  26.605  25.878  1.00  0.00     0.066 H 
ATOM     34  C   UNL     1     -49.195  24.947  26.041  1.00  0.00    -0.045 A 
ATOM     35  H   UNL     1     -51.073  25.733  25.459  1.00  0.00     0.082 H 
ATOM     36  H   UNL     1     -47.150  24.409  26.554  1.00  0.00     0.062 H 
ATOM     37  H   UNL     1     -49.584  23.980  26.342  1.00  0.00     0.064 H 
ENDBRANCH  20  22
ENDBRANCH  15  18
ENDBRANCH   1  15
BRANCH   6  38
ATOM     38  C   UNL     1     -45.505  37.695  30.250  1.00  0.00     0.036 C 
ATOM     39  H   UNL     1     -45.040  37.056  31.010  1.00  0.00     0.049 H 
ATOM     40  H   UNL     1     -46.273  38.281  30.769  1.00  0.00     0.049 H 
BRANCH  38  41
ATOM     41  N   UNL     1     -44.474  38.568  29.696  1.00  0.00    -0.311 NA
ATOM     42  H   UNL     1     -44.145  39.191  30.431  1.00  0.00     0.123 HD
BRANCH  41  43
ATOM     43  C   UNL     1     -44.958  39.369  28.570  1.00  0.00    -0.002 C 
ATOM     44  H   UNL     1     -45.712  40.086  28.916  1.00  0.00     0.043 H 
ATOM     45  H   UNL     1     -45.429  38.730  27.815  1.00  0.00     0.043 H 
BRANCH  43  46
ATOM     46  C   UNL     1     -43.800  40.137  27.927  1.00  0.00    -0.029 C 
ATOM     47  C   UNL     1     -42.877  40.780  28.960  1.00  0.00    -0.049 C 
ATOM     48  C   UNL     1     -44.234  41.341  27.090  1.00  0.00    -0.049 C 
ATOM     49  H   UNL     1     -43.209  39.456  27.298  1.00  0.00     0.032 H 
ATOM     50  C   UNL     1     -42.078  41.794  28.150  1.00  0.00    -0.053 C 
ATOM     51  H   UNL     1     -43.456  41.297  29.734  1.00  0.00     0.027 H 
ATOM     52  H   UNL     1     -42.230  40.049  29.453  1.00  0.00     0.027 H 
ATOM     53  C   UNL     1     -42.983  42.211  26.991  1.00  0.00    -0.053 C 
ATOM     54  H   UNL     1     -44.606  41.054  26.103  1.00  0.00     0.027 H 
ATOM     55  H   UNL     1     -45.030  41.900  27.598  1.00  0.00     0.027 H 
ATOM     56  H   UNL     1     -41.166  41.329  27.757  1.00  0.00     0.027 H 
ATOM     57  H   UNL     1     -41.773  42.649  28.761  1.00  0.00     0.027 H 
ATOM     58  H   UNL     1     -43.240  43.274  27.041  1.00  0.00     0.027 H 
ATOM     59  H   UNL     1     -42.471  42.043  26.037  1.00  0.00     0.027 H 
ENDBRANCH  43  46
ENDBRANCH  41  43
ENDBRANCH  38  41
ENDBRANCH   6  38
TORSDOF 7
ENDMDL
MODEL 6
REMARK VINA RESULT:     -10.2      2.303      3.352
REMARK SMILES O=C(NCc1ccc2cc(CNCC3CCCC3)[nH]c2c1)c1cc(=O)n2ccccc2n1
REMARK SMILES IDX 5 1 6 2 7 3 8 4 9 5 10 6 19 7 20 8 21 9 4 15 3 18 1 19 2 20
REMARK SMILES IDX 22 22 23 23 32 24 24 25 31 27 25 28 26 29 30 30 27 31 29 32
REMARK SMILES IDX 28 34 11 38 12 41 13 43 14 46 15 47 18 48 16 50 17 53
REMARK H PARENT 6 10 7 11 9 12 19 13 21 14 4 16 4 17 3 21 23 26 30 33 27 35
REMARK H PARENT 29 36 28 37 11 39 11 40 12 42 13 44 13 45 14 49 15 51 15 52
REMARK H PARENT 18 54 18 55 16 56 16 57 17 58 17 59
REMARK Flexibility Score: inf
ROOT
ATOM      1  C   UNL     1     -47.620  35.465  26.917  1.00  0.00    -0.027 A 
ATOM      2  C   UNL     1     -46.343  35.144  26.438  1.00  0.00    -0.057 A 
ATOM      3  C   UNL     1     -46.117  33.966  25.713  1.00  0.00    -0.052 A 
ATOM      4  C   UNL     1     -47.189  33.088  25.470  1.00  0.00    -0.000 A 
ATOM      5  C   UNL     1     -47.315  31.843  24.798  1.00  0.00    -0.032 A 
ATOM      6  C   UNL     1     -48.633  31.434  24.892  1.00  0.00     0.030 A 
ATOM      7  N   UNL     1     -49.303  32.401  25.602  1.00  0.00    -0.357 N 
ATOM      8  C   UNL     1     -48.449  33.417  25.962  1.00  0.00     0.046 A 
ATOM      9  C   UNL     1     -48.695  34.589  26.687  1.00  0.00    -0.033 A 
ATOM     10  H   UNL     1     -45.504  35.811  26.624  1.00  0.00     0.063 H 
ATOM     11  H   UNL     1     -45.122  33.731  25.346  1.00  0.00     0.063 H 
ATOM     12  H   UNL     1     -46.527  31.289  24.305  1.00  0.00     0.065 H 
ATOM     13  H   UNL     1     -50.286  32.376  25.839  1.00  0.00     0.166 HD
ATOM     14  H   UNL     1     -49.688  34.815  27.068  1.00  0.00     0.065 H 
ENDROOT
BRANCH   1  15
ATOM     15  C   UNL     1     -47.842  36.722  27.720  1.00  0.00     0.043 C 
ATOM     16  H   UNL     1     -48.724  37.260  27.354  1.00  0.00     0.054 H 
ATOM     17  H   UNL     1     -48.027  36.473  28.771  1.00  0.00     0.054 H 
BRANCH  15  18
ATOM     18  N   UNL     1     -46.715  37.611  27.601  1.00  0.00    -0.347 N 
ATOM     19  O   UNL     1     -47.846  39.369  26.638  1.00  0.00    -0.268 OA
ATOM     20  C   UNL     1     -46.831  38.898  27.136  1.00  0.00     0.270 C 
ATOM     21  H   UNL     1     -45.859  37.395  28.101  1.00  0.00     0.164 HD
BRANCH  20  22
ATOM     22  C   UNL     1     -45.560  39.691  27.323  1.00  0.00     0.136 A 
ATOM     23  C   UNL     1     -45.260  40.568  26.363  1.00  0.00     0.035 A 
ATOM     24  N   UNL     1     -44.803  39.474  28.453  1.00  0.00    -0.225 NA
ATOM     25  C   UNL     1     -44.038  41.369  26.507  1.00  0.00     0.258 A 
ATOM     26  H   UNL     1     -45.865  40.732  25.480  1.00  0.00     0.071 H 
ATOM     27  C   UNL     1     -43.725  40.187  28.578  1.00  0.00     0.140 A 
ATOM     28  O   UNL     1     -43.754  42.179  25.626  1.00  0.00    -0.269 OA
ATOM     29  N   UNL     1     -43.296  41.134  27.655  1.00  0.00    -0.268 N 
ATOM     30  C   UNL     1     -42.877  39.989  29.788  1.00  0.00    -0.019 A 
ATOM     31  C   UNL     1     -42.124  41.856  27.864  1.00  0.00     0.014 A 
ATOM     32  C   UNL     1     -41.759  40.708  29.944  1.00  0.00    -0.057 A 
ATOM     33  H   UNL     1     -43.203  39.255  30.513  1.00  0.00     0.066 H 
ATOM     34  C   UNL     1     -41.368  41.673  28.952  1.00  0.00    -0.045 A 
ATOM     35  H   UNL     1     -41.849  42.580  27.101  1.00  0.00     0.082 H 
ATOM     36  H   UNL     1     -41.129  40.579  30.818  1.00  0.00     0.062 H 
ATOM     37  H   UNL     1     -40.456  42.242  29.105  1.00  0.00     0.064 H 
ENDBRANCH  20  22
ENDBRANCH  15  18
ENDBRANCH   1  15
BRANCH   6  38
ATOM     38  C   UNL     1     -49.315  30.218  24.372  1.00  0.00     0.036 C 
ATOM     39  H   UNL     1     -50.153  30.544  23.743  1.00  0.00     0.049 H 
ATOM     40  H   UNL     1     -49.752  29.621  25.181  1.00  0.00     0.049 H 
BRANCH  38  41
ATOM     41  N   UNL     1     -48.420  29.404  23.553  1.00  0.00    -0.311 NA
ATOM     42  H   UNL     1     -47.466  29.730  23.691  1.00  0.00     0.123 HD
BRANCH  41  43
ATOM     43  C   UNL     1     -48.746  29.468  22.127  1.00  0.00    -0.002 C 
ATOM     44  H   UNL     1     -49.832  29.545  21.993  1.00  0.00     0.043 H 
ATOM     45  H   UNL     1     -48.412  28.559  21.613  1.00  0.00     0.043 H 
BRANCH  43  46
ATOM     46  C   UNL     1     -48.078  30.685  21.481  1.00  0.00    -0.029 C 
ATOM     47  C   UNL     1     -48.425  30.827  20.001  1.00  0.00    -0.049 C 
ATOM     48  C   UNL     1     -46.551  30.619  21.449  1.00  0.00    -0.049 C 
ATOM     49  H   UNL     1     -48.388  31.599  22.007  1.00  0.00     0.032 H 
ATOM     50  C   UNL     1     -47.379  31.802  19.476  1.00  0.00    -0.053 C 
ATOM     51  H   UNL     1     -48.330  29.866  19.482  1.00  0.00     0.027 H 
ATOM     52  H   UNL     1     -49.443  31.196  19.844  1.00  0.00     0.027 H 
ATOM     53  C   UNL     1     -46.147  31.612  20.360  1.00  0.00    -0.053 C 
ATOM     54  H   UNL     1     -46.100  30.870  22.413  1.00  0.00     0.027 H 
ATOM     55  H   UNL     1     -46.211  29.613  21.172  1.00  0.00     0.027 H 
ATOM     56  H   UNL     1     -47.744  32.833  19.568  1.00  0.00     0.027 H 
ATOM     57  H   UNL     1     -47.157  31.626  18.419  1.00  0.00     0.027 H 
ATOM     58  H   UNL     1     -45.292  31.239  19.788  1.00  0.00     0.027 H 
ATOM     59  H   UNL     1     -45.852  32.570  20.803  1.00  0.00     0.027 H 
ENDBRANCH  43  46
ENDBRANCH  41  43
ENDBRANCH  38  41
ENDBRANCH   6  38
TORSDOF 7
ENDMDL
MODEL 7
REMARK VINA RESULT:     -10.0      2.590      4.533
REMARK SMILES O=C(NCc1ccc2cc(CNCC3CCCC3)[nH]c2c1)c1cc(=O)n2ccccc2n1
REMARK SMILES IDX 5 1 6 2 7 3 8 4 9 5 10 6 19 7 20 8 21 9 4 15 3 18 1 19 2 20
REMARK SMILES IDX 22 22 23 23 32 24 24 25 31 27 25 28 26 29 30 30 27 31 29 32
REMARK SMILES IDX 28 34 11 38 12 41 13 43 14 46 15 47 18 48 16 50 17 53
REMARK H PARENT 6 10 7 11 9 12 19 13 21 14 4 16 4 17 3 21 23 26 30 33 27 35
REMARK H PARENT 29 36 28 37 11 39 11 40 12 42 13 44 13 45 14 49 15 51 15 52
REMARK H PARENT 18 54 18 55 16 56 16 57 17 58 17 59
REMARK Flexibility Score: inf
ROOT
ATOM      1  C   UNL     1     -45.381  37.750  28.331  1.00  0.00    -0.027 A 
ATOM      2  C   UNL     1     -46.353  38.202  27.428  1.00  0.00    -0.057 A 
ATOM      3  C   UNL     1     -47.098  37.301  26.656  1.00  0.00    -0.052 A 
ATOM      4  C   UNL     1     -46.860  35.920  26.784  1.00  0.00    -0.000 A 
ATOM      5  C   UNL     1     -47.408  34.760  26.173  1.00  0.00    -0.032 A 
ATOM      6  C   UNL     1     -46.764  33.653  26.694  1.00  0.00     0.030 A 
ATOM      7  N   UNL     1     -45.844  34.116  27.605  1.00  0.00    -0.357 N 
ATOM      8  C   UNL     1     -45.884  35.489  27.679  1.00  0.00     0.046 A 
ATOM      9  C   UNL     1     -45.131  36.373  28.460  1.00  0.00    -0.033 A 
ATOM     10  H   UNL     1     -46.542  39.267  27.315  1.00  0.00     0.063 H 
ATOM     11  H   UNL     1     -47.849  37.665  25.961  1.00  0.00     0.063 H 
ATOM     12  H   UNL     1     -48.184  34.730  25.420  1.00  0.00     0.065 H 
ATOM     13  H   UNL     1     -45.214  33.537  28.144  1.00  0.00     0.166 HD
ATOM     14  H   UNL     1     -44.367  36.008  29.142  1.00  0.00     0.065 H 
ENDROOT
BRANCH   1  15
ATOM     15  C   UNL     1     -44.567  38.734  29.135  1.00  0.00     0.043 C 
ATOM     16  H   UNL     1     -45.068  38.961  30.082  1.00  0.00     0.054 H 
ATOM     17  H   UNL     1     -43.589  38.305  29.380  1.00  0.00     0.054 H 
BRANCH  15  18
ATOM     18  N   UNL     1     -44.413  39.974  28.420  1.00  0.00    -0.347 N 
ATOM     19  O   UNL     1     -42.370  40.555  29.308  1.00  0.00    -0.268 OA
ATOM     20  C   UNL     1     -43.282  40.748  28.512  1.00  0.00     0.270 C 
ATOM     21  H   UNL     1     -45.024  40.174  27.635  1.00  0.00     0.164 HD
BRANCH  20  22
ATOM     22  C   UNL     1     -43.270  41.868  27.500  1.00  0.00     0.136 A 
ATOM     23  C   UNL     1     -42.133  42.048  26.825  1.00  0.00     0.035 A 
ATOM     24  N   UNL     1     -44.412  42.619  27.330  1.00  0.00    -0.225 NA
ATOM     25  C   UNL     1     -42.079  43.119  25.824  1.00  0.00     0.258 A 
ATOM     26  H   UNL     1     -41.242  41.448  26.966  1.00  0.00     0.071 H 
ATOM     27  C   UNL     1     -44.360  43.564  26.441  1.00  0.00     0.140 A 
ATOM     28  O   UNL     1     -41.034  43.292  25.198  1.00  0.00    -0.269 OA
ATOM     29  N   UNL     1     -43.242  43.859  25.668  1.00  0.00    -0.268 N 
ATOM     30  C   UNL     1     -45.574  44.400  26.219  1.00  0.00    -0.019 A 
ATOM     31  C   UNL     1     -43.270  44.892  24.736  1.00  0.00     0.014 A 
ATOM     32  C   UNL     1     -45.552  45.382  25.310  1.00  0.00    -0.057 A 
ATOM     33  H   UNL     1     -46.451  44.177  26.814  1.00  0.00     0.066 H 
ATOM     34  C   UNL     1     -44.363  45.639  24.543  1.00  0.00    -0.045 A 
ATOM     35  H   UNL     1     -42.359  45.066  24.168  1.00  0.00     0.082 H 
ATOM     36  H   UNL     1     -46.426  46.001  25.133  1.00  0.00     0.062 H 
ATOM     37  H   UNL     1     -44.372  46.442  23.813  1.00  0.00     0.064 H 
ENDBRANCH  20  22
ENDBRANCH  15  18
ENDBRANCH   1  15
BRANCH   6  38
ATOM     38  C   UNL     1     -46.940  32.203  26.415  1.00  0.00     0.036 C 
ATOM     39  H   UNL     1     -46.330  31.643  27.134  1.00  0.00     0.049 H 
ATOM     40  H   UNL     1     -46.566  31.934  25.420  1.00  0.00     0.049 H 
BRANCH  38  41
ATOM     41  N   UNL     1     -48.331  31.786  26.575  1.00  0.00    -0.311 NA
ATOM     42  H   UNL     1     -48.359  30.968  27.181  1.00  0.00     0.123 HD
BRANCH  41  43
ATOM     43  C   UNL     1     -48.973  31.459  25.301  1.00  0.00    -0.002 C 
ATOM     44  H   UNL     1     -49.128  32.372  24.713  1.00  0.00     0.043 H 
ATOM     45  H   UNL     1     -49.954  31.001  25.468  1.00  0.00     0.043 H 
BRANCH  43  46
ATOM     46  C   UNL     1     -48.098  30.493  24.496  1.00  0.00    -0.029 C 
ATOM     47  C   UNL     1     -48.192  30.734  22.991  1.00  0.00    -0.049 C 
ATOM     48  C   UNL     1     -48.512  29.026  24.614  1.00  0.00    -0.049 C 
ATOM     49  H   UNL     1     -47.049  30.598  24.807  1.00  0.00     0.032 H 
ATOM     50  C   UNL     1     -47.608  29.464  22.384  1.00  0.00    -0.053 C 
ATOM     51  H   UNL     1     -49.236  30.849  22.677  1.00  0.00     0.027 H 
ATOM     52  H   UNL     1     -47.644  31.627  22.676  1.00  0.00     0.027 H 
ATOM     53  C   UNL     1     -47.884  28.351  23.396  1.00  0.00    -0.053 C 
ATOM     54  H   UNL     1     -48.175  28.569  25.548  1.00  0.00     0.027 H 
ATOM     55  H   UNL     1     -49.604  28.925  24.566  1.00  0.00     0.027 H 
ATOM     56  H   UNL     1     -46.526  29.575  22.244  1.00  0.00     0.027 H 
ATOM     57  H   UNL     1     -48.045  29.246  21.405  1.00  0.00     0.027 H 
ATOM     58  H   UNL     1     -48.550  27.587  22.984  1.00  0.00     0.027 H 
ATOM     59  H   UNL     1     -46.947  27.855  23.671  1.00  0.00     0.027 H 
ENDBRANCH  43  46
ENDBRANCH  41  43
ENDBRANCH  38  41
ENDBRANCH   6  38
TORSDOF 7
ENDMDL
