MODEL 1
REMARK VINA RESULT:     -10.0      0.000      0.000
REMARK SMILES O=C(NCc1ccc2cc(CNCC#CC3CC3)[nH]c2c1)c1cc(=O)n2ccccc2n1
REMARK SMILES IDX 11 1 10 4 5 5 6 6 21 7 7 8 20 10 8 12 19 14 9 15 4 18 3 21
REMARK SMILES IDX 1 22 2 23 22 25 23 26 32 27 24 28 31 30 25 31 26 32 30 33
REMARK SMILES IDX 27 34 29 35 28 37 12 41 13 43 14 46 15 47 16 48 17 49 18 50
REMARK H PARENT 11 2 11 3 6 9 21 11 7 13 19 16 9 17 4 19 4 20 3 24 23 29 30 36
REMARK H PARENT 27 38 29 39 28 40 12 42 13 44 13 45 16 51 17 52 17 53 18 54
REMARK H PARENT 18 55
REMARK Flexibility Score: inf
ROOT
ATOM      1  C   UNL     1     -46.850  32.007  24.264  1.00  0.00     0.037 C 
ATOM      2  H   UNL     1     -47.516  32.181  23.411  1.00  0.00     0.049 H 
ATOM      3  H   UNL     1     -45.818  32.026  23.897  1.00  0.00     0.049 H 
ENDROOT
BRANCH   1   4
ATOM      4  C   UNL     1     -47.015  33.105  25.261  1.00  0.00     0.030 A 
ATOM      5  C   UNL     1     -46.327  36.461  28.365  1.00  0.00    -0.027 A 
ATOM      6  C   UNL     1     -47.727  36.477  28.345  1.00  0.00    -0.057 A 
ATOM      7  C   UNL     1     -45.624  35.547  27.561  1.00  0.00    -0.033 A 
ATOM      8  C   UNL     1     -48.450  35.605  27.519  1.00  0.00    -0.052 A 
ATOM      9  H   UNL     1     -48.275  37.173  28.977  1.00  0.00     0.063 H 
ATOM     10  C   UNL     1     -46.363  34.685  26.742  1.00  0.00     0.046 A 
ATOM     11  H   UNL     1     -44.539  35.511  27.578  1.00  0.00     0.065 H 
ATOM     12  C   UNL     1     -47.756  34.695  26.703  1.00  0.00    -0.000 A 
ATOM     13  H   UNL     1     -49.536  35.633  27.511  1.00  0.00     0.063 H 
ATOM     14  N   UNL     1     -45.939  33.713  25.863  1.00  0.00    -0.357 N 
ATOM     15  C   UNL     1     -48.153  33.697  25.773  1.00  0.00    -0.032 A 
ATOM     16  H   UNL     1     -44.970  33.488  25.692  1.00  0.00     0.166 HD
ATOM     17  H   UNL     1     -49.167  33.437  25.496  1.00  0.00     0.065 H 
BRANCH   5  18
ATOM     18  C   UNL     1     -45.571  37.384  29.285  1.00  0.00     0.043 C 
ATOM     19  H   UNL     1     -46.252  37.870  29.994  1.00  0.00     0.054 H 
ATOM     20  H   UNL     1     -44.839  36.827  29.882  1.00  0.00     0.054 H 
BRANCH  18  21
ATOM     21  N   UNL     1     -44.869  38.390  28.535  1.00  0.00    -0.347 N 
ATOM     22  O   UNL     1     -46.655  39.814  28.317  1.00  0.00    -0.268 OA
ATOM     23  C   UNL     1     -45.469  39.561  28.148  1.00  0.00     0.270 C 
ATOM     24  H   UNL     1     -43.862  38.328  28.419  1.00  0.00     0.164 HD
BRANCH  23  25
ATOM     25  C   UNL     1     -44.499  40.518  27.498  1.00  0.00     0.136 A 
ATOM     26  C   UNL     1     -43.367  40.760  28.161  1.00  0.00     0.035 A 
ATOM     27  N   UNL     1     -44.832  41.073  26.283  1.00  0.00    -0.225 NA
ATOM     28  C   UNL     1     -42.396  41.684  27.565  1.00  0.00     0.258 A 
ATOM     29  H   UNL     1     -43.116  40.315  29.117  1.00  0.00     0.071 H 
ATOM     30  C   UNL     1     -43.971  41.890  25.759  1.00  0.00     0.140 A 
ATOM     31  O   UNL     1     -41.349  41.915  28.170  1.00  0.00    -0.269 OA
ATOM     32  N   UNL     1     -42.754  42.231  26.342  1.00  0.00    -0.268 N 
ATOM     33  C   UNL     1     -44.288  42.516  24.443  1.00  0.00    -0.019 A 
ATOM     34  C   UNL     1     -41.885  43.116  25.713  1.00  0.00     0.014 A 
ATOM     35  C   UNL     1     -43.419  43.362  23.879  1.00  0.00    -0.057 A 
ATOM     36  H   UNL     1     -45.234  42.256  23.984  1.00  0.00     0.066 H 
ATOM     37  C   UNL     1     -42.176  43.674  24.531  1.00  0.00    -0.045 A 
ATOM     38  H   UNL     1     -40.951  43.337  26.225  1.00  0.00     0.082 H 
ATOM     39  H   UNL     1     -43.633  43.827  22.922  1.00  0.00     0.062 H 
ATOM     40  H   UNL     1     -41.489  44.363  24.051  1.00  0.00     0.064 H 
ENDBRANCH  23  25
ENDBRANCH  18  21
ENDBRANCH   5  18
ENDBRANCH   1   4
BRANCH   1  41
ATOM     41  N   UNL     1     -47.155  30.731  24.904  1.00  0.00    -0.301 NA
ATOM     42  H   UNL     1     -47.450  30.911  25.860  1.00  0.00     0.124 HD
BRANCH  41  43
ATOM     43  C   UNL     1     -48.213  30.001  24.211  1.00  0.00     0.058 C 
ATOM     44  H   UNL     1     -49.168  30.481  24.451  1.00  0.00     0.057 H 
ATOM     45  H   UNL     1     -48.091  30.079  23.125  1.00  0.00     0.057 H 
BRANCH  43  46
ATOM     46  C   UNL     1     -48.280  28.595  24.627  1.00  0.00    -0.088 C 
ATOM     47  C   UNL     1     -48.336  27.446  24.972  1.00  0.00    -0.099 C 
BRANCH  47  48
ATOM     48  C   UNL     1     -48.413  26.078  25.390  1.00  0.00     0.020 C 
ATOM     49  C   UNL     1     -48.248  25.763  26.853  1.00  0.00    -0.038 C 
ATOM     50  C   UNL     1     -47.160  25.402  25.884  1.00  0.00    -0.038 C 
ATOM     51  H   UNL     1     -49.113  25.460  24.836  1.00  0.00     0.044 H 
ATOM     52  H   UNL     1     -48.063  26.579  27.544  1.00  0.00     0.028 H 
ATOM     53  H   UNL     1     -48.848  24.961  27.267  1.00  0.00     0.028 H 
ATOM     54  H   UNL     1     -46.239  25.972  25.922  1.00  0.00     0.028 H 
ATOM     55  H   UNL     1     -47.022  24.356  25.640  1.00  0.00     0.028 H 
ENDBRANCH  47  48
ENDBRANCH  43  46
ENDBRANCH  41  43
ENDBRANCH   1  41
TORSDOF 8
ENDMDL
MODEL 2
REMARK VINA RESULT:     -10.0      2.227      3.785
REMARK SMILES O=C(NCc1ccc2cc(CNCC#CC3CC3)[nH]c2c1)c1cc(=O)n2ccccc2n1
REMARK SMILES IDX 11 1 10 4 5 5 6 6 21 7 7 8 20 10 8 12 19 14 9 15 4 18 3 21
REMARK SMILES IDX 1 22 2 23 22 25 23 26 32 27 24 28 31 30 25 31 26 32 30 33
REMARK SMILES IDX 27 34 29 35 28 37 12 41 13 43 14 46 15 47 16 48 17 49 18 50
REMARK H PARENT 11 2 11 3 6 9 21 11 7 13 19 16 9 17 4 19 4 20 3 24 23 29 30 36
REMARK H PARENT 27 38 29 39 28 40 12 42 13 44 13 45 16 51 17 52 17 53 18 54
REMARK H PARENT 18 55
REMARK Flexibility Score: inf
ROOT
ATOM      1  C   UNL     1     -47.414  28.878  23.576  1.00  0.00     0.037 C 
ATOM      2  H   UNL     1     -47.552  28.174  24.405  1.00  0.00     0.049 H 
ATOM      3  H   UNL     1     -48.307  28.832  22.943  1.00  0.00     0.049 H 
ENDROOT
BRANCH   1   4
ATOM      4  C   UNL     1     -47.286  30.265  24.111  1.00  0.00     0.030 A 
ATOM      5  C   UNL     1     -47.891  34.264  26.348  1.00  0.00    -0.027 A 
ATOM      6  C   UNL     1     -46.729  34.594  25.640  1.00  0.00    -0.057 A 
ATOM      7  C   UNL     1     -48.474  32.995  26.190  1.00  0.00    -0.033 A 
ATOM      8  C   UNL     1     -46.117  33.670  24.781  1.00  0.00    -0.052 A 
ATOM      9  H   UNL     1     -46.284  35.581  25.748  1.00  0.00     0.063 H 
ATOM     10  C   UNL     1     -47.847  32.085  25.329  1.00  0.00     0.046 A 
ATOM     11  H   UNL     1     -49.384  32.730  26.719  1.00  0.00     0.065 H 
ATOM     12  C   UNL     1     -46.686  32.394  24.625  1.00  0.00    -0.000 A 
ATOM     13  H   UNL     1     -45.213  33.939  24.242  1.00  0.00     0.063 H 
ATOM     14  N   UNL     1     -48.191  30.793  24.999  1.00  0.00    -0.357 N 
ATOM     15  C   UNL     1     -46.345  31.245  23.861  1.00  0.00    -0.032 A 
ATOM     16  H   UNL     1     -48.999  30.311  25.367  1.00  0.00     0.166 HD
ATOM     17  H   UNL     1     -45.495  31.137  23.198  1.00  0.00     0.065 H 
BRANCH   5  18
ATOM     18  C   UNL     1     -48.551  35.284  27.239  1.00  0.00     0.043 C 
ATOM     19  H   UNL     1     -49.531  35.572  26.841  1.00  0.00     0.054 H 
ATOM     20  H   UNL     1     -48.725  34.874  28.241  1.00  0.00     0.054 H 
BRANCH  18  21
ATOM     21  N   UNL     1     -47.729  36.456  27.370  1.00  0.00    -0.347 N 
ATOM     22  O   UNL     1     -46.921  35.950  29.457  1.00  0.00    -0.268 OA
ATOM     23  C   UNL     1     -46.934  36.670  28.467  1.00  0.00     0.270 C 
ATOM     24  H   UNL     1     -47.591  37.072  26.574  1.00  0.00     0.164 HD
BRANCH  23  25
ATOM     25  C   UNL     1     -46.060  37.892  28.317  1.00  0.00     0.136 A 
ATOM     26  C   UNL     1     -46.374  38.729  27.326  1.00  0.00     0.035 A 
ATOM     27  N   UNL     1     -45.014  38.069  29.193  1.00  0.00    -0.225 NA
ATOM     28  C   UNL     1     -45.550  39.930  27.143  1.00  0.00     0.258 A 
ATOM     29  H   UNL     1     -47.201  38.579  26.643  1.00  0.00     0.071 H 
ATOM     30  C   UNL     1     -44.288  39.132  29.028  1.00  0.00     0.140 A 
ATOM     31  O   UNL     1     -45.830  40.707  26.231  1.00  0.00    -0.269 OA
ATOM     32  N   UNL     1     -44.502  40.085  28.038  1.00  0.00    -0.268 N 
ATOM     33  C   UNL     1     -43.143  39.365  29.955  1.00  0.00    -0.019 A 
ATOM     34  C   UNL     1     -43.677  41.199  27.930  1.00  0.00     0.014 A 
ATOM     35  C   UNL     1     -42.377  40.453  29.809  1.00  0.00    -0.057 A 
ATOM     36  H   UNL     1     -42.969  38.627  30.728  1.00  0.00     0.066 H 
ATOM     37  C   UNL     1     -42.650  41.403  28.765  1.00  0.00    -0.045 A 
ATOM     38  H   UNL     1     -43.902  41.904  27.133  1.00  0.00     0.082 H 
ATOM     39  H   UNL     1     -41.539  40.639  30.473  1.00  0.00     0.062 H 
ATOM     40  H   UNL     1     -42.013  42.276  28.670  1.00  0.00     0.064 H 
ENDBRANCH  23  25
ENDBRANCH  18  21
ENDBRANCH   5  18
ENDBRANCH   1   4
BRANCH   1  41
ATOM     41  N   UNL     1     -46.215  28.546  22.814  1.00  0.00    -0.301 NA
ATOM     42  H   UNL     1     -45.578  29.339  22.851  1.00  0.00     0.124 HD
BRANCH  41  43
ATOM     43  C   UNL     1     -45.532  27.366  23.337  1.00  0.00     0.058 C 
ATOM     44  H   UNL     1     -45.585  26.580  22.575  1.00  0.00     0.057 H 
ATOM     45  H   UNL     1     -44.468  27.572  23.497  1.00  0.00     0.057 H 
BRANCH  43  46
ATOM     46  C   UNL     1     -46.155  26.865  24.567  1.00  0.00    -0.088 C 
ATOM     47  C   UNL     1     -46.661  26.451  25.575  1.00  0.00    -0.099 C 
BRANCH  47  48
ATOM     48  C   UNL     1     -47.255  25.958  26.782  1.00  0.00     0.020 C 
ATOM     49  C   UNL     1     -47.257  24.472  27.027  1.00  0.00    -0.038 C 
ATOM     50  C   UNL     1     -48.539  25.175  26.689  1.00  0.00    -0.038 C 
ATOM     51  H   UNL     1     -47.134  26.594  27.654  1.00  0.00     0.044 H 
ATOM     52  H   UNL     1     -46.822  23.820  26.277  1.00  0.00     0.028 H 
ATOM     53  H   UNL     1     -47.117  24.128  28.045  1.00  0.00     0.028 H 
ATOM     54  H   UNL     1     -48.972  24.996  25.711  1.00  0.00     0.028 H 
ATOM     55  H   UNL     1     -49.269  25.310  27.478  1.00  0.00     0.028 H 
ENDBRANCH  47  48
ENDBRANCH  43  46
ENDBRANCH  41  43
ENDBRANCH   1  41
TORSDOF 8
ENDMDL
MODEL 3
REMARK VINA RESULT:      -9.6      3.392     12.422
REMARK SMILES O=C(NCc1ccc2cc(CNCC#CC3CC3)[nH]c2c1)c1cc(=O)n2ccccc2n1
REMARK SMILES IDX 11 1 10 4 5 5 6 6 21 7 7 8 20 10 8 12 19 14 9 15 4 18 3 21
REMARK SMILES IDX 1 22 2 23 22 25 23 26 32 27 24 28 31 30 25 31 26 32 30 33
REMARK SMILES IDX 27 34 29 35 28 37 12 41 13 43 14 46 15 47 16 48 17 49 18 50
REMARK H PARENT 11 2 11 3 6 9 21 11 7 13 19 16 9 17 4 19 4 20 3 24 23 29 30 36
REMARK H PARENT 27 38 29 39 28 40 12 42 13 44 13 45 16 51 17 52 17 53 18 54
REMARK H PARENT 18 55
REMARK Flexibility Score: inf
ROOT
ATOM      1  C   UNL     1     -45.397  37.623  30.412  1.00  0.00     0.037 C 
ATOM      2  H   UNL     1     -46.184  38.132  30.982  1.00  0.00     0.049 H 
ATOM      3  H   UNL     1     -44.843  36.978  31.103  1.00  0.00     0.049 H 
ENDROOT
BRANCH   1   4
ATOM      4  C   UNL     1     -46.013  36.766  29.358  1.00  0.00     0.030 A 
ATOM      5  C   UNL     1     -46.787  33.772  25.922  1.00  0.00    -0.027 A 
ATOM      6  C   UNL     1     -48.105  34.200  26.129  1.00  0.00    -0.057 A 
ATOM      7  C   UNL     1     -45.745  34.310  26.697  1.00  0.00    -0.033 A 
ATOM      8  C   UNL     1     -48.413  35.147  27.115  1.00  0.00    -0.052 A 
ATOM      9  H   UNL     1     -48.912  33.797  25.521  1.00  0.00     0.063 H 
ATOM     10  C   UNL     1     -46.072  35.255  27.677  1.00  0.00     0.046 A 
ATOM     11  H   UNL     1     -44.716  34.002  26.537  1.00  0.00     0.065 H 
ATOM     12  C   UNL     1     -47.379  35.682  27.903  1.00  0.00    -0.000 A 
ATOM     13  H   UNL     1     -49.441  35.465  27.266  1.00  0.00     0.063 H 
ATOM     14  N   UNL     1     -45.266  35.927  28.568  1.00  0.00    -0.357 N 
ATOM     15  C   UNL     1     -47.329  36.633  28.957  1.00  0.00    -0.032 A 
ATOM     16  H   UNL     1     -44.264  35.809  28.625  1.00  0.00     0.166 HD
ATOM     17  H   UNL     1     -48.167  37.166  29.389  1.00  0.00     0.065 H 
BRANCH   5  18
ATOM     18  C   UNL     1     -46.474  32.778  24.834  1.00  0.00     0.043 C 
ATOM     19  H   UNL     1     -46.690  33.202  23.846  1.00  0.00     0.054 H 
ATOM     20  H   UNL     1     -45.410  32.515  24.839  1.00  0.00     0.054 H 
BRANCH  18  21
ATOM     21  N   UNL     1     -47.237  31.572  25.011  1.00  0.00    -0.347 N 
ATOM     22  O   UNL     1     -47.802  31.322  22.800  1.00  0.00    -0.268 OA
ATOM     23  C   UNL     1     -47.807  30.910  23.953  1.00  0.00     0.270 C 
ATOM     24  H   UNL     1     -47.230  31.091  25.905  1.00  0.00     0.164 HD
BRANCH  23  25
ATOM     25  C   UNL     1     -48.435  29.600  24.365  1.00  0.00     0.136 A 
ATOM     26  C   UNL     1     -49.754  29.493  24.192  1.00  0.00     0.035 A 
ATOM     27  N   UNL     1     -47.628  28.612  24.881  1.00  0.00    -0.225 NA
ATOM     28  C   UNL     1     -50.407  28.237  24.579  1.00  0.00     0.258 A 
ATOM     29  H   UNL     1     -50.379  30.278  23.783  1.00  0.00     0.071 H 
ATOM     30  C   UNL     1     -48.209  27.503  25.222  1.00  0.00     0.140 A 
ATOM     31  O   UNL     1     -51.623  28.130  24.425  1.00  0.00    -0.269 OA
ATOM     32  N   UNL     1     -49.573  27.258  25.097  1.00  0.00    -0.268 N 
ATOM     33  C   UNL     1     -47.374  26.404  25.787  1.00  0.00    -0.019 A 
ATOM     34  C   UNL     1     -50.117  26.038  25.486  1.00  0.00     0.014 A 
ATOM     35  C   UNL     1     -47.945  25.249  26.148  1.00  0.00    -0.057 A 
ATOM     36  H   UNL     1     -46.311  26.587  25.888  1.00  0.00     0.066 H 
ATOM     37  C   UNL     1     -49.362  25.056  25.993  1.00  0.00    -0.045 A 
ATOM     38  H   UNL     1     -51.190  25.915  25.361  1.00  0.00     0.082 H 
ATOM     39  H   UNL     1     -47.354  24.438  26.561  1.00  0.00     0.062 H 
ATOM     40  H   UNL     1     -49.799  24.109  26.292  1.00  0.00     0.064 H 
ENDBRANCH  23  25
ENDBRANCH  18  21
ENDBRANCH   5  18
ENDBRANCH   1   4
BRANCH   1  41
ATOM     41  N   UNL     1     -44.510  38.595  29.780  1.00  0.00    -0.301 NA
ATOM     42  H   UNL     1     -43.629  38.135  29.564  1.00  0.00     0.124 HD
BRANCH  41  43
ATOM     43  C   UNL     1     -45.073  39.142  28.548  1.00  0.00     0.058 C 
ATOM     44  H   UNL     1     -45.192  38.318  27.835  1.00  0.00     0.057 H 
ATOM     45  H   UNL     1     -46.076  39.545  28.725  1.00  0.00     0.057 H 
BRANCH  43  46
ATOM     46  C   UNL     1     -44.203  40.158  27.944  1.00  0.00    -0.088 C 
ATOM     47  C   UNL     1     -43.489  40.990  27.454  1.00  0.00    -0.099 C 
BRANCH  47  48
ATOM     48  C   UNL     1     -42.627  41.976  26.873  1.00  0.00     0.020 C 
ATOM     49  C   UNL     1     -42.977  43.430  27.049  1.00  0.00    -0.038 C 
ATOM     50  C   UNL     1     -43.136  42.782  25.705  1.00  0.00    -0.038 C 
ATOM     51  H   UNL     1     -41.570  41.728  26.870  1.00  0.00     0.044 H 
ATOM     52  H   UNL     1     -43.877  43.687  27.599  1.00  0.00     0.028 H 
ATOM     53  H   UNL     1     -42.163  44.132  27.184  1.00  0.00     0.028 H 
ATOM     54  H   UNL     1     -44.142  42.602  25.345  1.00  0.00     0.028 H 
ATOM     55  H   UNL     1     -42.428  43.043  24.927  1.00  0.00     0.028 H 
ENDBRANCH  47  48
ENDBRANCH  43  46
ENDBRANCH  41  43
ENDBRANCH   1  41
TORSDOF 8
ENDMDL
MODEL 4
REMARK VINA RESULT:      -9.5      1.646      2.176
REMARK SMILES O=C(NCc1ccc2cc(CNCC#CC3CC3)[nH]c2c1)c1cc(=O)n2ccccc2n1
REMARK SMILES IDX 11 1 10 4 5 5 6 6 21 7 7 8 20 10 8 12 19 14 9 15 4 18 3 21
REMARK SMILES IDX 1 22 2 23 22 25 23 26 32 27 24 28 31 30 25 31 26 32 30 33
REMARK SMILES IDX 27 34 29 35 28 37 12 41 13 43 14 46 15 47 16 48 17 49 18 50
REMARK H PARENT 11 2 11 3 6 9 21 11 7 13 19 16 9 17 4 19 4 20 3 24 23 29 30 36
REMARK H PARENT 27 38 29 39 28 40 12 42 13 44 13 45 16 51 17 52 17 53 18 54
REMARK H PARENT 18 55
REMARK Flexibility Score: inf
ROOT
ATOM      1  C   UNL     1     -47.927  30.292  24.605  1.00  0.00     0.037 C 
ATOM      2  H   UNL     1     -47.380  29.519  25.158  1.00  0.00     0.049 H 
ATOM      3  H   UNL     1     -48.981  29.997  24.567  1.00  0.00     0.049 H 
ENDROOT
BRANCH   1   4
ATOM      4  C   UNL     1     -47.828  31.593  25.328  1.00  0.00     0.030 A 
ATOM      5  C   UNL     1     -46.385  35.277  27.720  1.00  0.00    -0.027 A 
ATOM      6  C   UNL     1     -47.724  35.650  27.546  1.00  0.00    -0.057 A 
ATOM      7  C   UNL     1     -45.926  34.052  27.205  1.00  0.00    -0.033 A 
ATOM      8  C   UNL     1     -48.620  34.830  26.846  1.00  0.00    -0.052 A 
ATOM      9  H   UNL     1     -48.087  36.590  27.957  1.00  0.00     0.063 H 
ATOM     10  C   UNL     1     -46.835  33.247  26.508  1.00  0.00     0.046 A 
ATOM     11  H   UNL     1     -44.895  33.740  27.347  1.00  0.00     0.065 H 
ATOM     12  C   UNL     1     -48.167  33.609  26.317  1.00  0.00    -0.000 A 
ATOM     13  H   UNL     1     -49.654  35.136  26.716  1.00  0.00     0.063 H 
ATOM     14  N   UNL     1     -46.656  32.023  25.903  1.00  0.00    -0.357 N 
ATOM     15  C   UNL     1     -48.780  32.561  25.579  1.00  0.00    -0.032 A 
ATOM     16  H   UNL     1     -45.780  31.521  25.888  1.00  0.00     0.166 HD
ATOM     17  H   UNL     1     -49.813  32.517  25.254  1.00  0.00     0.065 H 
BRANCH   5  18
ATOM     18  C   UNL     1     -45.448  36.157  28.504  1.00  0.00     0.043 C 
ATOM     19  H   UNL     1     -45.815  36.301  29.528  1.00  0.00     0.054 H 
ATOM     20  H   UNL     1     -44.456  35.697  28.586  1.00  0.00     0.054 H 
BRANCH  18  21
ATOM     21  N   UNL     1     -45.299  37.438  27.868  1.00  0.00    -0.347 N 
ATOM     22  O   UNL     1     -46.679  38.579  29.305  1.00  0.00    -0.268 OA
ATOM     23  C   UNL     1     -45.901  38.568  28.359  1.00  0.00     0.270 C 
ATOM     24  H   UNL     1     -44.607  37.565  27.136  1.00  0.00     0.164 HD
BRANCH  23  25
ATOM     25  C   UNL     1     -45.488  39.813  27.610  1.00  0.00     0.136 A 
ATOM     26  C   UNL     1     -46.466  40.502  27.018  1.00  0.00     0.035 A 
ATOM     27  N   UNL     1     -44.156  40.157  27.582  1.00  0.00    -0.225 NA
ATOM     28  C   UNL     1     -46.109  41.719  26.278  1.00  0.00     0.258 A 
ATOM     29  H   UNL     1     -47.511  40.221  27.048  1.00  0.00     0.071 H 
ATOM     30  C   UNL     1     -43.845  41.233  26.927  1.00  0.00     0.140 A 
ATOM     31  O   UNL     1     -47.003  42.361  25.728  1.00  0.00    -0.269 OA
ATOM     32  N   UNL     1     -44.761  42.044  26.265  1.00  0.00    -0.268 N 
ATOM     33  C   UNL     1     -42.413  41.645  26.870  1.00  0.00    -0.019 A 
ATOM     34  C   UNL     1     -44.344  43.183  25.585  1.00  0.00     0.014 A 
ATOM     35  C   UNL     1     -42.062  42.750  26.201  1.00  0.00    -0.057 A 
ATOM     36  H   UNL     1     -41.693  41.019  27.382  1.00  0.00     0.066 H 
ATOM     37  C   UNL     1     -43.057  43.548  25.538  1.00  0.00    -0.045 A 
ATOM     38  H   UNL     1     -45.114  43.771  25.089  1.00  0.00     0.082 H 
ATOM     39  H   UNL     1     -41.025  43.065  26.149  1.00  0.00     0.062 H 
ATOM     40  H   UNL     1     -42.745  44.439  25.003  1.00  0.00     0.064 H 
ENDBRANCH  23  25
ENDBRANCH  18  21
ENDBRANCH   5  18
ENDBRANCH   1   4
BRANCH   1  41
ATOM     41  N   UNL     1     -47.378  30.449  23.262  1.00  0.00    -0.301 NA
ATOM     42  H   UNL     1     -46.511  30.977  23.326  1.00  0.00     0.124 HD
BRANCH  41  43
ATOM     43  C   UNL     1     -47.105  29.166  22.620  1.00  0.00     0.058 C 
ATOM     44  H   UNL     1     -47.978  28.899  22.013  1.00  0.00     0.057 H 
ATOM     45  H   UNL     1     -46.261  29.251  21.926  1.00  0.00     0.057 H 
BRANCH  43  46
ATOM     46  C   UNL     1     -46.871  28.096  23.596  1.00  0.00    -0.088 C 
ATOM     47  C   UNL     1     -46.676  27.223  24.397  1.00  0.00    -0.099 C 
BRANCH  47  48
ATOM     48  C   UNL     1     -46.446  26.188  25.362  1.00  0.00     0.020 C 
ATOM     49  C   UNL     1     -47.635  25.463  25.935  1.00  0.00    -0.038 C 
ATOM     50  C   UNL     1     -46.864  26.427  26.790  1.00  0.00    -0.038 C 
ATOM     51  H   UNL     1     -45.546  25.600  25.209  1.00  0.00     0.044 H 
ATOM     52  H   UNL     1     -48.629  25.754  25.611  1.00  0.00     0.028 H 
ATOM     53  H   UNL     1     -47.530  24.404  26.139  1.00  0.00     0.028 H 
ATOM     54  H   UNL     1     -47.338  27.367  27.045  1.00  0.00     0.028 H 
ATOM     55  H   UNL     1     -46.235  26.021  27.573  1.00  0.00     0.028 H 
ENDBRANCH  47  48
ENDBRANCH  43  46
ENDBRANCH  41  43
ENDBRANCH   1  41
TORSDOF 8
ENDMDL
MODEL 5
REMARK VINA RESULT:      -9.5      3.712     12.323
REMARK SMILES O=C(NCc1ccc2cc(CNCC#CC3CC3)[nH]c2c1)c1cc(=O)n2ccccc2n1
REMARK SMILES IDX 11 1 10 4 5 5 6 6 21 7 7 8 20 10 8 12 19 14 9 15 4 18 3 21
REMARK SMILES IDX 1 22 2 23 22 25 23 26 32 27 24 28 31 30 25 31 26 32 30 33
REMARK SMILES IDX 27 34 29 35 28 37 12 41 13 43 14 46 15 47 16 48 17 49 18 50
REMARK H PARENT 11 2 11 3 6 9 21 11 7 13 19 16 9 17 4 19 4 20 3 24 23 29 30 36
REMARK H PARENT 27 38 29 39 28 40 12 42 13 44 13 45 16 51 17 52 17 53 18 54
REMARK H PARENT 18 55
REMARK Flexibility Score: inf
ROOT
ATOM      1  C   UNL     1     -45.531  38.675  28.564  1.00  0.00     0.037 C 
ATOM      2  H   UNL     1     -44.619  39.028  28.068  1.00  0.00     0.049 H 
ATOM      3  H   UNL     1     -46.341  39.370  28.316  1.00  0.00     0.049 H 
ENDROOT
BRANCH   1   4
ATOM      4  C   UNL     1     -45.894  37.324  28.045  1.00  0.00     0.030 A 
ATOM      5  C   UNL     1     -48.079  33.664  26.256  1.00  0.00    -0.027 A 
ATOM      6  C   UNL     1     -46.835  33.069  26.497  1.00  0.00    -0.057 A 
ATOM      7  C   UNL     1     -48.289  35.013  26.593  1.00  0.00    -0.033 A 
ATOM      8  C   UNL     1     -45.778  33.800  27.055  1.00  0.00    -0.052 A 
ATOM      9  H   UNL     1     -46.673  32.021  26.251  1.00  0.00     0.063 H 
ATOM     10  C   UNL     1     -47.221  35.727  27.149  1.00  0.00     0.046 A 
ATOM     11  H   UNL     1     -49.254  35.484  26.428  1.00  0.00     0.065 H 
ATOM     12  C   UNL     1     -45.974  35.153  27.385  1.00  0.00    -0.000 A 
ATOM     13  H   UNL     1     -44.816  33.325  27.231  1.00  0.00     0.063 H 
ATOM     14  N   UNL     1     -47.147  37.040  27.558  1.00  0.00    -0.357 N 
ATOM     15  C   UNL     1     -45.151  36.163  27.951  1.00  0.00    -0.032 A 
ATOM     16  H   UNL     1     -47.915  37.694  27.503  1.00  0.00     0.166 HD
ATOM     17  H   UNL     1     -44.116  36.061  28.255  1.00  0.00     0.065 H 
BRANCH   5  18
ATOM     18  C   UNL     1     -49.212  32.851  25.686  1.00  0.00     0.043 C 
ATOM     19  H   UNL     1     -50.116  32.960  26.298  1.00  0.00     0.054 H 
ATOM     20  H   UNL     1     -49.471  33.193  24.677  1.00  0.00     0.054 H 
BRANCH  18  21
ATOM     21  N   UNL     1     -48.855  31.460  25.612  1.00  0.00    -0.347 N 
ATOM     22  O   UNL     1     -48.521  31.420  23.342  1.00  0.00    -0.268 OA
ATOM     23  C   UNL     1     -48.488  30.865  24.432  1.00  0.00     0.270 C 
ATOM     24  H   UNL     1     -48.704  30.927  26.463  1.00  0.00     0.164 HD
BRANCH  23  25
ATOM     25  C   UNL     1     -48.024  29.441  24.625  1.00  0.00     0.136 A 
ATOM     26  C   UNL     1     -46.979  29.052  23.892  1.00  0.00     0.035 A 
ATOM     27  N   UNL     1     -48.690  28.644  25.529  1.00  0.00    -0.225 NA
ATOM     28  C   UNL     1     -46.494  27.675  24.048  1.00  0.00     0.258 A 
ATOM     29  H   UNL     1     -46.462  29.689  23.185  1.00  0.00     0.071 H 
ATOM     30  C   UNL     1     -48.258  27.428  25.663  1.00  0.00     0.140 A 
ATOM     31  O   UNL     1     -45.532  27.306  23.375  1.00  0.00    -0.269 OA
ATOM     32  N   UNL     1     -47.181  26.893  24.963  1.00  0.00    -0.268 N 
ATOM     33  C   UNL     1     -48.949  26.528  26.631  1.00  0.00    -0.019 A 
ATOM     34  C   UNL     1     -46.781  25.577  25.168  1.00  0.00     0.014 A 
ATOM     35  C   UNL     1     -48.526  25.269  26.791  1.00  0.00    -0.057 A 
ATOM     36  H   UNL     1     -49.788  26.937  27.180  1.00  0.00     0.066 H 
ATOM     37  C   UNL     1     -47.406  24.774  26.038  1.00  0.00    -0.045 A 
ATOM     38  H   UNL     1     -45.932  25.224  24.587  1.00  0.00     0.082 H 
ATOM     39  H   UNL     1     -49.017  24.599  27.491  1.00  0.00     0.062 H 
ATOM     40  H   UNL     1     -47.084  23.749  26.188  1.00  0.00     0.064 H 
ENDBRANCH  23  25
ENDBRANCH  18  21
ENDBRANCH   5  18
ENDBRANCH   1   4
BRANCH   1  41
ATOM     41  N   UNL     1     -45.334  38.595  30.008  1.00  0.00    -0.301 NA
ATOM     42  H   UNL     1     -45.790  37.753  30.350  1.00  0.00     0.124 HD
BRANCH  41  43
ATOM     43  C   UNL     1     -43.922  38.551  30.375  1.00  0.00     0.058 C 
ATOM     44  H   UNL     1     -43.855  38.585  31.468  1.00  0.00     0.057 H 
ATOM     45  H   UNL     1     -43.469  37.602  30.066  1.00  0.00     0.057 H 
BRANCH  43  46
ATOM     46  C   UNL     1     -43.171  39.687  29.828  1.00  0.00    -0.088 C 
ATOM     47  C   UNL     1     -42.554  40.617  29.384  1.00  0.00    -0.099 C 
BRANCH  47  48
ATOM     48  C   UNL     1     -41.808  41.722  28.858  1.00  0.00     0.020 C 
ATOM     49  C   UNL     1     -42.555  42.824  28.154  1.00  0.00    -0.038 C 
ATOM     50  C   UNL     1     -41.702  41.875  27.363  1.00  0.00    -0.038 C 
ATOM     51  H   UNL     1     -40.941  42.018  29.441  1.00  0.00     0.044 H 
ATOM     52  H   UNL     1     -43.632  42.742  28.054  1.00  0.00     0.028 H 
ATOM     53  H   UNL     1     -42.200  43.839  28.287  1.00  0.00     0.028 H 
ATOM     54  H   UNL     1     -42.203  41.155  26.727  1.00  0.00     0.028 H 
ATOM     55  H   UNL     1     -40.768  42.247  26.960  1.00  0.00     0.028 H 
ENDBRANCH  47  48
ENDBRANCH  43  46
ENDBRANCH  41  43
ENDBRANCH   1  41
TORSDOF 8
ENDMDL
MODEL 6
REMARK VINA RESULT:      -8.6      4.018     12.241
REMARK SMILES O=C(NCc1ccc2cc(CNCC#CC3CC3)[nH]c2c1)c1cc(=O)n2ccccc2n1
REMARK SMILES IDX 11 1 10 4 5 5 6 6 21 7 7 8 20 10 8 12 19 14 9 15 4 18 3 21
REMARK SMILES IDX 1 22 2 23 22 25 23 26 32 27 24 28 31 30 25 31 26 32 30 33
REMARK SMILES IDX 27 34 29 35 28 37 12 41 13 43 14 46 15 47 16 48 17 49 18 50
REMARK H PARENT 11 2 11 3 6 9 21 11 7 13 19 16 9 17 4 19 4 20 3 24 23 29 30 36
REMARK H PARENT 27 38 29 39 28 40 12 42 13 44 13 45 16 51 17 52 17 53 18 54
REMARK H PARENT 18 55
REMARK Flexibility Score: inf
ROOT
ATOM      1  C   UNL     1     -46.619  38.925  28.800  1.00  0.00     0.037 C 
ATOM      2  H   UNL     1     -47.519  39.427  29.174  1.00  0.00     0.049 H 
ATOM      3  H   UNL     1     -45.989  38.675  29.661  1.00  0.00     0.049 H 
ENDROOT
BRANCH   1   4
ATOM      4  C   UNL     1     -46.999  37.658  28.110  1.00  0.00     0.030 A 
ATOM      5  C   UNL     1     -47.021  33.739  25.658  1.00  0.00    -0.027 A 
ATOM      6  C   UNL     1     -48.373  33.767  26.023  1.00  0.00    -0.057 A 
ATOM      7  C   UNL     1     -46.162  34.774  26.068  1.00  0.00    -0.033 A 
ATOM      8  C   UNL     1     -48.890  34.803  26.812  1.00  0.00    -0.052 A 
ATOM      9  H   UNL     1     -49.044  32.976  25.694  1.00  0.00     0.063 H 
ATOM     10  C   UNL     1     -46.697  35.800  26.857  1.00  0.00     0.046 A 
ATOM     11  H   UNL     1     -45.115  34.776  25.779  1.00  0.00     0.065 H 
ATOM     12  C   UNL     1     -48.036  35.836  27.237  1.00  0.00    -0.000 A 
ATOM     13  H   UNL     1     -49.940  34.808  27.090  1.00  0.00     0.063 H 
ATOM     14  N   UNL     1     -46.091  36.914  27.395  1.00  0.00    -0.357 N 
ATOM     15  C   UNL     1     -48.215  37.009  28.020  1.00  0.00    -0.032 A 
ATOM     16  H   UNL     1     -45.114  37.141  27.276  1.00  0.00     0.166 HD
ATOM     17  H   UNL     1     -49.136  37.346  28.479  1.00  0.00     0.065 H 
BRANCH   5  18
ATOM     18  C   UNL     1     -46.493  32.634  24.781  1.00  0.00     0.043 C 
ATOM     19  H   UNL     1     -46.558  32.913  23.722  1.00  0.00     0.054 H 
ATOM     20  H   UNL     1     -45.435  32.438  24.992  1.00  0.00     0.054 H 
BRANCH  18  21
ATOM     21  N   UNL     1     -47.229  31.417  24.996  1.00  0.00    -0.347 N 
ATOM     22  O   UNL     1     -47.921  31.169  22.822  1.00  0.00    -0.268 OA
ATOM     23  C   UNL     1     -47.852  30.752  23.971  1.00  0.00     0.270 C 
ATOM     24  H   UNL     1     -47.162  30.933  25.886  1.00  0.00     0.164 HD
BRANCH  23  25
ATOM     25  C   UNL     1     -48.438  29.433  24.413  1.00  0.00     0.136 A 
ATOM     26  C   UNL     1     -49.757  29.289  24.267  1.00  0.00     0.035 A 
ATOM     27  N   UNL     1     -47.596  28.474  24.928  1.00  0.00    -0.225 NA
ATOM     28  C   UNL     1     -50.369  28.022  24.684  1.00  0.00     0.258 A 
ATOM     29  H   UNL     1     -50.409  30.051  23.859  1.00  0.00     0.071 H 
ATOM     30  C   UNL     1     -48.141  27.355  25.296  1.00  0.00     0.140 A 
ATOM     31  O   UNL     1     -51.585  27.880  24.555  1.00  0.00    -0.269 OA
ATOM     32  N   UNL     1     -49.500  27.072  25.200  1.00  0.00    -0.268 N 
ATOM     33  C   UNL     1     -47.267  26.286  25.860  1.00  0.00    -0.019 A 
ATOM     34  C   UNL     1     -50.005  25.845  25.616  1.00  0.00     0.014 A 
ATOM     35  C   UNL     1     -47.801  25.122  26.247  1.00  0.00    -0.057 A 
ATOM     36  H   UNL     1     -46.208  26.498  25.938  1.00  0.00     0.066 H 
ATOM     37  C   UNL     1     -49.214  24.890  26.122  1.00  0.00    -0.045 A 
ATOM     38  H   UNL     1     -51.077  25.692  25.513  1.00  0.00     0.082 H 
ATOM     39  H   UNL     1     -47.181  24.333  26.660  1.00  0.00     0.062 H 
ATOM     40  H   UNL     1     -49.621  23.937  26.443  1.00  0.00     0.064 H 
ENDBRANCH  23  25
ENDBRANCH  18  21
ENDBRANCH   5  18
ENDBRANCH   1   4
BRANCH   1  41
ATOM     41  N   UNL     1     -45.903  39.784  27.862  1.00  0.00    -0.301 NA
ATOM     42  H   UNL     1     -45.039  39.321  27.594  1.00  0.00     0.124 HD
BRANCH  41  43
ATOM     43  C   UNL     1     -46.683  40.064  26.659  1.00  0.00     0.058 C 
ATOM     44  H   UNL     1     -46.093  40.733  26.022  1.00  0.00     0.057 H 
ATOM     45  H   UNL     1     -46.845  39.149  26.079  1.00  0.00     0.057 H 
BRANCH  43  46
ATOM     46  C   UNL     1     -47.960  40.719  26.965  1.00  0.00    -0.088 C 
ATOM     47  C   UNL     1     -49.005  41.257  27.212  1.00  0.00    -0.099 C 
BRANCH  47  48
ATOM     48  C   UNL     1     -50.255  41.897  27.496  1.00  0.00     0.020 C 
ATOM     49  C   UNL     1     -51.313  41.115  28.229  1.00  0.00    -0.038 C 
ATOM     50  C   UNL     1     -51.489  41.424  26.771  1.00  0.00    -0.038 C 
ATOM     51  H   UNL     1     -50.196  42.959  27.716  1.00  0.00     0.044 H 
ATOM     52  H   UNL     1     -51.101  40.088  28.509  1.00  0.00     0.028 H 
ATOM     53  H   UNL     1     -51.930  41.648  28.942  1.00  0.00     0.028 H 
ATOM     54  H   UNL     1     -51.400  40.606  26.066  1.00  0.00     0.028 H 
ATOM     55  H   UNL     1     -52.226  42.168  26.494  1.00  0.00     0.028 H 
ENDBRANCH  47  48
ENDBRANCH  43  46
ENDBRANCH  41  43
ENDBRANCH   1  41
TORSDOF 8
ENDMDL
MODEL 7
REMARK VINA RESULT:      -8.3      2.995     11.198
REMARK SMILES O=C(NCc1ccc2cc(CNCC#CC3CC3)[nH]c2c1)c1cc(=O)n2ccccc2n1
REMARK SMILES IDX 11 1 10 4 5 5 6 6 21 7 7 8 20 10 8 12 19 14 9 15 4 18 3 21
REMARK SMILES IDX 1 22 2 23 22 25 23 26 32 27 24 28 31 30 25 31 26 32 30 33
REMARK SMILES IDX 27 34 29 35 28 37 12 41 13 43 14 46 15 47 16 48 17 49 18 50
REMARK H PARENT 11 2 11 3 6 9 21 11 7 13 19 16 9 17 4 19 4 20 3 24 23 29 30 36
REMARK H PARENT 27 38 29 39 28 40 12 42 13 44 13 45 16 51 17 52 17 53 18 54
REMARK H PARENT 18 55
REMARK Flexibility Score: inf
ROOT
ATOM      1  C   UNL     1     -45.242  42.421  26.021  1.00  0.00     0.037 C 
ATOM      2  H   UNL     1     -46.187  42.944  25.833  1.00  0.00     0.049 H 
ATOM      3  H   UNL     1     -44.727  42.939  26.838  1.00  0.00     0.049 H 
ENDROOT
BRANCH   1   4
ATOM      4  C   UNL     1     -45.518  41.020  26.451  1.00  0.00     0.030 A 
ATOM      5  C   UNL     1     -47.481  36.946  27.409  1.00  0.00    -0.027 A 
ATOM      6  C   UNL     1     -46.185  36.665  27.859  1.00  0.00    -0.057 A 
ATOM      7  C   UNL     1     -47.783  38.214  26.882  1.00  0.00    -0.033 A 
ATOM      8  C   UNL     1     -45.166  37.624  27.777  1.00  0.00    -0.052 A 
ATOM      9  H   UNL     1     -45.952  35.690  28.282  1.00  0.00     0.063 H 
ATOM     10  C   UNL     1     -46.751  39.158  26.807  1.00  0.00     0.046 A 
ATOM     11  H   UNL     1     -48.787  38.452  26.545  1.00  0.00     0.065 H 
ATOM     12  C   UNL     1     -45.455  38.892  27.241  1.00  0.00    -0.000 A 
ATOM     13  H   UNL     1     -44.164  37.390  28.126  1.00  0.00     0.063 H 
ATOM     14  N   UNL     1     -46.764  40.452  26.336  1.00  0.00    -0.357 N 
ATOM     15  C   UNL     1     -44.691  40.069  27.016  1.00  0.00    -0.032 A 
ATOM     16  H   UNL     1     -47.583  40.910  25.960  1.00  0.00     0.166 HD
ATOM     17  H   UNL     1     -43.640  40.210  27.236  1.00  0.00     0.065 H 
BRANCH   5  18
ATOM     18  C   UNL     1     -48.569  35.912  27.537  1.00  0.00     0.043 C 
ATOM     19  H   UNL     1     -48.773  35.690  28.592  1.00  0.00     0.054 H 
ATOM     20  H   UNL     1     -49.508  36.276  27.104  1.00  0.00     0.054 H 
BRANCH  18  21
ATOM     21  N   UNL     1     -48.202  34.698  26.860  1.00  0.00    -0.347 N 
ATOM     22  O   UNL     1     -50.322  33.821  26.777  1.00  0.00    -0.268 OA
ATOM     23  C   UNL     1     -49.133  33.761  26.489  1.00  0.00     0.270 C 
ATOM     24  H   UNL     1     -47.263  34.585  26.491  1.00  0.00     0.164 HD
BRANCH  23  25
ATOM     25  C   UNL     1     -48.531  32.643  25.671  1.00  0.00     0.136 A 
ATOM     26  C   UNL     1     -47.323  32.870  25.152  1.00  0.00     0.035 A 
ATOM     27  N   UNL     1     -49.248  31.479  25.513  1.00  0.00    -0.225 NA
ATOM     28  C   UNL     1     -46.701  31.811  24.349  1.00  0.00     0.258 A 
ATOM     29  H   UNL     1     -46.768  33.791  25.284  1.00  0.00     0.071 H 
ATOM     30  C   UNL     1     -48.695  30.545  24.802  1.00  0.00     0.140 A 
ATOM     31  O   UNL     1     -45.588  32.011  23.864  1.00  0.00    -0.269 OA
ATOM     32  N   UNL     1     -47.443  30.648  24.204  1.00  0.00    -0.268 N 
ATOM     33  C   UNL     1     -49.435  29.266  24.604  1.00  0.00    -0.019 A 
ATOM     34  C   UNL     1     -46.920  29.598  23.458  1.00  0.00     0.014 A 
ATOM     35  C   UNL     1     -48.889  28.284  23.876  1.00  0.00    -0.057 A 
ATOM     36  H   UNL     1     -50.410  29.177  25.067  1.00  0.00     0.066 H 
ATOM     37  C   UNL     1     -47.590  28.452  23.283  1.00  0.00    -0.045 A 
ATOM     38  H   UNL     1     -45.936  29.747  23.018  1.00  0.00     0.082 H 
ATOM     39  H   UNL     1     -49.413  27.347  23.721  1.00  0.00     0.062 H 
ATOM     40  H   UNL     1     -47.171  27.640  22.699  1.00  0.00     0.064 H 
ENDBRANCH  23  25
ENDBRANCH  18  21
ENDBRANCH   5  18
ENDBRANCH   1   4
BRANCH   1  41
ATOM     41  N   UNL     1     -44.419  42.398  24.816  1.00  0.00    -0.301 NA
ATOM     42  H   UNL     1     -44.902  42.912  24.084  1.00  0.00     0.124 HD
BRANCH  41  43
ATOM     43  C   UNL     1     -43.105  42.998  25.028  1.00  0.00     0.058 C 
ATOM     44  H   UNL     1     -42.463  42.714  24.186  1.00  0.00     0.057 H 
ATOM     45  H   UNL     1     -43.171  44.092  25.012  1.00  0.00     0.057 H 
BRANCH  43  46
ATOM     46  C   UNL     1     -42.476  42.534  26.270  1.00  0.00    -0.088 C 
ATOM     47  C   UNL     1     -41.958  42.152  27.284  1.00  0.00    -0.099 C 
BRANCH  47  48
ATOM     48  C   UNL     1     -41.330  41.704  28.492  1.00  0.00     0.020 C 
ATOM     49  C   UNL     1     -42.027  40.655  29.318  1.00  0.00    -0.038 C 
ATOM     50  C   UNL     1     -41.959  42.071  29.812  1.00  0.00    -0.038 C 
ATOM     51  H   UNL     1     -40.246  41.660  28.464  1.00  0.00     0.044 H 
ATOM     52  H   UNL     1     -42.988  40.280  28.981  1.00  0.00     0.028 H 
ATOM     53  H   UNL     1     -41.412  39.912  29.812  1.00  0.00     0.028 H 
ATOM     54  H   UNL     1     -42.874  42.651  29.811  1.00  0.00     0.028 H 
ATOM     55  H   UNL     1     -41.297  42.289  30.641  1.00  0.00     0.028 H 
ENDBRANCH  47  48
ENDBRANCH  43  46
ENDBRANCH  41  43
ENDBRANCH   1  41
TORSDOF 8
ENDMDL
