MODEL 1
REMARK VINA RESULT:     -10.1      0.000      0.000
REMARK SMILES COC1(CNCc2cc3ccc(CNC(=O)c4cc(=O)n5ccccc5n4)cc3[nH]2)CCC1
REMARK SMILES IDX 6 1 5 4 4 6 3 9 31 10 33 11 32 12 2 19 1 20 7 24 8 25 30 26
REMARK SMILES IDX 9 27 29 29 10 31 28 32 11 33 12 35 13 38 14 41 15 42 16 44
REMARK SMILES IDX 17 45 18 46 27 47 19 48 26 50 20 51 21 52 25 53 22 54 24 55
REMARK SMILES IDX 23 57
REMARK H PARENT 6 2 6 3 5 5 4 7 4 8 31 13 31 14 33 15 33 16 32 17 32 18 1 21
REMARK H PARENT 1 22 1 23 8 28 30 30 10 34 28 36 11 37 13 39 13 40 14 43 18 49
REMARK H PARENT 25 56 22 58 24 59 23 60
REMARK Flexibility Score: inf
ROOT
ATOM      1  C   UNL     1     -48.529  29.248  23.962  1.00  0.00     0.036 C 
ATOM      2  H   UNL     1     -48.521  29.235  22.865  1.00  0.00     0.049 H 
ATOM      3  H   UNL     1     -49.566  29.049  24.256  1.00  0.00     0.049 H 
ENDROOT
BRANCH   1   4
ATOM      4  N   UNL     1     -47.641  28.189  24.433  1.00  0.00    -0.308 NA
ATOM      5  H   UNL     1     -47.481  28.303  25.433  1.00  0.00     0.123 HD
BRANCH   4   6
ATOM      6  C   UNL     1     -48.208  26.846  24.233  1.00  0.00     0.025 C 
ATOM      7  H   UNL     1     -47.428  26.175  23.853  1.00  0.00     0.046 H 
ATOM      8  H   UNL     1     -49.005  26.881  23.483  1.00  0.00     0.046 H 
BRANCH   6   9
ATOM      9  C   UNL     1     -48.797  26.280  25.548  1.00  0.00     0.080 C 
ATOM     10  C   UNL     1     -48.473  27.085  26.849  1.00  0.00    -0.023 C 
ATOM     11  C   UNL     1     -47.900  25.151  26.150  1.00  0.00    -0.023 C 
ATOM     12  C   UNL     1     -47.222  26.210  27.033  1.00  0.00    -0.048 C 
ATOM     13  H   UNL     1     -49.198  26.961  27.661  1.00  0.00     0.030 H 
ATOM     14  H   UNL     1     -48.275  28.153  26.719  1.00  0.00     0.030 H 
ATOM     15  H   UNL     1     -48.460  24.398  26.718  1.00  0.00     0.030 H 
ATOM     16  H   UNL     1     -47.234  24.631  25.454  1.00  0.00     0.030 H 
ATOM     17  H   UNL     1     -46.313  26.637  26.596  1.00  0.00     0.027 H 
ATOM     18  H   UNL     1     -47.007  25.902  28.060  1.00  0.00     0.027 H 
BRANCH   9  19
ATOM     19  O   UNL     1     -50.174  25.851  25.338  1.00  0.00    -0.377 OA
BRANCH  19  20
ATOM     20  C   UNL     1     -51.111  26.074  26.382  1.00  0.00     0.036 C 
ATOM     21  H   UNL     1     -50.992  25.281  27.125  1.00  0.00     0.053 H 
ATOM     22  H   UNL     1     -52.140  26.058  26.013  1.00  0.00     0.053 H 
ATOM     23  H   UNL     1     -50.902  27.033  26.862  1.00  0.00     0.053 H 
ENDBRANCH  19  20
ENDBRANCH   9  19
ENDBRANCH   6   9
ENDBRANCH   4   6
ENDBRANCH   1   4
BRANCH   1  24
ATOM     24  C   UNL     1     -48.093  30.591  24.431  1.00  0.00     0.030 A 
ATOM     25  C   UNL     1     -46.931  31.301  24.195  1.00  0.00    -0.032 A 
ATOM     26  N   UNL     1     -48.874  31.361  25.260  1.00  0.00    -0.357 N 
ATOM     27  C   UNL     1     -47.020  32.540  24.888  1.00  0.00    -0.000 A 
ATOM     28  H   UNL     1     -46.105  30.969  23.580  1.00  0.00     0.065 H 
ATOM     29  C   UNL     1     -48.247  32.551  25.549  1.00  0.00     0.046 A 
ATOM     30  H   UNL     1     -49.786  31.099  25.609  1.00  0.00     0.166 HD
ATOM     31  C   UNL     1     -46.174  33.656  25.014  1.00  0.00    -0.052 A 
ATOM     32  C   UNL     1     -48.672  33.627  26.336  1.00  0.00    -0.033 A 
ATOM     33  C   UNL     1     -46.583  34.745  25.795  1.00  0.00    -0.057 A 
ATOM     34  H   UNL     1     -45.214  33.678  24.507  1.00  0.00     0.063 H 
ATOM     35  C   UNL     1     -47.817  34.737  26.459  1.00  0.00    -0.027 A 
ATOM     36  H   UNL     1     -49.639  33.612  26.832  1.00  0.00     0.065 H 
ATOM     37  H   UNL     1     -45.924  35.606  25.878  1.00  0.00     0.063 H 
BRANCH  35  38
ATOM     38  C   UNL     1     -48.256  35.927  27.275  1.00  0.00     0.043 C 
ATOM     39  H   UNL     1     -49.208  36.316  26.896  1.00  0.00     0.054 H 
ATOM     40  H   UNL     1     -48.414  35.639  28.319  1.00  0.00     0.054 H 
BRANCH  38  41
ATOM     41  N   UNL     1     -47.248  36.956  27.261  1.00  0.00    -0.347 N 
ATOM     42  C   UNL     1     -46.520  37.295  28.375  1.00  0.00     0.270 C 
ATOM     43  H   UNL     1     -47.234  37.627  26.500  1.00  0.00     0.164 HD
ATOM     44  O   UNL     1     -46.533  36.676  29.432  1.00  0.00    -0.268 OA
BRANCH  42  45
ATOM     45  C   UNL     1     -45.697  38.546  28.162  1.00  0.00     0.136 A 
ATOM     46  C   UNL     1     -46.087  39.350  27.171  1.00  0.00     0.035 A 
ATOM     47  N   UNL     1     -44.612  38.772  28.978  1.00  0.00    -0.225 NA
ATOM     48  C   UNL     1     -45.312  40.573  26.922  1.00  0.00     0.258 A 
ATOM     49  H   UNL     1     -46.941  39.160  26.535  1.00  0.00     0.071 H 
ATOM     50  C   UNL     1     -43.927  39.850  28.750  1.00  0.00     0.140 A 
ATOM     51  O   UNL     1     -45.667  41.322  26.015  1.00  0.00    -0.269 OA
ATOM     52  N   UNL     1     -44.221  40.774  27.754  1.00  0.00    -0.268 N 
ATOM     53  C   UNL     1     -42.739  40.134  29.606  1.00  0.00    -0.019 A 
ATOM     54  C   UNL     1     -43.435  41.908  27.576  1.00  0.00     0.014 A 
ATOM     55  C   UNL     1     -42.013  41.239  29.396  1.00  0.00    -0.057 A 
ATOM     56  H   UNL     1     -42.501  39.419  30.384  1.00  0.00     0.066 H 
ATOM     57  C   UNL     1     -42.369  42.157  28.348  1.00  0.00    -0.045 A 
ATOM     58  H   UNL     1     -43.722  42.589  26.778  1.00  0.00     0.082 H 
ATOM     59  H   UNL     1     -41.144  41.462  30.008  1.00  0.00     0.062 H 
ATOM     60  H   UNL     1     -41.764  43.045  28.200  1.00  0.00     0.064 H 
ENDBRANCH  42  45
ENDBRANCH  38  41
ENDBRANCH  35  38
ENDBRANCH   1  24
TORSDOF 9
ENDMDL
MODEL 2
REMARK VINA RESULT:      -9.8      1.563      2.253
REMARK SMILES COC1(CNCc2cc3ccc(CNC(=O)c4cc(=O)n5ccccc5n4)cc3[nH]2)CCC1
REMARK SMILES IDX 6 1 5 4 4 6 3 9 31 10 33 11 32 12 2 19 1 20 7 24 8 25 30 26
REMARK SMILES IDX 9 27 29 29 10 31 28 32 11 33 12 35 13 38 14 41 15 42 16 44
REMARK SMILES IDX 17 45 18 46 27 47 19 48 26 50 20 51 21 52 25 53 22 54 24 55
REMARK SMILES IDX 23 57
REMARK H PARENT 6 2 6 3 5 5 4 7 4 8 31 13 31 14 33 15 33 16 32 17 32 18 1 21
REMARK H PARENT 1 22 1 23 8 28 30 30 10 34 28 36 11 37 13 39 13 40 14 43 18 49
REMARK H PARENT 25 56 22 58 24 59 23 60
REMARK Flexibility Score: inf
ROOT
ATOM      1  C   UNL     1     -49.245  29.485  23.219  1.00  0.00     0.036 C 
ATOM      2  H   UNL     1     -48.462  28.994  22.628  1.00  0.00     0.049 H 
ATOM      3  H   UNL     1     -50.016  29.788  22.501  1.00  0.00     0.049 H 
ENDROOT
BRANCH   1   4
ATOM      4  N   UNL     1     -49.771  28.510  24.170  1.00  0.00    -0.308 NA
ATOM      5  H   UNL     1     -50.766  28.370  23.994  1.00  0.00     0.123 HD
BRANCH   4   6
ATOM      6  C   UNL     1     -49.120  27.196  24.050  1.00  0.00     0.025 C 
ATOM      7  H   UNL     1     -48.714  27.082  23.038  1.00  0.00     0.046 H 
ATOM      8  H   UNL     1     -49.853  26.396  24.203  1.00  0.00     0.046 H 
BRANCH   6   9
ATOM      9  C   UNL     1     -47.988  27.028  25.094  1.00  0.00     0.080 C 
ATOM     10  C   UNL     1     -47.788  25.586  25.664  1.00  0.00    -0.023 C 
ATOM     11  C   UNL     1     -48.459  27.417  26.532  1.00  0.00    -0.023 C 
ATOM     12  C   UNL     1     -48.774  25.936  26.791  1.00  0.00    -0.048 C 
ATOM     13  H   UNL     1     -46.780  25.373  26.037  1.00  0.00     0.030 H 
ATOM     14  H   UNL     1     -48.100  24.762  25.016  1.00  0.00     0.030 H 
ATOM     15  H   UNL     1     -47.657  27.814  27.167  1.00  0.00     0.030 H 
ATOM     16  H   UNL     1     -49.317  28.093  26.599  1.00  0.00     0.030 H 
ATOM     17  H   UNL     1     -49.812  25.657  26.575  1.00  0.00     0.027 H 
ATOM     18  H   UNL     1     -48.510  25.562  27.784  1.00  0.00     0.027 H 
BRANCH   9  19
ATOM     19  O   UNL     1     -46.803  27.764  24.672  1.00  0.00    -0.377 OA
BRANCH  19  20
ATOM     20  C   UNL     1     -45.815  27.070  23.924  1.00  0.00     0.036 C 
ATOM     21  H   UNL     1     -46.173  26.053  23.741  1.00  0.00     0.053 H 
ATOM     22  H   UNL     1     -44.865  27.014  24.462  1.00  0.00     0.053 H 
ATOM     23  H   UNL     1     -45.669  27.566  22.961  1.00  0.00     0.053 H 
ENDBRANCH  19  20
ENDBRANCH   9  19
ENDBRANCH   6   9
ENDBRANCH   4   6
ENDBRANCH   1   4
BRANCH   1  24
ATOM     24  C   UNL     1     -48.660  30.670  23.902  1.00  0.00     0.030 A 
ATOM     25  C   UNL     1     -47.389  31.211  23.851  1.00  0.00    -0.032 A 
ATOM     26  N   UNL     1     -49.391  31.442  24.773  1.00  0.00    -0.357 N 
ATOM     27  C   UNL     1     -47.357  32.348  24.704  1.00  0.00    -0.000 A 
ATOM     28  H   UNL     1     -46.569  30.834  23.256  1.00  0.00     0.065 H 
ATOM     29  C   UNL     1     -48.624  32.470  25.271  1.00  0.00     0.046 A 
ATOM     30  H   UNL     1     -50.360  31.286  25.016  1.00  0.00     0.166 HD
ATOM     31  C   UNL     1     -46.370  33.291  25.045  1.00  0.00    -0.052 A 
ATOM     32  C   UNL     1     -48.956  33.490  26.170  1.00  0.00    -0.033 A 
ATOM     33  C   UNL     1     -46.684  34.322  25.941  1.00  0.00    -0.057 A 
ATOM     34  H   UNL     1     -45.375  33.225  24.616  1.00  0.00     0.063 H 
ATOM     35  C   UNL     1     -47.961  34.424  26.508  1.00  0.00    -0.027 A 
ATOM     36  H   UNL     1     -49.956  33.565  26.589  1.00  0.00     0.065 H 
ATOM     37  H   UNL     1     -45.915  35.049  26.190  1.00  0.00     0.063 H 
BRANCH  35  38
ATOM     38  C   UNL     1     -48.292  35.555  27.450  1.00  0.00     0.043 C 
ATOM     39  H   UNL     1     -49.204  36.067  27.122  1.00  0.00     0.054 H 
ATOM     40  H   UNL     1     -48.479  35.172  28.459  1.00  0.00     0.054 H 
BRANCH  38  41
ATOM     41  N   UNL     1     -47.194  36.484  27.540  1.00  0.00    -0.347 N 
ATOM     42  C   UNL     1     -46.533  36.739  28.716  1.00  0.00     0.270 C 
ATOM     43  H   UNL     1     -47.054  37.160  26.796  1.00  0.00     0.164 HD
ATOM     44  O   UNL     1     -46.693  36.111  29.755  1.00  0.00    -0.268 OA
BRANCH  42  45
ATOM     45  C   UNL     1     -45.583  37.908  28.597  1.00  0.00     0.136 A 
ATOM     46  C   UNL     1     -44.751  38.103  29.623  1.00  0.00     0.035 A 
ATOM     47  N   UNL     1     -45.635  38.692  27.467  1.00  0.00    -0.225 NA
ATOM     48  C   UNL     1     -43.816  39.234  29.554  1.00  0.00     0.258 A 
ATOM     49  H   UNL     1     -44.721  37.481  30.507  1.00  0.00     0.071 H 
ATOM     50  C   UNL     1     -44.811  39.693  27.414  1.00  0.00     0.140 A 
ATOM     51  O   UNL     1     -43.043  39.417  30.492  1.00  0.00    -0.269 OA
ATOM     52  N   UNL     1     -43.893  40.011  28.409  1.00  0.00    -0.268 N 
ATOM     53  C   UNL     1     -44.835  40.574  26.211  1.00  0.00    -0.019 A 
ATOM     54  C   UNL     1     -43.042  41.103  28.274  1.00  0.00     0.014 A 
ATOM     55  C   UNL     1     -43.996  41.613  26.127  1.00  0.00    -0.057 A 
ATOM     56  H   UNL     1     -45.548  40.336  25.431  1.00  0.00     0.066 H 
ATOM     57  C   UNL     1     -43.068  41.890  27.190  1.00  0.00    -0.045 A 
ATOM     58  H   UNL     1     -42.349  41.293  29.090  1.00  0.00     0.082 H 
ATOM     59  H   UNL     1     -44.000  42.267  25.260  1.00  0.00     0.062 H 
ATOM     60  H   UNL     1     -42.400  42.739  27.096  1.00  0.00     0.064 H 
ENDBRANCH  42  45
ENDBRANCH  38  41
ENDBRANCH  35  38
ENDBRANCH   1  24
TORSDOF 9
ENDMDL
MODEL 3
REMARK VINA RESULT:      -9.4      1.518      2.119
REMARK SMILES COC1(CNCc2cc3ccc(CNC(=O)c4cc(=O)n5ccccc5n4)cc3[nH]2)CCC1
REMARK SMILES IDX 6 1 5 4 4 6 3 9 31 10 33 11 32 12 2 19 1 20 7 24 8 25 30 26
REMARK SMILES IDX 9 27 29 29 10 31 28 32 11 33 12 35 13 38 14 41 15 42 16 44
REMARK SMILES IDX 17 45 18 46 27 47 19 48 26 50 20 51 21 52 25 53 22 54 24 55
REMARK SMILES IDX 23 57
REMARK H PARENT 6 2 6 3 5 5 4 7 4 8 31 13 31 14 33 15 33 16 32 17 32 18 1 21
REMARK H PARENT 1 22 1 23 8 28 30 30 10 34 28 36 11 37 13 39 13 40 14 43 18 49
REMARK H PARENT 25 56 22 58 24 59 23 60
REMARK Flexibility Score: inf
ROOT
ATOM      1  C   UNL     1     -48.342  30.805  24.115  1.00  0.00     0.036 C 
ATOM      2  H   UNL     1     -47.479  30.165  23.892  1.00  0.00     0.049 H 
ATOM      3  H   UNL     1     -48.770  31.080  23.143  1.00  0.00     0.049 H 
ENDROOT
BRANCH   1   4
ATOM      4  N   UNL     1     -49.291  30.024  24.902  1.00  0.00    -0.308 NA
ATOM      5  H   UNL     1     -49.974  29.595  24.278  1.00  0.00     0.123 HD
BRANCH   4   6
ATOM      6  C   UNL     1     -48.644  28.936  25.651  1.00  0.00     0.025 C 
ATOM      7  H   UNL     1     -49.095  28.862  26.648  1.00  0.00     0.046 H 
ATOM      8  H   UNL     1     -47.578  29.154  25.788  1.00  0.00     0.046 H 
BRANCH   6   9
ATOM      9  C   UNL     1     -48.775  27.583  24.911  1.00  0.00     0.080 C 
ATOM     10  C   UNL     1     -50.211  27.206  24.418  1.00  0.00    -0.023 C 
ATOM     11  C   UNL     1     -48.917  26.386  25.905  1.00  0.00    -0.023 C 
ATOM     12  C   UNL     1     -50.444  26.493  25.760  1.00  0.00    -0.048 C 
ATOM     13  H   UNL     1     -50.241  26.520  23.565  1.00  0.00     0.030 H 
ATOM     14  H   UNL     1     -50.887  28.042  24.215  1.00  0.00     0.030 H 
ATOM     15  H   UNL     1     -48.505  25.443  25.523  1.00  0.00     0.030 H 
ATOM     16  H   UNL     1     -48.534  26.543  26.918  1.00  0.00     0.030 H 
ATOM     17  H   UNL     1     -50.919  27.123  26.521  1.00  0.00     0.027 H 
ATOM     18  H   UNL     1     -50.982  25.543  25.705  1.00  0.00     0.027 H 
BRANCH   9  19
ATOM     19  O   UNL     1     -47.669  27.411  23.979  1.00  0.00    -0.377 OA
BRANCH  19  20
ATOM     20  C   UNL     1     -46.398  27.059  24.506  1.00  0.00     0.036 C 
ATOM     21  H   UNL     1     -46.095  27.832  25.218  1.00  0.00     0.053 H 
ATOM     22  H   UNL     1     -45.639  26.988  23.722  1.00  0.00     0.053 H 
ATOM     23  H   UNL     1     -46.472  26.107  25.038  1.00  0.00     0.053 H 
ENDBRANCH  19  20
ENDBRANCH   9  19
ENDBRANCH   6   9
ENDBRANCH   4   6
ENDBRANCH   1   4
BRANCH   1  24
ATOM     24  C   UNL     1     -47.869  32.011  24.847  1.00  0.00     0.030 A 
ATOM     25  C   UNL     1     -46.593  32.472  25.108  1.00  0.00    -0.032 A 
ATOM     26  N   UNL     1     -48.744  32.897  25.430  1.00  0.00    -0.357 N 
ATOM     27  C   UNL     1     -46.701  33.677  25.855  1.00  0.00    -0.000 A 
ATOM     28  H   UNL     1     -45.675  31.998  24.786  1.00  0.00     0.065 H 
ATOM     29  C   UNL     1     -48.059  33.920  26.045  1.00  0.00     0.046 A 
ATOM     30  H   UNL     1     -49.752  32.818  25.410  1.00  0.00     0.166 HD
ATOM     31  C   UNL     1     -45.770  34.588  26.386  1.00  0.00    -0.052 A 
ATOM     32  C   UNL     1     -48.538  35.032  26.746  1.00  0.00    -0.033 A 
ATOM     33  C   UNL     1     -46.230  35.710  27.088  1.00  0.00    -0.057 A 
ATOM     34  H   UNL     1     -44.705  34.428  26.250  1.00  0.00     0.063 H 
ATOM     35  C   UNL     1     -47.600  35.935  27.277  1.00  0.00    -0.027 A 
ATOM     36  H   UNL     1     -49.605  35.201  26.871  1.00  0.00     0.065 H 
ATOM     37  H   UNL     1     -45.500  36.411  27.487  1.00  0.00     0.063 H 
BRANCH  35  38
ATOM     38  C   UNL     1     -48.080  37.161  28.012  1.00  0.00     0.043 C 
ATOM     39  H   UNL     1     -48.966  37.577  27.517  1.00  0.00     0.054 H 
ATOM     40  H   UNL     1     -48.370  36.905  29.036  1.00  0.00     0.054 H 
BRANCH  38  41
ATOM     41  N   UNL     1     -47.036  38.150  28.095  1.00  0.00    -0.347 N 
ATOM     42  C   UNL     1     -46.859  39.124  27.144  1.00  0.00     0.270 C 
ATOM     43  H   UNL     1     -46.253  37.992  28.721  1.00  0.00     0.164 HD
ATOM     44  O   UNL     1     -47.639  39.352  26.227  1.00  0.00    -0.268 OA
BRANCH  42  45
ATOM     45  C   UNL     1     -45.570  39.888  27.340  1.00  0.00     0.136 A 
ATOM     46  C   UNL     1     -45.262  40.782  26.397  1.00  0.00     0.035 A 
ATOM     47  N   UNL     1     -44.801  39.618  28.448  1.00  0.00    -0.225 NA
ATOM     48  C   UNL     1     -44.013  41.541  26.541  1.00  0.00     0.258 A 
ATOM     49  H   UNL     1     -45.873  40.984  25.528  1.00  0.00     0.071 H 
ATOM     50  C   UNL     1     -43.696  40.287  28.568  1.00  0.00     0.140 A 
ATOM     51  O   UNL     1     -43.723  42.369  25.680  1.00  0.00    -0.269 OA
ATOM     52  N   UNL     1     -43.254  41.246  27.663  1.00  0.00    -0.268 N 
ATOM     53  C   UNL     1     -42.827  40.024  29.751  1.00  0.00    -0.019 A 
ATOM     54  C   UNL     1     -42.055  41.921  27.865  1.00  0.00     0.014 A 
ATOM     55  C   UNL     1     -41.681  40.700  29.903  1.00  0.00    -0.057 A 
ATOM     56  H   UNL     1     -43.162  39.277  30.461  1.00  0.00     0.066 H 
ATOM     57  C   UNL     1     -41.279  41.680  28.931  1.00  0.00    -0.045 A 
ATOM     58  H   UNL     1     -41.770  42.658  27.119  1.00  0.00     0.082 H 
ATOM     59  H   UNL     1     -41.036  40.521  30.757  1.00  0.00     0.062 H 
ATOM     60  H   UNL     1     -40.346  42.213  29.078  1.00  0.00     0.064 H 
ENDBRANCH  42  45
ENDBRANCH  38  41
ENDBRANCH  35  38
ENDBRANCH   1  24
TORSDOF 9
ENDMDL
MODEL 4
REMARK VINA RESULT:      -9.3      2.721      4.190
REMARK SMILES COC1(CNCc2cc3ccc(CNC(=O)c4cc(=O)n5ccccc5n4)cc3[nH]2)CCC1
REMARK SMILES IDX 6 1 5 4 4 6 3 9 31 10 33 11 32 12 2 19 1 20 7 24 8 25 30 26
REMARK SMILES IDX 9 27 29 29 10 31 28 32 11 33 12 35 13 38 14 41 15 42 16 44
REMARK SMILES IDX 17 45 18 46 27 47 19 48 26 50 20 51 21 52 25 53 22 54 24 55
REMARK SMILES IDX 23 57
REMARK H PARENT 6 2 6 3 5 5 4 7 4 8 31 13 31 14 33 15 33 16 32 17 32 18 1 21
REMARK H PARENT 1 22 1 23 8 28 30 30 10 34 28 36 11 37 13 39 13 40 14 43 18 49
REMARK H PARENT 25 56 22 58 24 59 23 60
REMARK Flexibility Score: inf
ROOT
ATOM      1  C   UNL     1     -46.350  32.234  24.475  1.00  0.00     0.036 C 
ATOM      2  H   UNL     1     -45.288  31.969  24.542  1.00  0.00     0.049 H 
ATOM      3  H   UNL     1     -46.509  32.579  23.447  1.00  0.00     0.049 H 
ENDROOT
BRANCH   1   4
ATOM      4  N   UNL     1     -47.133  31.033  24.751  1.00  0.00    -0.308 NA
ATOM      5  H   UNL     1     -48.069  31.303  25.051  1.00  0.00     0.123 HD
BRANCH   4   6
ATOM      6  C   UNL     1     -47.286  30.175  23.565  1.00  0.00     0.025 C 
ATOM      7  H   UNL     1     -47.225  29.122  23.868  1.00  0.00     0.046 H 
ATOM      8  H   UNL     1     -46.472  30.362  22.857  1.00  0.00     0.046 H 
BRANCH   6   9
ATOM      9  C   UNL     1     -48.632  30.440  22.846  1.00  0.00     0.080 C 
ATOM     10  C   UNL     1     -49.542  29.190  22.610  1.00  0.00    -0.023 C 
ATOM     11  C   UNL     1     -48.464  30.479  21.293  1.00  0.00    -0.023 C 
ATOM     12  C   UNL     1     -48.854  28.993  21.249  1.00  0.00    -0.048 C 
ATOM     13  H   UNL     1     -50.611  29.409  22.515  1.00  0.00     0.030 H 
ATOM     14  H   UNL     1     -49.418  28.362  23.314  1.00  0.00     0.030 H 
ATOM     15  H   UNL     1     -49.183  31.137  20.789  1.00  0.00     0.030 H 
ATOM     16  H   UNL     1     -47.464  30.709  20.914  1.00  0.00     0.030 H 
ATOM     17  H   UNL     1     -47.999  28.309  21.279  1.00  0.00     0.027 H 
ATOM     18  H   UNL     1     -49.511  28.701  20.425  1.00  0.00     0.027 H 
BRANCH   9  19
ATOM     19  O   UNL     1     -49.255  31.646  23.375  1.00  0.00    -0.377 OA
BRANCH  19  20
ATOM     20  C   UNL     1     -50.606  31.566  23.809  1.00  0.00     0.036 C 
ATOM     21  H   UNL     1     -51.065  32.550  23.685  1.00  0.00     0.053 H 
ATOM     22  H   UNL     1     -50.677  31.275  24.860  1.00  0.00     0.053 H 
ATOM     23  H   UNL     1     -51.148  30.849  23.187  1.00  0.00     0.053 H 
ENDBRANCH  19  20
ENDBRANCH   9  19
ENDBRANCH   6   9
ENDBRANCH   4   6
ENDBRANCH   1   4
BRANCH   1  24
ATOM     24  C   UNL     1     -46.636  33.322  25.449  1.00  0.00     0.030 A 
ATOM     25  C   UNL     1     -47.811  33.981  25.755  1.00  0.00    -0.032 A 
ATOM     26  N   UNL     1     -45.650  33.874  26.233  1.00  0.00    -0.357 N 
ATOM     27  C   UNL     1     -47.531  34.945  26.761  1.00  0.00    -0.000 A 
ATOM     28  H   UNL     1     -48.777  33.784  25.308  1.00  0.00     0.065 H 
ATOM     29  C   UNL     1     -46.169  34.858  27.042  1.00  0.00     0.046 A 
ATOM     30  H   UNL     1     -44.678  33.596  26.227  1.00  0.00     0.166 HD
ATOM     31  C   UNL     1     -48.308  35.883  27.465  1.00  0.00    -0.052 A 
ATOM     32  C   UNL     1     -45.540  35.669  27.994  1.00  0.00    -0.033 A 
ATOM     33  C   UNL     1     -47.697  36.701  28.425  1.00  0.00    -0.057 A 
ATOM     34  H   UNL     1     -49.373  35.970  27.271  1.00  0.00     0.063 H 
ATOM     35  C   UNL     1     -46.325  36.606  28.689  1.00  0.00    -0.027 A 
ATOM     36  H   UNL     1     -44.477  35.573  28.199  1.00  0.00     0.065 H 
ATOM     37  H   UNL     1     -48.311  37.416  28.967  1.00  0.00     0.063 H 
BRANCH  35  38
ATOM     38  C   UNL     1     -45.686  37.475  29.743  1.00  0.00     0.043 C 
ATOM     39  H   UNL     1     -46.449  37.857  30.432  1.00  0.00     0.054 H 
ATOM     40  H   UNL     1     -44.973  36.895  30.338  1.00  0.00     0.054 H 
BRANCH  38  41
ATOM     41  N   UNL     1     -44.958  38.562  29.140  1.00  0.00    -0.347 N 
ATOM     42  C   UNL     1     -45.574  39.563  28.431  1.00  0.00     0.270 C 
ATOM     43  H   UNL     1     -43.956  38.474  29.006  1.00  0.00     0.164 HD
ATOM     44  O   UNL     1     -46.786  39.727  28.365  1.00  0.00    -0.268 OA
BRANCH  42  45
ATOM     45  C   UNL     1     -44.583  40.449  27.713  1.00  0.00     0.136 A 
ATOM     46  C   UNL     1     -43.401  40.621  28.309  1.00  0.00     0.035 A 
ATOM     47  N   UNL     1     -44.951  41.023  26.517  1.00  0.00    -0.225 NA
ATOM     48  C   UNL     1     -42.409  41.482  27.651  1.00  0.00     0.258 A 
ATOM     49  H   UNL     1     -43.123  40.166  29.250  1.00  0.00     0.071 H 
ATOM     50  C   UNL     1     -44.074  41.788  25.943  1.00  0.00     0.140 A 
ATOM     51  O   UNL     1     -41.316  41.642  28.191  1.00  0.00    -0.269 OA
ATOM     52  N   UNL     1     -42.807  42.053  26.452  1.00  0.00    -0.268 N 
ATOM     53  C   UNL     1     -44.431  42.436  24.649  1.00  0.00    -0.019 A 
ATOM     54  C   UNL     1     -41.923  42.885  25.772  1.00  0.00     0.014 A 
ATOM     55  C   UNL     1     -43.546  43.229  24.032  1.00  0.00    -0.057 A 
ATOM     56  H   UNL     1     -45.416  42.238  24.245  1.00  0.00     0.066 H 
ATOM     57  C   UNL     1     -42.250  43.463  24.609  1.00  0.00    -0.045 A 
ATOM     58  H   UNL     1     -40.949  43.048  26.227  1.00  0.00     0.082 H 
ATOM     59  H   UNL     1     -43.788  43.710  23.089  1.00  0.00     0.062 H 
ATOM     60  H   UNL     1     -41.552  44.110  24.088  1.00  0.00     0.064 H 
ENDBRANCH  42  45
ENDBRANCH  38  41
ENDBRANCH  35  38
ENDBRANCH   1  24
TORSDOF 9
ENDMDL
MODEL 5
REMARK VINA RESULT:      -9.1      1.737      2.686
REMARK SMILES COC1(CNCc2cc3ccc(CNC(=O)c4cc(=O)n5ccccc5n4)cc3[nH]2)CCC1
REMARK SMILES IDX 6 1 5 4 4 6 3 9 31 10 33 11 32 12 2 19 1 20 7 24 8 25 30 26
REMARK SMILES IDX 9 27 29 29 10 31 28 32 11 33 12 35 13 38 14 41 15 42 16 44
REMARK SMILES IDX 17 45 18 46 27 47 19 48 26 50 20 51 21 52 25 53 22 54 24 55
REMARK SMILES IDX 23 57
REMARK H PARENT 6 2 6 3 5 5 4 7 4 8 31 13 31 14 33 15 33 16 32 17 32 18 1 21
REMARK H PARENT 1 22 1 23 8 28 30 30 10 34 28 36 11 37 13 39 13 40 14 43 18 49
REMARK H PARENT 25 56 22 58 24 59 23 60
REMARK Flexibility Score: inf
ROOT
ATOM      1  C   UNL     1     -49.363  30.948  24.567  1.00  0.00     0.036 C 
ATOM      2  H   UNL     1     -49.639  31.189  23.533  1.00  0.00     0.049 H 
ATOM      3  H   UNL     1     -50.309  30.796  25.101  1.00  0.00     0.049 H 
ENDROOT
BRANCH   1   4
ATOM      4  N   UNL     1     -48.570  29.723  24.549  1.00  0.00    -0.308 NA
ATOM      5  H   UNL     1     -47.582  29.962  24.464  1.00  0.00     0.123 HD
BRANCH   4   6
ATOM      6  C   UNL     1     -48.722  28.934  25.783  1.00  0.00     0.025 C 
ATOM      7  H   UNL     1     -49.663  29.207  26.276  1.00  0.00     0.046 H 
ATOM      8  H   UNL     1     -47.907  29.163  26.479  1.00  0.00     0.046 H 
BRANCH   6   9
ATOM      9  C   UNL     1     -48.703  27.414  25.488  1.00  0.00     0.080 C 
ATOM     10  C   UNL     1     -49.480  26.952  24.212  1.00  0.00    -0.023 C 
ATOM     11  C   UNL     1     -49.795  26.649  26.302  1.00  0.00    -0.023 C 
ATOM     12  C   UNL     1     -50.730  26.766  25.088  1.00  0.00    -0.048 C 
ATOM     13  H   UNL     1     -49.128  26.012  23.773  1.00  0.00     0.030 H 
ATOM     14  H   UNL     1     -49.582  27.692  23.413  1.00  0.00     0.030 H 
ATOM     15  H   UNL     1     -49.519  25.616  26.547  1.00  0.00     0.030 H 
ATOM     16  H   UNL     1     -50.155  27.134  27.214  1.00  0.00     0.030 H 
ATOM     17  H   UNL     1     -51.387  27.642  25.116  1.00  0.00     0.027 H 
ATOM     18  H   UNL     1     -51.334  25.880  24.869  1.00  0.00     0.027 H 
BRANCH   9  19
ATOM     19  O   UNL     1     -47.364  26.879  25.701  1.00  0.00    -0.377 OA
BRANCH  19  20
ATOM     20  C   UNL     1     -46.486  26.809  24.587  1.00  0.00     0.036 C 
ATOM     21  H   UNL     1     -46.027  25.817  24.572  1.00  0.00     0.053 H 
ATOM     22  H   UNL     1     -45.695  27.561  24.647  1.00  0.00     0.053 H 
ATOM     23  H   UNL     1     -47.055  26.942  23.663  1.00  0.00     0.053 H 
ENDBRANCH  19  20
ENDBRANCH   9  19
ENDBRANCH   6   9
ENDBRANCH   4   6
ENDBRANCH   1   4
BRANCH   1  24
ATOM     24  C   UNL     1     -48.608  32.094  25.143  1.00  0.00     0.030 A 
ATOM     25  C   UNL     1     -47.260  32.398  25.114  1.00  0.00    -0.032 A 
ATOM     26  N   UNL     1     -49.228  33.084  25.866  1.00  0.00    -0.357 N 
ATOM     27  C   UNL     1     -47.064  33.612  25.826  1.00  0.00    -0.000 A 
ATOM     28  H   UNL     1     -46.494  31.812  24.624  1.00  0.00     0.065 H 
ATOM     29  C   UNL     1     -48.314  34.021  26.289  1.00  0.00     0.046 A 
ATOM     30  H   UNL     1     -50.220  33.129  26.061  1.00  0.00     0.166 HD
ATOM     31  C   UNL     1     -45.942  34.408  26.119  1.00  0.00    -0.052 A 
ATOM     32  C   UNL     1     -48.499  35.189  27.037  1.00  0.00    -0.033 A 
ATOM     33  C   UNL     1     -46.107  35.583  26.864  1.00  0.00    -0.057 A 
ATOM     34  H   UNL     1     -44.956  34.118  25.768  1.00  0.00     0.063 H 
ATOM     35  C   UNL     1     -47.369  35.975  27.329  1.00  0.00    -0.027 A 
ATOM     36  H   UNL     1     -49.487  35.488  27.377  1.00  0.00     0.065 H 
ATOM     37  H   UNL     1     -45.232  36.193  27.077  1.00  0.00     0.063 H 
BRANCH  35  38
ATOM     38  C   UNL     1     -47.535  37.257  28.106  1.00  0.00     0.043 C 
ATOM     39  H   UNL     1     -48.521  37.694  27.909  1.00  0.00     0.054 H 
ATOM     40  H   UNL     1     -47.474  37.063  29.182  1.00  0.00     0.054 H 
BRANCH  38  41
ATOM     41  N   UNL     1     -46.491  38.193  27.778  1.00  0.00    -0.347 N 
ATOM     42  C   UNL     1     -45.458  38.482  28.635  1.00  0.00     0.270 C 
ATOM     43  H   UNL     1     -46.634  38.850  27.018  1.00  0.00     0.164 HD
ATOM     44  O   UNL     1     -45.228  37.880  29.677  1.00  0.00    -0.268 OA
BRANCH  42  45
ATOM     45  C   UNL     1     -44.628  39.652  28.159  1.00  0.00     0.136 A 
ATOM     46  C   UNL     1     -43.632  40.038  28.959  1.00  0.00     0.035 A 
ATOM     47  N   UNL     1     -44.948  40.245  26.959  1.00  0.00    -0.225 NA
ATOM     48  C   UNL     1     -42.806  41.177  28.541  1.00  0.00     0.258 A 
ATOM     49  H   UNL     1     -43.393  39.564  29.902  1.00  0.00     0.071 H 
ATOM     50  C   UNL     1     -44.218  41.256  26.597  1.00  0.00     0.140 A 
ATOM     51  O   UNL     1     -41.883  41.536  29.270  1.00  0.00    -0.269 OA
ATOM     52  N   UNL     1     -43.151  41.761  27.332  1.00  0.00    -0.268 N 
ATOM     53  C   UNL     1     -44.530  41.934  25.306  1.00  0.00    -0.019 A 
ATOM     54  C   UNL     1     -42.417  42.849  26.871  1.00  0.00     0.014 A 
ATOM     55  C   UNL     1     -43.794  42.978  24.904  1.00  0.00    -0.057 A 
ATOM     56  H   UNL     1     -45.361  41.550  24.727  1.00  0.00     0.066 H 
ATOM     57  C   UNL     1     -42.703  43.454  25.711  1.00  0.00    -0.045 A 
ATOM     58  H   UNL     1     -41.596  43.191  27.496  1.00  0.00     0.082 H 
ATOM     59  H   UNL     1     -44.007  43.486  23.969  1.00  0.00     0.062 H 
ATOM     60  H   UNL     1     -42.123  44.301  25.362  1.00  0.00     0.064 H 
ENDBRANCH  42  45
ENDBRANCH  38  41
ENDBRANCH  35  38
ENDBRANCH   1  24
TORSDOF 9
ENDMDL
MODEL 6
REMARK VINA RESULT:      -9.1      2.814      4.919
REMARK SMILES COC1(CNCc2cc3ccc(CNC(=O)c4cc(=O)n5ccccc5n4)cc3[nH]2)CCC1
REMARK SMILES IDX 6 1 5 4 4 6 3 9 31 10 33 11 32 12 2 19 1 20 7 24 8 25 30 26
REMARK SMILES IDX 9 27 29 29 10 31 28 32 11 33 12 35 13 38 14 41 15 42 16 44
REMARK SMILES IDX 17 45 18 46 27 47 19 48 26 50 20 51 21 52 25 53 22 54 24 55
REMARK SMILES IDX 23 57
REMARK H PARENT 6 2 6 3 5 5 4 7 4 8 31 13 31 14 33 15 33 16 32 17 32 18 1 21
REMARK H PARENT 1 22 1 23 8 28 30 30 10 34 28 36 11 37 13 39 13 40 14 43 18 49
REMARK H PARENT 25 56 22 58 24 59 23 60
REMARK Flexibility Score: inf
ROOT
ATOM      1  C   UNL     1     -48.143  32.765  25.952  1.00  0.00     0.036 C 
ATOM      2  H   UNL     1     -48.611  32.914  24.972  1.00  0.00     0.049 H 
ATOM      3  H   UNL     1     -48.880  32.220  26.555  1.00  0.00     0.049 H 
ENDROOT
BRANCH   1   4
ATOM      4  N   UNL     1     -46.935  31.969  25.760  1.00  0.00    -0.308 NA
ATOM      5  H   UNL     1     -47.106  31.014  26.073  1.00  0.00     0.123 HD
BRANCH   4   6
ATOM      6  C   UNL     1     -46.526  31.896  24.348  1.00  0.00     0.025 C 
ATOM      7  H   UNL     1     -45.488  31.547  24.287  1.00  0.00     0.046 H 
ATOM      8  H   UNL     1     -46.565  32.892  23.892  1.00  0.00     0.046 H 
BRANCH   6   9
ATOM      9  C   UNL     1     -47.448  30.951  23.540  1.00  0.00     0.080 C 
ATOM     10  C   UNL     1     -47.633  29.510  24.120  1.00  0.00    -0.023 C 
ATOM     11  C   UNL     1     -46.689  30.265  22.359  1.00  0.00    -0.023 C 
ATOM     12  C   UNL     1     -46.430  29.058  23.275  1.00  0.00    -0.048 C 
ATOM     13  H   UNL     1     -48.564  29.012  23.829  1.00  0.00     0.030 H 
ATOM     14  H   UNL     1     -47.504  29.404  25.201  1.00  0.00     0.030 H 
ATOM     15  H   UNL     1     -47.329  30.034  21.498  1.00  0.00     0.030 H 
ATOM     16  H   UNL     1     -45.791  30.772  21.994  1.00  0.00     0.030 H 
ATOM     17  H   UNL     1     -45.473  29.100  23.806  1.00  0.00     0.027 H 
ATOM     18  H   UNL     1     -46.527  28.076  22.802  1.00  0.00     0.027 H 
BRANCH   9  19
ATOM     19  O   UNL     1     -48.640  31.666  23.102  1.00  0.00    -0.377 OA
BRANCH  19  20
ATOM     20  C   UNL     1     -49.680  30.920  22.485  1.00  0.00     0.036 C 
ATOM     21  H   UNL     1     -49.583  29.876  22.794  1.00  0.00     0.053 H 
ATOM     22  H   UNL     1     -49.623  30.970  21.395  1.00  0.00     0.053 H 
ATOM     23  H   UNL     1     -50.649  31.294  22.824  1.00  0.00     0.053 H 
ENDBRANCH  19  20
ENDBRANCH   9  19
ENDBRANCH   6   9
ENDBRANCH   4   6
ENDBRANCH   1   4
BRANCH   1  24
ATOM     24  C   UNL     1     -47.846  34.094  26.551  1.00  0.00     0.030 A 
ATOM     25  C   UNL     1     -48.676  35.153  26.867  1.00  0.00    -0.032 A 
ATOM     26  N   UNL     1     -46.567  34.473  26.881  1.00  0.00    -0.357 N 
ATOM     27  C   UNL     1     -47.878  36.194  27.416  1.00  0.00    -0.000 A 
ATOM     28  H   UNL     1     -49.748  35.175  26.726  1.00  0.00     0.065 H 
ATOM     29  C   UNL     1     -46.559  35.743  27.412  1.00  0.00     0.046 A 
ATOM     30  H   UNL     1     -45.740  33.903  26.759  1.00  0.00     0.166 HD
ATOM     31  C   UNL     1     -48.152  37.478  27.921  1.00  0.00    -0.052 A 
ATOM     32  C   UNL     1     -45.493  36.516  27.887  1.00  0.00    -0.033 A 
ATOM     33  C   UNL     1     -47.098  38.266  28.404  1.00  0.00    -0.057 A 
ATOM     34  H   UNL     1     -49.170  37.855  27.941  1.00  0.00     0.063 H 
ATOM     35  C   UNL     1     -45.778  37.800  28.385  1.00  0.00    -0.027 A 
ATOM     36  H   UNL     1     -44.476  36.134  27.880  1.00  0.00     0.065 H 
ATOM     37  H   UNL     1     -47.325  39.254  28.799  1.00  0.00     0.063 H 
BRANCH  35  38
ATOM     38  C   UNL     1     -44.658  38.650  28.933  1.00  0.00     0.043 C 
ATOM     39  H   UNL     1     -44.940  39.064  29.909  1.00  0.00     0.054 H 
ATOM     40  H   UNL     1     -43.757  38.046  29.084  1.00  0.00     0.054 H 
BRANCH  38  41
ATOM     41  N   UNL     1     -44.319  39.705  28.013  1.00  0.00    -0.347 N 
ATOM     42  C   UNL     1     -43.456  40.723  28.338  1.00  0.00     0.270 C 
ATOM     43  H   UNL     1     -44.905  39.862  27.200  1.00  0.00     0.164 HD
ATOM     44  O   UNL     1     -42.778  40.763  29.358  1.00  0.00    -0.268 OA
BRANCH  42  45
ATOM     45  C   UNL     1     -43.443  41.816  27.296  1.00  0.00     0.136 A 
ATOM     46  C   UNL     1     -42.261  42.089  26.738  1.00  0.00     0.035 A 
ATOM     47  N   UNL     1     -44.621  42.461  26.996  1.00  0.00    -0.225 NA
ATOM     48  C   UNL     1     -42.199  43.152  25.726  1.00  0.00     0.258 A 
ATOM     49  H   UNL     1     -41.340  41.577  26.984  1.00  0.00     0.071 H 
ATOM     50  C   UNL     1     -44.560  43.403  26.106  1.00  0.00     0.140 A 
ATOM     51  O   UNL     1     -41.116  43.406  25.203  1.00  0.00    -0.269 OA
ATOM     52  N   UNL     1     -43.398  43.789  25.446  1.00  0.00    -0.268 N 
ATOM     53  C   UNL     1     -45.811  44.133  25.752  1.00  0.00    -0.019 A 
ATOM     54  C   UNL     1     -43.418  44.810  24.502  1.00  0.00     0.014 A 
ATOM     55  C   UNL     1     -45.780  45.109  24.836  1.00  0.00    -0.057 A 
ATOM     56  H   UNL     1     -46.721  43.841  26.262  1.00  0.00     0.066 H 
ATOM     57  C   UNL     1     -44.546  45.461  24.189  1.00  0.00    -0.045 A 
ATOM     58  H   UNL     1     -42.474  45.060  24.024  1.00  0.00     0.082 H 
ATOM     59  H   UNL     1     -46.680  45.652  24.567  1.00  0.00     0.062 H 
ATOM     60  H   UNL     1     -44.549  46.256  23.450  1.00  0.00     0.064 H 
ENDBRANCH  42  45
ENDBRANCH  38  41
ENDBRANCH  35  38
ENDBRANCH   1  24
TORSDOF 9
ENDMDL
MODEL 7
REMARK VINA RESULT:      -9.0      2.540      3.662
REMARK SMILES COC1(CNCc2cc3ccc(CNC(=O)c4cc(=O)n5ccccc5n4)cc3[nH]2)CCC1
REMARK SMILES IDX 6 1 5 4 4 6 3 9 31 10 33 11 32 12 2 19 1 20 7 24 8 25 30 26
REMARK SMILES IDX 9 27 29 29 10 31 28 32 11 33 12 35 13 38 14 41 15 42 16 44
REMARK SMILES IDX 17 45 18 46 27 47 19 48 26 50 20 51 21 52 25 53 22 54 24 55
REMARK SMILES IDX 23 57
REMARK H PARENT 6 2 6 3 5 5 4 7 4 8 31 13 31 14 33 15 33 16 32 17 32 18 1 21
REMARK H PARENT 1 22 1 23 8 28 30 30 10 34 28 36 11 37 13 39 13 40 14 43 18 49
REMARK H PARENT 25 56 22 58 24 59 23 60
REMARK Flexibility Score: inf
ROOT
ATOM      1  C   UNL     1     -48.755  30.162  25.263  1.00  0.00     0.036 C 
ATOM      2  H   UNL     1     -49.787  30.072  25.624  1.00  0.00     0.049 H 
ATOM      3  H   UNL     1     -48.181  29.403  25.806  1.00  0.00     0.049 H 
ENDROOT
BRANCH   1   4
ATOM      4  N   UNL     1     -48.753  29.892  23.828  1.00  0.00    -0.308 NA
ATOM      5  H   UNL     1     -48.433  28.938  23.665  1.00  0.00     0.123 HD
BRANCH   4   6
ATOM      6  C   UNL     1     -50.093  30.009  23.230  1.00  0.00     0.025 C 
ATOM      7  H   UNL     1     -50.766  30.505  23.939  1.00  0.00     0.046 H 
ATOM      8  H   UNL     1     -50.503  29.013  23.028  1.00  0.00     0.046 H 
BRANCH   6   9
ATOM      9  C   UNL     1     -50.051  30.801  21.900  1.00  0.00     0.080 C 
ATOM     10  C   UNL     1     -50.956  32.075  21.830  1.00  0.00    -0.023 C 
ATOM     11  C   UNL     1     -51.010  30.191  20.828  1.00  0.00    -0.023 C 
ATOM     12  C   UNL     1     -52.086  31.195  21.270  1.00  0.00    -0.048 C 
ATOM     13  H   UNL     1     -50.623  32.839  21.119  1.00  0.00     0.030 H 
ATOM     14  H   UNL     1     -51.180  32.562  22.784  1.00  0.00     0.030 H 
ATOM     15  H   UNL     1     -50.668  30.338  19.796  1.00  0.00     0.030 H 
ATOM     16  H   UNL     1     -51.277  29.137  20.954  1.00  0.00     0.030 H 
ATOM     17  H   UNL     1     -52.768  30.808  22.035  1.00  0.00     0.027 H 
ATOM     18  H   UNL     1     -52.677  31.640  20.465  1.00  0.00     0.027 H 
BRANCH   9  19
ATOM     19  O   UNL     1     -48.678  30.915  21.427  1.00  0.00    -0.377 OA
BRANCH  19  20
ATOM     20  C   UNL     1     -48.466  31.223  20.056  1.00  0.00     0.036 C 
ATOM     21  H   UNL     1     -47.712  30.536  19.662  1.00  0.00     0.053 H 
ATOM     22  H   UNL     1     -48.110  32.247  19.921  1.00  0.00     0.053 H 
ATOM     23  H   UNL     1     -49.395  31.075  19.500  1.00  0.00     0.053 H 
ENDBRANCH  19  20
ENDBRANCH   9  19
ENDBRANCH   6   9
ENDBRANCH   4   6
ENDBRANCH   1   4
BRANCH   1  24
ATOM     24  C   UNL     1     -48.255  31.529  25.574  1.00  0.00     0.030 A 
ATOM     25  C   UNL     1     -47.008  32.099  25.406  1.00  0.00    -0.032 A 
ATOM     26  N   UNL     1     -49.061  32.485  26.147  1.00  0.00    -0.357 N 
ATOM     27  C   UNL     1     -47.066  33.440  25.874  1.00  0.00    -0.000 A 
ATOM     28  H   UNL     1     -46.144  31.606  24.980  1.00  0.00     0.065 H 
ATOM     29  C   UNL     1     -48.363  33.656  26.335  1.00  0.00     0.046 A 
ATOM     30  H   UNL     1     -50.033  32.356  26.393  1.00  0.00     0.166 HD
ATOM     31  C   UNL     1     -46.138  34.494  25.948  1.00  0.00    -0.052 A 
ATOM     32  C   UNL     1     -48.782  34.879  26.872  1.00  0.00    -0.033 A 
ATOM     33  C   UNL     1     -46.539  35.728  26.479  1.00  0.00    -0.057 A 
ATOM     34  H   UNL     1     -45.122  34.358  25.592  1.00  0.00     0.063 H 
ATOM     35  C   UNL     1     -47.845  35.925  26.945  1.00  0.00    -0.027 A 
ATOM     36  H   UNL     1     -49.803  35.021  27.215  1.00  0.00     0.065 H 
ATOM     37  H   UNL     1     -45.815  36.537  26.523  1.00  0.00     0.063 H 
BRANCH  35  38
ATOM     38  C   UNL     1     -48.270  37.266  27.489  1.00  0.00     0.043 C 
ATOM     39  H   UNL     1     -49.030  37.715  26.840  1.00  0.00     0.054 H 
ATOM     40  H   UNL     1     -48.716  37.153  28.483  1.00  0.00     0.054 H 
BRANCH  38  41
ATOM     41  N   UNL     1     -47.136  38.145  27.625  1.00  0.00    -0.347 N 
ATOM     42  C   UNL     1     -47.190  39.479  27.304  1.00  0.00     0.270 C 
ATOM     43  H   UNL     1     -46.208  37.747  27.716  1.00  0.00     0.164 HD
ATOM     44  O   UNL     1     -48.215  40.088  27.023  1.00  0.00    -0.268 OA
BRANCH  42  45
ATOM     45  C   UNL     1     -45.824  40.126  27.317  1.00  0.00     0.136 A 
ATOM     46  C   UNL     1     -45.517  40.883  26.261  1.00  0.00     0.035 A 
ATOM     47  N   UNL     1     -44.991  39.895  28.388  1.00  0.00    -0.225 NA
ATOM     48  C   UNL     1     -44.196  41.524  26.227  1.00  0.00     0.258 A 
ATOM     49  H   UNL     1     -46.179  41.055  25.424  1.00  0.00     0.071 H 
ATOM     50  C   UNL     1     -43.823  40.459  28.350  1.00  0.00     0.140 A 
ATOM     51  O   UNL     1     -43.906  42.227  25.261  1.00  0.00    -0.269 OA
ATOM     52  N   UNL     1     -43.374  41.271  27.314  1.00  0.00    -0.268 N 
ATOM     53  C   UNL     1     -42.885  40.233  29.487  1.00  0.00    -0.019 A 
ATOM     54  C   UNL     1     -42.105  41.840  27.351  1.00  0.00     0.014 A 
ATOM     55  C   UNL     1     -41.673  40.802  29.477  1.00  0.00    -0.057 A 
ATOM     56  H   UNL     1     -43.224  39.600  30.297  1.00  0.00     0.066 H 
ATOM     57  C   UNL     1     -41.267  41.633  28.375  1.00  0.00    -0.045 A 
ATOM     58  H   UNL     1     -41.819  42.464  26.508  1.00  0.00     0.082 H 
ATOM     59  H   UNL     1     -40.976  40.648  30.294  1.00  0.00     0.062 H 
ATOM     60  H   UNL     1     -40.280  42.082  28.392  1.00  0.00     0.064 H 
ENDBRANCH  42  45
ENDBRANCH  38  41
ENDBRANCH  35  38
ENDBRANCH   1  24
TORSDOF 9
ENDMDL
