MODEL 1
REMARK VINA RESULT:      -8.6      0.000      0.000
REMARK SMILES CCc1cc(NCCOC)c2c(F)cc(OCc3cncc(-n4cc([C@@H]5CCCO5)c5c(N)ncnc54)n3)cc2n1
REMARK SMILES IDX 3 1 4 2 5 3 11 4 12 5 13 6 14 7 15 8 39 9 40 10 41 11 2 15
REMARK SMILES IDX 1 18 6 22 7 24 8 27 9 30 10 31 16 35 17 36 18 39 19 40 38 41
REMARK SMILES IDX 20 42 22 44 21 45 23 47 24 48 37 49 25 50 31 52 36 53 32 54
REMARK SMILES IDX 35 55 34 56 26 58 27 59 30 60 28 62 29 65 33 70
REMARK H PARENT 4 12 14 13 39 14 2 16 2 17 1 19 1 20 1 21 6 23 7 25 7 26 8 28
REMARK H PARENT 8 29 10 32 10 33 10 34 17 37 17 38 19 43 21 46 24 51 35 57
REMARK H PARENT 26 61 27 63 27 64 28 66 28 67 29 68 29 69 33 71 33 72
REMARK Flexibility Score: inf
ROOT
ATOM      1  C   UNL     1     -49.136  28.151  24.763  1.00  0.00     0.043 A 
ATOM      2  C   UNL     1     -48.724  28.289  23.445  1.00  0.00    -0.017 A 
ATOM      3  C   UNL     1     -47.986  29.413  23.064  1.00  0.00     0.048 A 
ATOM      4  C   UNL     1     -47.743  30.418  24.042  1.00  0.00     0.059 A 
ATOM      5  C   UNL     1     -47.054  31.625  23.800  1.00  0.00     0.138 A 
ATOM      6  F   UNL     1     -46.552  31.885  22.580  1.00  0.00    -0.206 F 
ATOM      7  C   UNL     1     -46.847  32.578  24.791  1.00  0.00     0.017 A 
ATOM      8  C   UNL     1     -47.325  32.353  26.074  1.00  0.00     0.125 A 
ATOM      9  C   UNL     1     -48.000  31.160  26.335  1.00  0.00     0.007 A 
ATOM     10  C   UNL     1     -48.213  30.195  25.353  1.00  0.00     0.079 A 
ATOM     11  N   UNL     1     -48.871  29.080  25.706  1.00  0.00    -0.252 NA
ATOM     12  H   UNL     1     -49.004  27.531  22.724  1.00  0.00     0.066 H 
ATOM     13  H   UNL     1     -46.313  33.491  24.548  1.00  0.00     0.069 H 
ATOM     14  H   UNL     1     -48.404  30.941  27.319  1.00  0.00     0.069 H 
ENDROOT
BRANCH   1  15
ATOM     15  C   UNL     1     -49.958  26.964  25.190  1.00  0.00    -0.013 C 
ATOM     16  H   UNL     1     -50.319  26.437  24.299  1.00  0.00     0.033 H 
ATOM     17  H   UNL     1     -50.848  27.299  25.734  1.00  0.00     0.033 H 
BRANCH  15  18
ATOM     18  C   UNL     1     -49.148  26.005  26.050  1.00  0.00    -0.060 C 
ATOM     19  H   UNL     1     -49.792  25.264  26.536  1.00  0.00     0.023 H 
ATOM     20  H   UNL     1     -48.615  26.556  26.832  1.00  0.00     0.023 H 
ATOM     21  H   UNL     1     -48.408  25.465  25.451  1.00  0.00     0.023 H 
ENDBRANCH  15  18
ENDBRANCH   1  15
BRANCH   3  22
ATOM     22  N   UNL     1     -47.617  29.609  21.718  1.00  0.00    -0.382 N 
ATOM     23  H   UNL     1     -46.850  28.986  21.442  1.00  0.00     0.160 HD
BRANCH  22  24
ATOM     24  C   UNL     1     -48.665  29.624  20.694  1.00  0.00     0.038 C 
ATOM     25  H   UNL     1     -49.583  29.170  21.082  1.00  0.00     0.051 H 
ATOM     26  H   UNL     1     -48.340  29.056  19.816  1.00  0.00     0.051 H 
BRANCH  24  27
ATOM     27  C   UNL     1     -48.973  31.075  20.285  1.00  0.00     0.063 C 
ATOM     28  H   UNL     1     -49.692  31.071  19.459  1.00  0.00     0.059 H 
ATOM     29  H   UNL     1     -48.068  31.579  19.929  1.00  0.00     0.059 H 
BRANCH  27  30
ATOM     30  O   UNL     1     -49.572  31.837  21.342  1.00  0.00    -0.383 OA
BRANCH  30  31
ATOM     31  C   UNL     1     -50.973  31.638  21.462  1.00  0.00     0.036 C 
ATOM     32  H   UNL     1     -51.377  32.214  22.302  1.00  0.00     0.053 H 
ATOM     33  H   UNL     1     -51.446  31.991  20.542  1.00  0.00     0.053 H 
ATOM     34  H   UNL     1     -51.207  30.578  21.580  1.00  0.00     0.053 H 
ENDBRANCH  30  31
ENDBRANCH  27  30
ENDBRANCH  24  27
ENDBRANCH  22  24
ENDBRANCH   3  22
BRANCH   8  35
ATOM     35  O   UNL     1     -47.068  33.365  26.958  1.00  0.00    -0.487 OA
BRANCH  35  36
ATOM     36  C   UNL     1     -47.594  34.668  26.687  1.00  0.00     0.132 C 
ATOM     37  H   UNL     1     -47.426  34.970  25.646  1.00  0.00     0.078 H 
ATOM     38  H   UNL     1     -48.683  34.598  26.794  1.00  0.00     0.078 H 
BRANCH  36  39
ATOM     39  C   UNL     1     -47.090  35.694  27.666  1.00  0.00     0.099 A 
ATOM     40  C   UNL     1     -46.803  35.357  28.979  1.00  0.00     0.052 A 
ATOM     41  N   UNL     1     -46.895  36.957  27.214  1.00  0.00    -0.228 NA
ATOM     42  N   UNL     1     -46.337  36.256  29.877  1.00  0.00    -0.259 NA
ATOM     43  H   UNL     1     -46.939  34.347  29.351  1.00  0.00     0.086 H 
ATOM     44  C   UNL     1     -46.389  37.870  28.079  1.00  0.00     0.157 A 
ATOM     45  C   UNL     1     -46.130  37.510  29.396  1.00  0.00     0.070 A 
ATOM     46  H   UNL     1     -45.725  38.189  30.135  1.00  0.00     0.088 H 
BRANCH  44  47
ATOM     47  N   UNL     1     -46.101  39.190  27.604  1.00  0.00    -0.284 N 
ATOM     48  C   UNL     1     -44.845  39.734  27.381  1.00  0.00     0.019 A 
ATOM     49  C   UNL     1     -47.043  40.154  27.260  1.00  0.00     0.151 A 
ATOM     50  C   UNL     1     -44.967  41.021  26.882  1.00  0.00     0.012 A 
ATOM     51  H   UNL     1     -43.949  39.170  27.595  1.00  0.00     0.083 H 
ATOM     52  C   UNL     1     -46.374  41.282  26.801  1.00  0.00     0.067 A 
ATOM     53  N   UNL     1     -48.382  40.024  27.325  1.00  0.00    -0.218 NA
ATOM     54  C   UNL     1     -47.171  42.363  26.384  1.00  0.00     0.136 A 
ATOM     55  C   UNL     1     -49.034  41.098  26.872  1.00  0.00     0.120 A 
ATOM     56  N   UNL     1     -48.510  42.252  26.423  1.00  0.00    -0.219 NA
ATOM     57  H   UNL     1     -50.117  41.029  26.866  1.00  0.00     0.106 H 
BRANCH  50  58
ATOM     58  C   UNL     1     -43.882  41.983  26.469  1.00  0.00     0.085 C 
ATOM     59  C   UNL     1     -42.455  41.571  26.807  1.00  0.00    -0.020 C 
ATOM     60  O   UNL     1     -44.078  43.258  27.126  1.00  0.00    -0.373 OA
ATOM     61  H   UNL     1     -43.971  42.145  25.388  1.00  0.00     0.066 H 
ATOM     62  C   UNL     1     -42.262  42.157  28.185  1.00  0.00    -0.027 C 
ATOM     63  H   UNL     1     -42.251  40.498  26.754  1.00  0.00     0.030 H 
ATOM     64  H   UNL     1     -41.762  42.069  26.117  1.00  0.00     0.030 H 
ATOM     65  C   UNL     1     -43.019  43.461  28.073  1.00  0.00     0.048 C 
ATOM     66  H   UNL     1     -41.214  42.297  28.459  1.00  0.00     0.029 H 
ATOM     67  H   UNL     1     -42.730  41.514  28.939  1.00  0.00     0.029 H 
ATOM     68  H   UNL     1     -43.438  43.786  29.030  1.00  0.00     0.057 H 
ATOM     69  H   UNL     1     -42.377  44.259  27.686  1.00  0.00     0.057 H 
ENDBRANCH  50  58
BRANCH  54  70
ATOM     70  N   UNL     1     -46.648  43.574  25.939  1.00  0.00    -0.383 N 
ATOM     71  H   UNL     1     -46.523  43.591  24.927  1.00  0.00     0.158 HD
ATOM     72  H   UNL     1     -45.826  43.810  26.480  1.00  0.00     0.158 HD
ENDBRANCH  54  70
ENDBRANCH  44  47
ENDBRANCH  36  39
ENDBRANCH  35  36
ENDBRANCH   8  35
TORSDOF 13
ENDMDL
MODEL 2
REMARK VINA RESULT:      -8.6      2.543     11.736
REMARK SMILES CCc1cc(NCCOC)c2c(F)cc(OCc3cncc(-n4cc([C@@H]5CCCO5)c5c(N)ncnc54)n3)cc2n1
REMARK SMILES IDX 3 1 4 2 5 3 11 4 12 5 13 6 14 7 15 8 39 9 40 10 41 11 2 15
REMARK SMILES IDX 1 18 6 22 7 24 8 27 9 30 10 31 16 35 17 36 18 39 19 40 38 41
REMARK SMILES IDX 20 42 22 44 21 45 23 47 24 48 37 49 25 50 31 52 36 53 32 54
REMARK SMILES IDX 35 55 34 56 26 58 27 59 30 60 28 62 29 65 33 70
REMARK H PARENT 4 12 14 13 39 14 2 16 2 17 1 19 1 20 1 21 6 23 7 25 7 26 8 28
REMARK H PARENT 8 29 10 32 10 33 10 34 17 37 17 38 19 43 21 46 24 51 35 57
REMARK H PARENT 26 61 27 63 27 64 28 66 28 67 29 68 29 69 33 71 33 72
REMARK Flexibility Score: inf
ROOT
ATOM      1  C   UNL     1     -43.715  39.402  29.351  1.00  0.00     0.043 A 
ATOM      2  C   UNL     1     -43.957  40.344  28.362  1.00  0.00    -0.017 A 
ATOM      3  C   UNL     1     -45.085  40.221  27.547  1.00  0.00     0.048 A 
ATOM      4  C   UNL     1     -45.915  39.077  27.722  1.00  0.00     0.059 A 
ATOM      5  C   UNL     1     -47.061  38.790  26.949  1.00  0.00     0.138 A 
ATOM      6  F   UNL     1     -47.453  39.635  25.979  1.00  0.00    -0.206 F 
ATOM      7  C   UNL     1     -47.836  37.655  27.158  1.00  0.00     0.017 A 
ATOM      8  C   UNL     1     -47.491  36.759  28.159  1.00  0.00     0.125 A 
ATOM      9  C   UNL     1     -46.367  37.031  28.940  1.00  0.00     0.007 A 
ATOM     10  C   UNL     1     -45.581  38.166  28.744  1.00  0.00     0.079 A 
ATOM     11  N   UNL     1     -44.523  38.339  29.551  1.00  0.00    -0.252 NA
ATOM     12  H   UNL     1     -43.250  41.153  28.221  1.00  0.00     0.066 H 
ATOM     13  H   UNL     1     -48.705  37.482  26.532  1.00  0.00     0.069 H 
ATOM     14  H   UNL     1     -46.047  36.356  29.728  1.00  0.00     0.069 H 
ENDROOT
BRANCH   1  15
ATOM     15  C   UNL     1     -42.490  39.499  30.221  1.00  0.00    -0.013 C 
ATOM     16  H   UNL     1     -41.856  38.621  30.048  1.00  0.00     0.033 H 
ATOM     17  H   UNL     1     -42.777  39.470  31.278  1.00  0.00     0.033 H 
BRANCH  15  18
ATOM     18  C   UNL     1     -41.697  40.763  29.927  1.00  0.00    -0.060 C 
ATOM     19  H   UNL     1     -41.538  40.894  28.852  1.00  0.00     0.023 H 
ATOM     20  H   UNL     1     -40.716  40.716  30.412  1.00  0.00     0.023 H 
ATOM     21  H   UNL     1     -42.217  41.652  30.300  1.00  0.00     0.023 H 
ENDBRANCH  15  18
ENDBRANCH   1  15
BRANCH   3  22
ATOM     22  N   UNL     1     -45.313  41.126  26.491  1.00  0.00    -0.382 N 
ATOM     23  H   UNL     1     -45.802  41.969  26.815  1.00  0.00     0.160 HD
BRANCH  22  24
ATOM     24  C   UNL     1     -44.197  41.481  25.612  1.00  0.00     0.038 C 
ATOM     25  H   UNL     1     -43.972  40.655  24.930  1.00  0.00     0.051 H 
ATOM     26  H   UNL     1     -43.303  41.693  26.209  1.00  0.00     0.051 H 
BRANCH  24  27
ATOM     27  C   UNL     1     -44.565  42.719  24.776  1.00  0.00     0.063 C 
ATOM     28  H   UNL     1     -45.572  43.053  25.051  1.00  0.00     0.059 H 
ATOM     29  H   UNL     1     -44.582  42.475  23.708  1.00  0.00     0.059 H 
BRANCH  27  30
ATOM     30  O   UNL     1     -43.689  43.830  25.009  1.00  0.00    -0.383 OA
BRANCH  30  31
ATOM     31  C   UNL     1     -42.403  43.451  25.479  1.00  0.00     0.036 C 
ATOM     32  H   UNL     1     -42.482  42.887  26.414  1.00  0.00     0.053 H 
ATOM     33  H   UNL     1     -41.943  42.808  24.724  1.00  0.00     0.053 H 
ATOM     34  H   UNL     1     -41.765  44.327  25.615  1.00  0.00     0.053 H 
ENDBRANCH  30  31
ENDBRANCH  27  30
ENDBRANCH  24  27
ENDBRANCH  22  24
ENDBRANCH   3  22
BRANCH   8  35
ATOM     35  O   UNL     1     -48.323  35.678  28.262  1.00  0.00    -0.487 OA
BRANCH  35  36
ATOM     36  C   UNL     1     -48.926  35.157  27.073  1.00  0.00     0.132 C 
ATOM     37  H   UNL     1     -49.889  34.674  27.279  1.00  0.00     0.078 H 
ATOM     38  H   UNL     1     -49.165  36.016  26.437  1.00  0.00     0.078 H 
BRANCH  36  39
ATOM     39  C   UNL     1     -47.988  34.257  26.315  1.00  0.00     0.099 A 
ATOM     40  C   UNL     1     -46.674  34.626  26.071  1.00  0.00     0.052 A 
ATOM     41  N   UNL     1     -48.461  33.055  25.901  1.00  0.00    -0.228 NA
ATOM     42  N   UNL     1     -45.807  33.831  25.404  1.00  0.00    -0.259 NA
ATOM     43  H   UNL     1     -46.277  35.576  26.410  1.00  0.00     0.086 H 
ATOM     44  C   UNL     1     -47.603  32.220  25.266  1.00  0.00     0.157 A 
ATOM     45  C   UNL     1     -46.297  32.624  25.016  1.00  0.00     0.070 A 
ATOM     46  H   UNL     1     -45.563  32.004  24.517  1.00  0.00     0.088 H 
BRANCH  44  47
ATOM     47  N   UNL     1     -48.057  30.916  24.888  1.00  0.00    -0.284 N 
ATOM     48  C   UNL     1     -48.311  29.849  25.738  1.00  0.00     0.019 A 
ATOM     49  C   UNL     1     -48.347  30.499  23.593  1.00  0.00     0.151 A 
ATOM     50  C   UNL     1     -48.777  28.765  25.012  1.00  0.00     0.012 A 
ATOM     51  H   UNL     1     -48.142  29.933  26.800  1.00  0.00     0.083 H 
ATOM     52  C   UNL     1     -48.803  29.187  23.643  1.00  0.00     0.067 A 
ATOM     53  N   UNL     1     -48.238  31.236  22.471  1.00  0.00    -0.218 NA
ATOM     54  C   UNL     1     -49.168  28.598  22.419  1.00  0.00     0.136 A 
ATOM     55  C   UNL     1     -48.645  30.586  21.378  1.00  0.00     0.120 A 
ATOM     56  N   UNL     1     -49.085  29.319  21.287  1.00  0.00    -0.219 NA
ATOM     57  H   UNL     1     -48.615  31.151  20.451  1.00  0.00     0.106 H 
BRANCH  50  58
ATOM     58  C   UNL     1     -49.206  27.406  25.509  1.00  0.00     0.085 C 
ATOM     59  C   UNL     1     -48.932  27.113  26.978  1.00  0.00    -0.020 C 
ATOM     60  O   UNL     1     -48.509  26.371  24.775  1.00  0.00    -0.373 OA
ATOM     61  H   UNL     1     -50.278  27.299  25.306  1.00  0.00     0.066 H 
ATOM     62  C   UNL     1     -47.548  26.511  26.940  1.00  0.00    -0.027 C 
ATOM     63  H   UNL     1     -49.020  27.968  27.652  1.00  0.00     0.030 H 
ATOM     64  H   UNL     1     -49.635  26.346  27.329  1.00  0.00     0.030 H 
ATOM     65  C   UNL     1     -47.598  25.706  25.661  1.00  0.00     0.048 C 
ATOM     66  H   UNL     1     -47.310  25.903  27.815  1.00  0.00     0.029 H 
ATOM     67  H   UNL     1     -46.794  27.302  26.858  1.00  0.00     0.029 H 
ATOM     68  H   UNL     1     -46.618  25.618  25.183  1.00  0.00     0.057 H 
ATOM     69  H   UNL     1     -47.987  24.699  25.843  1.00  0.00     0.057 H 
ENDBRANCH  50  58
BRANCH  54  70
ATOM     70  N   UNL     1     -49.604  27.282  22.301  1.00  0.00    -0.383 N 
ATOM     71  H   UNL     1     -48.829  26.617  22.309  1.00  0.00     0.158 HD
ATOM     72  H   UNL     1     -50.235  27.200  21.514  1.00  0.00     0.158 HD
ENDBRANCH  54  70
ENDBRANCH  44  47
ENDBRANCH  36  39
ENDBRANCH  35  36
ENDBRANCH   8  35
TORSDOF 13
ENDMDL
MODEL 3
REMARK VINA RESULT:      -8.5      2.439      4.184
REMARK SMILES CCc1cc(NCCOC)c2c(F)cc(OCc3cncc(-n4cc([C@@H]5CCCO5)c5c(N)ncnc54)n3)cc2n1
REMARK SMILES IDX 3 1 4 2 5 3 11 4 12 5 13 6 14 7 15 8 39 9 40 10 41 11 2 15
REMARK SMILES IDX 1 18 6 22 7 24 8 27 9 30 10 31 16 35 17 36 18 39 19 40 38 41
REMARK SMILES IDX 20 42 22 44 21 45 23 47 24 48 37 49 25 50 31 52 36 53 32 54
REMARK SMILES IDX 35 55 34 56 26 58 27 59 30 60 28 62 29 65 33 70
REMARK H PARENT 4 12 14 13 39 14 2 16 2 17 1 19 1 20 1 21 6 23 7 25 7 26 8 28
REMARK H PARENT 8 29 10 32 10 33 10 34 17 37 17 38 19 43 21 46 24 51 35 57
REMARK H PARENT 26 61 27 63 27 64 28 66 28 67 29 68 29 69 33 71 33 72
REMARK Flexibility Score: inf
ROOT
ATOM      1  C   UNL     1     -51.311  30.731  22.676  1.00  0.00     0.043 A 
ATOM      2  C   UNL     1     -50.993  29.412  22.965  1.00  0.00    -0.017 A 
ATOM      3  C   UNL     1     -50.126  29.124  24.022  1.00  0.00     0.048 A 
ATOM      4  C   UNL     1     -49.542  30.215  24.726  1.00  0.00     0.059 A 
ATOM      5  C   UNL     1     -48.618  30.086  25.785  1.00  0.00     0.138 A 
ATOM      6  F   UNL     1     -48.244  28.868  26.213  1.00  0.00    -0.206 F 
ATOM      7  C   UNL     1     -48.073  31.186  26.436  1.00  0.00     0.017 A 
ATOM      8  C   UNL     1     -48.439  32.468  26.051  1.00  0.00     0.125 A 
ATOM      9  C   UNL     1     -49.359  32.615  25.013  1.00  0.00     0.007 A 
ATOM     10  C   UNL     1     -49.916  31.521  24.351  1.00  0.00     0.079 A 
ATOM     11  N   UNL     1     -50.795  31.769  23.367  1.00  0.00    -0.252 NA
ATOM     12  H   UNL     1     -51.404  28.623  22.347  1.00  0.00     0.066 H 
ATOM     13  H   UNL     1     -47.363  31.029  27.243  1.00  0.00     0.069 H 
ATOM     14  H   UNL     1     -49.670  33.596  24.664  1.00  0.00     0.069 H 
ENDROOT
BRANCH   1  15
ATOM     15  C   UNL     1     -52.219  31.066  21.522  1.00  0.00    -0.013 C 
ATOM     16  H   UNL     1     -53.193  30.590  21.681  1.00  0.00     0.033 H 
ATOM     17  H   UNL     1     -51.816  30.647  20.593  1.00  0.00     0.033 H 
BRANCH  15  18
ATOM     18  C   UNL     1     -52.407  32.569  21.379  1.00  0.00    -0.060 C 
ATOM     19  H   UNL     1     -53.311  32.806  20.808  1.00  0.00     0.023 H 
ATOM     20  H   UNL     1     -51.551  33.011  20.859  1.00  0.00     0.023 H 
ATOM     21  H   UNL     1     -52.495  33.052  22.359  1.00  0.00     0.023 H 
ENDBRANCH  15  18
ENDBRANCH   1  15
BRANCH   3  22
ATOM     22  N   UNL     1     -49.734  27.797  24.290  1.00  0.00    -0.382 N 
ATOM     23  H   UNL     1     -48.778  27.753  24.661  1.00  0.00     0.160 HD
BRANCH  22  24
ATOM     24  C   UNL     1     -50.630  26.939  25.068  1.00  0.00     0.038 C 
ATOM     25  H   UNL     1     -51.497  26.648  24.465  1.00  0.00     0.051 H 
ATOM     26  H   UNL     1     -50.986  27.475  25.954  1.00  0.00     0.051 H 
BRANCH  24  27
ATOM     27  C   UNL     1     -49.886  25.664  25.501  1.00  0.00     0.063 C 
ATOM     28  H   UNL     1     -49.382  25.228  24.630  1.00  0.00     0.059 H 
ATOM     29  H   UNL     1     -50.588  24.914  25.881  1.00  0.00     0.059 H 
BRANCH  27  30
ATOM     30  O   UNL     1     -48.866  25.917  26.477  1.00  0.00    -0.383 OA
BRANCH  30  31
ATOM     31  C   UNL     1     -47.568  25.516  26.059  1.00  0.00     0.036 C 
ATOM     32  H   UNL     1     -47.023  25.045  26.883  1.00  0.00     0.053 H 
ATOM     33  H   UNL     1     -47.682  24.784  25.256  1.00  0.00     0.053 H 
ATOM     34  H   UNL     1     -47.006  26.366  25.667  1.00  0.00     0.053 H 
ENDBRANCH  30  31
ENDBRANCH  27  30
ENDBRANCH  24  27
ENDBRANCH  22  24
ENDBRANCH   3  22
BRANCH   8  35
ATOM     35  O   UNL     1     -47.830  33.467  26.760  1.00  0.00    -0.487 OA
BRANCH  35  36
ATOM     36  C   UNL     1     -47.227  34.550  26.045  1.00  0.00     0.132 C 
ATOM     37  H   UNL     1     -46.151  34.396  25.896  1.00  0.00     0.078 H 
ATOM     38  H   UNL     1     -47.660  34.545  25.038  1.00  0.00     0.078 H 
BRANCH  36  39
ATOM     39  C   UNL     1     -47.529  35.881  26.679  1.00  0.00     0.099 A 
ATOM     40  C   UNL     1     -48.748  36.127  27.292  1.00  0.00     0.052 A 
ATOM     41  N   UNL     1     -46.557  36.826  26.660  1.00  0.00    -0.228 NA
ATOM     42  N   UNL     1     -49.041  37.309  27.881  1.00  0.00    -0.259 NA
ATOM     43  H   UNL     1     -49.529  35.376  27.329  1.00  0.00     0.086 H 
ATOM     44  C   UNL     1     -46.807  38.006  27.279  1.00  0.00     0.157 A 
ATOM     45  C   UNL     1     -48.045  38.234  27.867  1.00  0.00     0.070 A 
ATOM     46  H   UNL     1     -48.306  39.152  28.378  1.00  0.00     0.088 H 
BRANCH  44  47
ATOM     47  N   UNL     1     -45.769  38.990  27.338  1.00  0.00    -0.284 N 
ATOM     48  C   UNL     1     -45.535  40.004  26.420  1.00  0.00     0.019 A 
ATOM     49  C   UNL     1     -44.822  39.115  28.350  1.00  0.00     0.151 A 
ATOM     50  C   UNL     1     -44.469  40.785  26.836  1.00  0.00     0.012 A 
ATOM     51  H   UNL     1     -46.141  40.099  25.531  1.00  0.00     0.083 H 
ATOM     52  C   UNL     1     -44.021  40.216  28.072  1.00  0.00     0.067 A 
ATOM     53  N   UNL     1     -44.705  38.329  29.437  1.00  0.00    -0.218 NA
ATOM     54  C   UNL     1     -43.011  40.514  29.006  1.00  0.00     0.136 A 
ATOM     55  C   UNL     1     -43.738  38.727  30.268  1.00  0.00     0.120 A 
ATOM     56  N   UNL     1     -42.885  39.754  30.108  1.00  0.00    -0.219 NA
ATOM     57  H   UNL     1     -43.627  38.149  31.180  1.00  0.00     0.106 H 
BRANCH  50  58
ATOM     58  C   UNL     1     -43.876  42.006  26.178  1.00  0.00     0.085 C 
ATOM     59  C   UNL     1     -44.218  43.345  26.820  1.00  0.00    -0.020 C 
ATOM     60  O   UNL     1     -44.343  42.105  24.812  1.00  0.00    -0.373 OA
ATOM     61  H   UNL     1     -42.787  41.878  26.154  1.00  0.00     0.066 H 
ATOM     62  C   UNL     1     -45.484  43.739  26.099  1.00  0.00    -0.027 C 
ATOM     63  H   UNL     1     -44.318  43.332  27.908  1.00  0.00     0.030 H 
ATOM     64  H   UNL     1     -43.435  44.073  26.572  1.00  0.00     0.030 H 
ATOM     65  C   UNL     1     -45.207  43.244  24.697  1.00  0.00     0.048 C 
ATOM     66  H   UNL     1     -45.694  44.810  26.136  1.00  0.00     0.029 H 
ATOM     67  H   UNL     1     -46.343  43.207  26.524  1.00  0.00     0.029 H 
ATOM     68  H   UNL     1     -46.120  42.960  24.165  1.00  0.00     0.057 H 
ATOM     69  H   UNL     1     -44.682  44.002  24.106  1.00  0.00     0.057 H 
ENDBRANCH  50  58
BRANCH  54  70
ATOM     70  N   UNL     1     -42.105  41.557  28.848  1.00  0.00    -0.383 N 
ATOM     71  H   UNL     1     -41.237  41.396  29.361  1.00  0.00     0.158 HD
ATOM     72  H   UNL     1     -42.563  42.440  29.040  1.00  0.00     0.158 HD
ENDBRANCH  54  70
ENDBRANCH  44  47
ENDBRANCH  36  39
ENDBRANCH  35  36
ENDBRANCH   8  35
TORSDOF 13
ENDMDL
MODEL 4
REMARK VINA RESULT:      -8.3      2.269      3.138
REMARK SMILES CCc1cc(NCCOC)c2c(F)cc(OCc3cncc(-n4cc([C@@H]5CCCO5)c5c(N)ncnc54)n3)cc2n1
REMARK SMILES IDX 3 1 4 2 5 3 11 4 12 5 13 6 14 7 15 8 39 9 40 10 41 11 2 15
REMARK SMILES IDX 1 18 6 22 7 24 8 27 9 30 10 31 16 35 17 36 18 39 19 40 38 41
REMARK SMILES IDX 20 42 22 44 21 45 23 47 24 48 37 49 25 50 31 52 36 53 32 54
REMARK SMILES IDX 35 55 34 56 26 58 27 59 30 60 28 62 29 65 33 70
REMARK H PARENT 4 12 14 13 39 14 2 16 2 17 1 19 1 20 1 21 6 23 7 25 7 26 8 28
REMARK H PARENT 8 29 10 32 10 33 10 34 17 37 17 38 19 43 21 46 24 51 35 57
REMARK H PARENT 26 61 27 63 27 64 28 66 28 67 29 68 29 69 33 71 33 72
REMARK Flexibility Score: inf
ROOT
ATOM      1  C   UNL     1     -49.025  27.486  25.091  1.00  0.00     0.043 A 
ATOM      2  C   UNL     1     -49.817  27.713  23.975  1.00  0.00    -0.017 A 
ATOM      3  C   UNL     1     -50.073  29.023  23.561  1.00  0.00     0.048 A 
ATOM      4  C   UNL     1     -49.560  30.088  24.353  1.00  0.00     0.059 A 
ATOM      5  C   UNL     1     -49.769  31.459  24.091  1.00  0.00     0.138 A 
ATOM      6  F   UNL     1     -50.480  31.842  23.016  1.00  0.00    -0.206 F 
ATOM      7  C   UNL     1     -49.248  32.461  24.901  1.00  0.00     0.017 A 
ATOM      8  C   UNL     1     -48.489  32.126  26.012  1.00  0.00     0.125 A 
ATOM      9  C   UNL     1     -48.262  30.776  26.282  1.00  0.00     0.007 A 
ATOM     10  C   UNL     1     -48.776  29.759  25.479  1.00  0.00     0.079 A 
ATOM     11  N   UNL     1     -48.499  28.492  25.822  1.00  0.00    -0.252 NA
ATOM     12  H   UNL     1     -50.248  26.867  23.453  1.00  0.00     0.066 H 
ATOM     13  H   UNL     1     -49.443  33.501  24.654  1.00  0.00     0.069 H 
ATOM     14  H   UNL     1     -47.686  30.458  27.146  1.00  0.00     0.069 H 
ENDROOT
BRANCH   1  15
ATOM     15  C   UNL     1     -48.761  26.085  25.572  1.00  0.00    -0.013 C 
ATOM     16  H   UNL     1     -48.293  25.509  24.766  1.00  0.00     0.033 H 
ATOM     17  H   UNL     1     -49.708  25.582  25.802  1.00  0.00     0.033 H 
BRANCH  15  18
ATOM     18  C   UNL     1     -47.854  26.076  26.794  1.00  0.00    -0.060 C 
ATOM     19  H   UNL     1     -46.798  26.098  26.506  1.00  0.00     0.023 H 
ATOM     20  H   UNL     1     -48.026  25.172  27.387  1.00  0.00     0.023 H 
ATOM     21  H   UNL     1     -48.045  26.943  27.435  1.00  0.00     0.023 H 
ENDBRANCH  15  18
ENDBRANCH   1  15
BRANCH   3  22
ATOM     22  N   UNL     1     -50.931  29.280  22.472  1.00  0.00    -0.382 N 
ATOM     23  H   UNL     1     -51.488  30.128  22.622  1.00  0.00     0.160 HD
BRANCH  22  24
ATOM     24  C   UNL     1     -50.378  29.257  21.116  1.00  0.00     0.038 C 
ATOM     25  H   UNL     1     -49.371  29.686  21.109  1.00  0.00     0.051 H 
ATOM     26  H   UNL     1     -51.012  29.844  20.443  1.00  0.00     0.051 H 
BRANCH  24  27
ATOM     27  C   UNL     1     -50.295  27.806  20.612  1.00  0.00     0.063 C 
ATOM     28  H   UNL     1     -50.030  27.149  21.448  1.00  0.00     0.059 H 
ATOM     29  H   UNL     1     -49.511  27.703  19.854  1.00  0.00     0.059 H 
BRANCH  27  30
ATOM     30  O   UNL     1     -51.542  27.323  20.094  1.00  0.00    -0.383 OA
BRANCH  30  31
ATOM     31  C   UNL     1     -52.160  26.346  20.920  1.00  0.00     0.036 C 
ATOM     32  H   UNL     1     -51.413  25.812  21.516  1.00  0.00     0.053 H 
ATOM     33  H   UNL     1     -52.842  26.861  21.602  1.00  0.00     0.053 H 
ATOM     34  H   UNL     1     -52.743  25.643  20.322  1.00  0.00     0.053 H 
ENDBRANCH  30  31
ENDBRANCH  27  30
ENDBRANCH  24  27
ENDBRANCH  22  24
ENDBRANCH   3  22
BRANCH   8  35
ATOM     35  O   UNL     1     -48.040  33.197  26.735  1.00  0.00    -0.487 OA
BRANCH  35  36
ATOM     36  C   UNL     1     -47.404  34.277  26.044  1.00  0.00     0.132 C 
ATOM     37  H   UNL     1     -46.329  34.106  25.915  1.00  0.00     0.078 H 
ATOM     38  H   UNL     1     -47.817  34.290  25.029  1.00  0.00     0.078 H 
BRANCH  36  39
ATOM     39  C   UNL     1     -47.696  35.606  26.688  1.00  0.00     0.099 A 
ATOM     40  C   UNL     1     -48.922  35.865  27.281  1.00  0.00     0.052 A 
ATOM     41  N   UNL     1     -46.709  36.535  26.696  1.00  0.00    -0.228 NA
ATOM     42  N   UNL     1     -49.206  37.046  27.877  1.00  0.00    -0.259 NA
ATOM     43  H   UNL     1     -49.715  35.127  27.296  1.00  0.00     0.086 H 
ATOM     44  C   UNL     1     -46.951  37.712  27.323  1.00  0.00     0.157 A 
ATOM     45  C   UNL     1     -48.195  37.954  27.891  1.00  0.00     0.070 A 
ATOM     46  H   UNL     1     -48.451  38.871  28.407  1.00  0.00     0.088 H 
BRANCH  44  47
ATOM     47  N   UNL     1     -45.898  38.679  27.411  1.00  0.00    -0.284 N 
ATOM     48  C   UNL     1     -45.603  39.669  26.485  1.00  0.00     0.019 A 
ATOM     49  C   UNL     1     -44.997  38.806  28.463  1.00  0.00     0.151 A 
ATOM     50  C   UNL     1     -44.543  40.439  26.935  1.00  0.00     0.012 A 
ATOM     51  H   UNL     1     -46.165  39.757  25.568  1.00  0.00     0.083 H 
ATOM     52  C   UNL     1     -44.163  39.887  28.202  1.00  0.00     0.067 A 
ATOM     53  N   UNL     1     -44.944  38.040  29.570  1.00  0.00    -0.218 NA
ATOM     54  C   UNL     1     -43.192  40.185  29.175  1.00  0.00     0.136 A 
ATOM     55  C   UNL     1     -44.009  38.438  30.436  1.00  0.00     0.120 A 
ATOM     56  N   UNL     1     -43.130  39.446  30.297  1.00  0.00    -0.219 NA
ATOM     57  H   UNL     1     -43.951  37.876  31.363  1.00  0.00     0.106 H 
BRANCH  50  58
ATOM     58  C   UNL     1     -43.897  41.636  26.283  1.00  0.00     0.085 C 
ATOM     59  C   UNL     1     -44.182  42.986  26.929  1.00  0.00    -0.020 C 
ATOM     60  O   UNL     1     -44.358  41.760  24.917  1.00  0.00    -0.373 OA
ATOM     61  H   UNL     1     -42.815  41.462  26.259  1.00  0.00     0.066 H 
ATOM     62  C   UNL     1     -45.429  43.437  26.208  1.00  0.00    -0.027 C 
ATOM     63  H   UNL     1     -44.283  42.974  28.017  1.00  0.00     0.030 H 
ATOM     64  H   UNL     1     -43.368  43.681  26.684  1.00  0.00     0.030 H 
ATOM     65  C   UNL     1     -45.173  42.936  24.805  1.00  0.00     0.048 C 
ATOM     66  H   UNL     1     -45.594  44.516  26.250  1.00  0.00     0.029 H 
ATOM     67  H   UNL     1     -46.310  42.941  26.631  1.00  0.00     0.029 H 
ATOM     68  H   UNL     1     -46.097  42.693  24.271  1.00  0.00     0.057 H 
ATOM     69  H   UNL     1     -44.615  43.672  24.218  1.00  0.00     0.057 H 
ENDBRANCH  50  58
BRANCH  54  70
ATOM     70  N   UNL     1     -42.259  41.209  29.039  1.00  0.00    -0.383 N 
ATOM     71  H   UNL     1     -42.096  41.455  28.063  1.00  0.00     0.158 HD
ATOM     72  H   UNL     1     -41.428  40.987  29.574  1.00  0.00     0.158 HD
ENDBRANCH  54  70
ENDBRANCH  44  47
ENDBRANCH  36  39
ENDBRANCH  35  36
ENDBRANCH   8  35
TORSDOF 13
ENDMDL
MODEL 5
REMARK VINA RESULT:      -7.7      1.821      2.829
REMARK SMILES CCc1cc(NCCOC)c2c(F)cc(OCc3cncc(-n4cc([C@@H]5CCCO5)c5c(N)ncnc54)n3)cc2n1
REMARK SMILES IDX 3 1 4 2 5 3 11 4 12 5 13 6 14 7 15 8 39 9 40 10 41 11 2 15
REMARK SMILES IDX 1 18 6 22 7 24 8 27 9 30 10 31 16 35 17 36 18 39 19 40 38 41
REMARK SMILES IDX 20 42 22 44 21 45 23 47 24 48 37 49 25 50 31 52 36 53 32 54
REMARK SMILES IDX 35 55 34 56 26 58 27 59 30 60 28 62 29 65 33 70
REMARK H PARENT 4 12 14 13 39 14 2 16 2 17 1 19 1 20 1 21 6 23 7 25 7 26 8 28
REMARK H PARENT 8 29 10 32 10 33 10 34 17 37 17 38 19 43 21 46 24 51 35 57
REMARK H PARENT 26 61 27 63 27 64 28 66 28 67 29 68 29 69 33 71 33 72
REMARK Flexibility Score: inf
ROOT
ATOM      1  C   UNL     1     -46.072  29.878  22.822  1.00  0.00     0.043 A 
ATOM      2  C   UNL     1     -47.365  29.378  22.854  1.00  0.00    -0.017 A 
ATOM      3  C   UNL     1     -48.363  30.079  23.536  1.00  0.00     0.048 A 
ATOM      4  C   UNL     1     -47.991  31.259  24.239  1.00  0.00     0.059 A 
ATOM      5  C   UNL     1     -48.873  32.049  25.007  1.00  0.00     0.138 A 
ATOM      6  F   UNL     1     -50.173  31.720  25.097  1.00  0.00    -0.206 F 
ATOM      7  C   UNL     1     -48.456  33.192  25.680  1.00  0.00     0.017 A 
ATOM      8  C   UNL     1     -47.129  33.592  25.605  1.00  0.00     0.125 A 
ATOM      9  C   UNL     1     -46.245  32.829  24.842  1.00  0.00     0.007 A 
ATOM     10  C   UNL     1     -46.648  31.682  24.160  1.00  0.00     0.079 A 
ATOM     11  N   UNL     1     -45.721  31.019  23.451  1.00  0.00    -0.252 NA
ATOM     12  H   UNL     1     -47.578  28.434  22.367  1.00  0.00     0.066 H 
ATOM     13  H   UNL     1     -49.176  33.761  26.260  1.00  0.00     0.069 H 
ATOM     14  H   UNL     1     -45.194  33.091  24.761  1.00  0.00     0.069 H 
ENDROOT
BRANCH   1  15
ATOM     15  C   UNL     1     -44.975  29.123  22.120  1.00  0.00    -0.013 C 
ATOM     16  H   UNL     1     -44.085  29.761  22.052  1.00  0.00     0.033 H 
ATOM     17  H   UNL     1     -45.273  28.899  21.089  1.00  0.00     0.033 H 
BRANCH  15  18
ATOM     18  C   UNL     1     -44.622  27.838  22.854  1.00  0.00    -0.060 C 
ATOM     19  H   UNL     1     -44.362  27.037  22.154  1.00  0.00     0.023 H 
ATOM     20  H   UNL     1     -45.471  27.501  23.457  1.00  0.00     0.023 H 
ATOM     21  H   UNL     1     -43.768  27.987  23.524  1.00  0.00     0.023 H 
ENDBRANCH  15  18
ENDBRANCH   1  15
BRANCH   3  22
ATOM     22  N   UNL     1     -49.668  29.556  23.640  1.00  0.00    -0.382 N 
ATOM     23  H   UNL     1     -50.168  29.605  22.745  1.00  0.00     0.160 HD
BRANCH  22  24
ATOM     24  C   UNL     1     -49.854  28.244  24.265  1.00  0.00     0.038 C 
ATOM     25  H   UNL     1     -49.492  27.452  23.602  1.00  0.00     0.051 H 
ATOM     26  H   UNL     1     -50.917  28.072  24.465  1.00  0.00     0.051 H 
BRANCH  24  27
ATOM     27  C   UNL     1     -49.064  28.178  25.583  1.00  0.00     0.063 C 
ATOM     28  H   UNL     1     -49.108  29.154  26.079  1.00  0.00     0.059 H 
ATOM     29  H   UNL     1     -48.008  27.956  25.392  1.00  0.00     0.059 H 
BRANCH  27  30
ATOM     30  O   UNL     1     -49.603  27.225  26.510  1.00  0.00    -0.383 OA
BRANCH  30  31
ATOM     31  C   UNL     1     -50.710  26.497  25.996  1.00  0.00     0.036 C 
ATOM     32  H   UNL     1     -50.939  25.638  26.634  1.00  0.00     0.053 H 
ATOM     33  H   UNL     1     -51.577  27.162  25.986  1.00  0.00     0.053 H 
ATOM     34  H   UNL     1     -50.519  26.172  24.971  1.00  0.00     0.053 H 
ENDBRANCH  30  31
ENDBRANCH  27  30
ENDBRANCH  24  27
ENDBRANCH  22  24
ENDBRANCH   3  22
BRANCH   8  35
ATOM     35  O   UNL     1     -46.839  34.725  26.315  1.00  0.00    -0.487 OA
BRANCH  35  36
ATOM     36  C   UNL     1     -47.543  34.972  27.536  1.00  0.00     0.132 C 
ATOM     37  H   UNL     1     -48.622  35.083  27.373  1.00  0.00     0.078 H 
ATOM     38  H   UNL     1     -47.435  34.072  28.152  1.00  0.00     0.078 H 
BRANCH  36  39
ATOM     39  C   UNL     1     -46.961  36.134  28.296  1.00  0.00     0.099 A 
ATOM     40  C   UNL     1     -46.441  35.973  29.571  1.00  0.00     0.052 A 
ATOM     41  N   UNL     1     -46.933  37.342  27.681  1.00  0.00    -0.228 NA
ATOM     42  N   UNL     1     -45.900  36.997  30.271  1.00  0.00    -0.259 NA
ATOM     43  H   UNL     1     -46.442  35.010  30.069  1.00  0.00     0.086 H 
ATOM     44  C   UNL     1     -46.359  38.377  28.341  1.00  0.00     0.157 A 
ATOM     45  C   UNL     1     -45.864  38.193  29.627  1.00  0.00     0.070 A 
ATOM     46  H   UNL     1     -45.394  38.977  30.206  1.00  0.00     0.088 H 
BRANCH  44  47
ATOM     47  N   UNL     1     -46.248  39.643  27.682  1.00  0.00    -0.284 N 
ATOM     48  C   UNL     1     -45.078  40.254  27.254  1.00  0.00     0.019 A 
ATOM     49  C   UNL     1     -47.307  40.475  27.334  1.00  0.00     0.151 A 
ATOM     50  C   UNL     1     -45.372  41.451  26.621  1.00  0.00     0.012 A 
ATOM     51  H   UNL     1     -44.116  39.797  27.430  1.00  0.00     0.083 H 
ATOM     52  C   UNL     1     -46.798  41.585  26.670  1.00  0.00     0.067 A 
ATOM     53  N   UNL     1     -48.614  40.247  27.567  1.00  0.00    -0.218 NA
ATOM     54  C   UNL     1     -47.733  42.535  26.220  1.00  0.00     0.136 A 
ATOM     55  C   UNL     1     -49.407  41.197  27.065  1.00  0.00     0.120 A 
ATOM     56  N   UNL     1     -49.044  42.322  26.424  1.00  0.00    -0.219 NA
ATOM     57  H   UNL     1     -50.475  41.040  27.191  1.00  0.00     0.106 H 
BRANCH  50  58
ATOM     58  C   UNL     1     -44.431  42.437  25.974  1.00  0.00     0.085 C 
ATOM     59  C   UNL     1     -42.946  42.206  26.220  1.00  0.00    -0.020 C 
ATOM     60  O   UNL     1     -44.698  43.770  26.469  1.00  0.00    -0.373 OA
ATOM     61  H   UNL     1     -44.630  42.432  24.896  1.00  0.00     0.066 H 
ATOM     62  C   UNL     1     -42.695  43.000  27.479  1.00  0.00    -0.027 C 
ATOM     63  H   UNL     1     -42.639  41.159  26.293  1.00  0.00     0.030 H 
ATOM     64  H   UNL     1     -42.370  42.659  25.403  1.00  0.00     0.030 H 
ATOM     65  C   UNL     1     -43.588  44.201  27.268  1.00  0.00     0.048 C 
ATOM     66  H   UNL     1     -41.647  43.271  27.625  1.00  0.00     0.029 H 
ATOM     67  H   UNL     1     -43.027  42.433  28.357  1.00  0.00     0.029 H 
ATOM     68  H   UNL     1     -43.953  44.622  28.210  1.00  0.00     0.057 H 
ATOM     69  H   UNL     1     -43.067  44.990  26.715  1.00  0.00     0.057 H 
ENDBRANCH  50  58
BRANCH  54  70
ATOM     70  N   UNL     1     -47.375  43.716  25.576  1.00  0.00    -0.383 N 
ATOM     71  H   UNL     1     -48.135  44.090  25.007  1.00  0.00     0.158 HD
ATOM     72  H   UNL     1     -46.495  43.588  25.092  1.00  0.00     0.158 HD
ENDBRANCH  54  70
ENDBRANCH  44  47
ENDBRANCH  36  39
ENDBRANCH  35  36
ENDBRANCH   8  35
TORSDOF 13
ENDMDL
MODEL 6
REMARK VINA RESULT:      -7.4      2.667     11.796
REMARK SMILES CCc1cc(NCCOC)c2c(F)cc(OCc3cncc(-n4cc([C@@H]5CCCO5)c5c(N)ncnc54)n3)cc2n1
REMARK SMILES IDX 3 1 4 2 5 3 11 4 12 5 13 6 14 7 15 8 39 9 40 10 41 11 2 15
REMARK SMILES IDX 1 18 6 22 7 24 8 27 9 30 10 31 16 35 17 36 18 39 19 40 38 41
REMARK SMILES IDX 20 42 22 44 21 45 23 47 24 48 37 49 25 50 31 52 36 53 32 54
REMARK SMILES IDX 35 55 34 56 26 58 27 59 30 60 28 62 29 65 33 70
REMARK H PARENT 4 12 14 13 39 14 2 16 2 17 1 19 1 20 1 21 6 23 7 25 7 26 8 28
REMARK H PARENT 8 29 10 32 10 33 10 34 17 37 17 38 19 43 21 46 24 51 35 57
REMARK H PARENT 26 61 27 63 27 64 28 66 28 67 29 68 29 69 33 71 33 72
REMARK Flexibility Score: inf
ROOT
ATOM      1  C   UNL     1     -47.782  42.934  26.207  1.00  0.00     0.043 A 
ATOM      2  C   UNL     1     -46.467  43.367  26.107  1.00  0.00    -0.017 A 
ATOM      3  C   UNL     1     -45.422  42.452  26.262  1.00  0.00     0.048 A 
ATOM      4  C   UNL     1     -45.753  41.107  26.589  1.00  0.00     0.059 A 
ATOM      5  C   UNL     1     -44.811  40.081  26.819  1.00  0.00     0.138 A 
ATOM      6  F   UNL     1     -43.495  40.334  26.713  1.00  0.00    -0.206 F 
ATOM      7  C   UNL     1     -45.187  38.783  27.141  1.00  0.00     0.017 A 
ATOM      8  C   UNL     1     -46.532  38.459  27.243  1.00  0.00     0.125 A 
ATOM      9  C   UNL     1     -47.478  39.457  27.009  1.00  0.00     0.007 A 
ATOM     10  C   UNL     1     -47.117  40.764  26.683  1.00  0.00     0.079 A 
ATOM     11  N   UNL     1     -48.103  41.650  26.474  1.00  0.00    -0.252 NA
ATOM     12  H   UNL     1     -46.271  44.418  25.934  1.00  0.00     0.066 H 
ATOM     13  H   UNL     1     -44.420  38.033  27.311  1.00  0.00     0.069 H 
ATOM     14  H   UNL     1     -48.543  39.260  27.088  1.00  0.00     0.069 H 
ENDROOT
BRANCH   1  15
ATOM     15  C   UNL     1     -48.923  43.907  26.074  1.00  0.00    -0.013 C 
ATOM     16  H   UNL     1     -48.777  44.510  25.171  1.00  0.00     0.033 H 
ATOM     17  H   UNL     1     -48.920  44.606  26.918  1.00  0.00     0.033 H 
BRANCH  15  18
ATOM     18  C   UNL     1     -50.262  43.189  25.994  1.00  0.00    -0.060 C 
ATOM     19  H   UNL     1     -51.023  43.817  25.520  1.00  0.00     0.023 H 
ATOM     20  H   UNL     1     -50.613  42.928  26.997  1.00  0.00     0.023 H 
ATOM     21  H   UNL     1     -50.180  42.264  25.412  1.00  0.00     0.023 H 
ENDBRANCH  15  18
ENDBRANCH   1  15
BRANCH   3  22
ATOM     22  N   UNL     1     -44.080  42.882  26.234  1.00  0.00    -0.382 N 
ATOM     23  H   UNL     1     -43.433  42.113  26.442  1.00  0.00     0.160 HD
BRANCH  22  24
ATOM     24  C   UNL     1     -43.610  43.656  25.083  1.00  0.00     0.038 C 
ATOM     25  H   UNL     1     -42.538  43.859  25.174  1.00  0.00     0.051 H 
ATOM     26  H   UNL     1     -44.142  44.611  25.031  1.00  0.00     0.051 H 
BRANCH  24  27
ATOM     27  C   UNL     1     -43.849  42.861  23.788  1.00  0.00     0.063 C 
ATOM     28  H   UNL     1     -44.316  41.901  24.035  1.00  0.00     0.059 H 
ATOM     29  H   UNL     1     -42.900  42.642  23.285  1.00  0.00     0.059 H 
BRANCH  27  30
ATOM     30  O   UNL     1     -44.740  43.526  22.881  1.00  0.00    -0.383 OA
BRANCH  30  31
ATOM     31  C   UNL     1     -44.218  44.739  22.360  1.00  0.00     0.036 C 
ATOM     32  H   UNL     1     -44.711  45.603  22.817  1.00  0.00     0.053 H 
ATOM     33  H   UNL     1     -43.152  44.782  22.602  1.00  0.00     0.053 H 
ATOM     34  H   UNL     1     -44.321  44.772  21.273  1.00  0.00     0.053 H 
ENDBRANCH  30  31
ENDBRANCH  27  30
ENDBRANCH  24  27
ENDBRANCH  22  24
ENDBRANCH   3  22
BRANCH   8  35
ATOM     35  O   UNL     1     -46.777  37.154  27.574  1.00  0.00    -0.487 OA
BRANCH  35  36
ATOM     36  C   UNL     1     -47.425  36.310  26.616  1.00  0.00     0.132 C 
ATOM     37  H   UNL     1     -48.509  36.473  26.593  1.00  0.00     0.078 H 
ATOM     38  H   UNL     1     -47.066  36.619  25.628  1.00  0.00     0.078 H 
BRANCH  36  39
ATOM     39  C   UNL     1     -47.071  34.861  26.813  1.00  0.00     0.099 A 
ATOM     40  C   UNL     1     -46.423  34.426  27.958  1.00  0.00     0.052 A 
ATOM     41  N   UNL     1     -47.435  33.984  25.845  1.00  0.00    -0.228 NA
ATOM     42  N   UNL     1     -46.105  33.128  28.167  1.00  0.00    -0.259 NA
ATOM     43  H   UNL     1     -46.139  35.113  28.748  1.00  0.00     0.086 H 
ATOM     44  C   UNL     1     -47.166  32.670  26.045  1.00  0.00     0.157 A 
ATOM     45  C   UNL     1     -46.497  32.265  27.193  1.00  0.00     0.070 A 
ATOM     46  H   UNL     1     -46.255  31.233  27.413  1.00  0.00     0.088 H 
BRANCH  44  47
ATOM     47  N   UNL     1     -47.609  31.717  25.073  1.00  0.00    -0.284 N 
ATOM     48  C   UNL     1     -48.612  30.771  25.237  1.00  0.00     0.019 A 
ATOM     49  C   UNL     1     -47.121  31.589  23.777  1.00  0.00     0.151 A 
ATOM     50  C   UNL     1     -48.787  30.056  24.064  1.00  0.00     0.012 A 
ATOM     51  H   UNL     1     -49.131  30.671  26.178  1.00  0.00     0.083 H 
ATOM     52  C   UNL     1     -47.836  30.586  23.132  1.00  0.00     0.067 A 
ATOM     53  N   UNL     1     -46.143  32.324  23.214  1.00  0.00    -0.218 NA
ATOM     54  C   UNL     1     -47.493  30.328  21.792  1.00  0.00     0.136 A 
ATOM     55  C   UNL     1     -45.929  32.014  21.933  1.00  0.00     0.120 A 
ATOM     56  N   UNL     1     -46.531  31.059  21.203  1.00  0.00    -0.219 NA
ATOM     57  H   UNL     1     -45.175  32.605  21.421  1.00  0.00     0.106 H 
BRANCH  50  58
ATOM     58  C   UNL     1     -49.773  28.955  23.764  1.00  0.00     0.085 C 
ATOM     59  C   UNL     1     -50.673  28.528  24.917  1.00  0.00    -0.020 C 
ATOM     60  O   UNL     1     -49.067  27.757  23.364  1.00  0.00    -0.373 OA
ATOM     61  H   UNL     1     -50.390  29.280  22.918  1.00  0.00     0.066 H 
ATOM     62  C   UNL     1     -49.863  27.438  25.576  1.00  0.00    -0.027 C 
ATOM     63  H   UNL     1     -50.971  29.327  25.600  1.00  0.00     0.030 H 
ATOM     64  H   UNL     1     -51.591  28.084  24.512  1.00  0.00     0.030 H 
ATOM     65  C   UNL     1     -49.231  26.759  24.382  1.00  0.00     0.048 C 
ATOM     66  H   UNL     1     -50.462  26.755  26.184  1.00  0.00     0.029 H 
ATOM     67  H   UNL     1     -49.089  27.875  26.215  1.00  0.00     0.029 H 
ATOM     68  H   UNL     1     -48.260  26.314  24.619  1.00  0.00     0.057 H 
ATOM     69  H   UNL     1     -49.883  25.977  23.980  1.00  0.00     0.057 H 
ENDBRANCH  50  58
BRANCH  54  70
ATOM     70  N   UNL     1     -48.088  29.329  21.028  1.00  0.00    -0.383 N 
ATOM     71  H   UNL     1     -49.099  29.449  20.957  1.00  0.00     0.158 HD
ATOM     72  H   UNL     1     -47.783  28.421  21.355  1.00  0.00     0.158 HD
ENDBRANCH  54  70
ENDBRANCH  44  47
ENDBRANCH  36  39
ENDBRANCH  35  36
ENDBRANCH   8  35
TORSDOF 13
ENDMDL
MODEL 7
REMARK VINA RESULT:      -7.4      1.739      3.213
REMARK SMILES CCc1cc(NCCOC)c2c(F)cc(OCc3cncc(-n4cc([C@@H]5CCCO5)c5c(N)ncnc54)n3)cc2n1
REMARK SMILES IDX 3 1 4 2 5 3 11 4 12 5 13 6 14 7 15 8 39 9 40 10 41 11 2 15
REMARK SMILES IDX 1 18 6 22 7 24 8 27 9 30 10 31 16 35 17 36 18 39 19 40 38 41
REMARK SMILES IDX 20 42 22 44 21 45 23 47 24 48 37 49 25 50 31 52 36 53 32 54
REMARK SMILES IDX 35 55 34 56 26 58 27 59 30 60 28 62 29 65 33 70
REMARK H PARENT 4 12 14 13 39 14 2 16 2 17 1 19 1 20 1 21 6 23 7 25 7 26 8 28
REMARK H PARENT 8 29 10 32 10 33 10 34 17 37 17 38 19 43 21 46 24 51 35 57
REMARK H PARENT 26 61 27 63 27 64 28 66 28 67 29 68 29 69 33 71 33 72
REMARK Flexibility Score: inf
ROOT
ATOM      1  C   UNL     1     -47.995  30.473  21.658  1.00  0.00     0.043 A 
ATOM      2  C   UNL     1     -48.516  29.311  22.209  1.00  0.00    -0.017 A 
ATOM      3  C   UNL     1     -48.670  29.210  23.595  1.00  0.00     0.048 A 
ATOM      4  C   UNL     1     -48.214  30.292  24.400  1.00  0.00     0.059 A 
ATOM      5  C   UNL     1     -48.260  30.319  25.810  1.00  0.00     0.138 A 
ATOM      6  F   UNL     1     -48.782  29.284  26.491  1.00  0.00    -0.206 F 
ATOM      7  C   UNL     1     -47.796  31.400  26.550  1.00  0.00     0.017 A 
ATOM      8  C   UNL     1     -47.267  32.506  25.900  1.00  0.00     0.125 A 
ATOM      9  C   UNL     1     -47.223  32.501  24.505  1.00  0.00     0.007 A 
ATOM     10  C   UNL     1     -47.685  31.426  23.749  1.00  0.00     0.079 A 
ATOM     11  N   UNL     1     -47.601  31.520  22.413  1.00  0.00    -0.252 NA
ATOM     12  H   UNL     1     -48.775  28.487  21.555  1.00  0.00     0.066 H 
ATOM     13  H   UNL     1     -47.853  31.367  27.634  1.00  0.00     0.069 H 
ATOM     14  H   UNL     1     -46.807  33.336  23.948  1.00  0.00     0.069 H 
ENDROOT
BRANCH   1  15
ATOM     15  C   UNL     1     -47.793  30.592  20.171  1.00  0.00    -0.013 C 
ATOM     16  H   UNL     1     -47.526  29.610  19.763  1.00  0.00     0.033 H 
ATOM     17  H   UNL     1     -46.947  31.256  19.959  1.00  0.00     0.033 H 
BRANCH  15  18
ATOM     18  C   UNL     1     -49.046  31.104  19.476  1.00  0.00    -0.060 C 
ATOM     19  H   UNL     1     -49.058  30.825  18.418  1.00  0.00     0.023 H 
ATOM     20  H   UNL     1     -49.097  32.196  19.541  1.00  0.00     0.023 H 
ATOM     21  H   UNL     1     -49.950  30.695  19.940  1.00  0.00     0.023 H 
ENDBRANCH  15  18
ENDBRANCH   1  15
BRANCH   3  22
ATOM     22  N   UNL     1     -49.131  28.015  24.182  1.00  0.00    -0.382 N 
ATOM     23  H   UNL     1     -49.920  27.617  23.659  1.00  0.00     0.160 HD
BRANCH  22  24
ATOM     24  C   UNL     1     -48.158  26.974  24.523  1.00  0.00     0.038 C 
ATOM     25  H   UNL     1     -47.259  27.423  24.958  1.00  0.00     0.051 H 
ATOM     26  H   UNL     1     -47.871  26.421  23.623  1.00  0.00     0.051 H 
BRANCH  24  27
ATOM     27  C   UNL     1     -48.769  26.007  25.551  1.00  0.00     0.063 C 
ATOM     28  H   UNL     1     -47.972  25.613  26.192  1.00  0.00     0.059 H 
ATOM     29  H   UNL     1     -49.237  25.152  25.050  1.00  0.00     0.059 H 
BRANCH  27  30
ATOM     30  O   UNL     1     -49.715  26.642  26.422  1.00  0.00    -0.383 OA
BRANCH  30  31
ATOM     31  C   UNL     1     -51.048  26.185  26.241  1.00  0.00     0.036 C 
ATOM     32  H   UNL     1     -51.196  25.215  26.726  1.00  0.00     0.053 H 
ATOM     33  H   UNL     1     -51.721  26.911  26.705  1.00  0.00     0.053 H 
ATOM     34  H   UNL     1     -51.297  26.122  25.179  1.00  0.00     0.053 H 
ENDBRANCH  30  31
ENDBRANCH  27  30
ENDBRANCH  24  27
ENDBRANCH  22  24
ENDBRANCH   3  22
BRANCH   8  35
ATOM     35  O   UNL     1     -46.836  33.501  26.734  1.00  0.00    -0.487 OA
BRANCH  35  36
ATOM     36  C   UNL     1     -46.399  34.738  26.163  1.00  0.00     0.132 C 
ATOM     37  H   UNL     1     -45.306  34.828  26.165  1.00  0.00     0.078 H 
ATOM     38  H   UNL     1     -46.684  34.717  25.105  1.00  0.00     0.078 H 
BRANCH  36  39
ATOM     39  C   UNL     1     -47.069  35.922  26.807  1.00  0.00     0.099 A 
ATOM     40  C   UNL     1     -48.127  35.761  27.686  1.00  0.00     0.052 A 
ATOM     41  N   UNL     1     -46.583  37.156  26.521  1.00  0.00    -0.228 NA
ATOM     42  N   UNL     1     -48.739  36.807  28.289  1.00  0.00    -0.259 NA
ATOM     43  H   UNL     1     -48.517  34.781  27.937  1.00  0.00     0.086 H 
ATOM     44  C   UNL     1     -47.149  38.220  27.142  1.00  0.00     0.157 A 
ATOM     45  C   UNL     1     -48.223  38.032  28.003  1.00  0.00     0.070 A 
ATOM     46  H   UNL     1     -48.717  38.838  28.531  1.00  0.00     0.088 H 
BRANCH  44  47
ATOM     47  N   UNL     1     -46.604  39.524  26.916  1.00  0.00    -0.284 N 
ATOM     48  C   UNL     1     -45.259  39.864  26.875  1.00  0.00     0.019 A 
ATOM     49  C   UNL     1     -47.336  40.682  26.673  1.00  0.00     0.151 A 
ATOM     50  C   UNL     1     -45.118  41.212  26.591  1.00  0.00     0.012 A 
ATOM     51  H   UNL     1     -44.493  39.124  27.054  1.00  0.00     0.083 H 
ATOM     52  C   UNL     1     -46.448  41.729  26.457  1.00  0.00     0.067 A 
ATOM     53  N   UNL     1     -48.678  40.784  26.621  1.00  0.00    -0.218 NA
ATOM     54  C   UNL     1     -47.012  42.986  26.171  1.00  0.00     0.136 A 
ATOM     55  C   UNL     1     -49.096  42.013  26.309  1.00  0.00     0.120 A 
ATOM     56  N   UNL     1     -48.348  43.110  26.097  1.00  0.00    -0.219 NA
ATOM     57  H   UNL     1     -50.171  42.140  26.216  1.00  0.00     0.106 H 
BRANCH  50  58
ATOM     58  C   UNL     1     -43.854  42.018  26.422  1.00  0.00     0.085 C 
ATOM     59  C   UNL     1     -42.552  41.298  26.747  1.00  0.00    -0.020 C 
ATOM     60  O   UNL     1     -43.884  43.171  27.296  1.00  0.00    -0.373 OA
ATOM     61  H   UNL     1     -43.825  42.381  25.387  1.00  0.00     0.066 H 
ATOM     62  C   UNL     1     -42.377  41.588  28.218  1.00  0.00    -0.027 C 
ATOM     63  H   UNL     1     -42.530  40.233  26.504  1.00  0.00     0.030 H 
ATOM     64  H   UNL     1     -41.730  41.775  26.198  1.00  0.00     0.030 H 
ATOM     65  C   UNL     1     -42.888  43.007  28.316  1.00  0.00     0.048 C 
ATOM     66  H   UNL     1     -41.347  41.483  28.566  1.00  0.00     0.029 H 
ATOM     67  H   UNL     1     -43.008  40.918  28.813  1.00  0.00     0.029 H 
ATOM     68  H   UNL     1     -43.324  43.229  29.295  1.00  0.00     0.057 H 
ATOM     69  H   UNL     1     -42.090  43.730  28.120  1.00  0.00     0.057 H 
ENDBRANCH  50  58
BRANCH  54  70
ATOM     70  N   UNL     1     -46.256  44.137  25.973  1.00  0.00    -0.383 N 
ATOM     71  H   UNL     1     -45.462  44.192  26.611  1.00  0.00     0.158 HD
ATOM     72  H   UNL     1     -46.864  44.948  25.968  1.00  0.00     0.158 HD
ENDBRANCH  54  70
ENDBRANCH  44  47
ENDBRANCH  36  39
ENDBRANCH  35  36
ENDBRANCH   8  35
TORSDOF 13
ENDMDL
