MODEL 1
REMARK VINA RESULT:      -7.8      0.000      0.000
REMARK SMILES Cc1cc(NCCN(C)CCCCc2ccccc2)c2ccc(OCc3cncc(-n4ccc5c(N)ncnc54)c3)cc2n1
REMARK SMILES IDX 6 1 5 4 4 6 2 7 3 8 44 9 43 11 20 12 42 13 21 14 23 15 22 17
REMARK SMILES IDX 1 20 24 24 25 25 26 28 27 29 41 30 28 31 30 33 29 35 31 37
REMARK SMILES IDX 32 38 40 39 33 40 34 42 39 43 35 45 38 46 37 47 36 49 7 52
REMARK SMILES IDX 8 55 9 56 10 60 11 63 12 66 13 69 14 72 15 73 19 74 16 75
REMARK SMILES IDX 18 77 17 79
REMARK H PARENT 6 2 6 3 5 5 3 10 42 16 21 18 22 19 1 21 1 22 1 23 25 26 25 27
REMARK H PARENT 27 32 41 34 29 36 32 41 33 44 38 48 36 50 36 51 7 53 7 54 9 57
REMARK H PARENT 9 58 9 59 10 61 10 62 11 64 11 65 12 67 12 68 13 70 13 71
REMARK H PARENT 15 76 19 78 16 80 18 81 17 82
REMARK Flexibility Score: inf
ROOT
ATOM      1  C   UNL     1     -50.577  30.364  21.488  1.00  0.00     0.027 C 
ATOM      2  H   UNL     1     -50.912  31.219  20.893  1.00  0.00     0.050 H 
ATOM      3  H   UNL     1     -49.632  30.040  21.038  1.00  0.00     0.050 H 
ENDROOT
BRANCH   1   4
ATOM      4  N   UNL     1     -50.268  30.771  22.861  1.00  0.00    -0.383 N 
ATOM      5  H   UNL     1     -50.939  31.450  23.211  1.00  0.00     0.160 HD
BRANCH   4   6
ATOM      6  C   UNL     1     -48.959  31.066  23.286  1.00  0.00     0.045 A 
ATOM      7  C   UNL     1     -46.574  30.716  23.229  1.00  0.00     0.040 A 
ATOM      8  C   UNL     1     -47.845  30.407  22.762  1.00  0.00    -0.017 A 
ATOM      9  N   UNL     1     -46.357  31.619  24.205  1.00  0.00    -0.253 NA
ATOM     10  H   UNL     1     -47.937  29.664  21.980  1.00  0.00     0.066 H 
ATOM     11  C   UNL     1     -47.414  32.218  24.771  1.00  0.00     0.076 A 
ATOM     12  C   UNL     1     -48.745  31.971  24.369  1.00  0.00     0.024 A 
ATOM     13  C   UNL     1     -47.172  33.113  25.804  1.00  0.00     0.007 A 
ATOM     14  C   UNL     1     -49.782  32.633  25.072  1.00  0.00    -0.047 A 
ATOM     15  C   UNL     1     -48.199  33.773  26.481  1.00  0.00     0.122 A 
ATOM     16  H   UNL     1     -46.139  33.298  26.097  1.00  0.00     0.069 H 
ATOM     17  C   UNL     1     -49.513  33.525  26.113  1.00  0.00    -0.019 A 
ATOM     18  H   UNL     1     -50.824  32.444  24.825  1.00  0.00     0.063 H 
ATOM     19  H   UNL     1     -50.354  33.998  26.610  1.00  0.00     0.066 H 
BRANCH   7  20
ATOM     20  C   UNL     1     -45.372  30.035  22.646  1.00  0.00    -0.022 C 
ATOM     21  H   UNL     1     -44.511  30.710  22.630  1.00  0.00     0.030 H 
ATOM     22  H   UNL     1     -45.578  29.719  21.618  1.00  0.00     0.030 H 
ATOM     23  H   UNL     1     -45.107  29.159  23.245  1.00  0.00     0.030 H 
ENDBRANCH   7  20
BRANCH  15  24
ATOM     24  O   UNL     1     -47.783  34.616  27.473  1.00  0.00    -0.489 OA
BRANCH  24  25
ATOM     25  C   UNL     1     -46.376  34.816  27.615  1.00  0.00     0.115 C 
ATOM     26  H   UNL     1     -45.985  34.119  28.366  1.00  0.00     0.076 H 
ATOM     27  H   UNL     1     -45.866  34.659  26.657  1.00  0.00     0.076 H 
BRANCH  25  28
ATOM     28  C   UNL     1     -46.117  36.232  28.057  1.00  0.00     0.010 A 
ATOM     29  C   UNL     1     -45.153  36.522  29.012  1.00  0.00     0.034 A 
ATOM     30  C   UNL     1     -46.882  37.300  27.562  1.00  0.00    -0.028 A 
ATOM     31  N   UNL     1     -44.906  37.765  29.476  1.00  0.00    -0.262 NA
ATOM     32  H   UNL     1     -44.532  35.741  29.445  1.00  0.00     0.084 H 
ATOM     33  C   UNL     1     -46.656  38.606  28.010  1.00  0.00     0.066 A 
ATOM     34  H   UNL     1     -47.634  37.075  26.813  1.00  0.00     0.065 H 
ATOM     35  C   UNL     1     -45.656  38.773  28.965  1.00  0.00     0.051 A 
ATOM     36  H   UNL     1     -45.400  39.733  29.397  1.00  0.00     0.086 H 
BRANCH  33  37
ATOM     37  N   UNL     1     -47.404  39.727  27.524  1.00  0.00    -0.300 N 
ATOM     38  C   UNL     1     -46.866  40.805  26.831  1.00  0.00     0.012 A 
ATOM     39  C   UNL     1     -48.779  39.964  27.641  1.00  0.00     0.150 A 
ATOM     40  C   UNL     1     -47.864  41.695  26.511  1.00  0.00    -0.031 A 
ATOM     41  H   UNL     1     -45.814  40.866  26.595  1.00  0.00     0.082 H 
ATOM     42  C   UNL     1     -49.077  41.173  27.017  1.00  0.00     0.061 A 
ATOM     43  N   UNL     1     -49.689  39.184  28.262  1.00  0.00    -0.218 NA
ATOM     44  H   UNL     1     -47.731  42.626  25.975  1.00  0.00     0.065 H 
ATOM     45  C   UNL     1     -50.414  41.593  27.024  1.00  0.00     0.136 A 
ATOM     46  C   UNL     1     -50.930  39.687  28.210  1.00  0.00     0.120 A 
ATOM     47  N   UNL     1     -51.338  40.827  27.628  1.00  0.00    -0.219 NA
ATOM     48  H   UNL     1     -51.704  39.101  28.696  1.00  0.00     0.106 H 
BRANCH  45  49
ATOM     49  N   UNL     1     -50.854  42.766  26.428  1.00  0.00    -0.383 N 
ATOM     50  H   UNL     1     -50.102  43.444  26.379  1.00  0.00     0.158 HD
ATOM     51  H   UNL     1     -51.745  43.107  26.761  1.00  0.00     0.158 HD
ENDBRANCH  45  49
ENDBRANCH  33  37
ENDBRANCH  25  28
ENDBRANCH  24  25
ENDBRANCH  15  24
ENDBRANCH   4   6
ENDBRANCH   1   4
BRANCH   1  52
ATOM     52  C   UNL     1     -51.585  29.192  21.443  1.00  0.00     0.015 C 
ATOM     53  H   UNL     1     -52.269  29.325  20.597  1.00  0.00     0.045 H 
ATOM     54  H   UNL     1     -52.235  29.254  22.328  1.00  0.00     0.045 H 
BRANCH  52  55
ATOM     55  N   UNL     1     -51.033  27.824  21.369  1.00  0.00    -0.305 NA
BRANCH  55  56
ATOM     56  C   UNL     1     -50.901  27.361  19.989  1.00  0.00    -0.013 C 
ATOM     57  H   UNL     1     -51.794  26.835  19.635  1.00  0.00     0.039 H 
ATOM     58  H   UNL     1     -50.708  28.202  19.314  1.00  0.00     0.039 H 
ATOM     59  H   UNL     1     -50.044  26.687  19.881  1.00  0.00     0.039 H 
ENDBRANCH  55  56
BRANCH  55  60
ATOM     60  C   UNL     1     -51.780  26.879  22.209  1.00  0.00    -0.002 C 
ATOM     61  H   UNL     1     -52.057  25.983  21.637  1.00  0.00     0.043 H 
ATOM     62  H   UNL     1     -52.724  27.339  22.529  1.00  0.00     0.043 H 
BRANCH  60  63
ATOM     63  C   UNL     1     -51.027  26.438  23.474  1.00  0.00    -0.040 C 
ATOM     64  H   UNL     1     -51.370  25.431  23.744  1.00  0.00     0.028 H 
ATOM     65  H   UNL     1     -49.957  26.341  23.253  1.00  0.00     0.028 H 
BRANCH  63  66
ATOM     66  C   UNL     1     -51.193  27.359  24.689  1.00  0.00    -0.048 C 
ATOM     67  H   UNL     1     -51.581  26.787  25.540  1.00  0.00     0.027 H 
ATOM     68  H   UNL     1     -51.965  28.101  24.449  1.00  0.00     0.027 H 
BRANCH  66  69
ATOM     69  C   UNL     1     -49.901  28.079  25.086  1.00  0.00    -0.028 C 
ATOM     70  H   UNL     1     -49.566  28.750  24.286  1.00  0.00     0.032 H 
ATOM     71  H   UNL     1     -50.078  28.715  25.962  1.00  0.00     0.032 H 
BRANCH  69  72
ATOM     72  C   UNL     1     -48.792  27.101  25.388  1.00  0.00    -0.048 A 
ATOM     73  C   UNL     1     -47.528  27.254  24.804  1.00  0.00    -0.059 A 
ATOM     74  C   UNL     1     -49.007  26.041  26.280  1.00  0.00    -0.059 A 
ATOM     75  C   UNL     1     -46.501  26.355  25.098  1.00  0.00    -0.062 A 
ATOM     76  H   UNL     1     -47.336  28.075  24.116  1.00  0.00     0.063 H 
ATOM     77  C   UNL     1     -47.979  25.143  26.572  1.00  0.00    -0.062 A 
ATOM     78  H   UNL     1     -49.978  25.912  26.752  1.00  0.00     0.063 H 
ATOM     79  C   UNL     1     -46.727  25.300  25.979  1.00  0.00    -0.062 A 
ATOM     80  H   UNL     1     -45.524  26.479  24.638  1.00  0.00     0.062 H 
ATOM     81  H   UNL     1     -48.155  24.324  27.262  1.00  0.00     0.062 H 
ATOM     82  H   UNL     1     -45.926  24.602  26.208  1.00  0.00     0.062 H 
ENDBRANCH  69  72
ENDBRANCH  66  69
ENDBRANCH  63  66
ENDBRANCH  60  63
ENDBRANCH  55  60
ENDBRANCH  52  55
ENDBRANCH   1  52
TORSDOF 16
ENDMDL
MODEL 2
REMARK VINA RESULT:      -7.4      3.430      6.345
REMARK SMILES Cc1cc(NCCN(C)CCCCc2ccccc2)c2ccc(OCc3cncc(-n4ccc5c(N)ncnc54)c3)cc2n1
REMARK SMILES IDX 6 1 5 4 4 6 2 7 3 8 44 9 43 11 20 12 42 13 21 14 23 15 22 17
REMARK SMILES IDX 1 20 24 24 25 25 26 28 27 29 41 30 28 31 30 33 29 35 31 37
REMARK SMILES IDX 32 38 40 39 33 40 34 42 39 43 35 45 38 46 37 47 36 49 7 52
REMARK SMILES IDX 8 55 9 56 10 60 11 63 12 66 13 69 14 72 15 73 19 74 16 75
REMARK SMILES IDX 18 77 17 79
REMARK H PARENT 6 2 6 3 5 5 3 10 42 16 21 18 22 19 1 21 1 22 1 23 25 26 25 27
REMARK H PARENT 27 32 41 34 29 36 32 41 33 44 38 48 36 50 36 51 7 53 7 54 9 57
REMARK H PARENT 9 58 9 59 10 61 10 62 11 64 11 65 12 67 12 68 13 70 13 71
REMARK H PARENT 15 76 19 78 16 80 18 81 17 82
REMARK Flexibility Score: inf
ROOT
ATOM      1  C   UNL     1     -47.163  34.217  27.343  1.00  0.00     0.027 C 
ATOM      2  H   UNL     1     -46.580  34.845  28.025  1.00  0.00     0.050 H 
ATOM      3  H   UNL     1     -47.546  33.391  27.952  1.00  0.00     0.050 H 
ENDROOT
BRANCH   1   4
ATOM      4  N   UNL     1     -48.333  34.941  26.838  1.00  0.00    -0.383 N 
ATOM      5  H   UNL     1     -48.376  34.923  25.823  1.00  0.00     0.160 HD
BRANCH   4   6
ATOM      6  C   UNL     1     -48.731  36.189  27.354  1.00  0.00     0.045 A 
ATOM      7  C   UNL     1     -50.418  37.738  28.108  1.00  0.00     0.040 A 
ATOM      8  C   UNL     1     -50.070  36.485  27.622  1.00  0.00    -0.017 A 
ATOM      9  N   UNL     1     -49.514  38.717  28.313  1.00  0.00    -0.253 NA
ATOM     10  H   UNL     1     -50.857  35.756  27.476  1.00  0.00     0.066 H 
ATOM     11  C   UNL     1     -48.232  38.480  28.003  1.00  0.00     0.076 A 
ATOM     12  C   UNL     1     -47.778  37.240  27.500  1.00  0.00     0.024 A 
ATOM     13  C   UNL     1     -47.324  39.514  28.181  1.00  0.00     0.007 A 
ATOM     14  C   UNL     1     -46.406  37.124  27.167  1.00  0.00    -0.047 A 
ATOM     15  C   UNL     1     -45.970  39.386  27.865  1.00  0.00     0.122 A 
ATOM     16  H   UNL     1     -47.688  40.460  28.576  1.00  0.00     0.069 H 
ATOM     17  C   UNL     1     -45.511  38.182  27.350  1.00  0.00    -0.019 A 
ATOM     18  H   UNL     1     -46.017  36.203  26.740  1.00  0.00     0.063 H 
ATOM     19  H   UNL     1     -44.473  38.026  27.074  1.00  0.00     0.066 H 
BRANCH   7  20
ATOM     20  C   UNL     1     -51.850  38.051  28.428  1.00  0.00    -0.022 C 
ATOM     21  H   UNL     1     -52.335  37.198  28.914  1.00  0.00     0.030 H 
ATOM     22  H   UNL     1     -52.400  38.280  27.510  1.00  0.00     0.030 H 
ATOM     23  H   UNL     1     -51.907  38.908  29.106  1.00  0.00     0.030 H 
ENDBRANCH   7  20
BRANCH  15  24
ATOM     24  O   UNL     1     -45.218  40.503  28.099  1.00  0.00    -0.489 OA
BRANCH  24  25
ATOM     25  C   UNL     1     -43.798  40.363  28.028  1.00  0.00     0.115 C 
ATOM     26  H   UNL     1     -43.366  40.545  29.019  1.00  0.00     0.076 H 
ATOM     27  H   UNL     1     -43.527  39.359  27.680  1.00  0.00     0.076 H 
BRANCH  25  28
ATOM     28  C   UNL     1     -43.249  41.364  27.046  1.00  0.00     0.010 A 
ATOM     29  C   UNL     1     -41.904  41.705  27.044  1.00  0.00     0.034 A 
ATOM     30  C   UNL     1     -44.088  42.029  26.139  1.00  0.00    -0.028 A 
ATOM     31  N   UNL     1     -41.363  42.624  26.217  1.00  0.00    -0.262 NA
ATOM     32  H   UNL     1     -41.200  41.235  27.727  1.00  0.00     0.084 H 
ATOM     33  C   UNL     1     -43.571  42.986  25.259  1.00  0.00     0.066 A 
ATOM     34  H   UNL     1     -45.139  41.762  26.137  1.00  0.00     0.065 H 
ATOM     35  C   UNL     1     -42.204  43.237  25.346  1.00  0.00     0.051 A 
ATOM     36  H   UNL     1     -41.691  43.965  24.727  1.00  0.00     0.086 H 
BRANCH  33  37
ATOM     37  N   UNL     1     -44.387  43.681  24.309  1.00  0.00    -0.300 N 
ATOM     38  C   UNL     1     -44.035  43.936  22.989  1.00  0.00     0.012 A 
ATOM     39  C   UNL     1     -45.661  44.228  24.503  1.00  0.00     0.150 A 
ATOM     40  C   UNL     1     -45.051  44.617  22.361  1.00  0.00    -0.031 A 
ATOM     41  H   UNL     1     -43.093  43.607  22.574  1.00  0.00     0.082 H 
ATOM     42  C   UNL     1     -46.084  44.804  23.308  1.00  0.00     0.061 A 
ATOM     43  N   UNL     1     -46.380  44.231  25.646  1.00  0.00    -0.218 NA
ATOM     44  H   UNL     1     -45.046  44.947  21.330  1.00  0.00     0.065 H 
ATOM     45  C   UNL     1     -47.348  45.412  23.294  1.00  0.00     0.136 A 
ATOM     46  C   UNL     1     -47.566  44.842  25.514  1.00  0.00     0.120 A 
ATOM     47  N   UNL     1     -48.084  45.417  24.417  1.00  0.00    -0.219 NA
ATOM     48  H   UNL     1     -48.187  44.875  26.404  1.00  0.00     0.106 H 
BRANCH  45  49
ATOM     49  N   UNL     1     -47.900  46.010  22.170  1.00  0.00    -0.383 N 
ATOM     50  H   UNL     1     -48.128  46.980  22.359  1.00  0.00     0.158 HD
ATOM     51  H   UNL     1     -48.610  45.466  21.702  1.00  0.00     0.158 HD
ENDBRANCH  45  49
ENDBRANCH  33  37
ENDBRANCH  25  28
ENDBRANCH  24  25
ENDBRANCH  15  24
ENDBRANCH   4   6
ENDBRANCH   1   4
BRANCH   1  52
ATOM     52  C   UNL     1     -46.298  33.642  26.197  1.00  0.00     0.015 C 
ATOM     53  H   UNL     1     -45.249  33.603  26.512  1.00  0.00     0.045 H 
ATOM     54  H   UNL     1     -46.304  34.355  25.362  1.00  0.00     0.045 H 
BRANCH  52  55
ATOM     55  N   UNL     1     -46.664  32.310  25.674  1.00  0.00    -0.305 NA
BRANCH  55  56
ATOM     56  C   UNL     1     -46.390  32.189  24.243  1.00  0.00    -0.013 C 
ATOM     57  H   UNL     1     -46.312  31.147  23.917  1.00  0.00     0.039 H 
ATOM     58  H   UNL     1     -47.176  32.676  23.655  1.00  0.00     0.039 H 
ATOM     59  H   UNL     1     -45.458  32.700  23.979  1.00  0.00     0.039 H 
ENDBRANCH  55  56
BRANCH  55  60
ATOM     60  C   UNL     1     -48.044  31.942  26.013  1.00  0.00    -0.002 C 
ATOM     61  H   UNL     1     -48.599  32.811  26.388  1.00  0.00     0.043 H 
ATOM     62  H   UNL     1     -48.039  31.210  26.832  1.00  0.00     0.043 H 
BRANCH  60  63
ATOM     63  C   UNL     1     -48.831  31.325  24.846  1.00  0.00    -0.040 C 
ATOM     64  H   UNL     1     -49.763  31.892  24.723  1.00  0.00     0.028 H 
ATOM     65  H   UNL     1     -48.273  31.460  23.911  1.00  0.00     0.028 H 
BRANCH  63  66
ATOM     66  C   UNL     1     -49.174  29.837  25.001  1.00  0.00    -0.048 C 
ATOM     67  H   UNL     1     -50.253  29.690  24.879  1.00  0.00     0.027 H 
ATOM     68  H   UNL     1     -48.944  29.543  26.032  1.00  0.00     0.027 H 
BRANCH  66  69
ATOM     69  C   UNL     1     -48.408  28.934  24.031  1.00  0.00    -0.028 C 
ATOM     70  H   UNL     1     -49.053  28.611  23.205  1.00  0.00     0.032 H 
ATOM     71  H   UNL     1     -47.582  29.490  23.571  1.00  0.00     0.032 H 
BRANCH  69  72
ATOM     72  C   UNL     1     -47.866  27.709  24.724  1.00  0.00    -0.048 A 
ATOM     73  C   UNL     1     -48.629  27.041  25.692  1.00  0.00    -0.059 A 
ATOM     74  C   UNL     1     -46.601  27.206  24.389  1.00  0.00    -0.059 A 
ATOM     75  C   UNL     1     -48.130  25.899  26.321  1.00  0.00    -0.062 A 
ATOM     76  H   UNL     1     -49.618  27.407  25.961  1.00  0.00     0.063 H 
ATOM     77  C   UNL     1     -46.104  26.065  25.019  1.00  0.00    -0.062 A 
ATOM     78  H   UNL     1     -45.999  27.704  23.633  1.00  0.00     0.063 H 
ATOM     79  C   UNL     1     -46.868  25.413  25.986  1.00  0.00    -0.062 A 
ATOM     80  H   UNL     1     -48.727  25.389  27.072  1.00  0.00     0.062 H 
ATOM     81  H   UNL     1     -45.122  25.684  24.755  1.00  0.00     0.062 H 
ATOM     82  H   UNL     1     -46.481  24.523  26.476  1.00  0.00     0.062 H 
ENDBRANCH  69  72
ENDBRANCH  66  69
ENDBRANCH  63  66
ENDBRANCH  60  63
ENDBRANCH  55  60
ENDBRANCH  52  55
ENDBRANCH   1  52
TORSDOF 16
ENDMDL
MODEL 3
REMARK VINA RESULT:      -7.3      2.865     12.362
REMARK SMILES Cc1cc(NCCN(C)CCCCc2ccccc2)c2ccc(OCc3cncc(-n4ccc5c(N)ncnc54)c3)cc2n1
REMARK SMILES IDX 6 1 5 4 4 6 2 7 3 8 44 9 43 11 20 12 42 13 21 14 23 15 22 17
REMARK SMILES IDX 1 20 24 24 25 25 26 28 27 29 41 30 28 31 30 33 29 35 31 37
REMARK SMILES IDX 32 38 40 39 33 40 34 42 39 43 35 45 38 46 37 47 36 49 7 52
REMARK SMILES IDX 8 55 9 56 10 60 11 63 12 66 13 69 14 72 15 73 19 74 16 75
REMARK SMILES IDX 18 77 17 79
REMARK H PARENT 6 2 6 3 5 5 3 10 42 16 21 18 22 19 1 21 1 22 1 23 25 26 25 27
REMARK H PARENT 27 32 41 34 29 36 32 41 33 44 38 48 36 50 36 51 7 53 7 54 9 57
REMARK H PARENT 9 58 9 59 10 61 10 62 11 64 11 65 12 67 12 68 13 70 13 71
REMARK H PARENT 15 76 19 78 16 80 18 81 17 82
REMARK Flexibility Score: inf
ROOT
ATOM      1  C   UNL     1     -45.292  44.475  25.984  1.00  0.00     0.027 C 
ATOM      2  H   UNL     1     -44.556  45.046  26.560  1.00  0.00     0.050 H 
ATOM      3  H   UNL     1     -45.402  45.007  25.033  1.00  0.00     0.050 H 
ENDROOT
BRANCH   1   4
ATOM      4  N   UNL     1     -44.780  43.140  25.660  1.00  0.00    -0.383 N 
ATOM      5  H   UNL     1     -45.348  42.684  24.951  1.00  0.00     0.160 HD
BRANCH   4   6
ATOM      6  C   UNL     1     -44.352  42.233  26.647  1.00  0.00     0.045 A 
ATOM      7  C   UNL     1     -42.760  41.475  28.292  1.00  0.00     0.040 A 
ATOM      8  C   UNL     1     -43.153  42.408  27.342  1.00  0.00    -0.017 A 
ATOM      9  N   UNL     1     -43.477  40.367  28.563  1.00  0.00    -0.253 NA
ATOM     10  H   UNL     1     -42.517  43.269  27.175  1.00  0.00     0.066 H 
ATOM     11  C   UNL     1     -44.599  40.142  27.865  1.00  0.00     0.076 A 
ATOM     12  C   UNL     1     -45.081  41.029  26.877  1.00  0.00     0.024 A 
ATOM     13  C   UNL     1     -45.301  38.974  28.130  1.00  0.00     0.007 A 
ATOM     14  C   UNL     1     -46.255  40.661  26.174  1.00  0.00    -0.047 A 
ATOM     15  C   UNL     1     -46.465  38.627  27.444  1.00  0.00     0.122 A 
ATOM     16  H   UNL     1     -44.919  38.305  28.899  1.00  0.00     0.069 H 
ATOM     17  C   UNL     1     -46.941  39.476  26.456  1.00  0.00    -0.019 A 
ATOM     18  H   UNL     1     -46.643  41.292  25.378  1.00  0.00     0.063 H 
ATOM     19  H   UNL     1     -47.834  39.254  25.879  1.00  0.00     0.066 H 
BRANCH   7  20
ATOM     20  C   UNL     1     -41.490  41.675  29.063  1.00  0.00    -0.022 C 
ATOM     21  H   UNL     1     -40.967  40.724  29.207  1.00  0.00     0.030 H 
ATOM     22  H   UNL     1     -41.710  42.096  30.049  1.00  0.00     0.030 H 
ATOM     23  H   UNL     1     -40.822  42.353  28.523  1.00  0.00     0.030 H 
ENDBRANCH   7  20
BRANCH  15  24
ATOM     24  O   UNL     1     -47.026  37.441  27.829  1.00  0.00    -0.489 OA
BRANCH  24  25
ATOM     25  C   UNL     1     -47.644  36.649  26.814  1.00  0.00     0.115 C 
ATOM     26  H   UNL     1     -48.733  36.685  26.939  1.00  0.00     0.076 H 
ATOM     27  H   UNL     1     -47.370  37.017  25.818  1.00  0.00     0.076 H 
BRANCH  25  28
ATOM     28  C   UNL     1     -47.168  35.226  26.935  1.00  0.00     0.010 A 
ATOM     29  C   UNL     1     -46.550  34.770  28.092  1.00  0.00     0.034 A 
ATOM     30  C   UNL     1     -47.279  34.328  25.862  1.00  0.00    -0.028 A 
ATOM     31  N   UNL     1     -46.067  33.520  28.242  1.00  0.00    -0.262 NA
ATOM     32  H   UNL     1     -46.422  35.416  28.957  1.00  0.00     0.084 H 
ATOM     33  C   UNL     1     -46.797  33.019  25.975  1.00  0.00     0.066 A 
ATOM     34  H   UNL     1     -47.764  34.681  24.959  1.00  0.00     0.065 H 
ATOM     35  C   UNL     1     -46.204  32.677  27.187  1.00  0.00     0.051 A 
ATOM     36  H   UNL     1     -45.781  31.698  27.389  1.00  0.00     0.086 H 
BRANCH  33  37
ATOM     37  N   UNL     1     -46.900  32.066  24.911  1.00  0.00    -0.300 N 
ATOM     38  C   UNL     1     -46.129  32.074  23.755  1.00  0.00     0.012 A 
ATOM     39  C   UNL     1     -47.765  30.969  24.816  1.00  0.00     0.150 A 
ATOM     40  C   UNL     1     -46.484  31.015  22.953  1.00  0.00    -0.031 A 
ATOM     41  H   UNL     1     -45.366  32.819  23.580  1.00  0.00     0.082 H 
ATOM     42  C   UNL     1     -47.516  30.310  23.615  1.00  0.00     0.061 A 
ATOM     43  N   UNL     1     -48.705  30.594  25.709  1.00  0.00    -0.218 NA
ATOM     44  H   UNL     1     -46.050  30.779  21.990  1.00  0.00     0.065 H 
ATOM     45  C   UNL     1     -48.286  29.173  23.328  1.00  0.00     0.136 A 
ATOM     46  C   UNL     1     -49.381  29.501  25.327  1.00  0.00     0.120 A 
ATOM     47  N   UNL     1     -49.220  28.777  24.208  1.00  0.00    -0.219 NA
ATOM     48  H   UNL     1     -50.152  29.155  26.009  1.00  0.00     0.106 H 
BRANCH  45  49
ATOM     49  N   UNL     1     -48.135  28.413  22.178  1.00  0.00    -0.383 N 
ATOM     50  H   UNL     1     -47.225  28.577  21.760  1.00  0.00     0.158 HD
ATOM     51  H   UNL     1     -48.925  28.425  21.549  1.00  0.00     0.158 HD
ENDBRANCH  45  49
ENDBRANCH  33  37
ENDBRANCH  25  28
ENDBRANCH  24  25
ENDBRANCH  15  24
ENDBRANCH   4   6
ENDBRANCH   1   4
BRANCH   1  52
ATOM     52  C   UNL     1     -46.666  44.414  26.691  1.00  0.00     0.015 C 
ATOM     53  H   UNL     1     -46.647  45.044  27.588  1.00  0.00     0.045 H 
ATOM     54  H   UNL     1     -46.816  43.397  27.079  1.00  0.00     0.045 H 
BRANCH  52  55
ATOM     55  N   UNL     1     -47.854  44.789  25.898  1.00  0.00    -0.305 NA
BRANCH  55  56
ATOM     56  C   UNL     1     -47.554  44.879  24.471  1.00  0.00    -0.013 C 
ATOM     57  H   UNL     1     -46.829  44.126  24.146  1.00  0.00     0.039 H 
ATOM     58  H   UNL     1     -48.466  44.758  23.875  1.00  0.00     0.039 H 
ATOM     59  H   UNL     1     -47.157  45.867  24.215  1.00  0.00     0.039 H 
ENDBRANCH  55  56
BRANCH  55  60
ATOM     60  C   UNL     1     -48.504  46.001  26.413  1.00  0.00    -0.002 C 
ATOM     61  H   UNL     1     -48.618  46.750  25.619  1.00  0.00     0.043 H 
ATOM     62  H   UNL     1     -47.865  46.463  27.177  1.00  0.00     0.043 H 
BRANCH  60  63
ATOM     63  C   UNL     1     -49.880  45.749  27.050  1.00  0.00    -0.040 C 
ATOM     64  H   UNL     1     -49.740  45.629  28.132  1.00  0.00     0.028 H 
ATOM     65  H   UNL     1     -50.513  46.636  26.926  1.00  0.00     0.028 H 
BRANCH  63  66
ATOM     66  C   UNL     1     -50.638  44.529  26.511  1.00  0.00    -0.048 C 
ATOM     67  H   UNL     1     -49.931  43.820  26.064  1.00  0.00     0.027 H 
ATOM     68  H   UNL     1     -51.284  44.866  25.692  1.00  0.00     0.027 H 
BRANCH  66  69
ATOM     69  C   UNL     1     -51.487  43.825  27.573  1.00  0.00    -0.028 C 
ATOM     70  H   UNL     1     -51.521  44.413  28.498  1.00  0.00     0.032 H 
ATOM     71  H   UNL     1     -52.525  43.740  27.229  1.00  0.00     0.032 H 
BRANCH  69  72
ATOM     72  C   UNL     1     -50.947  42.454  27.895  1.00  0.00    -0.048 A 
ATOM     73  C   UNL     1     -51.655  41.303  27.523  1.00  0.00    -0.059 A 
ATOM     74  C   UNL     1     -49.716  42.314  28.550  1.00  0.00    -0.059 A 
ATOM     75  C   UNL     1     -51.145  40.036  27.812  1.00  0.00    -0.062 A 
ATOM     76  H   UNL     1     -52.608  41.388  27.006  1.00  0.00     0.063 H 
ATOM     77  C   UNL     1     -49.208  41.046  28.837  1.00  0.00    -0.062 A 
ATOM     78  H   UNL     1     -49.147  43.195  28.837  1.00  0.00     0.063 H 
ATOM     79  C   UNL     1     -49.923  39.908  28.469  1.00  0.00    -0.062 A 
ATOM     80  H   UNL     1     -51.701  39.148  27.522  1.00  0.00     0.062 H 
ATOM     81  H   UNL     1     -48.254  40.947  29.347  1.00  0.00     0.062 H 
ATOM     82  H   UNL     1     -49.527  38.921  28.692  1.00  0.00     0.062 H 
ENDBRANCH  69  72
ENDBRANCH  66  69
ENDBRANCH  63  66
ENDBRANCH  60  63
ENDBRANCH  55  60
ENDBRANCH  52  55
ENDBRANCH   1  52
TORSDOF 16
ENDMDL
MODEL 4
REMARK VINA RESULT:      -7.2      1.994      3.419
REMARK SMILES Cc1cc(NCCN(C)CCCCc2ccccc2)c2ccc(OCc3cncc(-n4ccc5c(N)ncnc54)c3)cc2n1
REMARK SMILES IDX 6 1 5 4 4 6 2 7 3 8 44 9 43 11 20 12 42 13 21 14 23 15 22 17
REMARK SMILES IDX 1 20 24 24 25 25 26 28 27 29 41 30 28 31 30 33 29 35 31 37
REMARK SMILES IDX 32 38 40 39 33 40 34 42 39 43 35 45 38 46 37 47 36 49 7 52
REMARK SMILES IDX 8 55 9 56 10 60 11 63 12 66 13 69 14 72 15 73 19 74 16 75
REMARK SMILES IDX 18 77 17 79
REMARK H PARENT 6 2 6 3 5 5 3 10 42 16 21 18 22 19 1 21 1 22 1 23 25 26 25 27
REMARK H PARENT 27 32 41 34 29 36 32 41 33 44 38 48 36 50 36 51 7 53 7 54 9 57
REMARK H PARENT 9 58 9 59 10 61 10 62 11 64 11 65 12 67 12 68 13 70 13 71
REMARK H PARENT 15 76 19 78 16 80 18 81 17 82
REMARK Flexibility Score: inf
ROOT
ATOM      1  C   UNL     1     -45.694  30.588  22.696  1.00  0.00     0.027 C 
ATOM      2  H   UNL     1     -44.839  30.953  22.118  1.00  0.00     0.050 H 
ATOM      3  H   UNL     1     -45.477  30.842  23.740  1.00  0.00     0.050 H 
ENDROOT
BRANCH   1   4
ATOM      4  N   UNL     1     -46.916  31.313  22.336  1.00  0.00    -0.383 N 
ATOM      5  H   UNL     1     -46.715  32.123  21.755  1.00  0.00     0.160 HD
BRANCH   4   6
ATOM      6  C   UNL     1     -47.939  31.580  23.265  1.00  0.00     0.045 A 
ATOM      7  C   UNL     1     -50.241  31.493  23.978  1.00  0.00     0.040 A 
ATOM      8  C   UNL     1     -49.261  31.187  23.043  1.00  0.00    -0.017 A 
ATOM      9  N   UNL     1     -49.983  32.192  25.101  1.00  0.00    -0.253 NA
ATOM     10  H   UNL     1     -49.551  30.629  22.161  1.00  0.00     0.066 H 
ATOM     11  C   UNL     1     -48.736  32.637  25.306  1.00  0.00     0.076 A 
ATOM     12  C   UNL     1     -47.670  32.381  24.415  1.00  0.00     0.024 A 
ATOM     13  C   UNL     1     -48.499  33.391  26.447  1.00  0.00     0.007 A 
ATOM     14  C   UNL     1     -46.405  32.942  24.718  1.00  0.00    -0.047 A 
ATOM     15  C   UNL     1     -47.245  33.928  26.746  1.00  0.00     0.122 A 
ATOM     16  H   UNL     1     -49.330  33.574  27.127  1.00  0.00     0.069 H 
ATOM     17  C   UNL     1     -46.193  33.703  25.870  1.00  0.00    -0.019 A 
ATOM     18  H   UNL     1     -45.564  32.805  24.042  1.00  0.00     0.063 H 
ATOM     19  H   UNL     1     -45.199  34.104  26.042  1.00  0.00     0.066 H 
BRANCH   7  20
ATOM     20  C   UNL     1     -51.656  31.045  23.760  1.00  0.00    -0.022 C 
ATOM     21  H   UNL     1     -52.349  31.631  24.372  1.00  0.00     0.030 H 
ATOM     22  H   UNL     1     -51.764  29.991  24.035  1.00  0.00     0.030 H 
ATOM     23  H   UNL     1     -51.935  31.174  22.710  1.00  0.00     0.030 H 
ENDBRANCH   7  20
BRANCH  15  24
ATOM     24  O   UNL     1     -47.191  34.647  27.907  1.00  0.00    -0.489 OA
BRANCH  24  25
ATOM     25  C   UNL     1     -47.969  35.842  27.974  1.00  0.00     0.115 C 
ATOM     26  H   UNL     1     -48.594  35.918  27.076  1.00  0.00     0.076 H 
ATOM     27  H   UNL     1     -48.601  35.841  28.870  1.00  0.00     0.076 H 
BRANCH  25  28
ATOM     28  C   UNL     1     -47.048  37.031  28.050  1.00  0.00     0.010 A 
ATOM     29  C   UNL     1     -45.830  36.956  28.710  1.00  0.00     0.034 A 
ATOM     30  C   UNL     1     -47.417  38.272  27.508  1.00  0.00    -0.028 A 
ATOM     31  N   UNL     1     -44.984  37.999  28.847  1.00  0.00    -0.262 NA
ATOM     32  H   UNL     1     -45.488  36.028  29.163  1.00  0.00     0.084 H 
ATOM     33  C   UNL     1     -46.569  39.379  27.620  1.00  0.00     0.066 A 
ATOM     34  H   UNL     1     -48.367  38.332  26.989  1.00  0.00     0.065 H 
ATOM     35  C   UNL     1     -45.369  39.178  28.298  1.00  0.00     0.051 A 
ATOM     36  H   UNL     1     -44.638  39.963  28.462  1.00  0.00     0.086 H 
BRANCH  33  37
ATOM     37  N   UNL     1     -46.898  40.661  27.072  1.00  0.00    -0.300 N 
ATOM     38  C   UNL     1     -48.107  41.321  27.255  1.00  0.00     0.012 A 
ATOM     39  C   UNL     1     -46.102  41.486  26.267  1.00  0.00     0.150 A 
ATOM     40  C   UNL     1     -48.081  42.528  26.596  1.00  0.00    -0.031 A 
ATOM     41  H   UNL     1     -48.903  40.902  27.853  1.00  0.00     0.082 H 
ATOM     42  C   UNL     1     -46.818  42.642  25.970  1.00  0.00     0.061 A 
ATOM     43  N   UNL     1     -44.854  41.227  25.820  1.00  0.00    -0.218 NA
ATOM     44  H   UNL     1     -48.889  43.247  26.565  1.00  0.00     0.065 H 
ATOM     45  C   UNL     1     -46.190  43.605  25.167  1.00  0.00     0.136 A 
ATOM     46  C   UNL     1     -44.358  42.213  25.060  1.00  0.00     0.120 A 
ATOM     47  N   UNL     1     -44.945  43.373  24.720  1.00  0.00    -0.219 NA
ATOM     48  H   UNL     1     -43.356  42.058  24.672  1.00  0.00     0.106 H 
BRANCH  45  49
ATOM     49  N   UNL     1     -46.780  44.808  24.806  1.00  0.00    -0.383 N 
ATOM     50  H   UNL     1     -47.787  44.707  24.747  1.00  0.00     0.158 HD
ATOM     51  H   UNL     1     -46.332  45.291  24.041  1.00  0.00     0.158 HD
ENDBRANCH  45  49
ENDBRANCH  33  37
ENDBRANCH  25  28
ENDBRANCH  24  25
ENDBRANCH  15  24
ENDBRANCH   4   6
ENDBRANCH   1   4
BRANCH   1  52
ATOM     52  C   UNL     1     -45.870  29.057  22.575  1.00  0.00     0.015 C 
ATOM     53  H   UNL     1     -44.890  28.568  22.622  1.00  0.00     0.045 H 
ATOM     54  H   UNL     1     -46.240  28.826  21.566  1.00  0.00     0.045 H 
BRANCH  52  55
ATOM     55  N   UNL     1     -46.754  28.395  23.556  1.00  0.00    -0.305 NA
BRANCH  55  56
ATOM     56  C   UNL     1     -46.258  27.073  23.936  1.00  0.00    -0.013 C 
ATOM     57  H   UNL     1     -46.945  26.543  24.604  1.00  0.00     0.039 H 
ATOM     58  H   UNL     1     -46.093  26.451  23.049  1.00  0.00     0.039 H 
ATOM     59  H   UNL     1     -45.286  27.148  24.435  1.00  0.00     0.039 H 
ENDBRANCH  55  56
BRANCH  55  60
ATOM     60  C   UNL     1     -48.152  28.363  23.109  1.00  0.00    -0.002 C 
ATOM     61  H   UNL     1     -48.211  28.380  22.012  1.00  0.00     0.043 H 
ATOM     62  H   UNL     1     -48.669  29.267  23.454  1.00  0.00     0.043 H 
BRANCH  60  63
ATOM     63  C   UNL     1     -48.944  27.150  23.623  1.00  0.00    -0.040 C 
ATOM     64  H   UNL     1     -49.097  26.459  22.783  1.00  0.00     0.028 H 
ATOM     65  H   UNL     1     -48.344  26.601  24.358  1.00  0.00     0.028 H 
BRANCH  63  66
ATOM     66  C   UNL     1     -50.307  27.476  24.249  1.00  0.00    -0.048 C 
ATOM     67  H   UNL     1     -51.110  27.068  23.624  1.00  0.00     0.027 H 
ATOM     68  H   UNL     1     -50.436  28.565  24.231  1.00  0.00     0.027 H 
BRANCH  66  69
ATOM     69  C   UNL     1     -50.450  26.969  25.686  1.00  0.00    -0.028 C 
ATOM     70  H   UNL     1     -50.846  27.756  26.340  1.00  0.00     0.032 H 
ATOM     71  H   UNL     1     -51.176  26.148  25.726  1.00  0.00     0.032 H 
BRANCH  69  72
ATOM     72  C   UNL     1     -49.129  26.501  26.244  1.00  0.00    -0.048 A 
ATOM     73  C   UNL     1     -48.698  25.183  26.046  1.00  0.00    -0.059 A 
ATOM     74  C   UNL     1     -48.303  27.390  26.945  1.00  0.00    -0.059 A 
ATOM     75  C   UNL     1     -47.468  24.759  26.553  1.00  0.00    -0.062 A 
ATOM     76  H   UNL     1     -49.318  24.478  25.497  1.00  0.00     0.063 H 
ATOM     77  C   UNL     1     -47.073  26.964  27.451  1.00  0.00    -0.062 A 
ATOM     78  H   UNL     1     -48.615  28.420  27.100  1.00  0.00     0.063 H 
ATOM     79  C   UNL     1     -46.657  25.648  27.255  1.00  0.00    -0.062 A 
ATOM     80  H   UNL     1     -47.142  23.733  26.397  1.00  0.00     0.062 H 
ATOM     81  H   UNL     1     -46.441  27.659  27.995  1.00  0.00     0.062 H 
ATOM     82  H   UNL     1     -45.700  25.316  27.648  1.00  0.00     0.062 H 
ENDBRANCH  69  72
ENDBRANCH  66  69
ENDBRANCH  63  66
ENDBRANCH  60  63
ENDBRANCH  55  60
ENDBRANCH  52  55
ENDBRANCH   1  52
TORSDOF 16
ENDMDL
MODEL 5
REMARK VINA RESULT:      -6.9      2.605      6.054
REMARK SMILES Cc1cc(NCCN(C)CCCCc2ccccc2)c2ccc(OCc3cncc(-n4ccc5c(N)ncnc54)c3)cc2n1
REMARK SMILES IDX 6 1 5 4 4 6 2 7 3 8 44 9 43 11 20 12 42 13 21 14 23 15 22 17
REMARK SMILES IDX 1 20 24 24 25 25 26 28 27 29 41 30 28 31 30 33 29 35 31 37
REMARK SMILES IDX 32 38 40 39 33 40 34 42 39 43 35 45 38 46 37 47 36 49 7 52
REMARK SMILES IDX 8 55 9 56 10 60 11 63 12 66 13 69 14 72 15 73 19 74 16 75
REMARK SMILES IDX 18 77 17 79
REMARK H PARENT 6 2 6 3 5 5 3 10 42 16 21 18 22 19 1 21 1 22 1 23 25 26 25 27
REMARK H PARENT 27 32 41 34 29 36 32 41 33 44 38 48 36 50 36 51 7 53 7 54 9 57
REMARK H PARENT 9 58 9 59 10 61 10 62 11 64 11 65 12 67 12 68 13 70 13 71
REMARK H PARENT 15 76 19 78 16 80 18 81 17 82
REMARK Flexibility Score: inf
ROOT
ATOM      1  C   UNL     1     -46.450  34.632  26.527  1.00  0.00     0.027 C 
ATOM      2  H   UNL     1     -45.979  35.559  26.185  1.00  0.00     0.050 H 
ATOM      3  H   UNL     1     -45.679  34.096  27.092  1.00  0.00     0.050 H 
ENDROOT
BRANCH   1   4
ATOM      4  N   UNL     1     -47.537  34.914  27.469  1.00  0.00    -0.383 N 
ATOM      5  H   UNL     1     -48.294  34.242  27.380  1.00  0.00     0.160 HD
BRANCH   4   6
ATOM      6  C   UNL     1     -48.021  36.215  27.697  1.00  0.00     0.045 A 
ATOM      7  C   UNL     1     -49.820  37.801  27.960  1.00  0.00     0.040 A 
ATOM      8  C   UNL     1     -49.388  36.497  27.755  1.00  0.00    -0.017 A 
ATOM      9  N   UNL     1     -48.968  38.838  28.079  1.00  0.00    -0.253 NA
ATOM     10  H   UNL     1     -50.136  35.719  27.660  1.00  0.00     0.066 H 
ATOM     11  C   UNL     1     -47.654  38.606  27.963  1.00  0.00     0.076 A 
ATOM     12  C   UNL     1     -47.116  37.317  27.751  1.00  0.00     0.024 A 
ATOM     13  C   UNL     1     -46.796  39.694  28.046  1.00  0.00     0.007 A 
ATOM     14  C   UNL     1     -45.712  37.203  27.600  1.00  0.00    -0.047 A 
ATOM     15  C   UNL     1     -45.412  39.571  27.911  1.00  0.00     0.122 A 
ATOM     16  H   UNL     1     -47.226  40.680  28.216  1.00  0.00     0.069 H 
ATOM     17  C   UNL     1     -44.869  38.315  27.682  1.00  0.00    -0.019 A 
ATOM     18  H   UNL     1     -45.255  36.237  27.397  1.00  0.00     0.063 H 
ATOM     19  H   UNL     1     -43.802  38.157  27.557  1.00  0.00     0.066 H 
BRANCH   7  20
ATOM     20  C   UNL     1     -51.285  38.102  28.055  1.00  0.00    -0.022 C 
ATOM     21  H   UNL     1     -51.717  37.659  28.959  1.00  0.00     0.030 H 
ATOM     22  H   UNL     1     -51.812  37.692  27.188  1.00  0.00     0.030 H 
ATOM     23  H   UNL     1     -51.447  39.184  28.096  1.00  0.00     0.030 H 
ENDBRANCH   7  20
BRANCH  15  24
ATOM     24  O   UNL     1     -44.718  40.744  28.017  1.00  0.00    -0.489 OA
BRANCH  24  25
ATOM     25  C   UNL     1     -44.053  41.218  26.846  1.00  0.00     0.115 C 
ATOM     26  H   UNL     1     -42.978  41.301  27.048  1.00  0.00     0.076 H 
ATOM     27  H   UNL     1     -44.223  40.537  26.003  1.00  0.00     0.076 H 
BRANCH  25  28
ATOM     28  C   UNL     1     -44.602  42.570  26.475  1.00  0.00     0.010 A 
ATOM     29  C   UNL     1     -43.835  43.719  26.606  1.00  0.00     0.034 A 
ATOM     30  C   UNL     1     -45.928  42.721  26.039  1.00  0.00    -0.028 A 
ATOM     31  N   UNL     1     -44.287  44.960  26.329  1.00  0.00    -0.262 NA
ATOM     32  H   UNL     1     -42.804  43.674  26.948  1.00  0.00     0.084 H 
ATOM     33  C   UNL     1     -46.438  43.988  25.734  1.00  0.00     0.066 A 
ATOM     34  H   UNL     1     -46.528  41.825  25.933  1.00  0.00     0.065 H 
ATOM     35  C   UNL     1     -45.570  45.065  25.898  1.00  0.00     0.051 A 
ATOM     36  H   UNL     1     -45.854  46.094  25.708  1.00  0.00     0.086 H 
BRANCH  33  37
ATOM     37  N   UNL     1     -47.779  44.189  25.275  1.00  0.00    -0.300 N 
ATOM     38  C   UNL     1     -48.182  45.191  24.400  1.00  0.00     0.012 A 
ATOM     39  C   UNL     1     -48.923  43.449  25.600  1.00  0.00     0.150 A 
ATOM     40  C   UNL     1     -49.534  45.088  24.168  1.00  0.00    -0.031 A 
ATOM     41  H   UNL     1     -47.484  45.902  23.984  1.00  0.00     0.082 H 
ATOM     42  C   UNL     1     -50.011  43.990  24.921  1.00  0.00     0.061 A 
ATOM     43  N   UNL     1     -48.998  42.394  26.440  1.00  0.00    -0.218 NA
ATOM     44  H   UNL     1     -50.115  45.740  23.529  1.00  0.00     0.065 H 
ATOM     45  C   UNL     1     -51.261  43.386  25.114  1.00  0.00     0.136 A 
ATOM     46  C   UNL     1     -50.240  41.903  26.549  1.00  0.00     0.120 A 
ATOM     47  N   UNL     1     -51.356  42.328  25.937  1.00  0.00    -0.219 NA
ATOM     48  H   UNL     1     -50.359  41.052  27.214  1.00  0.00     0.106 H 
BRANCH  45  49
ATOM     49  N   UNL     1     -52.425  43.810  24.489  1.00  0.00    -0.383 N 
ATOM     50  H   UNL     1     -53.188  43.861  25.155  1.00  0.00     0.158 HD
ATOM     51  H   UNL     1     -52.628  43.359  23.609  1.00  0.00     0.158 HD
ENDBRANCH  45  49
ENDBRANCH  33  37
ENDBRANCH  25  28
ENDBRANCH  24  25
ENDBRANCH  15  24
ENDBRANCH   4   6
ENDBRANCH   1   4
BRANCH   1  52
ATOM     52  C   UNL     1     -46.918  33.746  25.349  1.00  0.00     0.015 C 
ATOM     53  H   UNL     1     -46.046  33.318  24.841  1.00  0.00     0.045 H 
ATOM     54  H   UNL     1     -47.384  34.390  24.591  1.00  0.00     0.045 H 
BRANCH  52  55
ATOM     55  N   UNL     1     -47.851  32.643  25.657  1.00  0.00    -0.305 NA
BRANCH  55  56
ATOM     56  C   UNL     1     -47.331  31.762  26.702  1.00  0.00    -0.013 C 
ATOM     57  H   UNL     1     -47.230  32.270  27.667  1.00  0.00     0.039 H 
ATOM     58  H   UNL     1     -47.984  30.893  26.837  1.00  0.00     0.039 H 
ATOM     59  H   UNL     1     -46.351  31.360  26.424  1.00  0.00     0.039 H 
ENDBRANCH  55  56
BRANCH  55  60
ATOM     60  C   UNL     1     -48.255  31.907  24.453  1.00  0.00    -0.002 C 
ATOM     61  H   UNL     1     -48.447  32.597  23.620  1.00  0.00     0.043 H 
ATOM     62  H   UNL     1     -49.204  31.388  24.641  1.00  0.00     0.043 H 
BRANCH  60  63
ATOM     63  C   UNL     1     -47.235  30.855  23.992  1.00  0.00    -0.040 C 
ATOM     64  H   UNL     1     -46.448  31.367  23.422  1.00  0.00     0.028 H 
ATOM     65  H   UNL     1     -46.735  30.416  24.865  1.00  0.00     0.028 H 
BRANCH  63  66
ATOM     66  C   UNL     1     -47.807  29.719  23.134  1.00  0.00    -0.048 C 
ATOM     67  H   UNL     1     -46.990  29.110  22.730  1.00  0.00     0.027 H 
ATOM     68  H   UNL     1     -48.304  30.169  22.265  1.00  0.00     0.027 H 
BRANCH  66  69
ATOM     69  C   UNL     1     -48.801  28.832  23.887  1.00  0.00    -0.028 C 
ATOM     70  H   UNL     1     -49.490  29.438  24.487  1.00  0.00     0.032 H 
ATOM     71  H   UNL     1     -49.425  28.278  23.176  1.00  0.00     0.032 H 
BRANCH  69  72
ATOM     72  C   UNL     1     -48.095  27.861  24.801  1.00  0.00    -0.048 A 
ATOM     73  C   UNL     1     -48.607  27.581  26.075  1.00  0.00    -0.059 A 
ATOM     74  C   UNL     1     -46.931  27.206  24.376  1.00  0.00    -0.059 A 
ATOM     75  C   UNL     1     -47.957  26.671  26.912  1.00  0.00    -0.062 A 
ATOM     76  H   UNL     1     -49.514  28.070  26.423  1.00  0.00     0.063 H 
ATOM     77  C   UNL     1     -46.284  26.298  25.214  1.00  0.00    -0.062 A 
ATOM     78  H   UNL     1     -46.525  27.403  23.386  1.00  0.00     0.063 H 
ATOM     79  C   UNL     1     -46.797  26.032  26.483  1.00  0.00    -0.062 A 
ATOM     80  H   UNL     1     -48.360  26.461  27.901  1.00  0.00     0.062 H 
ATOM     81  H   UNL     1     -45.381  25.797  24.877  1.00  0.00     0.062 H 
ATOM     82  H   UNL     1     -46.293  25.323  27.135  1.00  0.00     0.062 H 
ENDBRANCH  69  72
ENDBRANCH  66  69
ENDBRANCH  63  66
ENDBRANCH  60  63
ENDBRANCH  55  60
ENDBRANCH  52  55
ENDBRANCH   1  52
TORSDOF 16
ENDMDL
MODEL 6
REMARK VINA RESULT:      -6.7      5.798     12.841
REMARK SMILES Cc1cc(NCCN(C)CCCCc2ccccc2)c2ccc(OCc3cncc(-n4ccc5c(N)ncnc54)c3)cc2n1
REMARK SMILES IDX 6 1 5 4 4 6 2 7 3 8 44 9 43 11 20 12 42 13 21 14 23 15 22 17
REMARK SMILES IDX 1 20 24 24 25 25 26 28 27 29 41 30 28 31 30 33 29 35 31 37
REMARK SMILES IDX 32 38 40 39 33 40 34 42 39 43 35 45 38 46 37 47 36 49 7 52
REMARK SMILES IDX 8 55 9 56 10 60 11 63 12 66 13 69 14 72 15 73 19 74 16 75
REMARK SMILES IDX 18 77 17 79
REMARK H PARENT 6 2 6 3 5 5 3 10 42 16 21 18 22 19 1 21 1 22 1 23 25 26 25 27
REMARK H PARENT 27 32 41 34 29 36 32 41 33 44 38 48 36 50 36 51 7 53 7 54 9 57
REMARK H PARENT 9 58 9 59 10 61 10 62 11 64 11 65 12 67 12 68 13 70 13 71
REMARK H PARENT 15 76 19 78 16 80 18 81 17 82
REMARK Flexibility Score: inf
ROOT
ATOM      1  C   UNL     1     -46.323  44.722  21.170  1.00  0.00     0.027 C 
ATOM      2  H   UNL     1     -46.640  43.724  21.492  1.00  0.00     0.050 H 
ATOM      3  H   UNL     1     -46.682  44.831  20.141  1.00  0.00     0.050 H 
ENDROOT
BRANCH   1   4
ATOM      4  N   UNL     1     -46.991  45.762  21.957  1.00  0.00    -0.383 N 
ATOM      5  H   UNL     1     -46.325  46.315  22.490  1.00  0.00     0.160 HD
BRANCH   4   6
ATOM      6  C   UNL     1     -48.168  45.518  22.690  1.00  0.00     0.045 A 
ATOM      7  C   UNL     1     -50.549  45.715  23.016  1.00  0.00     0.040 A 
ATOM      8  C   UNL     1     -49.418  45.959  22.249  1.00  0.00    -0.017 A 
ATOM      9  N   UNL     1     -50.499  45.086  24.207  1.00  0.00    -0.253 NA
ATOM     10  H   UNL     1     -49.541  46.478  21.306  1.00  0.00     0.066 H 
ATOM     11  C   UNL     1     -49.304  44.710  24.684  1.00  0.00     0.076 A 
ATOM     12  C   UNL     1     -48.096  44.915  23.980  1.00  0.00     0.024 A 
ATOM     13  C   UNL     1     -49.269  44.103  25.931  1.00  0.00     0.007 A 
ATOM     14  C   UNL     1     -46.890  44.514  24.607  1.00  0.00    -0.047 A 
ATOM     15  C   UNL     1     -48.077  43.696  26.535  1.00  0.00     0.122 A 
ATOM     16  H   UNL     1     -50.209  43.946  26.457  1.00  0.00     0.069 H 
ATOM     17  C   UNL     1     -46.880  43.910  25.867  1.00  0.00    -0.019 A 
ATOM     18  H   UNL     1     -45.932  44.687  24.123  1.00  0.00     0.063 H 
ATOM     19  H   UNL     1     -45.921  43.627  26.290  1.00  0.00     0.066 H 
BRANCH   7  20
ATOM     20  C   UNL     1     -51.898  46.157  22.531  1.00  0.00    -0.022 C 
ATOM     21  H   UNL     1     -52.142  45.684  21.575  1.00  0.00     0.030 H 
ATOM     22  H   UNL     1     -51.911  47.242  22.390  1.00  0.00     0.030 H 
ATOM     23  H   UNL     1     -52.669  45.879  23.256  1.00  0.00     0.030 H 
ENDBRANCH   7  20
BRANCH  15  24
ATOM     24  O   UNL     1     -48.225  43.119  27.764  1.00  0.00    -0.489 OA
BRANCH  24  25
ATOM     25  C   UNL     1     -49.554  42.814  28.189  1.00  0.00     0.115 C 
ATOM     26  H   UNL     1     -49.697  43.173  29.216  1.00  0.00     0.076 H 
ATOM     27  H   UNL     1     -50.288  43.283  27.524  1.00  0.00     0.076 H 
BRANCH  25  28
ATOM     28  C   UNL     1     -49.762  41.324  28.141  1.00  0.00     0.010 A 
ATOM     29  C   UNL     1     -51.036  40.778  28.062  1.00  0.00     0.034 A 
ATOM     30  C   UNL     1     -48.680  40.435  28.234  1.00  0.00    -0.028 A 
ATOM     31  N   UNL     1     -51.286  39.452  28.058  1.00  0.00    -0.262 NA
ATOM     32  H   UNL     1     -51.919  41.410  27.998  1.00  0.00     0.084 H 
ATOM     33  C   UNL     1     -48.891  39.052  28.228  1.00  0.00     0.066 A 
ATOM     34  H   UNL     1     -47.684  40.859  28.294  1.00  0.00     0.065 H 
ATOM     35  C   UNL     1     -50.214  38.624  28.137  1.00  0.00     0.051 A 
ATOM     36  H   UNL     1     -50.503  37.579  28.137  1.00  0.00     0.086 H 
BRANCH  33  37
ATOM     37  N   UNL     1     -47.817  38.108  28.309  1.00  0.00    -0.300 N 
ATOM     38  C   UNL     1     -46.571  38.363  28.867  1.00  0.00     0.012 A 
ATOM     39  C   UNL     1     -47.798  36.781  27.859  1.00  0.00     0.150 A 
ATOM     40  C   UNL     1     -45.786  37.237  28.783  1.00  0.00    -0.031 A 
ATOM     41  H   UNL     1     -46.323  39.320  29.302  1.00  0.00     0.082 H 
ATOM     42  C   UNL     1     -46.552  36.232  28.150  1.00  0.00     0.061 A 
ATOM     43  N   UNL     1     -48.794  36.121  27.230  1.00  0.00    -0.218 NA
ATOM     44  H   UNL     1     -44.766  37.151  29.136  1.00  0.00     0.065 H 
ATOM     45  C   UNL     1     -46.329  34.899  27.776  1.00  0.00     0.136 A 
ATOM     46  C   UNL     1     -48.466  34.860  26.918  1.00  0.00     0.120 A 
ATOM     47  N   UNL     1     -47.311  34.220  27.158  1.00  0.00    -0.219 NA
ATOM     48  H   UNL     1     -49.231  34.281  26.408  1.00  0.00     0.106 H 
BRANCH  45  49
ATOM     49  N   UNL     1     -45.143  34.221  28.017  1.00  0.00    -0.383 N 
ATOM     50  H   UNL     1     -45.236  33.620  28.828  1.00  0.00     0.158 HD
ATOM     51  H   UNL     1     -44.309  34.789  27.973  1.00  0.00     0.158 HD
ENDBRANCH  45  49
ENDBRANCH  33  37
ENDBRANCH  25  28
ENDBRANCH  24  25
ENDBRANCH  15  24
ENDBRANCH   4   6
ENDBRANCH   1   4
BRANCH   1  52
ATOM     52  C   UNL     1     -44.785  44.878  21.187  1.00  0.00     0.015 C 
ATOM     53  H   UNL     1     -44.419  45.039  20.166  1.00  0.00     0.045 H 
ATOM     54  H   UNL     1     -44.339  43.920  21.487  1.00  0.00     0.045 H 
BRANCH  52  55
ATOM     55  N   UNL     1     -44.220  45.941  22.044  1.00  0.00    -0.305 NA
BRANCH  55  56
ATOM     56  C   UNL     1     -43.218  46.738  21.339  1.00  0.00    -0.013 C 
ATOM     57  H   UNL     1     -43.118  47.747  21.751  1.00  0.00     0.039 H 
ATOM     58  H   UNL     1     -42.237  46.252  21.380  1.00  0.00     0.039 H 
ATOM     59  H   UNL     1     -43.464  46.826  20.276  1.00  0.00     0.039 H 
ENDBRANCH  55  56
BRANCH  55  60
ATOM     60  C   UNL     1     -43.723  45.416  23.321  1.00  0.00    -0.002 C 
ATOM     61  H   UNL     1     -44.548  45.267  24.030  1.00  0.00     0.043 H 
ATOM     62  H   UNL     1     -43.054  46.152  23.786  1.00  0.00     0.043 H 
BRANCH  60  63
ATOM     63  C   UNL     1     -42.943  44.098  23.193  1.00  0.00    -0.040 C 
ATOM     64  H   UNL     1     -43.628  43.330  22.811  1.00  0.00     0.028 H 
ATOM     65  H   UNL     1     -42.158  44.204  22.434  1.00  0.00     0.028 H 
BRANCH  63  66
ATOM     66  C   UNL     1     -42.303  43.587  24.490  1.00  0.00    -0.048 C 
ATOM     67  H   UNL     1     -41.291  43.997  24.593  1.00  0.00     0.027 H 
ATOM     68  H   UNL     1     -42.179  42.500  24.402  1.00  0.00     0.027 H 
BRANCH  66  69
ATOM     69  C   UNL     1     -43.128  43.905  25.740  1.00  0.00    -0.028 C 
ATOM     70  H   UNL     1     -42.664  44.712  26.320  1.00  0.00     0.032 H 
ATOM     71  H   UNL     1     -44.121  44.269  25.453  1.00  0.00     0.032 H 
BRANCH  69  72
ATOM     72  C   UNL     1     -43.272  42.696  26.632  1.00  0.00    -0.048 A 
ATOM     73  C   UNL     1     -44.092  41.624  26.253  1.00  0.00    -0.059 A 
ATOM     74  C   UNL     1     -42.565  42.619  27.840  1.00  0.00    -0.059 A 
ATOM     75  C   UNL     1     -44.211  40.502  27.075  1.00  0.00    -0.062 A 
ATOM     76  H   UNL     1     -44.642  41.658  25.316  1.00  0.00     0.063 H 
ATOM     77  C   UNL     1     -42.686  41.497  28.660  1.00  0.00    -0.062 A 
ATOM     78  H   UNL     1     -41.916  43.436  28.145  1.00  0.00     0.063 H 
ATOM     79  C   UNL     1     -43.510  40.439  28.278  1.00  0.00    -0.062 A 
ATOM     80  H   UNL     1     -44.851  39.676  26.776  1.00  0.00     0.062 H 
ATOM     81  H   UNL     1     -42.137  41.447  29.595  1.00  0.00     0.062 H 
ATOM     82  H   UNL     1     -43.603  39.564  28.916  1.00  0.00     0.062 H 
ENDBRANCH  69  72
ENDBRANCH  66  69
ENDBRANCH  63  66
ENDBRANCH  60  63
ENDBRANCH  55  60
ENDBRANCH  52  55
ENDBRANCH   1  52
TORSDOF 16
ENDMDL
MODEL 7
REMARK VINA RESULT:      -6.7      2.043      3.222
REMARK SMILES Cc1cc(NCCN(C)CCCCc2ccccc2)c2ccc(OCc3cncc(-n4ccc5c(N)ncnc54)c3)cc2n1
REMARK SMILES IDX 6 1 5 4 4 6 2 7 3 8 44 9 43 11 20 12 42 13 21 14 23 15 22 17
REMARK SMILES IDX 1 20 24 24 25 25 26 28 27 29 41 30 28 31 30 33 29 35 31 37
REMARK SMILES IDX 32 38 40 39 33 40 34 42 39 43 35 45 38 46 37 47 36 49 7 52
REMARK SMILES IDX 8 55 9 56 10 60 11 63 12 66 13 69 14 72 15 73 19 74 16 75
REMARK SMILES IDX 18 77 17 79
REMARK H PARENT 6 2 6 3 5 5 3 10 42 16 21 18 22 19 1 21 1 22 1 23 25 26 25 27
REMARK H PARENT 27 32 41 34 29 36 32 41 33 44 38 48 36 50 36 51 7 53 7 54 9 57
REMARK H PARENT 9 58 9 59 10 61 10 62 11 64 11 65 12 67 12 68 13 70 13 71
REMARK H PARENT 15 76 19 78 16 80 18 81 17 82
REMARK Flexibility Score: inf
ROOT
ATOM      1  C   UNL     1     -51.089  30.616  22.411  1.00  0.00     0.027 C 
ATOM      2  H   UNL     1     -52.139  30.396  22.630  1.00  0.00     0.050 H 
ATOM      3  H   UNL     1     -51.077  31.630  21.998  1.00  0.00     0.050 H 
ENDROOT
BRANCH   1   4
ATOM      4  N   UNL     1     -50.294  30.656  23.642  1.00  0.00    -0.383 N 
ATOM      5  H   UNL     1     -50.843  30.985  24.432  1.00  0.00     0.160 HD
BRANCH   4   6
ATOM      6  C   UNL     1     -48.980  31.157  23.678  1.00  0.00     0.045 A 
ATOM      7  C   UNL     1     -46.679  31.146  22.957  1.00  0.00     0.040 A 
ATOM      8  C   UNL     1     -47.967  30.635  22.870  1.00  0.00    -0.017 A 
ATOM      9  N   UNL     1     -46.340  32.124  23.821  1.00  0.00    -0.253 NA
ATOM     10  H   UNL     1     -48.157  29.843  22.156  1.00  0.00     0.066 H 
ATOM     11  C   UNL     1     -47.278  32.598  24.652  1.00  0.00     0.076 A 
ATOM     12  C   UNL     1     -48.615  32.142  24.644  1.00  0.00     0.024 A 
ATOM     13  C   UNL     1     -46.899  33.574  25.563  1.00  0.00     0.007 A 
ATOM     14  C   UNL     1     -49.506  32.688  25.601  1.00  0.00    -0.047 A 
ATOM     15  C   UNL     1     -47.788  34.118  26.492  1.00  0.00     0.122 A 
ATOM     16  H   UNL     1     -45.867  33.920  25.551  1.00  0.00     0.069 H 
ATOM     17  C   UNL     1     -49.099  33.667  26.512  1.00  0.00    -0.019 A 
ATOM     18  H   UNL     1     -50.535  32.340  25.659  1.00  0.00     0.063 H 
ATOM     19  H   UNL     1     -49.832  34.042  27.219  1.00  0.00     0.066 H 
BRANCH   7  20
ATOM     20  C   UNL     1     -45.595  30.611  22.069  1.00  0.00    -0.022 C 
ATOM     21  H   UNL     1     -45.619  29.517  22.041  1.00  0.00     0.030 H 
ATOM     22  H   UNL     1     -44.614  30.921  22.442  1.00  0.00     0.030 H 
ATOM     23  H   UNL     1     -45.725  30.981  21.048  1.00  0.00     0.030 H 
ENDBRANCH   7  20
BRANCH  15  24
ATOM     24  O   UNL     1     -47.247  35.066  27.316  1.00  0.00    -0.489 OA
BRANCH  24  25
ATOM     25  C   UNL     1     -46.424  36.064  26.713  1.00  0.00     0.115 C 
ATOM     26  H   UNL     1     -45.396  35.957  27.081  1.00  0.00     0.076 H 
ATOM     27  H   UNL     1     -46.440  35.970  25.620  1.00  0.00     0.076 H 
BRANCH  25  28
ATOM     28  C   UNL     1     -46.950  37.428  27.073  1.00  0.00     0.010 A 
ATOM     29  C   UNL     1     -48.173  37.581  27.711  1.00  0.00     0.034 A 
ATOM     30  C   UNL     1     -46.250  38.593  26.724  1.00  0.00    -0.028 A 
ATOM     31  N   UNL     1     -48.714  38.778  28.021  1.00  0.00    -0.262 NA
ATOM     32  H   UNL     1     -48.772  36.721  28.000  1.00  0.00     0.084 H 
ATOM     33  C   UNL     1     -46.770  39.856  27.031  1.00  0.00     0.066 A 
ATOM     34  H   UNL     1     -45.293  38.476  26.228  1.00  0.00     0.065 H 
ATOM     35  C   UNL     1     -48.002  39.881  27.679  1.00  0.00     0.051 A 
ATOM     36  H   UNL     1     -48.511  40.798  27.955  1.00  0.00     0.086 H 
BRANCH  33  37
ATOM     37  N   UNL     1     -46.085  41.071  26.705  1.00  0.00    -0.300 N 
ATOM     38  C   UNL     1     -46.597  42.086  25.906  1.00  0.00     0.012 A 
ATOM     39  C   UNL     1     -44.806  41.476  27.106  1.00  0.00     0.150 A 
ATOM     40  C   UNL     1     -45.680  43.106  25.807  1.00  0.00    -0.031 A 
ATOM     41  H   UNL     1     -47.585  42.029  25.471  1.00  0.00     0.082 H 
ATOM     42  C   UNL     1     -44.546  42.731  26.563  1.00  0.00     0.061 A 
ATOM     43  N   UNL     1     -43.938  40.784  27.875  1.00  0.00    -0.218 NA
ATOM     44  H   UNL     1     -45.813  44.021  25.244  1.00  0.00     0.065 H 
ATOM     45  C   UNL     1     -43.304  43.316  26.849  1.00  0.00     0.136 A 
ATOM     46  C   UNL     1     -42.786  41.438  28.077  1.00  0.00     0.120 A 
ATOM     47  N   UNL     1     -42.429  42.649  27.621  1.00  0.00    -0.219 NA
ATOM     48  H   UNL     1     -42.048  40.927  28.689  1.00  0.00     0.106 H 
BRANCH  45  49
ATOM     49  N   UNL     1     -42.919  44.566  26.388  1.00  0.00    -0.383 N 
ATOM     50  H   UNL     1     -43.679  45.230  26.483  1.00  0.00     0.158 HD
ATOM     51  H   UNL     1     -42.434  44.564  25.502  1.00  0.00     0.158 HD
ENDBRANCH  45  49
ENDBRANCH  33  37
ENDBRANCH  25  28
ENDBRANCH  24  25
ENDBRANCH  15  24
ENDBRANCH   4   6
ENDBRANCH   1   4
BRANCH   1  52
ATOM     52  C   UNL     1     -50.495  29.640  21.368  1.00  0.00     0.015 C 
ATOM     53  H   UNL     1     -49.449  29.903  21.171  1.00  0.00     0.045 H 
ATOM     54  H   UNL     1     -51.002  29.803  20.407  1.00  0.00     0.045 H 
BRANCH  52  55
ATOM     55  N   UNL     1     -50.548  28.197  21.681  1.00  0.00    -0.305 NA
BRANCH  55  56
ATOM     56  C   UNL     1     -49.432  27.466  21.084  1.00  0.00    -0.013 C 
ATOM     57  H   UNL     1     -48.630  28.129  20.744  1.00  0.00     0.039 H 
ATOM     58  H   UNL     1     -49.009  26.752  21.800  1.00  0.00     0.039 H 
ATOM     59  H   UNL     1     -49.768  26.870  20.229  1.00  0.00     0.039 H 
ENDBRANCH  55  56
BRANCH  55  60
ATOM     60  C   UNL     1     -51.850  27.606  21.348  1.00  0.00    -0.002 C 
ATOM     61  H   UNL     1     -51.789  27.028  20.416  1.00  0.00     0.043 H 
ATOM     62  H   UNL     1     -52.580  28.405  21.163  1.00  0.00     0.043 H 
BRANCH  60  63
ATOM     63  C   UNL     1     -52.424  26.700  22.449  1.00  0.00    -0.040 C 
ATOM     64  H   UNL     1     -53.486  26.946  22.576  1.00  0.00     0.028 H 
ATOM     65  H   UNL     1     -52.396  25.654  22.119  1.00  0.00     0.028 H 
BRANCH  63  66
ATOM     66  C   UNL     1     -51.726  26.802  23.811  1.00  0.00    -0.048 C 
ATOM     67  H   UNL     1     -52.405  26.464  24.603  1.00  0.00     0.027 H 
ATOM     68  H   UNL     1     -51.533  27.862  24.014  1.00  0.00     0.027 H 
BRANCH  66  69
ATOM     69  C   UNL     1     -50.411  26.022  23.879  1.00  0.00    -0.028 C 
ATOM     70  H   UNL     1     -50.599  24.946  23.982  1.00  0.00     0.032 H 
ATOM     71  H   UNL     1     -49.852  26.144  22.944  1.00  0.00     0.032 H 
BRANCH  69  72
ATOM     72  C   UNL     1     -49.558  26.473  25.039  1.00  0.00    -0.048 A 
ATOM     73  C   UNL     1     -49.288  27.833  25.239  1.00  0.00    -0.059 A 
ATOM     74  C   UNL     1     -49.046  25.536  25.947  1.00  0.00    -0.059 A 
ATOM     75  C   UNL     1     -48.509  28.246  26.322  1.00  0.00    -0.062 A 
ATOM     76  H   UNL     1     -49.682  28.579  24.553  1.00  0.00     0.063 H 
ATOM     77  C   UNL     1     -48.268  25.951  27.029  1.00  0.00    -0.062 A 
ATOM     78  H   UNL     1     -49.254  24.477  25.815  1.00  0.00     0.063 H 
ATOM     79  C   UNL     1     -47.999  27.306  27.215  1.00  0.00    -0.062 A 
ATOM     80  H   UNL     1     -48.302  29.304  26.469  1.00  0.00     0.062 H 
ATOM     81  H   UNL     1     -47.874  25.218  27.727  1.00  0.00     0.062 H 
ATOM     82  H   UNL     1     -47.395  27.630  28.058  1.00  0.00     0.062 H 
ENDBRANCH  69  72
ENDBRANCH  66  69
ENDBRANCH  63  66
ENDBRANCH  60  63
ENDBRANCH  55  60
ENDBRANCH  52  55
ENDBRANCH   1  52
TORSDOF 16
ENDMDL
