MODEL 1
REMARK VINA RESULT:     -11.0      0.000      0.000
REMARK SMILES Cc1cc(N)c2ccc(OCc3cccc(-n4cc(Cl)c5c(N)ncnc54)c3)cc2n1
REMARK SMILES IDX 11 1 10 4 9 5 2 6 3 7 31 8 4 9 30 11 6 12 29 13 7 14 8 16
REMARK SMILES IDX 1 19 5 23 12 26 13 27 28 28 14 29 16 31 15 33 17 36 18 37
REMARK SMILES IDX 27 38 19 39 21 41 26 42 20 43 22 44 25 45 24 46 23 48
REMARK H PARENT 11 2 11 3 3 10 29 15 7 17 8 18 1 20 1 21 1 22 5 24 5 25 13 30
REMARK H PARENT 28 32 14 34 15 35 18 40 25 47 23 49 23 50
REMARK Flexibility Score: inf
ROOT
ATOM      1  C   UNL     1     -48.209  35.833  26.963  1.00  0.00     0.113 C 
ATOM      2  H   UNL     1     -49.172  36.354  26.933  1.00  0.00     0.076 H 
ATOM      3  H   UNL     1     -47.861  35.833  25.922  1.00  0.00     0.076 H 
ENDROOT
BRANCH   1   4
ATOM      4  O   UNL     1     -48.327  34.463  27.354  1.00  0.00    -0.489 OA
BRANCH   4   5
ATOM      5  C   UNL     1     -47.932  33.505  26.460  1.00  0.00     0.122 A 
ATOM      6  C   UNL     1     -48.364  29.358  24.174  1.00  0.00     0.040 A 
ATOM      7  C   UNL     1     -47.214  29.561  23.427  1.00  0.00    -0.017 A 
ATOM      8  N   UNL     1     -48.827  30.267  25.058  1.00  0.00    -0.253 NA
ATOM      9  C   UNL     1     -46.526  30.769  23.548  1.00  0.00     0.043 A 
ATOM     10  H   UNL     1     -46.865  28.791  22.748  1.00  0.00     0.066 H 
ATOM     11  C   UNL     1     -48.132  31.404  25.242  1.00  0.00     0.076 A 
ATOM     12  C   UNL     1     -46.954  31.703  24.522  1.00  0.00     0.023 A 
ATOM     13  C   UNL     1     -48.602  32.313  26.184  1.00  0.00     0.007 A 
ATOM     14  C   UNL     1     -46.282  32.915  24.802  1.00  0.00    -0.047 A 
ATOM     15  H   UNL     1     -49.525  32.056  26.692  1.00  0.00     0.069 H 
ATOM     16  C   UNL     1     -46.774  33.807  25.754  1.00  0.00    -0.019 A 
ATOM     17  H   UNL     1     -45.360  33.174  24.289  1.00  0.00     0.063 H 
ATOM     18  H   UNL     1     -46.242  34.735  25.954  1.00  0.00     0.066 H 
BRANCH   6  19
ATOM     19  C   UNL     1     -49.136  28.081  24.029  1.00  0.00    -0.022 C 
ATOM     20  H   UNL     1     -48.685  27.453  23.254  1.00  0.00     0.030 H 
ATOM     21  H   UNL     1     -49.136  27.518  24.968  1.00  0.00     0.030 H 
ATOM     22  H   UNL     1     -50.176  28.295  23.762  1.00  0.00     0.030 H 
ENDBRANCH   6  19
BRANCH   9  23
ATOM     23  N   UNL     1     -45.316  30.919  22.836  1.00  0.00    -0.398 N 
ATOM     24  H   UNL     1     -45.263  31.778  22.298  1.00  0.00     0.156 HD
ATOM     25  H   UNL     1     -44.489  30.789  23.408  1.00  0.00     0.156 HD
ENDBRANCH   9  23
ENDBRANCH   4   5
ENDBRANCH   1   4
BRANCH   1  26
ATOM     26  C   UNL     1     -47.185  36.561  27.802  1.00  0.00    -0.009 A 
ATOM     27  C   UNL     1     -46.920  36.157  29.114  1.00  0.00    -0.055 A 
ATOM     28  C   UNL     1     -46.513  37.681  27.283  1.00  0.00    -0.031 A 
ATOM     29  C   UNL     1     -45.990  36.850  29.885  1.00  0.00    -0.060 A 
ATOM     30  H   UNL     1     -47.444  35.306  29.542  1.00  0.00     0.063 H 
ATOM     31  C   UNL     1     -45.592  38.404  28.055  1.00  0.00     0.047 A 
ATOM     32  H   UNL     1     -46.730  37.957  26.257  1.00  0.00     0.065 H 
ATOM     33  C   UNL     1     -45.327  37.965  29.361  1.00  0.00    -0.038 A 
ATOM     34  H   UNL     1     -45.791  36.532  30.905  1.00  0.00     0.062 H 
ATOM     35  H   UNL     1     -44.640  38.484  30.022  1.00  0.00     0.064 H 
BRANCH  31  36
ATOM     36  N   UNL     1     -44.944  39.576  27.532  1.00  0.00    -0.300 N 
ATOM     37  C   UNL     1     -45.255  40.185  26.327  1.00  0.00     0.030 A 
ATOM     38  C   UNL     1     -43.896  40.304  28.101  1.00  0.00     0.151 A 
ATOM     39  C   UNL     1     -44.431  41.270  26.143  1.00  0.00     0.072 A 
ATOM     40  H   UNL     1     -46.052  39.825  25.694  1.00  0.00     0.084 H 
ATOM     41  C   UNL     1     -43.563  41.357  27.254  1.00  0.00     0.080 A 
ATOM     42  N   UNL     1     -43.269  40.030  29.262  1.00  0.00    -0.218 NA
ATOM     43  Cl  UNL     1     -44.456  42.315  24.801  1.00  0.00    -0.082 Cl
ATOM     44  C   UNL     1     -42.515  42.197  27.661  1.00  0.00     0.137 A 
ATOM     45  C   UNL     1     -42.277  40.882  29.542  1.00  0.00     0.120 A 
ATOM     46  N   UNL     1     -41.872  41.935  28.814  1.00  0.00    -0.219 NA
ATOM     47  H   UNL     1     -41.738  40.699  30.466  1.00  0.00     0.106 H 
BRANCH  44  48
ATOM     48  N   UNL     1     -42.072  43.292  26.936  1.00  0.00    -0.383 N 
ATOM     49  H   UNL     1     -41.070  43.413  27.020  1.00  0.00     0.158 HD
ATOM     50  H   UNL     1     -42.476  43.402  26.015  1.00  0.00     0.158 HD
ENDBRANCH  44  48
ENDBRANCH  31  36
ENDBRANCH   1  26
TORSDOF 7
ENDMDL
MODEL 2
REMARK VINA RESULT:     -10.5      1.544      2.226
REMARK SMILES Cc1cc(N)c2ccc(OCc3cccc(-n4cc(Cl)c5c(N)ncnc54)c3)cc2n1
REMARK SMILES IDX 11 1 10 4 9 5 2 6 3 7 31 8 4 9 30 11 6 12 29 13 7 14 8 16
REMARK SMILES IDX 1 19 5 23 12 26 13 27 28 28 14 29 16 31 15 33 17 36 18 37
REMARK SMILES IDX 27 38 19 39 21 41 26 42 20 43 22 44 25 45 24 46 23 48
REMARK H PARENT 11 2 11 3 3 10 29 15 7 17 8 18 1 20 1 21 1 22 5 24 5 25 13 30
REMARK H PARENT 28 32 14 34 15 35 18 40 25 47 23 49 23 50
REMARK Flexibility Score: inf
ROOT
ATOM      1  C   UNL     1     -46.291  34.432  27.293  1.00  0.00     0.113 C 
ATOM      2  H   UNL     1     -45.574  34.345  26.470  1.00  0.00     0.076 H 
ATOM      3  H   UNL     1     -45.757  34.038  28.167  1.00  0.00     0.076 H 
ENDROOT
BRANCH   1   4
ATOM      4  O   UNL     1     -47.447  33.611  27.116  1.00  0.00    -0.489 OA
BRANCH   4   5
ATOM      5  C   UNL     1     -47.414  32.661  26.132  1.00  0.00     0.122 A 
ATOM      6  C   UNL     1     -48.874  28.671  23.996  1.00  0.00     0.040 A 
ATOM      7  C   UNL     1     -47.963  28.800  22.960  1.00  0.00    -0.017 A 
ATOM      8  N   UNL     1     -48.981  29.580  24.989  1.00  0.00    -0.253 NA
ATOM      9  C   UNL     1     -47.152  29.934  22.901  1.00  0.00     0.043 A 
ATOM     10  H   UNL     1     -47.895  28.031  22.198  1.00  0.00     0.066 H 
ATOM     11  C   UNL     1     -48.152  30.640  24.987  1.00  0.00     0.076 A 
ATOM     12  C   UNL     1     -47.197  30.861  23.970  1.00  0.00     0.023 A 
ATOM     13  C   UNL     1     -48.249  31.547  26.037  1.00  0.00     0.007 A 
ATOM     14  C   UNL     1     -46.356  31.993  24.069  1.00  0.00    -0.047 A 
ATOM     15  H   UNL     1     -49.016  31.354  26.780  1.00  0.00     0.069 H 
ATOM     16  C   UNL     1     -46.473  32.885  25.134  1.00  0.00    -0.019 A 
ATOM     17  H   UNL     1     -45.593  32.189  23.322  1.00  0.00     0.063 H 
ATOM     18  H   UNL     1     -45.817  33.751  25.192  1.00  0.00     0.066 H 
BRANCH   6  19
ATOM     19  C   UNL     1     -49.780  27.478  24.054  1.00  0.00    -0.022 C 
ATOM     20  H   UNL     1     -49.567  26.886  24.950  1.00  0.00     0.030 H 
ATOM     21  H   UNL     1     -50.829  27.787  24.091  1.00  0.00     0.030 H 
ATOM     22  H   UNL     1     -49.641  26.853  23.166  1.00  0.00     0.030 H 
ENDBRANCH   6  19
BRANCH   9  23
ATOM     23  N   UNL     1     -46.179  30.003  21.881  1.00  0.00    -0.398 N 
ATOM     24  H   UNL     1     -45.829  30.941  21.713  1.00  0.00     0.156 HD
ATOM     25  H   UNL     1     -45.419  29.341  21.997  1.00  0.00     0.156 HD
ENDBRANCH   9  23
ENDBRANCH   4   5
ENDBRANCH   1   4
BRANCH   1  26
ATOM     26  C   UNL     1     -46.669  35.866  27.580  1.00  0.00    -0.009 A 
ATOM     27  C   UNL     1     -48.011  36.256  27.620  1.00  0.00    -0.055 A 
ATOM     28  C   UNL     1     -45.671  36.836  27.771  1.00  0.00    -0.031 A 
ATOM     29  C   UNL     1     -48.347  37.585  27.864  1.00  0.00    -0.060 A 
ATOM     30  H   UNL     1     -48.799  35.524  27.454  1.00  0.00     0.063 H 
ATOM     31  C   UNL     1     -45.992  38.184  27.993  1.00  0.00     0.047 A 
ATOM     32  H   UNL     1     -44.641  36.498  27.749  1.00  0.00     0.065 H 
ATOM     33  C   UNL     1     -47.347  38.544  28.051  1.00  0.00    -0.038 A 
ATOM     34  H   UNL     1     -49.393  37.881  27.891  1.00  0.00     0.062 H 
ATOM     35  H   UNL     1     -47.670  39.569  28.202  1.00  0.00     0.064 H 
BRANCH  31  36
ATOM     36  N   UNL     1     -44.964  39.177  28.141  1.00  0.00    -0.300 N 
ATOM     37  C   UNL     1     -44.039  39.216  29.173  1.00  0.00     0.030 A 
ATOM     38  C   UNL     1     -44.705  40.275  27.317  1.00  0.00     0.151 A 
ATOM     39  C   UNL     1     -43.217  40.304  29.002  1.00  0.00     0.072 A 
ATOM     40  H   UNL     1     -44.010  38.459  29.943  1.00  0.00     0.084 H 
ATOM     41  C   UNL     1     -43.627  40.986  27.835  1.00  0.00     0.080 A 
ATOM     42  N   UNL     1     -45.396  40.629  26.215  1.00  0.00    -0.218 NA
ATOM     43  Cl  UNL     1     -41.935  40.747  30.029  1.00  0.00    -0.082 Cl
ATOM     44  C   UNL     1     -43.227  42.138  27.138  1.00  0.00     0.137 A 
ATOM     45  C   UNL     1     -44.941  41.749  25.643  1.00  0.00     0.120 A 
ATOM     46  N   UNL     1     -43.910  42.511  26.039  1.00  0.00    -0.219 NA
ATOM     47  H   UNL     1     -45.470  42.077  24.754  1.00  0.00     0.106 H 
BRANCH  44  48
ATOM     48  N   UNL     1     -42.168  42.946  27.518  1.00  0.00    -0.383 N 
ATOM     49  H   UNL     1     -41.813  43.485  26.737  1.00  0.00     0.158 HD
ATOM     50  H   UNL     1     -42.276  43.427  28.401  1.00  0.00     0.158 HD
ENDBRANCH  44  48
ENDBRANCH  31  36
ENDBRANCH   1  26
TORSDOF 7
ENDMDL
MODEL 3
REMARK VINA RESULT:     -10.5      2.942     10.391
REMARK SMILES Cc1cc(N)c2ccc(OCc3cccc(-n4cc(Cl)c5c(N)ncnc54)c3)cc2n1
REMARK SMILES IDX 11 1 10 4 9 5 2 6 3 7 31 8 4 9 30 11 6 12 29 13 7 14 8 16
REMARK SMILES IDX 1 19 5 23 12 26 13 27 28 28 14 29 16 31 15 33 17 36 18 37
REMARK SMILES IDX 27 38 19 39 21 41 26 42 20 43 22 44 25 45 24 46 23 48
REMARK H PARENT 11 2 11 3 3 10 29 15 7 17 8 18 1 20 1 21 1 22 5 24 5 25 13 30
REMARK H PARENT 28 32 14 34 15 35 18 40 25 47 23 49 23 50
REMARK Flexibility Score: inf
ROOT
ATOM      1  C   UNL     1     -46.698  36.944  26.671  1.00  0.00     0.113 C 
ATOM      2  H   UNL     1     -45.951  37.312  25.960  1.00  0.00     0.076 H 
ATOM      3  H   UNL     1     -47.663  37.205  26.218  1.00  0.00     0.076 H 
ENDROOT
BRANCH   1   4
ATOM      4  O   UNL     1     -46.645  37.613  27.933  1.00  0.00    -0.489 OA
BRANCH   4   5
ATOM      5  C   UNL     1     -45.593  38.456  28.168  1.00  0.00     0.122 A 
ATOM      6  C   UNL     1     -42.631  42.004  27.051  1.00  0.00     0.040 A 
ATOM      7  C   UNL     1     -41.934  41.902  28.244  1.00  0.00    -0.017 A 
ATOM      8  N   UNL     1     -43.693  41.223  26.759  1.00  0.00    -0.253 NA
ATOM      9  C   UNL     1     -42.365  40.993  29.211  1.00  0.00     0.043 A 
ATOM     10  H   UNL     1     -41.070  42.532  28.424  1.00  0.00     0.066 H 
ATOM     11  C   UNL     1     -44.074  40.289  27.650  1.00  0.00     0.076 A 
ATOM     12  C   UNL     1     -43.431  40.115  28.895  1.00  0.00     0.023 A 
ATOM     13  C   UNL     1     -45.146  39.467  27.318  1.00  0.00     0.007 A 
ATOM     14  C   UNL     1     -43.891  39.091  29.755  1.00  0.00    -0.047 A 
ATOM     15  H   UNL     1     -45.629  39.656  26.365  1.00  0.00     0.069 H 
ATOM     16  C   UNL     1     -44.966  38.280  29.396  1.00  0.00    -0.019 A 
ATOM     17  H   UNL     1     -43.410  38.907  30.711  1.00  0.00     0.063 H 
ATOM     18  H   UNL     1     -45.305  37.498  30.071  1.00  0.00     0.066 H 
BRANCH   6  19
ATOM     19  C   UNL     1     -42.204  43.001  26.016  1.00  0.00    -0.022 C 
ATOM     20  H   UNL     1     -43.065  43.585  25.676  1.00  0.00     0.030 H 
ATOM     21  H   UNL     1     -41.462  43.694  26.426  1.00  0.00     0.030 H 
ATOM     22  H   UNL     1     -41.753  42.490  25.160  1.00  0.00     0.030 H 
ENDBRANCH   6  19
BRANCH   9  23
ATOM     23  N   UNL     1     -41.592  40.852  30.383  1.00  0.00    -0.398 N 
ATOM     24  H   UNL     1     -42.126  40.957  31.240  1.00  0.00     0.156 HD
ATOM     25  H   UNL     1     -41.028  40.009  30.400  1.00  0.00     0.156 HD
ENDBRANCH   9  23
ENDBRANCH   4   5
ENDBRANCH   1   4
BRANCH   1  26
ATOM     26  C   UNL     1     -46.648  35.444  26.837  1.00  0.00    -0.009 A 
ATOM     27  C   UNL     1     -45.884  34.864  27.855  1.00  0.00    -0.055 A 
ATOM     28  C   UNL     1     -47.340  34.609  25.943  1.00  0.00    -0.031 A 
ATOM     29  C   UNL     1     -45.828  33.479  27.985  1.00  0.00    -0.060 A 
ATOM     30  H   UNL     1     -45.325  35.491  28.545  1.00  0.00     0.063 H 
ATOM     31  C   UNL     1     -47.273  33.212  26.044  1.00  0.00     0.047 A 
ATOM     32  H   UNL     1     -47.934  35.092  25.175  1.00  0.00     0.065 H 
ATOM     33  C   UNL     1     -46.518  32.655  27.089  1.00  0.00    -0.038 A 
ATOM     34  H   UNL     1     -45.230  33.035  28.777  1.00  0.00     0.062 H 
ATOM     35  H   UNL     1     -46.407  31.584  27.219  1.00  0.00     0.064 H 
BRANCH  31  36
ATOM     36  N   UNL     1     -47.946  32.366  25.097  1.00  0.00    -0.300 N 
ATOM     37  C   UNL     1     -49.311  32.127  25.073  1.00  0.00     0.030 A 
ATOM     38  C   UNL     1     -47.381  31.626  24.055  1.00  0.00     0.151 A 
ATOM     39  C   UNL     1     -49.601  31.265  24.043  1.00  0.00     0.072 A 
ATOM     40  H   UNL     1     -49.985  32.601  25.771  1.00  0.00     0.084 H 
ATOM     41  C   UNL     1     -48.392  30.936  23.391  1.00  0.00     0.080 A 
ATOM     42  N   UNL     1     -46.072  31.547  23.745  1.00  0.00    -0.218 NA
ATOM     43  Cl  UNL     1     -51.151  30.694  23.637  1.00  0.00    -0.082 Cl
ATOM     44  C   UNL     1     -48.008  30.124  22.312  1.00  0.00     0.137 A 
ATOM     45  C   UNL     1     -45.819  30.733  22.715  1.00  0.00     0.120 A 
ATOM     46  N   UNL     1     -46.704  30.028  21.993  1.00  0.00    -0.219 NA
ATOM     47  H   UNL     1     -44.777  30.634  22.432  1.00  0.00     0.106 H 
BRANCH  44  48
ATOM     48  N   UNL     1     -48.893  29.383  21.545  1.00  0.00    -0.383 N 
ATOM     49  H   UNL     1     -48.644  29.408  20.563  1.00  0.00     0.158 HD
ATOM     50  H   UNL     1     -49.169  28.490  21.931  1.00  0.00     0.158 HD
ENDBRANCH  44  48
ENDBRANCH  31  36
ENDBRANCH   1  26
TORSDOF 7
ENDMDL
MODEL 4
REMARK VINA RESULT:     -10.1      1.687      2.834
REMARK SMILES Cc1cc(N)c2ccc(OCc3cccc(-n4cc(Cl)c5c(N)ncnc54)c3)cc2n1
REMARK SMILES IDX 11 1 10 4 9 5 2 6 3 7 31 8 4 9 30 11 6 12 29 13 7 14 8 16
REMARK SMILES IDX 1 19 5 23 12 26 13 27 28 28 14 29 16 31 15 33 17 36 18 37
REMARK SMILES IDX 27 38 19 39 21 41 26 42 20 43 22 44 25 45 24 46 23 48
REMARK H PARENT 11 2 11 3 3 10 29 15 7 17 8 18 1 20 1 21 1 22 5 24 5 25 13 30
REMARK H PARENT 28 32 14 34 15 35 18 40 25 47 23 49 23 50
REMARK Flexibility Score: inf
ROOT
ATOM      1  C   UNL     1     -46.668  35.615  28.326  1.00  0.00     0.113 C 
ATOM      2  H   UNL     1     -46.215  35.333  29.282  1.00  0.00     0.076 H 
ATOM      3  H   UNL     1     -47.661  35.146  28.342  1.00  0.00     0.076 H 
ENDROOT
BRANCH   1   4
ATOM      4  O   UNL     1     -45.978  35.073  27.198  1.00  0.00    -0.489 OA
BRANCH   4   5
ATOM      5  C   UNL     1     -46.635  34.156  26.425  1.00  0.00     0.122 A 
ATOM      6  C   UNL     1     -46.866  30.672  23.196  1.00  0.00     0.040 A 
ATOM      7  C   UNL     1     -48.244  30.565  23.296  1.00  0.00    -0.017 A 
ATOM      8  N   UNL     1     -46.147  31.538  23.943  1.00  0.00    -0.253 NA
ATOM      9  C   UNL     1     -48.923  31.341  24.237  1.00  0.00     0.043 A 
ATOM     10  H   UNL     1     -48.782  29.874  22.656  1.00  0.00     0.066 H 
ATOM     11  C   UNL     1     -46.796  32.347  24.799  1.00  0.00     0.076 A 
ATOM     12  C   UNL     1     -48.197  32.306  24.976  1.00  0.00     0.023 A 
ATOM     13  C   UNL     1     -46.045  33.260  25.533  1.00  0.00     0.007 A 
ATOM     14  C   UNL     1     -48.789  33.213  25.885  1.00  0.00    -0.047 A 
ATOM     15  H   UNL     1     -44.971  33.237  25.387  1.00  0.00     0.069 H 
ATOM     16  C   UNL     1     -48.013  34.119  26.606  1.00  0.00    -0.019 A 
ATOM     17  H   UNL     1     -49.865  33.231  26.034  1.00  0.00     0.063 H 
ATOM     18  H   UNL     1     -48.488  34.808  27.300  1.00  0.00     0.066 H 
BRANCH   6  19
ATOM     19  C   UNL     1     -46.117  29.819  22.217  1.00  0.00    -0.022 C 
ATOM     20  H   UNL     1     -45.046  29.841  22.441  1.00  0.00     0.030 H 
ATOM     21  H   UNL     1     -46.455  28.779  22.268  1.00  0.00     0.030 H 
ATOM     22  H   UNL     1     -46.281  30.179  21.196  1.00  0.00     0.030 H 
ENDBRANCH   6  19
BRANCH   9  23
ATOM     23  N   UNL     1     -50.332  31.270  24.264  1.00  0.00    -0.398 N 
ATOM     24  H   UNL     1     -50.730  31.404  25.188  1.00  0.00     0.156 HD
ATOM     25  H   UNL     1     -50.783  31.866  23.578  1.00  0.00     0.156 HD
ENDBRANCH   9  23
ENDBRANCH   4   5
ENDBRANCH   1   4
BRANCH   1  26
ATOM     26  C   UNL     1     -46.856  37.108  28.195  1.00  0.00    -0.009 A 
ATOM     27  C   UNL     1     -48.138  37.663  28.136  1.00  0.00    -0.055 A 
ATOM     28  C   UNL     1     -45.740  37.955  28.089  1.00  0.00    -0.031 A 
ATOM     29  C   UNL     1     -48.299  39.039  27.993  1.00  0.00    -0.060 A 
ATOM     30  H   UNL     1     -49.016  37.023  28.195  1.00  0.00     0.063 H 
ATOM     31  C   UNL     1     -45.885  39.340  27.919  1.00  0.00     0.047 A 
ATOM     32  H   UNL     1     -44.761  37.494  28.154  1.00  0.00     0.065 H 
ATOM     33  C   UNL     1     -47.182  39.875  27.887  1.00  0.00    -0.038 A 
ATOM     34  H   UNL     1     -49.299  39.463  27.946  1.00  0.00     0.062 H 
ATOM     35  H   UNL     1     -47.371  40.933  27.741  1.00  0.00     0.064 H 
BRANCH  31  36
ATOM     36  N   UNL     1     -44.738  40.193  27.766  1.00  0.00    -0.300 N 
ATOM     37  C   UNL     1     -43.655  40.232  28.630  1.00  0.00     0.030 A 
ATOM     38  C   UNL     1     -44.497  41.134  26.762  1.00  0.00     0.151 A 
ATOM     39  C   UNL     1     -42.753  41.167  28.181  1.00  0.00     0.072 A 
ATOM     40  H   UNL     1     -43.586  39.580  29.488  1.00  0.00     0.084 H 
ATOM     41  C   UNL     1     -43.271  41.749  27.003  1.00  0.00     0.080 A 
ATOM     42  N   UNL     1     -45.316  41.441  25.737  1.00  0.00    -0.218 NA
ATOM     43  Cl  UNL     1     -41.274  41.553  28.929  1.00  0.00    -0.082 Cl
ATOM     44  C   UNL     1     -42.864  42.739  26.095  1.00  0.00     0.137 A 
ATOM     45  C   UNL     1     -44.838  42.408  24.947  1.00  0.00     0.120 A 
ATOM     46  N   UNL     1     -43.673  43.063  25.069  1.00  0.00    -0.219 NA
ATOM     47  H   UNL     1     -45.466  42.693  24.110  1.00  0.00     0.106 H 
BRANCH  44  48
ATOM     48  N   UNL     1     -41.669  43.435  26.190  1.00  0.00    -0.383 N 
ATOM     49  H   UNL     1     -40.872  42.823  26.060  1.00  0.00     0.158 HD
ATOM     50  H   UNL     1     -41.644  44.332  25.725  1.00  0.00     0.158 HD
ENDBRANCH  44  48
ENDBRANCH  31  36
ENDBRANCH   1  26
TORSDOF 7
ENDMDL
MODEL 5
REMARK VINA RESULT:     -10.0      3.184     10.782
REMARK SMILES Cc1cc(N)c2ccc(OCc3cccc(-n4cc(Cl)c5c(N)ncnc54)c3)cc2n1
REMARK SMILES IDX 11 1 10 4 9 5 2 6 3 7 31 8 4 9 30 11 6 12 29 13 7 14 8 16
REMARK SMILES IDX 1 19 5 23 12 26 13 27 28 28 14 29 16 31 15 33 17 36 18 37
REMARK SMILES IDX 27 38 19 39 21 41 26 42 20 43 22 44 25 45 24 46 23 48
REMARK H PARENT 11 2 11 3 3 10 29 15 7 17 8 18 1 20 1 21 1 22 5 24 5 25 13 30
REMARK H PARENT 28 32 14 34 15 35 18 40 25 47 23 49 23 50
REMARK Flexibility Score: inf
ROOT
ATOM      1  C   UNL     1     -48.553  35.153  27.051  1.00  0.00     0.113 C 
ATOM      2  H   UNL     1     -48.648  36.097  26.504  1.00  0.00     0.076 H 
ATOM      3  H   UNL     1     -49.581  34.898  27.343  1.00  0.00     0.076 H 
ENDROOT
BRANCH   1   4
ATOM      4  O   UNL     1     -47.806  35.283  28.263  1.00  0.00    -0.489 OA
BRANCH   4   5
ATOM      5  C   UNL     1     -46.916  36.317  28.359  1.00  0.00     0.122 A 
ATOM      6  C   UNL     1     -44.779  40.271  26.805  1.00  0.00     0.040 A 
ATOM      7  C   UNL     1     -43.979  40.375  27.932  1.00  0.00    -0.017 A 
ATOM      8  N   UNL     1     -45.695  39.291  26.650  1.00  0.00    -0.253 NA
ATOM      9  C   UNL     1     -44.150  39.466  28.977  1.00  0.00     0.043 A 
ATOM     10  H   UNL     1     -43.238  41.164  28.000  1.00  0.00     0.066 H 
ATOM     11  C   UNL     1     -45.818  38.362  27.616  1.00  0.00     0.076 A 
ATOM     12  C   UNL     1     -45.053  38.389  28.803  1.00  0.00     0.023 A 
ATOM     13  C   UNL     1     -46.739  37.338  27.424  1.00  0.00     0.007 A 
ATOM     14  C   UNL     1     -45.239  37.355  29.749  1.00  0.00    -0.047 A 
ATOM     15  H   UNL     1     -47.326  37.373  26.512  1.00  0.00     0.069 H 
ATOM     16  C   UNL     1     -46.168  36.339  29.530  1.00  0.00    -0.019 A 
ATOM     17  H   UNL     1     -44.655  37.324  30.664  1.00  0.00     0.063 H 
ATOM     18  H   UNL     1     -46.297  35.553  30.270  1.00  0.00     0.066 H 
BRANCH   6  19
ATOM     19  C   UNL     1     -44.634  41.262  25.689  1.00  0.00    -0.022 C 
ATOM     20  H   UNL     1     -45.423  42.018  25.752  1.00  0.00     0.030 H 
ATOM     21  H   UNL     1     -43.667  41.772  25.744  1.00  0.00     0.030 H 
ATOM     22  H   UNL     1     -44.695  40.754  24.721  1.00  0.00     0.030 H 
ENDBRANCH   6  19
BRANCH   9  23
ATOM     23  N   UNL     1     -43.270  39.545  30.077  1.00  0.00    -0.398 N 
ATOM     24  H   UNL     1     -43.074  40.495  30.377  1.00  0.00     0.156 HD
ATOM     25  H   UNL     1     -43.543  38.960  30.860  1.00  0.00     0.156 HD
ENDBRANCH   9  23
ENDBRANCH   4   5
ENDBRANCH   1   4
BRANCH   1  26
ATOM     26  C   UNL     1     -48.019  34.036  26.187  1.00  0.00    -0.009 A 
ATOM     27  C   UNL     1     -46.674  34.012  25.804  1.00  0.00    -0.055 A 
ATOM     28  C   UNL     1     -48.879  33.026  25.724  1.00  0.00    -0.031 A 
ATOM     29  C   UNL     1     -46.197  32.989  24.989  1.00  0.00    -0.060 A 
ATOM     30  H   UNL     1     -45.996  34.796  26.134  1.00  0.00     0.063 H 
ATOM     31  C   UNL     1     -48.420  32.002  24.882  1.00  0.00     0.047 A 
ATOM     32  H   UNL     1     -49.911  33.066  26.053  1.00  0.00     0.065 H 
ATOM     33  C   UNL     1     -47.061  31.988  24.531  1.00  0.00    -0.038 A 
ATOM     34  H   UNL     1     -45.152  32.978  24.692  1.00  0.00     0.062 H 
ATOM     35  H   UNL     1     -46.639  31.238  23.870  1.00  0.00     0.064 H 
BRANCH  31  36
ATOM     36  N   UNL     1     -49.317  31.000  24.376  1.00  0.00    -0.300 N 
ATOM     37  C   UNL     1     -50.271  31.209  23.394  1.00  0.00     0.030 A 
ATOM     38  C   UNL     1     -49.418  29.662  24.769  1.00  0.00     0.151 A 
ATOM     39  C   UNL     1     -50.952  30.037  23.168  1.00  0.00     0.072 A 
ATOM     40  H   UNL     1     -50.387  32.165  22.906  1.00  0.00     0.084 H 
ATOM     41  C   UNL     1     -50.428  29.050  24.031  1.00  0.00     0.080 A 
ATOM     42  N   UNL     1     -48.694  29.051  25.727  1.00  0.00    -0.218 NA
ATOM     43  Cl  UNL     1     -52.213  29.825  22.045  1.00  0.00    -0.082 Cl
ATOM     44  C   UNL     1     -50.682  27.695  24.300  1.00  0.00     0.137 A 
ATOM     45  C   UNL     1     -49.032  27.771  25.911  1.00  0.00     0.120 A 
ATOM     46  N   UNL     1     -49.973  27.070  25.258  1.00  0.00    -0.219 NA
ATOM     47  H   UNL     1     -48.479  27.237  26.677  1.00  0.00     0.106 H 
BRANCH  44  48
ATOM     48  N   UNL     1     -51.645  26.942  23.646  1.00  0.00    -0.383 N 
ATOM     49  H   UNL     1     -52.394  26.673  24.272  1.00  0.00     0.158 HD
ATOM     50  H   UNL     1     -51.906  27.268  22.724  1.00  0.00     0.158 HD
ENDBRANCH  44  48
ENDBRANCH  31  36
ENDBRANCH   1  26
TORSDOF 7
ENDMDL
MODEL 6
REMARK VINA RESULT:      -9.9      1.812      2.981
REMARK SMILES Cc1cc(N)c2ccc(OCc3cccc(-n4cc(Cl)c5c(N)ncnc54)c3)cc2n1
REMARK SMILES IDX 11 1 10 4 9 5 2 6 3 7 31 8 4 9 30 11 6 12 29 13 7 14 8 16
REMARK SMILES IDX 1 19 5 23 12 26 13 27 28 28 14 29 16 31 15 33 17 36 18 37
REMARK SMILES IDX 27 38 19 39 21 41 26 42 20 43 22 44 25 45 24 46 23 48
REMARK H PARENT 11 2 11 3 3 10 29 15 7 17 8 18 1 20 1 21 1 22 5 24 5 25 13 30
REMARK H PARENT 28 32 14 34 15 35 18 40 25 47 23 49 23 50
REMARK Flexibility Score: inf
ROOT
ATOM      1  C   UNL     1     -46.832  33.727  25.756  1.00  0.00     0.113 C 
ATOM      2  H   UNL     1     -46.875  33.814  24.665  1.00  0.00     0.076 H 
ATOM      3  H   UNL     1     -45.766  33.591  25.980  1.00  0.00     0.076 H 
ENDROOT
BRANCH   1   4
ATOM      4  O   UNL     1     -47.505  32.567  26.251  1.00  0.00    -0.489 OA
BRANCH   4   5
ATOM      5  C   UNL     1     -47.971  31.659  25.340  1.00  0.00     0.122 A 
ATOM      6  C   UNL     1     -48.920  30.124  20.940  1.00  0.00     0.040 A 
ATOM      7  C   UNL     1     -49.428  28.915  21.388  1.00  0.00    -0.017 A 
ATOM      8  N   UNL     1     -48.422  31.059  21.778  1.00  0.00    -0.253 NA
ATOM      9  C   UNL     1     -49.385  28.618  22.751  1.00  0.00     0.043 A 
ATOM     10  H   UNL     1     -49.842  28.205  20.680  1.00  0.00     0.066 H 
ATOM     11  C   UNL     1     -48.444  30.819  23.102  1.00  0.00     0.076 A 
ATOM     12  C   UNL     1     -48.935  29.615  23.651  1.00  0.00     0.023 A 
ATOM     13  C   UNL     1     -47.962  31.809  23.953  1.00  0.00     0.007 A 
ATOM     14  C   UNL     1     -48.937  29.466  25.057  1.00  0.00    -0.047 A 
ATOM     15  H   UNL     1     -47.569  32.705  23.487  1.00  0.00     0.069 H 
ATOM     16  C   UNL     1     -48.450  30.475  25.888  1.00  0.00    -0.019 A 
ATOM     17  H   UNL     1     -49.326  28.565  25.523  1.00  0.00     0.063 H 
ATOM     18  H   UNL     1     -48.460  30.340  26.967  1.00  0.00     0.066 H 
BRANCH   6  19
ATOM     19  C   UNL     1     -48.924  30.443  19.475  1.00  0.00    -0.022 C 
ATOM     20  H   UNL     1     -47.899  30.467  19.092  1.00  0.00     0.030 H 
ATOM     21  H   UNL     1     -49.480  29.686  18.914  1.00  0.00     0.030 H 
ATOM     22  H   UNL     1     -49.399  31.413  19.300  1.00  0.00     0.030 H 
ENDBRANCH   6  19
BRANCH   9  23
ATOM     23  N   UNL     1     -49.980  27.416  23.189  1.00  0.00    -0.398 N 
ATOM     24  H   UNL     1     -49.998  26.688  22.481  1.00  0.00     0.156 HD
ATOM     25  H   UNL     1     -49.603  27.071  24.065  1.00  0.00     0.156 HD
ENDBRANCH   9  23
ENDBRANCH   4   5
ENDBRANCH   1   4
BRANCH   1  26
ATOM     26  C   UNL     1     -47.304  34.980  26.454  1.00  0.00    -0.009 A 
ATOM     27  C   UNL     1     -48.617  35.085  26.923  1.00  0.00    -0.055 A 
ATOM     28  C   UNL     1     -46.436  36.076  26.604  1.00  0.00    -0.031 A 
ATOM     29  C   UNL     1     -49.047  36.254  27.545  1.00  0.00    -0.060 A 
ATOM     30  H   UNL     1     -49.311  34.256  26.798  1.00  0.00     0.063 H 
ATOM     31  C   UNL     1     -46.861  37.270  27.205  1.00  0.00     0.047 A 
ATOM     32  H   UNL     1     -45.421  35.956  26.242  1.00  0.00     0.065 H 
ATOM     33  C   UNL     1     -48.177  37.340  27.689  1.00  0.00    -0.038 A 
ATOM     34  H   UNL     1     -50.070  36.328  27.906  1.00  0.00     0.062 H 
ATOM     35  H   UNL     1     -48.580  38.236  28.150  1.00  0.00     0.064 H 
BRANCH  31  36
ATOM     36  N   UNL     1     -45.981  38.400  27.313  1.00  0.00    -0.300 N 
ATOM     37  C   UNL     1     -45.864  39.410  26.370  1.00  0.00     0.030 A 
ATOM     38  C   UNL     1     -45.083  38.695  28.343  1.00  0.00     0.151 A 
ATOM     39  C   UNL     1     -44.924  40.318  26.795  1.00  0.00     0.072 A 
ATOM     40  H   UNL     1     -46.469  39.428  25.476  1.00  0.00     0.084 H 
ATOM     41  C   UNL     1     -44.418  39.879  28.039  1.00  0.00     0.080 A 
ATOM     42  N   UNL     1     -44.855  37.951  29.443  1.00  0.00    -0.218 NA
ATOM     43  Cl  UNL     1     -44.453  41.721  25.956  1.00  0.00    -0.082 Cl
ATOM     44  C   UNL     1     -43.462  40.330  28.963  1.00  0.00     0.137 A 
ATOM     45  C   UNL     1     -43.914  38.463  30.243  1.00  0.00     0.120 A 
ATOM     46  N   UNL     1     -43.216  39.596  30.065  1.00  0.00    -0.219 NA
ATOM     47  H   UNL     1     -43.692  37.896  31.141  1.00  0.00     0.106 H 
BRANCH  44  48
ATOM     48  N   UNL     1     -42.724  41.493  28.811  1.00  0.00    -0.383 N 
ATOM     49  H   UNL     1     -42.308  41.785  29.687  1.00  0.00     0.158 HD
ATOM     50  H   UNL     1     -42.144  41.541  27.984  1.00  0.00     0.158 HD
ENDBRANCH  44  48
ENDBRANCH  31  36
ENDBRANCH   1  26
TORSDOF 7
ENDMDL
MODEL 7
REMARK VINA RESULT:      -9.9      1.816      2.574
REMARK SMILES Cc1cc(N)c2ccc(OCc3cccc(-n4cc(Cl)c5c(N)ncnc54)c3)cc2n1
REMARK SMILES IDX 11 1 10 4 9 5 2 6 3 7 31 8 4 9 30 11 6 12 29 13 7 14 8 16
REMARK SMILES IDX 1 19 5 23 12 26 13 27 28 28 14 29 16 31 15 33 17 36 18 37
REMARK SMILES IDX 27 38 19 39 21 41 26 42 20 43 22 44 25 45 24 46 23 48
REMARK H PARENT 11 2 11 3 3 10 29 15 7 17 8 18 1 20 1 21 1 22 5 24 5 25 13 30
REMARK H PARENT 28 32 14 34 15 35 18 40 25 47 23 49 23 50
REMARK Flexibility Score: inf
ROOT
ATOM      1  C   UNL     1     -48.196  35.796  26.962  1.00  0.00     0.113 C 
ATOM      2  H   UNL     1     -49.187  36.198  27.197  1.00  0.00     0.076 H 
ATOM      3  H   UNL     1     -48.156  35.785  25.865  1.00  0.00     0.076 H 
ENDROOT
BRANCH   1   4
ATOM      4  O   UNL     1     -48.025  34.444  27.391  1.00  0.00    -0.489 OA
BRANCH   4   5
ATOM      5  C   UNL     1     -47.758  33.498  26.439  1.00  0.00     0.122 A 
ATOM      6  C   UNL     1     -48.883  29.833  23.626  1.00  0.00     0.040 A 
ATOM      7  C   UNL     1     -47.624  29.787  23.051  1.00  0.00    -0.017 A 
ATOM      8  N   UNL     1     -49.227  30.752  24.554  1.00  0.00    -0.253 NA
ATOM      9  C   UNL     1     -46.678  30.752  23.400  1.00  0.00     0.043 A 
ATOM     10  H   UNL     1     -47.385  29.014  22.328  1.00  0.00     0.066 H 
ATOM     11  C   UNL     1     -48.301  31.642  24.957  1.00  0.00     0.076 A 
ATOM     12  C   UNL     1     -46.994  31.678  24.424  1.00  0.00     0.023 A 
ATOM     13  C   UNL     1     -48.659  32.557  25.942  1.00  0.00     0.007 A 
ATOM     14  C   UNL     1     -46.086  32.637  24.929  1.00  0.00    -0.047 A 
ATOM     15  H   UNL     1     -49.682  32.512  26.302  1.00  0.00     0.069 H 
ATOM     16  C   UNL     1     -46.471  33.541  25.917  1.00  0.00    -0.019 A 
ATOM     17  H   UNL     1     -45.064  32.685  24.563  1.00  0.00     0.063 H 
ATOM     18  H   UNL     1     -45.757  34.272  26.292  1.00  0.00     0.066 H 
BRANCH   6  19
ATOM     19  C   UNL     1     -49.923  28.827  23.235  1.00  0.00    -0.022 C 
ATOM     20  H   UNL     1     -50.609  28.650  24.069  1.00  0.00     0.030 H 
ATOM     21  H   UNL     1     -50.509  29.184  22.381  1.00  0.00     0.030 H 
ATOM     22  H   UNL     1     -49.449  27.883  22.949  1.00  0.00     0.030 H 
ENDBRANCH   6  19
BRANCH   9  23
ATOM     23  N   UNL     1     -45.379  30.636  22.860  1.00  0.00    -0.398 N 
ATOM     24  H   UNL     1     -45.283  29.884  22.184  1.00  0.00     0.156 HD
ATOM     25  H   UNL     1     -45.009  31.508  22.497  1.00  0.00     0.156 HD
ENDBRANCH   9  23
ENDBRANCH   4   5
ENDBRANCH   1   4
BRANCH   1  26
ATOM     26  C   UNL     1     -47.079  36.682  27.463  1.00  0.00    -0.009 A 
ATOM     27  C   UNL     1     -46.293  36.291  28.551  1.00  0.00    -0.055 A 
ATOM     28  C   UNL     1     -46.844  37.931  26.864  1.00  0.00    -0.031 A 
ATOM     29  C   UNL     1     -45.281  37.125  29.019  1.00  0.00    -0.060 A 
ATOM     30  H   UNL     1     -46.473  35.337  29.043  1.00  0.00     0.063 H 
ATOM     31  C   UNL     1     -45.845  38.794  27.339  1.00  0.00     0.047 A 
ATOM     32  H   UNL     1     -47.461  38.196  26.013  1.00  0.00     0.065 H 
ATOM     33  C   UNL     1     -45.055  38.368  28.418  1.00  0.00    -0.038 A 
ATOM     34  H   UNL     1     -44.676  36.816  29.867  1.00  0.00     0.062 H 
ATOM     35  H   UNL     1     -44.276  38.989  28.849  1.00  0.00     0.064 H 
BRANCH  31  36
ATOM     36  N   UNL     1     -45.642  40.089  26.750  1.00  0.00    -0.300 N 
ATOM     37  C   UNL     1     -44.422  40.584  26.317  1.00  0.00     0.030 A 
ATOM     38  C   UNL     1     -46.595  41.085  26.517  1.00  0.00     0.151 A 
ATOM     39  C   UNL     1     -44.600  41.852  25.820  1.00  0.00     0.072 A 
ATOM     40  H   UNL     1     -43.518  39.996  26.369  1.00  0.00     0.084 H 
ATOM     41  C   UNL     1     -45.967  42.186  25.942  1.00  0.00     0.080 A 
ATOM     42  N   UNL     1     -47.906  41.026  26.822  1.00  0.00    -0.218 NA
ATOM     43  Cl  UNL     1     -43.375  42.844  25.178  1.00  0.00    -0.082 Cl
ATOM     44  C   UNL     1     -46.773  43.297  25.644  1.00  0.00     0.137 A 
ATOM     45  C   UNL     1     -48.572  42.144  26.513  1.00  0.00     0.120 A 
ATOM     46  N   UNL     1     -48.083  43.259  25.949  1.00  0.00    -0.219 NA
ATOM     47  H   UNL     1     -49.632  42.146  26.745  1.00  0.00     0.106 H 
BRANCH  44  48
ATOM     48  N   UNL     1     -46.301  44.463  25.062  1.00  0.00    -0.383 N 
ATOM     49  H   UNL     1     -46.951  45.229  25.188  1.00  0.00     0.158 HD
ATOM     50  H   UNL     1     -45.320  44.660  25.204  1.00  0.00     0.158 HD
ENDBRANCH  44  48
ENDBRANCH  31  36
ENDBRANCH   1  26
TORSDOF 7
ENDMDL
