MODEL 1
REMARK VINA RESULT:     -11.3      0.000      0.000
REMARK SMILES C[C@@H](NCc1cc2ccc(CNC(=O)c3cc(=O)n4ccccc4n3)cc2[nH]1)[C@]12C[C@](F)(C1)C2
REMARK SMILES IDX 5 1 6 2 7 3 8 4 9 5 10 6 26 7 27 8 28 9 4 15 3 18 2 20 1 22
REMARK SMILES IDX 29 26 33 27 30 28 34 29 31 30 32 37 11 38 12 41 13 42 14 44
REMARK SMILES IDX 15 45 16 46 25 47 17 48 24 50 18 51 19 52 23 53 20 54 22 55
REMARK SMILES IDX 21 57
REMARK H PARENT 6 10 8 11 9 12 26 13 28 14 4 16 4 17 3 19 2 21 1 23 1 24 1 25
REMARK H PARENT 33 31 33 32 30 33 30 34 34 35 34 36 11 39 11 40 12 43 16 49
REMARK H PARENT 23 56 20 58 22 59 21 60
REMARK Flexibility Score: inf
ROOT
ATOM      1  C   UNL     1     -47.923  31.035  24.586  1.00  0.00     0.030 A 
ATOM      2  C   UNL     1     -46.785  31.805  24.461  1.00  0.00    -0.032 A 
ATOM      3  C   UNL     1     -46.986  33.010  25.190  1.00  0.00    -0.000 A 
ATOM      4  C   UNL     1     -46.203  34.155  25.423  1.00  0.00    -0.052 A 
ATOM      5  C   UNL     1     -46.721  35.193  26.209  1.00  0.00    -0.057 A 
ATOM      6  C   UNL     1     -48.001  35.107  26.772  1.00  0.00    -0.027 A 
ATOM      7  C   UNL     1     -48.796  33.972  26.537  1.00  0.00    -0.033 A 
ATOM      8  C   UNL     1     -48.260  32.944  25.751  1.00  0.00     0.046 A 
ATOM      9  N   UNL     1     -48.804  31.739  25.373  1.00  0.00    -0.357 N 
ATOM     10  H   UNL     1     -45.896  31.536  23.905  1.00  0.00     0.065 H 
ATOM     11  H   UNL     1     -45.208  34.240  24.996  1.00  0.00     0.063 H 
ATOM     12  H   UNL     1     -46.112  36.081  26.377  1.00  0.00     0.063 H 
ATOM     13  H   UNL     1     -49.796  33.889  26.954  1.00  0.00     0.065 H 
ATOM     14  H   UNL     1     -49.734  31.416  25.604  1.00  0.00     0.166 HD
ENDROOT
BRANCH   1  15
ATOM     15  C   UNL     1     -48.266  29.690  24.047  1.00  0.00     0.036 C 
ATOM     16  H   UNL     1     -48.822  29.804  23.111  1.00  0.00     0.049 H 
ATOM     17  H   UNL     1     -47.335  29.153  23.827  1.00  0.00     0.049 H 
BRANCH  15  18
ATOM     18  N   UNL     1     -49.052  28.967  25.043  1.00  0.00    -0.308 NA
ATOM     19  H   UNL     1     -49.933  29.468  25.174  1.00  0.00     0.123 HD
BRANCH  18  20
ATOM     20  C   UNL     1     -49.319  27.579  24.660  1.00  0.00     0.010 C 
ATOM     21  H   UNL     1     -48.996  27.410  23.626  1.00  0.00     0.047 H 
BRANCH  20  22
ATOM     22  C   UNL     1     -50.801  27.224  24.781  1.00  0.00    -0.049 C 
ATOM     23  H   UNL     1     -50.944  26.200  25.140  1.00  0.00     0.025 H 
ATOM     24  H   UNL     1     -51.302  27.892  25.491  1.00  0.00     0.025 H 
ATOM     25  H   UNL     1     -51.320  27.323  23.821  1.00  0.00     0.025 H 
ENDBRANCH  20  22
BRANCH  20  26
ATOM     26  C   UNL     1     -48.522  26.690  25.555  1.00  0.00    -0.006 C 
ATOM     27  C   UNL     1     -47.965  26.923  27.024  1.00  0.00    -0.011 C 
ATOM     28  C   UNL     1     -47.086  26.066  25.283  1.00  0.00    -0.011 C 
ATOM     29  C   UNL     1     -48.871  25.236  26.090  1.00  0.00    -0.011 C 
ATOM     30  C   UNL     1     -47.461  25.501  26.674  1.00  0.00     0.112 C 
ATOM     31  H   UNL     1     -47.208  27.705  27.148  1.00  0.00     0.031 H 
ATOM     32  H   UNL     1     -48.706  27.006  27.826  1.00  0.00     0.031 H 
ATOM     33  H   UNL     1     -46.243  26.763  25.240  1.00  0.00     0.031 H 
ATOM     34  H   UNL     1     -47.007  25.350  24.458  1.00  0.00     0.031 H 
ATOM     35  H   UNL     1     -48.960  24.442  25.341  1.00  0.00     0.031 H 
ATOM     36  H   UNL     1     -49.697  25.155  26.803  1.00  0.00     0.031 H 
ATOM     37  F   UNL     1     -46.742  24.693  27.436  1.00  0.00    -0.244 F 
ENDBRANCH  20  26
ENDBRANCH  18  20
ENDBRANCH  15  18
ENDBRANCH   1  15
BRANCH   6  38
ATOM     38  C   UNL     1     -48.538  36.253  27.593  1.00  0.00     0.043 C 
ATOM     39  H   UNL     1     -48.805  35.907  28.597  1.00  0.00     0.054 H 
ATOM     40  H   UNL     1     -49.448  36.656  27.136  1.00  0.00     0.054 H 
BRANCH  38  41
ATOM     41  N   UNL     1     -47.580  37.326  27.661  1.00  0.00    -0.347 N 
ATOM     42  C   UNL     1     -46.609  37.396  28.630  1.00  0.00     0.270 C 
ATOM     43  H   UNL     1     -47.446  37.926  26.853  1.00  0.00     0.164 HD
ATOM     44  O   UNL     1     -46.545  36.655  29.603  1.00  0.00    -0.268 OA
BRANCH  42  45
ATOM     45  C   UNL     1     -45.606  38.491  28.358  1.00  0.00     0.136 A 
ATOM     46  C   UNL     1     -45.762  39.171  27.220  1.00  0.00     0.035 A 
ATOM     47  N   UNL     1     -44.613  38.725  29.283  1.00  0.00    -0.225 NA
ATOM     48  C   UNL     1     -44.813  40.250  26.918  1.00  0.00     0.258 A 
ATOM     49  H   UNL     1     -46.548  38.979  26.502  1.00  0.00     0.071 H 
ATOM     50  C   UNL     1     -43.778  39.682  29.013  1.00  0.00     0.140 A 
ATOM     51  O   UNL     1     -44.948  40.879  25.870  1.00  0.00    -0.269 OA
ATOM     52  N   UNL     1     -43.825  40.467  27.867  1.00  0.00    -0.268 N 
ATOM     53  C   UNL     1     -42.689  39.974  29.988  1.00  0.00    -0.019 A 
ATOM     54  C   UNL     1     -42.889  41.474  27.652  1.00  0.00     0.014 A 
ATOM     55  C   UNL     1     -41.812  40.953  29.737  1.00  0.00    -0.057 A 
ATOM     56  H   UNL     1     -42.645  39.369  30.885  1.00  0.00     0.066 H 
ATOM     57  C   UNL     1     -41.914  41.731  28.531  1.00  0.00    -0.045 A 
ATOM     58  H   UNL     1     -42.986  42.049  26.734  1.00  0.00     0.082 H 
ATOM     59  H   UNL     1     -41.013  41.182  30.434  1.00  0.00     0.062 H 
ATOM     60  H   UNL     1     -41.189  42.519  28.352  1.00  0.00     0.064 H 
ENDBRANCH  42  45
ENDBRANCH  38  41
ENDBRANCH   6  38
TORSDOF 8
ENDMDL
MODEL 2
REMARK VINA RESULT:     -10.7      2.175      3.458
REMARK SMILES C[C@@H](NCc1cc2ccc(CNC(=O)c3cc(=O)n4ccccc4n3)cc2[nH]1)[C@]12C[C@](F)(C1)C2
REMARK SMILES IDX 5 1 6 2 7 3 8 4 9 5 10 6 26 7 27 8 28 9 4 15 3 18 2 20 1 22
REMARK SMILES IDX 29 26 33 27 30 28 34 29 31 30 32 37 11 38 12 41 13 42 14 44
REMARK SMILES IDX 15 45 16 46 25 47 17 48 24 50 18 51 19 52 23 53 20 54 22 55
REMARK SMILES IDX 21 57
REMARK H PARENT 6 10 8 11 9 12 26 13 28 14 4 16 4 17 3 19 2 21 1 23 1 24 1 25
REMARK H PARENT 33 31 33 32 30 33 30 34 34 35 34 36 11 39 11 40 12 43 16 49
REMARK H PARENT 23 56 20 58 22 59 21 60
REMARK Flexibility Score: inf
ROOT
ATOM      1  C   UNL     1     -46.716  32.699  25.091  1.00  0.00     0.030 A 
ATOM      2  C   UNL     1     -47.897  33.306  25.467  1.00  0.00    -0.032 A 
ATOM      3  C   UNL     1     -47.585  34.345  26.389  1.00  0.00    -0.000 A 
ATOM      4  C   UNL     1     -48.352  35.283  27.102  1.00  0.00    -0.052 A 
ATOM      5  C   UNL     1     -47.710  36.190  27.953  1.00  0.00    -0.057 A 
ATOM      6  C   UNL     1     -46.316  36.185  28.101  1.00  0.00    -0.027 A 
ATOM      7  C   UNL     1     -45.540  35.245  27.400  1.00  0.00    -0.033 A 
ATOM      8  C   UNL     1     -46.201  34.347  26.552  1.00  0.00     0.046 A 
ATOM      9  N   UNL     1     -45.700  33.345  25.755  1.00  0.00    -0.357 N 
ATOM     10  H   UNL     1     -48.886  33.035  25.121  1.00  0.00     0.065 H 
ATOM     11  H   UNL     1     -49.434  35.303  27.000  1.00  0.00     0.063 H 
ATOM     12  H   UNL     1     -48.311  36.908  28.510  1.00  0.00     0.063 H 
ATOM     13  H   UNL     1     -44.460  35.215  27.508  1.00  0.00     0.065 H 
ATOM     14  H   UNL     1     -44.725  33.085  25.683  1.00  0.00     0.166 HD
ENDROOT
BRANCH   1  15
ATOM     15  C   UNL     1     -46.441  31.575  24.155  1.00  0.00     0.036 C 
ATOM     16  H   UNL     1     -45.572  31.821  23.536  1.00  0.00     0.049 H 
ATOM     17  H   UNL     1     -46.198  30.681  24.743  1.00  0.00     0.049 H 
BRANCH  15  18
ATOM     18  N   UNL     1     -47.625  31.343  23.333  1.00  0.00    -0.308 NA
ATOM     19  H   UNL     1     -47.768  32.166  22.745  1.00  0.00     0.123 HD
BRANCH  18  20
ATOM     20  C   UNL     1     -47.511  30.146  22.495  1.00  0.00     0.010 C 
ATOM     21  H   UNL     1     -46.465  29.994  22.203  1.00  0.00     0.047 H 
BRANCH  20  22
ATOM     22  C   UNL     1     -48.371  30.243  21.234  1.00  0.00    -0.049 C 
ATOM     23  H   UNL     1     -49.164  29.489  21.226  1.00  0.00     0.025 H 
ATOM     24  H   UNL     1     -48.853  31.225  21.169  1.00  0.00     0.025 H 
ATOM     25  H   UNL     1     -47.770  30.115  20.326  1.00  0.00     0.025 H 
ENDBRANCH  20  22
BRANCH  20  26
ATOM     26  C   UNL     1     -47.951  28.971  23.304  1.00  0.00    -0.006 C 
ATOM     27  C   UNL     1     -48.692  28.894  24.707  1.00  0.00    -0.011 C 
ATOM     28  C   UNL     1     -47.050  27.804  23.899  1.00  0.00    -0.011 C 
ATOM     29  C   UNL     1     -48.929  27.787  22.901  1.00  0.00    -0.011 C 
ATOM     30  C   UNL     1     -48.481  27.405  24.334  1.00  0.00     0.112 C 
ATOM     31  H   UNL     1     -48.147  29.273  25.577  1.00  0.00     0.031 H 
ATOM     32  H   UNL     1     -49.725  29.257  24.741  1.00  0.00     0.031 H 
ATOM     33  H   UNL     1     -46.346  28.076  24.692  1.00  0.00     0.031 H 
ATOM     34  H   UNL     1     -46.548  27.152  23.177  1.00  0.00     0.031 H 
ATOM     35  H   UNL     1     -48.604  27.134  22.085  1.00  0.00     0.031 H 
ATOM     36  H   UNL     1     -49.985  28.042  22.762  1.00  0.00     0.031 H 
ATOM     37  F   UNL     1     -48.843  26.342  25.033  1.00  0.00    -0.244 F 
ENDBRANCH  20  26
ENDBRANCH  18  20
ENDBRANCH  15  18
ENDBRANCH   1  15
BRANCH   6  38
ATOM     38  C   UNL     1     -45.657  37.160  29.045  1.00  0.00     0.043 C 
ATOM     39  H   UNL     1     -44.954  36.636  29.701  1.00  0.00     0.054 H 
ATOM     40  H   UNL     1     -46.407  37.635  29.687  1.00  0.00     0.054 H 
BRANCH  38  41
ATOM     41  N   UNL     1     -44.991  38.207  28.315  1.00  0.00    -0.347 N 
ATOM     42  C   UNL     1     -45.569  39.430  28.076  1.00  0.00     0.270 C 
ATOM     43  H   UNL     1     -43.989  38.153  28.170  1.00  0.00     0.164 HD
ATOM     44  O   UNL     1     -46.737  39.707  28.321  1.00  0.00    -0.268 OA
BRANCH  42  45
ATOM     45  C   UNL     1     -44.593  40.418  27.482  1.00  0.00     0.136 A 
ATOM     46  C   UNL     1     -43.479  40.646  28.181  1.00  0.00     0.035 A 
ATOM     47  N   UNL     1     -44.901  41.011  26.278  1.00  0.00    -0.225 NA
ATOM     48  C   UNL     1     -42.499  41.595  27.638  1.00  0.00     0.258 A 
ATOM     49  H   UNL     1     -43.248  40.172  29.126  1.00  0.00     0.071 H 
ATOM     50  C   UNL     1     -44.029  41.847  25.800  1.00  0.00     0.140 A 
ATOM     51  O   UNL     1     -41.471  41.813  28.278  1.00  0.00    -0.269 OA
ATOM     52  N   UNL     1     -42.830  42.175  26.422  1.00  0.00    -0.268 N 
ATOM     53  C   UNL     1     -44.317  42.510  24.497  1.00  0.00    -0.019 A 
ATOM     54  C   UNL     1     -41.950  43.084  25.844  1.00  0.00     0.014 A 
ATOM     55  C   UNL     1     -43.440  43.377  23.979  1.00  0.00    -0.057 A 
ATOM     56  H   UNL     1     -45.248  42.259  24.003  1.00  0.00     0.066 H 
ATOM     57  C   UNL     1     -42.215  43.676  24.673  1.00  0.00    -0.045 A 
ATOM     58  H   UNL     1     -41.031  43.294  26.386  1.00  0.00     0.082 H 
ATOM     59  H   UNL     1     -43.630  43.869  23.032  1.00  0.00     0.062 H 
ATOM     60  H   UNL     1     -41.520  44.383  24.231  1.00  0.00     0.064 H 
ENDBRANCH  42  45
ENDBRANCH  38  41
ENDBRANCH   6  38
TORSDOF 8
ENDMDL
MODEL 3
REMARK VINA RESULT:     -10.5      1.784      2.644
REMARK SMILES C[C@@H](NCc1cc2ccc(CNC(=O)c3cc(=O)n4ccccc4n3)cc2[nH]1)[C@]12C[C@](F)(C1)C2
REMARK SMILES IDX 5 1 6 2 7 3 8 4 9 5 10 6 26 7 27 8 28 9 4 15 3 18 2 20 1 22
REMARK SMILES IDX 29 26 33 27 30 28 34 29 31 30 32 37 11 38 12 41 13 42 14 44
REMARK SMILES IDX 15 45 16 46 25 47 17 48 24 50 18 51 19 52 23 53 20 54 22 55
REMARK SMILES IDX 21 57
REMARK H PARENT 6 10 8 11 9 12 26 13 28 14 4 16 4 17 3 19 2 21 1 23 1 24 1 25
REMARK H PARENT 33 31 33 32 30 33 30 34 34 35 34 36 11 39 11 40 12 43 16 49
REMARK H PARENT 23 56 20 58 22 59 21 60
REMARK Flexibility Score: inf
ROOT
ATOM      1  C   UNL     1     -48.320  31.835  25.803  1.00  0.00     0.030 A 
ATOM      2  C   UNL     1     -46.991  32.194  25.899  1.00  0.00    -0.032 A 
ATOM      3  C   UNL     1     -46.932  33.554  26.315  1.00  0.00    -0.000 A 
ATOM      4  C   UNL     1     -45.881  34.453  26.575  1.00  0.00    -0.052 A 
ATOM      5  C   UNL     1     -46.181  35.760  26.977  1.00  0.00    -0.057 A 
ATOM      6  C   UNL     1     -47.507  36.186  27.133  1.00  0.00    -0.027 A 
ATOM      7  C   UNL     1     -48.564  35.299  26.866  1.00  0.00    -0.033 A 
ATOM      8  C   UNL     1     -48.245  33.995  26.468  1.00  0.00     0.046 A 
ATOM      9  N   UNL     1     -49.064  32.936  26.154  1.00  0.00    -0.357 N 
ATOM     10  H   UNL     1     -46.145  31.552  25.692  1.00  0.00     0.065 H 
ATOM     11  H   UNL     1     -44.847  34.141  26.461  1.00  0.00     0.063 H 
ATOM     12  H   UNL     1     -45.362  36.454  27.167  1.00  0.00     0.063 H 
ATOM     13  H   UNL     1     -49.599  35.611  26.969  1.00  0.00     0.065 H 
ATOM     14  H   UNL     1     -50.075  32.959  26.146  1.00  0.00     0.166 HD
ENDROOT
BRANCH   1  15
ATOM     15  C   UNL     1     -48.967  30.548  25.425  1.00  0.00     0.036 C 
ATOM     16  H   UNL     1     -49.593  30.198  26.253  1.00  0.00     0.049 H 
ATOM     17  H   UNL     1     -49.616  30.724  24.559  1.00  0.00     0.049 H 
BRANCH  15  18
ATOM     18  N   UNL     1     -47.930  29.573  25.101  1.00  0.00    -0.308 NA
ATOM     19  H   UNL     1     -47.418  29.360  25.958  1.00  0.00     0.123 HD
BRANCH  18  20
ATOM     20  C   UNL     1     -48.468  28.341  24.521  1.00  0.00     0.010 C 
ATOM     21  H   UNL     1     -48.055  28.191  23.516  1.00  0.00     0.047 H 
BRANCH  20  22
ATOM     22  C   UNL     1     -49.994  28.365  24.433  1.00  0.00    -0.049 C 
ATOM     23  H   UNL     1     -50.444  28.812  25.324  1.00  0.00     0.025 H 
ATOM     24  H   UNL     1     -50.323  28.956  23.570  1.00  0.00     0.025 H 
ATOM     25  H   UNL     1     -50.408  27.357  24.312  1.00  0.00     0.025 H 
ENDBRANCH  20  22
BRANCH  20  26
ATOM     26  C   UNL     1     -48.040  27.198  25.381  1.00  0.00    -0.006 C 
ATOM     27  C   UNL     1     -46.712  26.328  25.368  1.00  0.00    -0.011 C 
ATOM     28  C   UNL     1     -48.764  25.797  25.573  1.00  0.00    -0.011 C 
ATOM     29  C   UNL     1     -47.873  27.141  26.959  1.00  0.00    -0.011 C 
ATOM     30  C   UNL     1     -47.540  25.695  26.514  1.00  0.00     0.112 C 
ATOM     31  H   UNL     1     -46.533  25.710  24.482  1.00  0.00     0.031 H 
ATOM     32  H   UNL     1     -45.784  26.838  25.647  1.00  0.00     0.031 H 
ATOM     33  H   UNL     1     -48.783  25.126  24.708  1.00  0.00     0.031 H 
ATOM     34  H   UNL     1     -49.754  25.812  26.041  1.00  0.00     0.031 H 
ATOM     35  H   UNL     1     -48.778  27.284  27.557  1.00  0.00     0.031 H 
ATOM     36  H   UNL     1     -47.056  27.728  27.392  1.00  0.00     0.031 H 
ATOM     37  F   UNL     1     -47.198  24.676  27.285  1.00  0.00    -0.244 F 
ENDBRANCH  20  26
ENDBRANCH  18  20
ENDBRANCH  15  18
ENDBRANCH   1  15
BRANCH   6  38
ATOM     38  C   UNL     1     -47.794  37.609  27.544  1.00  0.00     0.043 C 
ATOM     39  H   UNL     1     -48.016  37.656  28.616  1.00  0.00     0.054 H 
ATOM     40  H   UNL     1     -48.675  37.989  27.014  1.00  0.00     0.054 H 
BRANCH  38  41
ATOM     41  N   UNL     1     -46.689  38.470  27.213  1.00  0.00    -0.347 N 
ATOM     42  C   UNL     1     -46.859  39.741  26.722  1.00  0.00     0.270 C 
ATOM     43  H   UNL     1     -45.763  38.248  27.563  1.00  0.00     0.164 HD
ATOM     44  O   UNL     1     -47.935  40.216  26.380  1.00  0.00    -0.268 OA
BRANCH  42  45
ATOM     45  C   UNL     1     -45.560  40.509  26.658  1.00  0.00     0.136 A 
ATOM     46  C   UNL     1     -44.690  40.288  27.645  1.00  0.00     0.035 A 
ATOM     47  N   UNL     1     -45.351  41.371  25.604  1.00  0.00    -0.225 NA
ATOM     48  C   UNL     1     -43.411  41.008  27.620  1.00  0.00     0.258 A 
ATOM     49  H   UNL     1     -44.865  39.606  28.467  1.00  0.00     0.071 H 
ATOM     50  C   UNL     1     -44.217  42.003  25.585  1.00  0.00     0.140 A 
ATOM     51  O   UNL     1     -42.604  40.812  28.528  1.00  0.00    -0.269 OA
ATOM     52  N   UNL     1     -43.223  41.866  26.547  1.00  0.00    -0.268 N 
ATOM     53  C   UNL     1     -43.944  42.944  24.461  1.00  0.00    -0.019 A 
ATOM     54  C   UNL     1     -42.034  42.583  26.453  1.00  0.00     0.014 A 
ATOM     55  C   UNL     1     -42.785  43.611  24.414  1.00  0.00    -0.057 A 
ATOM     56  H   UNL     1     -44.711  43.056  23.705  1.00  0.00     0.066 H 
ATOM     57  C   UNL     1     -41.795  43.426  25.442  1.00  0.00    -0.045 A 
ATOM     58  H   UNL     1     -41.301  42.427  27.241  1.00  0.00     0.082 H 
ATOM     59  H   UNL     1     -42.567  44.299  23.604  1.00  0.00     0.062 H 
ATOM     60  H   UNL     1     -40.864  43.980  25.379  1.00  0.00     0.064 H 
ENDBRANCH  42  45
ENDBRANCH  38  41
ENDBRANCH   6  38
TORSDOF 8
ENDMDL
MODEL 4
REMARK VINA RESULT:      -9.9      2.698      3.514
REMARK SMILES C[C@@H](NCc1cc2ccc(CNC(=O)c3cc(=O)n4ccccc4n3)cc2[nH]1)[C@]12C[C@](F)(C1)C2
REMARK SMILES IDX 5 1 6 2 7 3 8 4 9 5 10 6 26 7 27 8 28 9 4 15 3 18 2 20 1 22
REMARK SMILES IDX 29 26 33 27 30 28 34 29 31 30 32 37 11 38 12 41 13 42 14 44
REMARK SMILES IDX 15 45 16 46 25 47 17 48 24 50 18 51 19 52 23 53 20 54 22 55
REMARK SMILES IDX 21 57
REMARK H PARENT 6 10 8 11 9 12 26 13 28 14 4 16 4 17 3 19 2 21 1 23 1 24 1 25
REMARK H PARENT 33 31 33 32 30 33 30 34 34 35 34 36 11 39 11 40 12 43 16 49
REMARK H PARENT 23 56 20 58 22 59 21 60
REMARK Flexibility Score: inf
ROOT
ATOM      1  C   UNL     1     -48.360  31.323  25.724  1.00  0.00     0.030 A 
ATOM      2  C   UNL     1     -47.125  31.860  25.419  1.00  0.00    -0.032 A 
ATOM      3  C   UNL     1     -47.126  33.224  25.827  1.00  0.00    -0.000 A 
ATOM      4  C   UNL     1     -46.177  34.261  25.774  1.00  0.00    -0.052 A 
ATOM      5  C   UNL     1     -46.513  35.525  26.275  1.00  0.00    -0.057 A 
ATOM      6  C   UNL     1     -47.774  35.772  26.834  1.00  0.00    -0.027 A 
ATOM      7  C   UNL     1     -48.734  34.745  26.882  1.00  0.00    -0.033 A 
ATOM      8  C   UNL     1     -48.378  33.488  26.378  1.00  0.00     0.046 A 
ATOM      9  N   UNL     1     -49.104  32.322  26.306  1.00  0.00    -0.357 N 
ATOM     10  H   UNL     1     -46.303  31.333  24.952  1.00  0.00     0.065 H 
ATOM     11  H   UNL     1     -45.194  34.088  25.345  1.00  0.00     0.063 H 
ATOM     12  H   UNL     1     -45.777  36.326  26.222  1.00  0.00     0.063 H 
ATOM     13  H   UNL     1     -49.721  34.918  27.300  1.00  0.00     0.065 H 
ATOM     14  H   UNL     1     -50.063  32.208  26.605  1.00  0.00     0.166 HD
ENDROOT
BRANCH   1  15
ATOM     15  C   UNL     1     -48.912  29.953  25.533  1.00  0.00     0.036 C 
ATOM     16  H   UNL     1     -48.676  29.341  26.409  1.00  0.00     0.049 H 
ATOM     17  H   UNL     1     -50.003  30.024  25.451  1.00  0.00     0.049 H 
BRANCH  15  18
ATOM     18  N   UNL     1     -48.342  29.378  24.318  1.00  0.00    -0.308 NA
ATOM     19  H   UNL     1     -47.808  28.548  24.582  1.00  0.00     0.123 HD
BRANCH  18  20
ATOM     20  C   UNL     1     -49.358  29.023  23.325  1.00  0.00     0.010 C 
ATOM     21  H   UNL     1     -50.356  29.262  23.712  1.00  0.00     0.047 H 
BRANCH  20  22
ATOM     22  C   UNL     1     -49.309  27.540  22.957  1.00  0.00    -0.049 C 
ATOM     23  H   UNL     1     -48.281  27.170  22.900  1.00  0.00     0.025 H 
ATOM     24  H   UNL     1     -49.832  26.937  23.708  1.00  0.00     0.025 H 
ATOM     25  H   UNL     1     -49.793  27.347  21.992  1.00  0.00     0.025 H 
ENDBRANCH  20  22
BRANCH  20  26
ATOM     26  C   UNL     1     -49.118  29.844  22.102  1.00  0.00    -0.006 C 
ATOM     27  C   UNL     1     -49.179  29.458  20.562  1.00  0.00    -0.011 C 
ATOM     28  C   UNL     1     -47.792  30.616  21.690  1.00  0.00    -0.011 C 
ATOM     29  C   UNL     1     -49.842  31.177  21.633  1.00  0.00    -0.011 C 
ATOM     30  C   UNL     1     -48.769  30.952  20.538  1.00  0.00     0.112 C 
ATOM     31  H   UNL     1     -48.441  28.733  20.204  1.00  0.00     0.031 H 
ATOM     32  H   UNL     1     -50.163  29.205  20.155  1.00  0.00     0.031 H 
ATOM     33  H   UNL     1     -46.919  30.004  21.439  1.00  0.00     0.031 H 
ATOM     34  H   UNL     1     -47.480  31.442  22.337  1.00  0.00     0.031 H 
ATOM     35  H   UNL     1     -49.725  32.056  22.275  1.00  0.00     0.031 H 
ATOM     36  H   UNL     1     -50.890  31.091  21.327  1.00  0.00     0.031 H 
ATOM     37  F   UNL     1     -48.535  31.705  19.476  1.00  0.00    -0.244 F 
ENDBRANCH  20  26
ENDBRANCH  18  20
ENDBRANCH  15  18
ENDBRANCH   1  15
BRANCH   6  38
ATOM     38  C   UNL     1     -48.113  37.151  27.342  1.00  0.00     0.043 C 
ATOM     39  H   UNL     1     -48.595  37.086  28.324  1.00  0.00     0.054 H 
ATOM     40  H   UNL     1     -48.820  37.644  26.666  1.00  0.00     0.054 H 
BRANCH  38  41
ATOM     41  N   UNL     1     -46.934  37.975  27.406  1.00  0.00    -0.347 N 
ATOM     42  C   UNL     1     -46.852  39.204  26.797  1.00  0.00     0.270 C 
ATOM     43  H   UNL     1     -46.225  37.777  28.104  1.00  0.00     0.164 HD
ATOM     44  O   UNL     1     -47.693  39.657  26.030  1.00  0.00    -0.268 OA
BRANCH  42  45
ATOM     45  C   UNL     1     -45.602  39.955  27.189  1.00  0.00     0.136 A 
ATOM     46  C   UNL     1     -45.293  41.021  26.447  1.00  0.00     0.035 A 
ATOM     47  N   UNL     1     -44.872  39.510  28.268  1.00  0.00    -0.225 NA
ATOM     48  C   UNL     1     -44.089  41.786  26.795  1.00  0.00     0.258 A 
ATOM     49  H   UNL     1     -45.876  41.362  25.602  1.00  0.00     0.071 H 
ATOM     50  C   UNL     1     -43.810  40.192  28.574  1.00  0.00     0.140 A 
ATOM     51  O   UNL     1     -43.796  42.768  26.115  1.00  0.00    -0.269 OA
ATOM     52  N   UNL     1     -43.374  41.320  27.889  1.00  0.00    -0.268 N 
ATOM     53  C   UNL     1     -42.990  39.751  29.738  1.00  0.00    -0.019 A 
ATOM     54  C   UNL     1     -42.222  41.994  28.281  1.00  0.00     0.014 A 
ATOM     55  C   UNL     1     -41.889  40.431  30.078  1.00  0.00    -0.057 A 
ATOM     56  H   UNL     1     -43.322  38.874  30.280  1.00  0.00     0.066 H 
ATOM     57  C   UNL     1     -41.490  41.592  29.327  1.00  0.00    -0.045 A 
ATOM     58  H   UNL     1     -41.939  42.868  27.699  1.00  0.00     0.082 H 
ATOM     59  H   UNL     1     -41.280  40.127  30.922  1.00  0.00     0.062 H 
ATOM     60  H   UNL     1     -40.593  42.126  29.624  1.00  0.00     0.064 H 
ENDBRANCH  42  45
ENDBRANCH  38  41
ENDBRANCH   6  38
TORSDOF 8
ENDMDL
MODEL 5
REMARK VINA RESULT:      -9.8      2.577      3.981
REMARK SMILES C[C@@H](NCc1cc2ccc(CNC(=O)c3cc(=O)n4ccccc4n3)cc2[nH]1)[C@]12C[C@](F)(C1)C2
REMARK SMILES IDX 5 1 6 2 7 3 8 4 9 5 10 6 26 7 27 8 28 9 4 15 3 18 2 20 1 22
REMARK SMILES IDX 29 26 33 27 30 28 34 29 31 30 32 37 11 38 12 41 13 42 14 44
REMARK SMILES IDX 15 45 16 46 25 47 17 48 24 50 18 51 19 52 23 53 20 54 22 55
REMARK SMILES IDX 21 57
REMARK H PARENT 6 10 8 11 9 12 26 13 28 14 4 16 4 17 3 19 2 21 1 23 1 24 1 25
REMARK H PARENT 33 31 33 32 30 33 30 34 34 35 34 36 11 39 11 40 12 43 16 49
REMARK H PARENT 23 56 20 58 22 59 21 60
REMARK Flexibility Score: inf
ROOT
ATOM      1  C   UNL     1     -48.254  32.963  26.179  1.00  0.00     0.030 A 
ATOM      2  C   UNL     1     -46.931  32.990  26.570  1.00  0.00    -0.032 A 
ATOM      3  C   UNL     1     -46.667  34.268  27.140  1.00  0.00    -0.000 A 
ATOM      4  C   UNL     1     -45.526  34.873  27.696  1.00  0.00    -0.052 A 
ATOM      5  C   UNL     1     -45.612  36.186  28.177  1.00  0.00    -0.057 A 
ATOM      6  C   UNL     1     -46.815  36.903  28.120  1.00  0.00    -0.027 A 
ATOM      7  C   UNL     1     -47.958  36.311  27.556  1.00  0.00    -0.033 A 
ATOM      8  C   UNL     1     -47.853  34.997  27.083  1.00  0.00     0.046 A 
ATOM      9  N   UNL     1     -48.798  34.184  26.500  1.00  0.00    -0.357 N 
ATOM     10  H   UNL     1     -46.222  32.181  26.460  1.00  0.00     0.065 H 
ATOM     11  H   UNL     1     -44.585  34.333  27.751  1.00  0.00     0.063 H 
ATOM     12  H   UNL     1     -44.722  36.653  28.598  1.00  0.00     0.063 H 
ATOM     13  H   UNL     1     -48.898  36.852  27.490  1.00  0.00     0.065 H 
ATOM     14  H   UNL     1     -49.753  34.446  26.299  1.00  0.00     0.166 HD
ENDROOT
BRANCH   1  15
ATOM     15  C   UNL     1     -49.070  31.893  25.541  1.00  0.00     0.036 C 
ATOM     16  H   UNL     1     -50.105  31.966  25.892  1.00  0.00     0.049 H 
ATOM     17  H   UNL     1     -49.068  32.051  24.455  1.00  0.00     0.049 H 
BRANCH  15  18
ATOM     18  N   UNL     1     -48.491  30.594  25.872  1.00  0.00    -0.308 NA
ATOM     19  H   UNL     1     -48.860  30.306  26.780  1.00  0.00     0.123 HD
BRANCH  18  20
ATOM     20  C   UNL     1     -48.781  29.569  24.867  1.00  0.00     0.010 C 
ATOM     21  H   UNL     1     -49.748  29.776  24.391  1.00  0.00     0.047 H 
BRANCH  20  22
ATOM     22  C   UNL     1     -48.816  28.165  25.472  1.00  0.00    -0.049 C 
ATOM     23  H   UNL     1     -49.806  27.709  25.379  1.00  0.00     0.025 H 
ATOM     24  H   UNL     1     -48.104  27.506  24.962  1.00  0.00     0.025 H 
ATOM     25  H   UNL     1     -48.544  28.176  26.534  1.00  0.00     0.025 H 
ENDBRANCH  20  22
BRANCH  20  26
ATOM     26  C   UNL     1     -47.718  29.631  23.821  1.00  0.00    -0.006 C 
ATOM     27  C   UNL     1     -47.821  29.730  22.239  1.00  0.00    -0.011 C 
ATOM     28  C   UNL     1     -46.584  28.560  23.518  1.00  0.00    -0.011 C 
ATOM     29  C   UNL     1     -46.541  30.682  23.651  1.00  0.00    -0.011 C 
ATOM     30  C   UNL     1     -46.294  29.683  22.494  1.00  0.00     0.112 C 
ATOM     31  H   UNL     1     -48.267  28.877  21.717  1.00  0.00     0.031 H 
ATOM     32  H   UNL     1     -48.229  30.659  21.828  1.00  0.00     0.031 H 
ATOM     33  H   UNL     1     -46.908  27.594  23.119  1.00  0.00     0.031 H 
ATOM     34  H   UNL     1     -45.838  28.395  24.303  1.00  0.00     0.031 H 
ATOM     35  H   UNL     1     -45.792  30.718  24.449  1.00  0.00     0.031 H 
ATOM     36  H   UNL     1     -46.824  31.703  23.375  1.00  0.00     0.031 H 
ATOM     37  F   UNL     1     -45.327  29.721  21.592  1.00  0.00    -0.244 F 
ENDBRANCH  20  26
ENDBRANCH  18  20
ENDBRANCH  15  18
ENDBRANCH   1  15
BRANCH   6  38
ATOM     38  C   UNL     1     -46.866  38.324  28.624  1.00  0.00     0.043 C 
ATOM     39  H   UNL     1     -46.714  38.347  29.709  1.00  0.00     0.054 H 
ATOM     40  H   UNL     1     -47.850  38.764  28.426  1.00  0.00     0.054 H 
BRANCH  38  41
ATOM     41  N   UNL     1     -45.888  39.140  27.953  1.00  0.00    -0.347 N 
ATOM     42  C   UNL     1     -46.212  40.005  26.937  1.00  0.00     0.270 C 
ATOM     43  H   UNL     1     -44.977  39.275  28.378  1.00  0.00     0.164 HD
ATOM     44  O   UNL     1     -47.313  40.068  26.403  1.00  0.00    -0.268 OA
BRANCH  42  45
ATOM     45  C   UNL     1     -45.055  40.894  26.550  1.00  0.00     0.136 A 
ATOM     46  C   UNL     1     -44.034  40.948  27.408  1.00  0.00     0.035 A 
ATOM     47  N   UNL     1     -45.115  41.579  25.357  1.00  0.00    -0.225 NA
ATOM     48  C   UNL     1     -42.884  41.795  27.069  1.00  0.00     0.258 A 
ATOM     49  H   UNL     1     -43.997  40.403  28.342  1.00  0.00     0.071 H 
ATOM     50  C   UNL     1     -44.094  42.324  25.060  1.00  0.00     0.140 A 
ATOM     51  O   UNL     1     -41.940  41.853  27.857  1.00  0.00    -0.269 OA
ATOM     52  N   UNL     1     -42.967  42.471  25.861  1.00  0.00    -0.268 N 
ATOM     53  C   UNL     1     -44.113  43.081  23.776  1.00  0.00    -0.019 A 
ATOM     54  C   UNL     1     -41.915  43.292  25.470  1.00  0.00     0.014 A 
ATOM     55  C   UNL     1     -43.076  43.858  23.443  1.00  0.00    -0.057 A 
ATOM     56  H   UNL     1     -44.985  42.972  23.144  1.00  0.00     0.066 H 
ATOM     57  C   UNL     1     -41.938  43.969  24.316  1.00  0.00    -0.045 A 
ATOM     58  H   UNL     1     -41.065  43.360  26.145  1.00  0.00     0.082 H 
ATOM     59  H   UNL     1     -43.070  44.417  22.513  1.00  0.00     0.062 H 
ATOM     60  H   UNL     1     -41.110  44.607  24.022  1.00  0.00     0.064 H 
ENDBRANCH  42  45
ENDBRANCH  38  41
ENDBRANCH   6  38
TORSDOF 8
ENDMDL
MODEL 6
REMARK VINA RESULT:      -9.8      1.526      2.155
REMARK SMILES C[C@@H](NCc1cc2ccc(CNC(=O)c3cc(=O)n4ccccc4n3)cc2[nH]1)[C@]12C[C@](F)(C1)C2
REMARK SMILES IDX 5 1 6 2 7 3 8 4 9 5 10 6 26 7 27 8 28 9 4 15 3 18 2 20 1 22
REMARK SMILES IDX 29 26 33 27 30 28 34 29 31 30 32 37 11 38 12 41 13 42 14 44
REMARK SMILES IDX 15 45 16 46 25 47 17 48 24 50 18 51 19 52 23 53 20 54 22 55
REMARK SMILES IDX 21 57
REMARK H PARENT 6 10 8 11 9 12 26 13 28 14 4 16 4 17 3 19 2 21 1 23 1 24 1 25
REMARK H PARENT 33 31 33 32 30 33 30 34 34 35 34 36 11 39 11 40 12 43 16 49
REMARK H PARENT 23 56 20 58 22 59 21 60
REMARK Flexibility Score: inf
ROOT
ATOM      1  C   UNL     1     -48.024  31.392  24.666  1.00  0.00     0.030 A 
ATOM      2  C   UNL     1     -46.803  32.034  24.712  1.00  0.00    -0.032 A 
ATOM      3  C   UNL     1     -46.967  33.241  25.448  1.00  0.00    -0.000 A 
ATOM      4  C   UNL     1     -46.102  34.288  25.815  1.00  0.00    -0.052 A 
ATOM      5  C   UNL     1     -46.603  35.362  26.561  1.00  0.00    -0.057 A 
ATOM      6  C   UNL     1     -47.948  35.408  26.954  1.00  0.00    -0.027 A 
ATOM      7  C   UNL     1     -48.823  34.372  26.584  1.00  0.00    -0.033 A 
ATOM      8  C   UNL     1     -48.303  33.305  25.840  1.00  0.00     0.046 A 
ATOM      9  N   UNL     1     -48.919  32.175  25.357  1.00  0.00    -0.357 N 
ATOM     10  H   UNL     1     -45.884  31.678  24.264  1.00  0.00     0.065 H 
ATOM     11  H   UNL     1     -45.057  34.269  25.520  1.00  0.00     0.063 H 
ATOM     12  H   UNL     1     -45.930  36.174  26.834  1.00  0.00     0.063 H 
ATOM     13  H   UNL     1     -49.871  34.393  26.867  1.00  0.00     0.065 H 
ATOM     14  H   UNL     1     -49.900  31.953  25.458  1.00  0.00     0.166 HD
ENDROOT
BRANCH   1  15
ATOM     15  C   UNL     1     -48.436  30.103  24.046  1.00  0.00     0.036 C 
ATOM     16  H   UNL     1     -49.528  30.076  23.954  1.00  0.00     0.049 H 
ATOM     17  H   UNL     1     -48.010  30.048  23.037  1.00  0.00     0.049 H 
BRANCH  15  18
ATOM     18  N   UNL     1     -47.949  29.002  24.871  1.00  0.00    -0.308 NA
ATOM     19  H   UNL     1     -47.210  29.365  25.476  1.00  0.00     0.123 HD
BRANCH  18  20
ATOM     20  C   UNL     1     -49.002  28.390  25.684  1.00  0.00     0.010 C 
ATOM     21  H   UNL     1     -49.456  29.146  26.336  1.00  0.00     0.047 H 
BRANCH  20  22
ATOM     22  C   UNL     1     -48.471  27.243  26.545  1.00  0.00    -0.049 C 
ATOM     23  H   UNL     1     -47.944  27.612  27.430  1.00  0.00     0.025 H 
ATOM     24  H   UNL     1     -49.294  26.610  26.895  1.00  0.00     0.025 H 
ATOM     25  H   UNL     1     -47.784  26.601  25.982  1.00  0.00     0.025 H 
ENDBRANCH  20  22
BRANCH  20  26
ATOM     26  C   UNL     1     -50.055  27.870  24.762  1.00  0.00    -0.006 C 
ATOM     27  C   UNL     1     -49.936  27.042  23.411  1.00  0.00    -0.011 C 
ATOM     28  C   UNL     1     -51.153  28.699  23.968  1.00  0.00    -0.011 C 
ATOM     29  C   UNL     1     -51.261  26.885  25.073  1.00  0.00    -0.011 C 
ATOM     30  C   UNL     1     -51.465  27.235  23.578  1.00  0.00     0.112 C 
ATOM     31  H   UNL     1     -49.460  27.544  22.563  1.00  0.00     0.031 H 
ATOM     32  H   UNL     1     -49.551  26.020  23.490  1.00  0.00     0.031 H 
ATOM     33  H   UNL     1     -50.796  29.361  23.172  1.00  0.00     0.031 H 
ATOM     34  H   UNL     1     -51.902  29.226  24.568  1.00  0.00     0.031 H 
ATOM     35  H   UNL     1     -52.020  27.241  25.777  1.00  0.00     0.031 H 
ATOM     36  H   UNL     1     -51.005  25.847  25.311  1.00  0.00     0.031 H 
ATOM     37  F   UNL     1     -52.422  26.801  22.774  1.00  0.00    -0.244 F 
ENDBRANCH  20  26
ENDBRANCH  18  20
ENDBRANCH  15  18
ENDBRANCH   1  15
BRANCH   6  38
ATOM     38  C   UNL     1     -48.460  36.591  27.736  1.00  0.00     0.043 C 
ATOM     39  H   UNL     1     -48.731  36.285  28.753  1.00  0.00     0.054 H 
ATOM     40  H   UNL     1     -49.365  36.996  27.268  1.00  0.00     0.054 H 
BRANCH  38  41
ATOM     41  N   UNL     1     -47.483  37.648  27.765  1.00  0.00    -0.347 N 
ATOM     42  C   UNL     1     -46.523  37.747  28.743  1.00  0.00     0.270 C 
ATOM     43  H   UNL     1     -47.326  38.204  26.931  1.00  0.00     0.164 HD
ATOM     44  O   UNL     1     -46.486  37.053  29.752  1.00  0.00    -0.268 OA
BRANCH  42  45
ATOM     45  C   UNL     1     -45.495  38.808  28.432  1.00  0.00     0.136 A 
ATOM     46  C   UNL     1     -45.669  39.490  27.299  1.00  0.00     0.035 A 
ATOM     47  N   UNL     1     -44.462  39.010  29.320  1.00  0.00    -0.225 NA
ATOM     48  C   UNL     1     -44.697  40.536  26.959  1.00  0.00     0.258 A 
ATOM     49  H   UNL     1     -46.487  39.323  26.609  1.00  0.00     0.071 H 
ATOM     50  C   UNL     1     -43.607  39.939  29.018  1.00  0.00     0.140 A 
ATOM     51  O   UNL     1     -44.849  41.168  25.914  1.00  0.00    -0.269 OA
ATOM     52  N   UNL     1     -43.669  40.723  27.871  1.00  0.00    -0.268 N 
ATOM     53  C   UNL     1     -42.474  40.197  29.951  1.00  0.00    -0.019 A 
ATOM     54  C   UNL     1     -42.709  41.698  27.620  1.00  0.00     0.014 A 
ATOM     55  C   UNL     1     -41.575  41.146  29.666  1.00  0.00    -0.057 A 
ATOM     56  H   UNL     1     -42.418  39.593  30.848  1.00  0.00     0.066 H 
ATOM     57  C   UNL     1     -41.695  41.924  28.462  1.00  0.00    -0.045 A 
ATOM     58  H   UNL     1     -42.820  42.274  26.704  1.00  0.00     0.082 H 
ATOM     59  H   UNL     1     -40.744  41.350  30.333  1.00  0.00     0.062 H 
ATOM     60  H   UNL     1     -40.952  42.688  28.255  1.00  0.00     0.064 H 
ENDBRANCH  42  45
ENDBRANCH  38  41
ENDBRANCH   6  38
TORSDOF 8
ENDMDL
MODEL 7
REMARK VINA RESULT:      -9.6      3.036      4.622
REMARK SMILES C[C@@H](NCc1cc2ccc(CNC(=O)c3cc(=O)n4ccccc4n3)cc2[nH]1)[C@]12C[C@](F)(C1)C2
REMARK SMILES IDX 5 1 6 2 7 3 8 4 9 5 10 6 26 7 27 8 28 9 4 15 3 18 2 20 1 22
REMARK SMILES IDX 29 26 33 27 30 28 34 29 31 30 32 37 11 38 12 41 13 42 14 44
REMARK SMILES IDX 15 45 16 46 25 47 17 48 24 50 18 51 19 52 23 53 20 54 22 55
REMARK SMILES IDX 21 57
REMARK H PARENT 6 10 8 11 9 12 26 13 28 14 4 16 4 17 3 19 2 21 1 23 1 24 1 25
REMARK H PARENT 33 31 33 32 30 33 30 34 34 35 34 36 11 39 11 40 12 43 16 49
REMARK H PARENT 23 56 20 58 22 59 21 60
REMARK Flexibility Score: inf
ROOT
ATOM      1  C   UNL     1     -46.801  33.371  25.775  1.00  0.00     0.030 A 
ATOM      2  C   UNL     1     -47.913  34.082  26.177  1.00  0.00    -0.032 A 
ATOM      3  C   UNL     1     -47.477  35.144  27.017  1.00  0.00    -0.000 A 
ATOM      4  C   UNL     1     -48.136  36.174  27.714  1.00  0.00    -0.052 A 
ATOM      5  C   UNL     1     -47.384  37.077  28.475  1.00  0.00    -0.057 A 
ATOM      6  C   UNL     1     -45.988  36.979  28.548  1.00  0.00    -0.027 A 
ATOM      7  C   UNL     1     -45.320  35.948  27.864  1.00  0.00    -0.033 A 
ATOM      8  C   UNL     1     -46.089  35.056  27.107  1.00  0.00     0.046 A 
ATOM      9  N   UNL     1     -45.705  33.977  26.345  1.00  0.00    -0.357 N 
ATOM     10  H   UNL     1     -48.937  33.865  25.900  1.00  0.00     0.065 H 
ATOM     11  H   UNL     1     -49.217  36.267  27.669  1.00  0.00     0.063 H 
ATOM     12  H   UNL     1     -47.901  37.867  29.020  1.00  0.00     0.063 H 
ATOM     13  H   UNL     1     -44.241  35.845  27.916  1.00  0.00     0.065 H 
ATOM     14  H   UNL     1     -44.757  33.643  26.236  1.00  0.00     0.166 HD
ENDROOT
BRANCH   1  15
ATOM     15  C   UNL     1     -46.659  32.180  24.893  1.00  0.00     0.036 C 
ATOM     16  H   UNL     1     -46.896  32.460  23.862  1.00  0.00     0.049 H 
ATOM     17  H   UNL     1     -45.615  31.845  24.923  1.00  0.00     0.049 H 
BRANCH  15  18
ATOM     18  N   UNL     1     -47.550  31.127  25.372  1.00  0.00    -0.308 NA
ATOM     19  H   UNL     1     -48.404  31.570  25.717  1.00  0.00     0.123 HD
BRANCH  18  20
ATOM     20  C   UNL     1     -47.880  30.146  24.336  1.00  0.00     0.010 C 
ATOM     21  H   UNL     1     -48.032  29.160  24.792  1.00  0.00     0.047 H 
BRANCH  20  22
ATOM     22  C   UNL     1     -46.785  30.040  23.274  1.00  0.00    -0.049 C 
ATOM     23  H   UNL     1     -45.891  30.603  23.558  1.00  0.00     0.025 H 
ATOM     24  H   UNL     1     -46.484  28.997  23.132  1.00  0.00     0.025 H 
ATOM     25  H   UNL     1     -47.128  30.414  22.302  1.00  0.00     0.025 H 
ENDBRANCH  20  22
BRANCH  20  26
ATOM     26  C   UNL     1     -49.158  30.567  23.689  1.00  0.00    -0.006 C 
ATOM     27  C   UNL     1     -50.159  31.750  24.038  1.00  0.00    -0.011 C 
ATOM     28  C   UNL     1     -50.486  29.714  23.504  1.00  0.00    -0.011 C 
ATOM     29  C   UNL     1     -49.423  30.999  22.184  1.00  0.00    -0.011 C 
ATOM     30  C   UNL     1     -50.832  31.060  22.825  1.00  0.00     0.112 C 
ATOM     31  H   UNL     1     -50.680  31.690  24.999  1.00  0.00     0.031 H 
ATOM     32  H   UNL     1     -49.790  32.770  23.889  1.00  0.00     0.031 H 
ATOM     33  H   UNL     1     -51.040  29.458  24.413  1.00  0.00     0.031 H 
ATOM     34  H   UNL     1     -50.420  28.832  22.860  1.00  0.00     0.031 H 
ATOM     35  H   UNL     1     -49.257  30.239  21.415  1.00  0.00     0.031 H 
ATOM     36  H   UNL     1     -48.985  31.947  21.856  1.00  0.00     0.031 H 
ATOM     37  F   UNL     1     -51.968  31.398  22.237  1.00  0.00    -0.244 F 
ENDBRANCH  20  26
ENDBRANCH  18  20
ENDBRANCH  15  18
ENDBRANCH   1  15
BRANCH   6  38
ATOM     38  C   UNL     1     -45.210  37.954  29.397  1.00  0.00     0.043 C 
ATOM     39  H   UNL     1     -44.317  37.471  29.808  1.00  0.00     0.054 H 
ATOM     40  H   UNL     1     -45.817  38.290  30.245  1.00  0.00     0.054 H 
BRANCH  38  41
ATOM     41  N   UNL     1     -44.853  39.122  28.635  1.00  0.00    -0.347 N 
ATOM     42  C   UNL     1     -43.780  39.919  28.953  1.00  0.00     0.270 C 
ATOM     43  H   UNL     1     -45.238  39.247  27.704  1.00  0.00     0.164 HD
ATOM     44  O   UNL     1     -43.116  39.813  29.977  1.00  0.00    -0.268 OA
BRANCH  42  45
ATOM     45  C   UNL     1     -43.492  40.947  27.886  1.00  0.00     0.136 A 
ATOM     46  C   UNL     1     -42.210  41.125  27.563  1.00  0.00     0.035 A 
ATOM     47  N   UNL     1     -44.548  41.624  27.316  1.00  0.00    -0.225 NA
ATOM     48  C   UNL     1     -41.884  42.111  26.525  1.00  0.00     0.258 A 
ATOM     49  H   UNL     1     -41.389  40.585  28.017  1.00  0.00     0.071 H 
ATOM     50  C   UNL     1     -44.255  42.493  26.396  1.00  0.00     0.140 A 
ATOM     51  O   UNL     1     -40.704  42.283  26.223  1.00  0.00    -0.269 OA
ATOM     52  N   UNL     1     -42.964  42.776  25.964  1.00  0.00    -0.268 N 
ATOM     53  C   UNL     1     -45.365  43.247  25.748  1.00  0.00    -0.019 A 
ATOM     54  C   UNL     1     -42.735  43.724  24.972  1.00  0.00     0.014 A 
ATOM     55  C   UNL     1     -45.094  44.149  24.798  1.00  0.00    -0.057 A 
ATOM     56  H   UNL     1     -46.374  43.032  26.076  1.00  0.00     0.066 H 
ATOM     57  C   UNL     1     -43.736  44.398  24.394  1.00  0.00    -0.045 A 
ATOM     58  H   UNL     1     -41.700  43.896  24.683  1.00  0.00     0.082 H 
ATOM     59  H   UNL     1     -45.888  44.708  24.313  1.00  0.00     0.062 H 
ATOM     60  H   UNL     1     -43.545  45.136  23.621  1.00  0.00     0.064 H 
ENDBRANCH  42  45
ENDBRANCH  38  41
ENDBRANCH   6  38
TORSDOF 8
ENDMDL
