MODEL 1
REMARK VINA RESULT:     -10.4      0.000      0.000
REMARK SMILES Cc1cc2c(N)ncnc2n1[C@@H]1C[C@H](COc2ccc3ccc(N)nc3c2)[C@@H](O)[C@H]1O
REMARK SMILES IDX 15 1 14 4 12 5 13 6 30 7 28 11 11 15 2 16 3 17 4 18 10 20
REMARK SMILES IDX 5 21 9 22 7 23 8 24 1 26 6 30 31 33 29 35 16 37 17 38 18 39
REMARK SMILES IDX 27 40 19 41 26 43 20 45 25 47 21 48 23 49 22 50 24 53
REMARK H PARENT 15 2 15 3 12 8 13 9 13 10 30 12 14 13 28 14 3 19 8 25 1 27
REMARK H PARENT 1 28 1 29 6 31 6 32 31 34 29 36 18 42 27 44 19 46 21 51 22 52
REMARK H PARENT 24 54 24 55
REMARK Flexibility Score: inf
ROOT
ATOM      1  C   UNL     1     -47.214  35.701  27.457  1.00  0.00     0.094 C 
ATOM      2  H   UNL     1     -47.788  36.629  27.352  1.00  0.00     0.071 H 
ATOM      3  H   UNL     1     -47.948  34.945  27.761  1.00  0.00     0.071 H 
ENDROOT
BRANCH   1   4
ATOM      4  C   UNL     1     -46.115  35.814  28.522  1.00  0.00     0.024 C 
ATOM      5  C   UNL     1     -45.022  38.001  28.998  1.00  0.00     0.064 C 
ATOM      6  C   UNL     1     -44.998  36.773  28.058  1.00  0.00    -0.021 C 
ATOM      7  C   UNL     1     -46.431  37.926  29.621  1.00  0.00     0.101 C 
ATOM      8  H   UNL     1     -44.277  37.876  29.797  1.00  0.00     0.056 H 
ATOM      9  H   UNL     1     -44.030  36.264  28.136  1.00  0.00     0.029 H 
ATOM     10  H   UNL     1     -45.127  37.058  27.007  1.00  0.00     0.029 H 
ATOM     11  C   UNL     1     -46.625  36.423  29.828  1.00  0.00     0.088 C 
ATOM     12  H   UNL     1     -47.213  38.299  28.950  1.00  0.00     0.065 H 
ATOM     13  H   UNL     1     -45.691  34.821  28.717  1.00  0.00     0.037 H 
ATOM     14  H   UNL     1     -47.655  36.162  30.083  1.00  0.00     0.063 H 
BRANCH   5  15
ATOM     15  N   UNL     1     -44.636  39.247  28.336  1.00  0.00    -0.324 N 
ATOM     16  C   UNL     1     -45.195  39.718  27.152  1.00  0.00     0.018 A 
ATOM     17  C   UNL     1     -44.597  40.931  26.863  1.00  0.00    -0.028 A 
ATOM     18  C   UNL     1     -43.594  41.174  27.833  1.00  0.00     0.061 A 
ATOM     19  H   UNL     1     -44.828  41.556  26.009  1.00  0.00     0.065 H 
ATOM     20  C   UNL     1     -43.611  40.097  28.709  1.00  0.00     0.146 A 
ATOM     21  C   UNL     1     -42.640  42.175  28.063  1.00  0.00     0.136 A 
ATOM     22  N   UNL     1     -42.765  39.922  29.741  1.00  0.00    -0.218 NA
ATOM     23  N   UNL     1     -41.799  42.047  29.104  1.00  0.00    -0.219 NA
ATOM     24  C   UNL     1     -41.898  40.944  29.865  1.00  0.00     0.120 A 
ATOM     25  H   UNL     1     -41.190  40.871  30.686  1.00  0.00     0.106 H 
BRANCH  16  26
ATOM     26  C   UNL     1     -46.242  39.006  26.369  1.00  0.00    -0.024 C 
ATOM     27  H   UNL     1     -47.106  38.753  26.991  1.00  0.00     0.029 H 
ATOM     28  H   UNL     1     -46.574  39.617  25.524  1.00  0.00     0.029 H 
ATOM     29  H   UNL     1     -45.847  38.068  25.964  1.00  0.00     0.029 H 
ENDBRANCH  16  26
BRANCH  21  30
ATOM     30  N   UNL     1     -42.515  43.313  27.281  1.00  0.00    -0.383 N 
ATOM     31  H   UNL     1     -43.271  43.468  26.629  1.00  0.00     0.158 HD
ATOM     32  H   UNL     1     -42.233  44.107  27.843  1.00  0.00     0.158 HD
ENDBRANCH  21  30
ENDBRANCH   5  15
BRANCH   7  33
ATOM     33  O   UNL     1     -46.515  38.598  30.876  1.00  0.00    -0.388 OA
ATOM     34  H   UNL     1     -45.640  39.031  30.983  1.00  0.00     0.211 HD
ENDBRANCH   7  33
BRANCH  11  35
ATOM     35  O   UNL     1     -45.791  35.990  30.909  1.00  0.00    -0.390 OA
ATOM     36  H   UNL     1     -45.666  36.791  31.461  1.00  0.00     0.211 HD
ENDBRANCH  11  35
ENDBRANCH   1   4
BRANCH   1  37
ATOM     37  O   UNL     1     -46.688  35.257  26.206  1.00  0.00    -0.493 OA
BRANCH  37  38
ATOM     38  C   UNL     1     -47.053  34.029  25.731  1.00  0.00     0.121 A 
ATOM     39  C   UNL     1     -48.266  33.558  26.230  1.00  0.00    -0.019 A 
ATOM     40  C   UNL     1     -46.334  33.240  24.831  1.00  0.00     0.007 A 
ATOM     41  C   UNL     1     -48.759  32.317  25.830  1.00  0.00    -0.049 A 
ATOM     42  H   UNL     1     -48.833  34.161  26.935  1.00  0.00     0.066 H 
ATOM     43  C   UNL     1     -46.800  31.998  24.413  1.00  0.00     0.076 A 
ATOM     44  H   UNL     1     -45.381  33.561  24.427  1.00  0.00     0.069 H 
ATOM     45  C   UNL     1     -48.030  31.534  24.922  1.00  0.00     0.001 A 
ATOM     46  H   UNL     1     -49.707  31.968  26.228  1.00  0.00     0.063 H 
ATOM     47  N   UNL     1     -46.065  31.280  23.543  1.00  0.00    -0.231 NA
ATOM     48  C   UNL     1     -48.489  30.286  24.492  1.00  0.00    -0.049 A 
ATOM     49  C   UNL     1     -46.525  30.079  23.152  1.00  0.00     0.124 A 
ATOM     50  C   UNL     1     -47.726  29.551  23.591  1.00  0.00    -0.019 A 
ATOM     51  H   UNL     1     -49.434  29.885  24.846  1.00  0.00     0.063 H 
ATOM     52  H   UNL     1     -48.072  28.587  23.234  1.00  0.00     0.066 H 
BRANCH  49  53
ATOM     53  N   UNL     1     -45.740  29.383  22.237  1.00  0.00    -0.384 N 
ATOM     54  H   UNL     1     -46.055  29.536  21.286  1.00  0.00     0.158 HD
ATOM     55  H   UNL     1     -45.788  28.401  22.496  1.00  0.00     0.158 HD
ENDBRANCH  49  53
ENDBRANCH  37  38
ENDBRANCH   1  37
TORSDOF 9
ENDMDL
MODEL 2
REMARK VINA RESULT:      -9.6      4.283     11.266
REMARK SMILES Cc1cc2c(N)ncnc2n1[C@@H]1C[C@H](COc2ccc3ccc(N)nc3c2)[C@@H](O)[C@H]1O
REMARK SMILES IDX 15 1 14 4 12 5 13 6 30 7 28 11 11 15 2 16 3 17 4 18 10 20
REMARK SMILES IDX 5 21 9 22 7 23 8 24 1 26 6 30 31 33 29 35 16 37 17 38 18 39
REMARK SMILES IDX 27 40 19 41 26 43 20 45 25 47 21 48 23 49 22 50 24 53
REMARK H PARENT 15 2 15 3 12 8 13 9 13 10 30 12 14 13 28 14 3 19 8 25 1 27
REMARK H PARENT 1 28 1 29 6 31 6 32 31 34 29 36 18 42 27 44 19 46 21 51 22 52
REMARK H PARENT 24 54 24 55
REMARK Flexibility Score: inf
ROOT
ATOM      1  C   UNL     1     -49.455  31.843  24.694  1.00  0.00     0.094 C 
ATOM      2  H   UNL     1     -50.219  31.066  24.815  1.00  0.00     0.071 H 
ATOM      3  H   UNL     1     -50.012  32.760  24.468  1.00  0.00     0.071 H 
ENDROOT
BRANCH   1   4
ATOM      4  C   UNL     1     -48.485  31.530  23.545  1.00  0.00     0.024 C 
ATOM      5  C   UNL     1     -47.586  29.228  23.229  1.00  0.00     0.064 C 
ATOM      6  C   UNL     1     -47.385  30.549  24.008  1.00  0.00    -0.021 C 
ATOM      7  C   UNL     1     -49.046  29.336  22.746  1.00  0.00     0.101 C 
ATOM      8  H   UNL     1     -46.925  29.207  22.351  1.00  0.00     0.056 H 
ATOM      9  H   UNL     1     -46.402  30.974  23.773  1.00  0.00     0.029 H 
ATOM     10  H   UNL     1     -47.418  30.395  25.093  1.00  0.00     0.029 H 
ATOM     11  C   UNL     1     -49.168  30.816  22.379  1.00  0.00     0.088 C 
ATOM     12  H   UNL     1     -49.773  29.099  23.531  1.00  0.00     0.065 H 
ATOM     13  H   UNL     1     -48.024  32.460  23.192  1.00  0.00     0.037 H 
ATOM     14  H   UNL     1     -50.202  31.121  22.199  1.00  0.00     0.063 H 
BRANCH   5  15
ATOM     15  N   UNL     1     -47.207  28.040  23.995  1.00  0.00    -0.324 N 
ATOM     16  C   UNL     1     -45.986  27.383  23.881  1.00  0.00     0.018 A 
ATOM     17  C   UNL     1     -45.992  26.335  24.782  1.00  0.00    -0.028 A 
ATOM     18  C   UNL     1     -47.264  26.290  25.402  1.00  0.00     0.061 A 
ATOM     19  H   UNL     1     -45.176  25.641  24.942  1.00  0.00     0.065 H 
ATOM     20  C   UNL     1     -48.011  27.331  24.868  1.00  0.00     0.146 A 
ATOM     21  C   UNL     1     -47.894  25.464  26.345  1.00  0.00     0.136 A 
ATOM     22  N   UNL     1     -49.300  27.590  25.157  1.00  0.00    -0.218 NA
ATOM     23  N   UNL     1     -49.172  25.715  26.680  1.00  0.00    -0.219 NA
ATOM     24  C   UNL     1     -49.796  26.737  26.072  1.00  0.00     0.120 A 
ATOM     25  H   UNL     1     -50.832  26.896  26.358  1.00  0.00     0.106 H 
BRANCH  16  26
ATOM     26  C   UNL     1     -44.901  27.771  22.937  1.00  0.00    -0.024 C 
ATOM     27  H   UNL     1     -45.263  27.811  21.905  1.00  0.00     0.029 H 
ATOM     28  H   UNL     1     -44.484  28.745  23.209  1.00  0.00     0.029 H 
ATOM     29  H   UNL     1     -44.086  27.041  22.969  1.00  0.00     0.029 H 
ENDBRANCH  16  26
BRANCH  21  30
ATOM     30  N   UNL     1     -47.269  24.397  26.972  1.00  0.00    -0.383 N 
ATOM     31  H   UNL     1     -47.540  23.485  26.634  1.00  0.00     0.158 HD
ATOM     32  H   UNL     1     -46.275  24.567  27.067  1.00  0.00     0.158 HD
ENDBRANCH  21  30
ENDBRANCH   5  15
BRANCH   7  33
ATOM     33  O   UNL     1     -49.305  28.534  21.595  1.00  0.00    -0.388 OA
ATOM     34  H   UNL     1     -48.483  28.596  21.060  1.00  0.00     0.211 HD
ENDBRANCH   7  33
BRANCH  11  35
ATOM     35  O   UNL     1     -48.430  31.061  21.177  1.00  0.00    -0.390 OA
ATOM     36  H   UNL     1     -48.748  30.379  20.549  1.00  0.00     0.211 HD
ENDBRANCH  11  35
ENDBRANCH   1   4
BRANCH   1  37
ATOM     37  O   UNL     1     -48.757  32.098  25.913  1.00  0.00    -0.493 OA
BRANCH  37  38
ATOM     38  C   UNL     1     -48.322  33.366  26.175  1.00  0.00     0.121 A 
ATOM     39  C   UNL     1     -47.020  33.627  25.748  1.00  0.00    -0.019 A 
ATOM     40  C   UNL     1     -49.043  34.375  26.816  1.00  0.00     0.007 A 
ATOM     41  C   UNL     1     -46.450  34.881  25.952  1.00  0.00    -0.049 A 
ATOM     42  H   UNL     1     -46.448  32.848  25.251  1.00  0.00     0.066 H 
ATOM     43  C   UNL     1     -48.500  35.637  27.034  1.00  0.00     0.076 A 
ATOM     44  H   UNL     1     -50.052  34.214  27.176  1.00  0.00     0.069 H 
ATOM     45  C   UNL     1     -47.184  35.889  26.593  1.00  0.00     0.001 A 
ATOM     46  H   UNL     1     -45.435  35.065  25.609  1.00  0.00     0.063 H 
ATOM     47  N   UNL     1     -49.241  36.573  27.657  1.00  0.00    -0.231 NA
ATOM     48  C   UNL     1     -46.651  37.162  26.816  1.00  0.00    -0.049 A 
ATOM     49  C   UNL     1     -48.702  37.786  27.865  1.00  0.00     0.124 A 
ATOM     50  C   UNL     1     -47.423  38.124  27.458  1.00  0.00    -0.019 A 
ATOM     51  H   UNL     1     -45.646  37.412  26.490  1.00  0.00     0.063 H 
ATOM     52  H   UNL     1     -47.033  39.122  27.625  1.00  0.00     0.066 H 
BRANCH  49  53
ATOM     53  N   UNL     1     -49.513  38.725  28.496  1.00  0.00    -0.384 N 
ATOM     54  H   UNL     1     -49.915  38.354  29.350  1.00  0.00     0.158 HD
ATOM     55  H   UNL     1     -50.230  38.990  27.826  1.00  0.00     0.158 HD
ENDBRANCH  49  53
ENDBRANCH  37  38
ENDBRANCH   1  37
TORSDOF 9
ENDMDL
MODEL 3
REMARK VINA RESULT:      -9.3      1.645      2.566
REMARK SMILES Cc1cc2c(N)ncnc2n1[C@@H]1C[C@H](COc2ccc3ccc(N)nc3c2)[C@@H](O)[C@H]1O
REMARK SMILES IDX 15 1 14 4 12 5 13 6 30 7 28 11 11 15 2 16 3 17 4 18 10 20
REMARK SMILES IDX 5 21 9 22 7 23 8 24 1 26 6 30 31 33 29 35 16 37 17 38 18 39
REMARK SMILES IDX 27 40 19 41 26 43 20 45 25 47 21 48 23 49 22 50 24 53
REMARK H PARENT 15 2 15 3 12 8 13 9 13 10 30 12 14 13 28 14 3 19 8 25 1 27
REMARK H PARENT 1 28 1 29 6 31 6 32 31 34 29 36 18 42 27 44 19 46 21 51 22 52
REMARK H PARENT 24 54 24 55
REMARK Flexibility Score: inf
ROOT
ATOM      1  C   UNL     1     -45.820  36.097  27.441  1.00  0.00     0.094 C 
ATOM      2  H   UNL     1     -45.650  35.143  27.953  1.00  0.00     0.071 H 
ATOM      3  H   UNL     1     -44.831  36.415  27.092  1.00  0.00     0.071 H 
ENDROOT
BRANCH   1   4
ATOM      4  C   UNL     1     -46.406  37.163  28.379  1.00  0.00     0.024 C 
ATOM      5  C   UNL     1     -45.657  39.535  28.234  1.00  0.00     0.064 C 
ATOM      6  C   UNL     1     -45.311  38.152  28.835  1.00  0.00    -0.021 C 
ATOM      7  C   UNL     1     -46.621  39.176  27.086  1.00  0.00     0.101 C 
ATOM      8  H   UNL     1     -46.201  40.140  28.974  1.00  0.00     0.056 H 
ATOM      9  H   UNL     1     -45.314  38.211  29.930  1.00  0.00     0.029 H 
ATOM     10  H   UNL     1     -44.314  37.811  28.534  1.00  0.00     0.029 H 
ATOM     11  C   UNL     1     -47.450  38.040  27.688  1.00  0.00     0.088 C 
ATOM     12  H   UNL     1     -46.102  38.807  26.194  1.00  0.00     0.065 H 
ATOM     13  H   UNL     1     -46.851  36.676  29.254  1.00  0.00     0.037 H 
ATOM     14  H   UNL     1     -48.061  37.523  26.943  1.00  0.00     0.063 H 
BRANCH   5  15
ATOM     15  N   UNL     1     -44.477  40.337  27.908  1.00  0.00    -0.324 N 
ATOM     16  C   UNL     1     -43.313  40.373  28.668  1.00  0.00     0.018 A 
ATOM     17  C   UNL     1     -42.422  41.213  28.025  1.00  0.00    -0.028 A 
ATOM     18  C   UNL     1     -43.073  41.771  26.899  1.00  0.00     0.061 A 
ATOM     19  H   UNL     1     -41.418  41.438  28.362  1.00  0.00     0.065 H 
ATOM     20  C   UNL     1     -44.357  41.244  26.872  1.00  0.00     0.146 A 
ATOM     21  C   UNL     1     -42.736  42.694  25.899  1.00  0.00     0.136 A 
ATOM     22  N   UNL     1     -45.314  41.574  25.984  1.00  0.00    -0.218 NA
ATOM     23  N   UNL     1     -43.659  43.022  24.977  1.00  0.00    -0.219 NA
ATOM     24  C   UNL     1     -44.877  42.463  25.074  1.00  0.00     0.120 A 
ATOM     25  H   UNL     1     -45.598  42.767  24.321  1.00  0.00     0.106 H 
BRANCH  16  26
ATOM     26  C   UNL     1     -43.110  39.628  29.942  1.00  0.00    -0.024 C 
ATOM     27  H   UNL     1     -42.083  39.261  30.033  1.00  0.00     0.029 H 
ATOM     28  H   UNL     1     -43.340  40.266  30.801  1.00  0.00     0.029 H 
ATOM     29  H   UNL     1     -43.773  38.758  29.988  1.00  0.00     0.029 H 
ENDBRANCH  16  26
BRANCH  21  30
ATOM     30  N   UNL     1     -41.489  43.291  25.791  1.00  0.00    -0.383 N 
ATOM     31  H   UNL     1     -41.468  44.140  25.244  1.00  0.00     0.158 HD
ATOM     32  H   UNL     1     -41.025  43.322  26.691  1.00  0.00     0.158 HD
ENDBRANCH  21  30
ENDBRANCH   5  15
BRANCH   7  33
ATOM     33  O   UNL     1     -47.478  40.258  26.729  1.00  0.00    -0.388 OA
ATOM     34  H   UNL     1     -48.375  39.860  26.687  1.00  0.00     0.211 HD
ENDBRANCH   7  33
BRANCH  11  35
ATOM     35  O   UNL     1     -48.338  38.582  28.673  1.00  0.00    -0.390 OA
ATOM     36  H   UNL     1     -47.746  38.981  29.345  1.00  0.00     0.211 HD
ENDBRANCH  11  35
ENDBRANCH   1   4
BRANCH   1  37
ATOM     37  O   UNL     1     -46.618  35.937  26.269  1.00  0.00    -0.493 OA
BRANCH  37  38
ATOM     38  C   UNL     1     -47.081  34.692  25.946  1.00  0.00     0.121 A 
ATOM     39  C   UNL     1     -48.332  34.388  26.484  1.00  0.00    -0.019 A 
ATOM     40  C   UNL     1     -46.427  33.739  25.163  1.00  0.00     0.007 A 
ATOM     41  C   UNL     1     -48.924  33.152  26.235  1.00  0.00    -0.049 A 
ATOM     42  H   UNL     1     -48.849  35.120  27.099  1.00  0.00     0.066 H 
ATOM     43  C   UNL     1     -46.993  32.497  24.898  1.00  0.00     0.076 A 
ATOM     44  H   UNL     1     -45.449  33.928  24.735  1.00  0.00     0.069 H 
ATOM     45  C   UNL     1     -48.259  32.203  25.443  1.00  0.00     0.001 A 
ATOM     46  H   UNL     1     -49.900  32.934  26.661  1.00  0.00     0.063 H 
ATOM     47  N   UNL     1     -46.317  31.617  24.134  1.00  0.00    -0.231 NA
ATOM     48  C   UNL     1     -48.818  30.952  25.167  1.00  0.00    -0.049 A 
ATOM     49  C   UNL     1     -46.873  30.418  23.891  1.00  0.00     0.124 A 
ATOM     50  C   UNL     1     -48.116  30.049  24.376  1.00  0.00    -0.019 A 
ATOM     51  H   UNL     1     -49.794  30.678  25.555  1.00  0.00     0.063 H 
ATOM     52  H   UNL     1     -48.539  29.080  24.138  1.00  0.00     0.066 H 
BRANCH  49  53
ATOM     53  N   UNL     1     -46.145  29.550  23.081  1.00  0.00    -0.384 N 
ATOM     54  H   UNL     1     -45.429  30.043  22.560  1.00  0.00     0.158 HD
ATOM     55  H   UNL     1     -46.813  29.093  22.466  1.00  0.00     0.158 HD
ENDBRANCH  49  53
ENDBRANCH  37  38
ENDBRANCH   1  37
TORSDOF 9
ENDMDL
MODEL 4
REMARK VINA RESULT:      -9.0      3.338     11.114
REMARK SMILES Cc1cc2c(N)ncnc2n1[C@@H]1C[C@H](COc2ccc3ccc(N)nc3c2)[C@@H](O)[C@H]1O
REMARK SMILES IDX 15 1 14 4 12 5 13 6 30 7 28 11 11 15 2 16 3 17 4 18 10 20
REMARK SMILES IDX 5 21 9 22 7 23 8 24 1 26 6 30 31 33 29 35 16 37 17 38 18 39
REMARK SMILES IDX 27 40 19 41 26 43 20 45 25 47 21 48 23 49 22 50 24 53
REMARK H PARENT 15 2 15 3 12 8 13 9 13 10 30 12 14 13 28 14 3 19 8 25 1 27
REMARK H PARENT 1 28 1 29 6 31 6 32 31 34 29 36 18 42 27 44 19 46 21 51 22 52
REMARK H PARENT 24 54 24 55
REMARK Flexibility Score: inf
ROOT
ATOM      1  C   UNL     1     -48.512  32.393  25.909  1.00  0.00     0.094 C 
ATOM      2  H   UNL     1     -48.866  31.537  26.494  1.00  0.00     0.071 H 
ATOM      3  H   UNL     1     -49.323  33.130  25.960  1.00  0.00     0.071 H 
ENDROOT
BRANCH   1   4
ATOM      4  C   UNL     1     -48.239  32.024  24.444  1.00  0.00     0.024 C 
ATOM      5  C   UNL     1     -47.990  29.643  23.756  1.00  0.00     0.064 C 
ATOM      6  C   UNL     1     -47.235  30.855  24.352  1.00  0.00    -0.021 C 
ATOM      7  C   UNL     1     -49.467  30.009  23.999  1.00  0.00     0.101 C 
ATOM      8  H   UNL     1     -47.814  29.588  22.672  1.00  0.00     0.056 H 
ATOM      9  H   UNL     1     -46.409  31.141  23.689  1.00  0.00     0.029 H 
ATOM     10  H   UNL     1     -46.797  30.625  25.330  1.00  0.00     0.029 H 
ATOM     11  C   UNL     1     -49.488  31.514  23.726  1.00  0.00     0.088 C 
ATOM     12  H   UNL     1     -49.787  29.827  25.031  1.00  0.00     0.065 H 
ATOM     13  H   UNL     1     -47.838  32.897  23.915  1.00  0.00     0.037 H 
ATOM     14  H   UNL     1     -50.422  31.987  24.041  1.00  0.00     0.063 H 
BRANCH   5  15
ATOM     15  N   UNL     1     -47.514  28.356  24.265  1.00  0.00    -0.324 N 
ATOM     16  C   UNL     1     -46.308  27.763  23.907  1.00  0.00     0.018 A 
ATOM     17  C   UNL     1     -46.199  26.580  24.616  1.00  0.00    -0.028 A 
ATOM     18  C   UNL     1     -47.391  26.396  25.357  1.00  0.00     0.061 A 
ATOM     19  H   UNL     1     -45.363  25.894  24.565  1.00  0.00     0.065 H 
ATOM     20  C   UNL     1     -48.205  27.489  25.091  1.00  0.00     0.146 A 
ATOM     21  C   UNL     1     -47.901  25.409  26.212  1.00  0.00     0.136 A 
ATOM     22  N   UNL     1     -49.455  27.660  25.561  1.00  0.00    -0.218 NA
ATOM     23  N   UNL     1     -49.134  25.563  26.724  1.00  0.00    -0.219 NA
ATOM     24  C   UNL     1     -49.835  26.653  26.369  1.00  0.00     0.120 A 
ATOM     25  H   UNL     1     -50.832  26.732  26.792  1.00  0.00     0.106 H 
BRANCH  16  26
ATOM     26  C   UNL     1     -45.342  28.333  22.927  1.00  0.00    -0.024 C 
ATOM     27  H   UNL     1     -45.432  27.851  21.949  1.00  0.00     0.029 H 
ATOM     28  H   UNL     1     -45.499  29.410  22.813  1.00  0.00     0.029 H 
ATOM     29  H   UNL     1     -44.313  28.183  23.270  1.00  0.00     0.029 H 
ENDBRANCH  16  26
BRANCH  21  30
ATOM     30  N   UNL     1     -47.197  24.271  26.578  1.00  0.00    -0.383 N 
ATOM     31  H   UNL     1     -47.769  23.465  26.787  1.00  0.00     0.158 HD
ATOM     32  H   UNL     1     -46.410  24.119  25.959  1.00  0.00     0.158 HD
ENDBRANCH  21  30
ENDBRANCH   5  15
BRANCH   7  33
ATOM     33  O   UNL     1     -50.354  29.346  23.099  1.00  0.00    -0.388 OA
ATOM     34  H   UNL     1     -50.144  29.729  22.219  1.00  0.00     0.211 HD
ENDBRANCH   7  33
BRANCH  11  35
ATOM     35  O   UNL     1     -49.347  31.735  22.318  1.00  0.00    -0.390 OA
ATOM     36  H   UNL     1     -50.162  32.217  22.061  1.00  0.00     0.211 HD
ENDBRANCH  11  35
ENDBRANCH   1   4
BRANCH   1  37
ATOM     37  O   UNL     1     -47.378  33.017  26.512  1.00  0.00    -0.493 OA
BRANCH  37  38
ATOM     38  C   UNL     1     -47.466  34.325  26.896  1.00  0.00     0.121 A 
ATOM     39  C   UNL     1     -48.763  34.837  26.897  1.00  0.00    -0.019 A 
ATOM     40  C   UNL     1     -46.406  35.155  27.265  1.00  0.00     0.007 A 
ATOM     41  C   UNL     1     -48.999  36.159  27.268  1.00  0.00    -0.049 A 
ATOM     42  H   UNL     1     -49.596  34.201  26.608  1.00  0.00     0.066 H 
ATOM     43  C   UNL     1     -46.611  36.479  27.640  1.00  0.00     0.076 A 
ATOM     44  H   UNL     1     -45.381  34.803  27.268  1.00  0.00     0.069 H 
ATOM     45  C   UNL     1     -47.927  36.984  27.641  1.00  0.00     0.001 A 
ATOM     46  H   UNL     1     -50.017  36.539  27.264  1.00  0.00     0.063 H 
ATOM     47  N   UNL     1     -45.551  37.234  27.987  1.00  0.00    -0.231 NA
ATOM     48  C   UNL     1     -48.118  38.315  28.022  1.00  0.00    -0.049 A 
ATOM     49  C   UNL     1     -45.762  38.513  28.342  1.00  0.00     0.124 A 
ATOM     50  C   UNL     1     -47.021  39.088  28.381  1.00  0.00    -0.019 A 
ATOM     51  H   UNL     1     -49.113  38.751  28.048  1.00  0.00     0.063 H 
ATOM     52  H   UNL     1     -47.150  40.118  28.696  1.00  0.00     0.066 H 
BRANCH  49  53
ATOM     53  N   UNL     1     -44.638  39.248  28.711  1.00  0.00    -0.384 N 
ATOM     54  H   UNL     1     -44.869  40.221  28.872  1.00  0.00     0.158 HD
ATOM     55  H   UNL     1     -43.959  39.139  27.962  1.00  0.00     0.158 HD
ENDBRANCH  49  53
ENDBRANCH  37  38
ENDBRANCH   1  37
TORSDOF 9
ENDMDL
MODEL 5
REMARK VINA RESULT:      -8.8      2.911      4.566
REMARK SMILES Cc1cc2c(N)ncnc2n1[C@@H]1C[C@H](COc2ccc3ccc(N)nc3c2)[C@@H](O)[C@H]1O
REMARK SMILES IDX 15 1 14 4 12 5 13 6 30 7 28 11 11 15 2 16 3 17 4 18 10 20
REMARK SMILES IDX 5 21 9 22 7 23 8 24 1 26 6 30 31 33 29 35 16 37 17 38 18 39
REMARK SMILES IDX 27 40 19 41 26 43 20 45 25 47 21 48 23 49 22 50 24 53
REMARK H PARENT 15 2 15 3 12 8 13 9 13 10 30 12 14 13 28 14 3 19 8 25 1 27
REMARK H PARENT 1 28 1 29 6 31 6 32 31 34 29 36 18 42 27 44 19 46 21 51 22 52
REMARK H PARENT 24 54 24 55
REMARK Flexibility Score: inf
ROOT
ATOM      1  C   UNL     1     -48.042  33.787  26.076  1.00  0.00     0.094 C 
ATOM      2  H   UNL     1     -48.286  33.972  25.024  1.00  0.00     0.071 H 
ATOM      3  H   UNL     1     -48.838  34.282  26.645  1.00  0.00     0.071 H 
ENDROOT
BRANCH   1   4
ATOM      4  C   UNL     1     -46.680  34.377  26.470  1.00  0.00     0.024 C 
ATOM      5  C   UNL     1     -46.537  36.525  27.723  1.00  0.00     0.064 C 
ATOM      6  C   UNL     1     -46.681  35.912  26.310  1.00  0.00    -0.021 C 
ATOM      7  C   UNL     1     -46.955  35.361  28.643  1.00  0.00     0.101 C 
ATOM      8  H   UNL     1     -45.483  36.768  27.920  1.00  0.00     0.056 H 
ATOM      9  H   UNL     1     -45.830  36.210  25.687  1.00  0.00     0.029 H 
ATOM     10  H   UNL     1     -47.588  36.261  25.802  1.00  0.00     0.029 H 
ATOM     11  C   UNL     1     -46.345  34.145  27.943  1.00  0.00     0.088 C 
ATOM     12  H   UNL     1     -48.043  35.233  28.701  1.00  0.00     0.065 H 
ATOM     13  H   UNL     1     -45.896  33.941  25.839  1.00  0.00     0.037 H 
ATOM     14  H   UNL     1     -46.707  33.198  28.351  1.00  0.00     0.063 H 
BRANCH   5  15
ATOM     15  N   UNL     1     -47.237  37.801  27.876  1.00  0.00    -0.324 N 
ATOM     16  C   UNL     1     -46.610  39.037  27.989  1.00  0.00     0.018 A 
ATOM     17  C   UNL     1     -47.599  39.999  28.084  1.00  0.00    -0.028 A 
ATOM     18  C   UNL     1     -48.853  39.343  28.117  1.00  0.00     0.061 A 
ATOM     19  H   UNL     1     -47.430  41.065  28.171  1.00  0.00     0.065 H 
ATOM     20  C   UNL     1     -48.600  37.981  28.028  1.00  0.00     0.146 A 
ATOM     21  C   UNL     1     -50.192  39.740  28.242  1.00  0.00     0.136 A 
ATOM     22  N   UNL     1     -49.532  37.012  28.085  1.00  0.00    -0.218 NA
ATOM     23  N   UNL     1     -51.152  38.799  28.270  1.00  0.00    -0.219 NA
ATOM     24  C   UNL     1     -50.776  37.511  28.202  1.00  0.00     0.120 A 
ATOM     25  H   UNL     1     -51.580  36.781  28.245  1.00  0.00     0.106 H 
BRANCH  16  26
ATOM     26  C   UNL     1     -45.134  39.239  28.007  1.00  0.00    -0.024 C 
ATOM     27  H   UNL     1     -44.636  38.499  28.640  1.00  0.00     0.029 H 
ATOM     28  H   UNL     1     -44.725  39.178  26.994  1.00  0.00     0.029 H 
ATOM     29  H   UNL     1     -44.887  40.228  28.405  1.00  0.00     0.029 H 
ENDBRANCH  16  26
BRANCH  21  30
ATOM     30  N   UNL     1     -50.597  41.064  28.326  1.00  0.00    -0.383 N 
ATOM     31  H   UNL     1     -51.479  41.270  27.880  1.00  0.00     0.158 HD
ATOM     32  H   UNL     1     -50.472  41.420  29.267  1.00  0.00     0.158 HD
ENDBRANCH  21  30
ENDBRANCH   5  15
BRANCH   7  33
ATOM     33  O   UNL     1     -46.416  35.478  29.958  1.00  0.00    -0.388 OA
ATOM     34  H   UNL     1     -47.046  36.064  30.432  1.00  0.00     0.211 HD
ENDBRANCH   7  33
BRANCH  11  35
ATOM     35  O   UNL     1     -44.924  34.173  28.115  1.00  0.00    -0.390 OA
ATOM     36  H   UNL     1     -44.594  33.435  27.560  1.00  0.00     0.211 HD
ENDBRANCH  11  35
ENDBRANCH   1   4
BRANCH   1  37
ATOM     37  O   UNL     1     -48.127  32.401  26.407  1.00  0.00    -0.493 OA
BRANCH  37  38
ATOM     38  C   UNL     1     -48.348  31.493  25.409  1.00  0.00     0.121 A 
ATOM     39  C   UNL     1     -48.681  30.216  25.858  1.00  0.00    -0.019 A 
ATOM     40  C   UNL     1     -48.264  31.732  24.036  1.00  0.00     0.007 A 
ATOM     41  C   UNL     1     -48.934  29.192  24.947  1.00  0.00    -0.049 A 
ATOM     42  H   UNL     1     -48.746  30.018  26.925  1.00  0.00     0.066 H 
ATOM     43  C   UNL     1     -48.510  30.730  23.103  1.00  0.00     0.076 A 
ATOM     44  H   UNL     1     -47.996  32.705  23.642  1.00  0.00     0.069 H 
ATOM     45  C   UNL     1     -48.849  29.444  23.570  1.00  0.00     0.001 A 
ATOM     46  H   UNL     1     -49.194  28.204  25.317  1.00  0.00     0.063 H 
ATOM     47  N   UNL     1     -48.414  31.017  21.791  1.00  0.00    -0.231 NA
ATOM     48  C   UNL     1     -49.097  28.446  22.622  1.00  0.00    -0.049 A 
ATOM     49  C   UNL     1     -48.649  30.037  20.901  1.00  0.00     0.124 A 
ATOM     50  C   UNL     1     -48.999  28.750  21.269  1.00  0.00    -0.019 A 
ATOM     51  H   UNL     1     -49.370  27.441  22.927  1.00  0.00     0.063 H 
ATOM     52  H   UNL     1     -49.202  27.994  20.518  1.00  0.00     0.066 H 
BRANCH  49  53
ATOM     53  N   UNL     1     -48.557  30.387  19.556  1.00  0.00    -0.384 N 
ATOM     54  H   UNL     1     -48.688  29.582  18.954  1.00  0.00     0.158 HD
ATOM     55  H   UNL     1     -47.642  30.811  19.426  1.00  0.00     0.158 HD
ENDBRANCH  49  53
ENDBRANCH  37  38
ENDBRANCH   1  37
TORSDOF 9
ENDMDL
MODEL 6
REMARK VINA RESULT:      -8.8      3.374      5.087
REMARK SMILES Cc1cc2c(N)ncnc2n1[C@@H]1C[C@H](COc2ccc3ccc(N)nc3c2)[C@@H](O)[C@H]1O
REMARK SMILES IDX 15 1 14 4 12 5 13 6 30 7 28 11 11 15 2 16 3 17 4 18 10 20
REMARK SMILES IDX 5 21 9 22 7 23 8 24 1 26 6 30 31 33 29 35 16 37 17 38 18 39
REMARK SMILES IDX 27 40 19 41 26 43 20 45 25 47 21 48 23 49 22 50 24 53
REMARK H PARENT 15 2 15 3 12 8 13 9 13 10 30 12 14 13 28 14 3 19 8 25 1 27
REMARK H PARENT 1 28 1 29 6 31 6 32 31 34 29 36 18 42 27 44 19 46 21 51 22 52
REMARK H PARENT 24 54 24 55
REMARK Flexibility Score: inf
ROOT
ATOM      1  C   UNL     1     -47.986  33.581  26.134  1.00  0.00     0.094 C 
ATOM      2  H   UNL     1     -48.866  34.233  26.157  1.00  0.00     0.071 H 
ATOM      3  H   UNL     1     -48.166  32.829  26.912  1.00  0.00     0.071 H 
ENDROOT
BRANCH   1   4
ATOM      4  C   UNL     1     -46.689  34.343  26.441  1.00  0.00     0.024 C 
ATOM      5  C   UNL     1     -46.746  36.511  27.667  1.00  0.00     0.064 C 
ATOM      6  C   UNL     1     -46.894  35.864  26.270  1.00  0.00    -0.021 C 
ATOM      7  C   UNL     1     -46.960  35.318  28.619  1.00  0.00     0.101 C 
ATOM      8  H   UNL     1     -45.722  36.888  27.799  1.00  0.00     0.056 H 
ATOM      9  H   UNL     1     -46.124  36.257  25.595  1.00  0.00     0.029 H 
ATOM     10  H   UNL     1     -47.865  36.088  25.814  1.00  0.00     0.029 H 
ATOM     11  C   UNL     1     -46.243  34.178  27.894  1.00  0.00     0.088 C 
ATOM     12  H   UNL     1     -48.017  35.055  28.743  1.00  0.00     0.065 H 
ATOM     13  H   UNL     1     -45.895  34.000  25.768  1.00  0.00     0.037 H 
ATOM     14  H   UNL     1     -46.458  33.199  28.330  1.00  0.00     0.063 H 
BRANCH   5  15
ATOM     15  N   UNL     1     -47.592  37.691  27.852  1.00  0.00    -0.324 N 
ATOM     16  C   UNL     1     -47.116  38.992  27.977  1.00  0.00     0.018 A 
ATOM     17  C   UNL     1     -48.211  39.826  28.103  1.00  0.00    -0.028 A 
ATOM     18  C   UNL     1     -49.377  39.024  28.141  1.00  0.00     0.061 A 
ATOM     19  H   UNL     1     -48.170  40.903  28.205  1.00  0.00     0.065 H 
ATOM     20  C   UNL     1     -48.963  37.704  28.025  1.00  0.00     0.146 A 
ATOM     21  C   UNL     1     -50.752  39.255  28.290  1.00  0.00     0.136 A 
ATOM     22  N   UNL     1     -49.772  36.628  28.077  1.00  0.00    -0.218 NA
ATOM     23  N   UNL     1     -51.591  38.205  28.316  1.00  0.00    -0.219 NA
ATOM     24  C   UNL     1     -51.065  36.972  28.220  1.00  0.00     0.120 A 
ATOM     25  H   UNL     1     -51.774  36.151  28.261  1.00  0.00     0.106 H 
BRANCH  16  26
ATOM     26  C   UNL     1     -45.675  39.369  27.979  1.00  0.00    -0.024 C 
ATOM     27  H   UNL     1     -45.329  39.627  28.984  1.00  0.00     0.029 H 
ATOM     28  H   UNL     1     -45.062  38.552  27.586  1.00  0.00     0.029 H 
ATOM     29  H   UNL     1     -45.507  40.244  27.343  1.00  0.00     0.029 H 
ENDBRANCH  16  26
BRANCH  21  30
ATOM     30  N   UNL     1     -51.311  40.519  28.404  1.00  0.00    -0.383 N 
ATOM     31  H   UNL     1     -50.852  41.132  29.062  1.00  0.00     0.158 HD
ATOM     32  H   UNL     1     -51.512  40.907  27.489  1.00  0.00     0.158 HD
ENDBRANCH  21  30
ENDBRANCH   5  15
BRANCH   7  33
ATOM     33  O   UNL     1     -46.364  35.522  29.899  1.00  0.00    -0.388 OA
ATOM     34  H   UNL     1     -46.045  36.450  29.877  1.00  0.00     0.211 HD
ENDBRANCH   7  33
BRANCH  11  35
ATOM     35  O   UNL     1     -44.828  34.387  27.980  1.00  0.00    -0.390 OA
ATOM     36  H   UNL     1     -44.676  34.663  28.909  1.00  0.00     0.211 HD
ENDBRANCH  11  35
ENDBRANCH   1   4
BRANCH   1  37
ATOM     37  O   UNL     1     -47.891  32.859  24.906  1.00  0.00    -0.493 OA
BRANCH  37  38
ATOM     38  C   UNL     1     -48.529  31.657  24.791  1.00  0.00     0.121 A 
ATOM     39  C   UNL     1     -49.508  31.619  23.798  1.00  0.00    -0.019 A 
ATOM     40  C   UNL     1     -48.295  30.516  25.561  1.00  0.00     0.007 A 
ATOM     41  C   UNL     1     -50.237  30.453  23.573  1.00  0.00    -0.049 A 
ATOM     42  H   UNL     1     -49.701  32.502  23.196  1.00  0.00     0.066 H 
ATOM     43  C   UNL     1     -49.007  29.339  25.359  1.00  0.00     0.076 A 
ATOM     44  H   UNL     1     -47.553  30.504  26.351  1.00  0.00     0.069 H 
ATOM     45  C   UNL     1     -49.991  29.311  24.350  1.00  0.00     0.001 A 
ATOM     46  H   UNL     1     -50.994  30.443  22.793  1.00  0.00     0.063 H 
ATOM     47  N   UNL     1     -48.739  28.268  26.131  1.00  0.00    -0.231 NA
ATOM     48  C   UNL     1     -50.698  28.121  24.156  1.00  0.00    -0.049 A 
ATOM     49  C   UNL     1     -49.439  27.139  25.928  1.00  0.00     0.124 A 
ATOM     50  C   UNL     1     -50.415  27.019  24.954  1.00  0.00    -0.019 A 
ATOM     51  H   UNL     1     -51.461  28.043  23.386  1.00  0.00     0.063 H 
ATOM     52  H   UNL     1     -50.941  26.082  24.808  1.00  0.00     0.066 H 
BRANCH  49  53
ATOM     53  N   UNL     1     -49.112  26.054  26.738  1.00  0.00    -0.384 N 
ATOM     54  H   UNL     1     -48.203  26.174  27.170  1.00  0.00     0.158 HD
ATOM     55  H   UNL     1     -49.143  25.227  26.147  1.00  0.00     0.158 HD
ENDBRANCH  49  53
ENDBRANCH  37  38
ENDBRANCH   1  37
TORSDOF 9
ENDMDL
MODEL 7
REMARK VINA RESULT:      -8.8      4.223     11.405
REMARK SMILES Cc1cc2c(N)ncnc2n1[C@@H]1C[C@H](COc2ccc3ccc(N)nc3c2)[C@@H](O)[C@H]1O
REMARK SMILES IDX 15 1 14 4 12 5 13 6 30 7 28 11 11 15 2 16 3 17 4 18 10 20
REMARK SMILES IDX 5 21 9 22 7 23 8 24 1 26 6 30 31 33 29 35 16 37 17 38 18 39
REMARK SMILES IDX 27 40 19 41 26 43 20 45 25 47 21 48 23 49 22 50 24 53
REMARK H PARENT 15 2 15 3 12 8 13 9 13 10 30 12 14 13 28 14 3 19 8 25 1 27
REMARK H PARENT 1 28 1 29 6 31 6 32 31 34 29 36 18 42 27 44 19 46 21 51 22 52
REMARK H PARENT 24 54 24 55
REMARK Flexibility Score: inf
ROOT
ATOM      1  C   UNL     1     -46.088  31.465  23.288  1.00  0.00     0.094 C 
ATOM      2  H   UNL     1     -46.138  32.497  22.922  1.00  0.00     0.071 H 
ATOM      3  H   UNL     1     -45.038  31.309  23.562  1.00  0.00     0.071 H 
ENDROOT
BRANCH   1   4
ATOM      4  C   UNL     1     -46.502  30.447  22.216  1.00  0.00     0.024 C 
ATOM      5  C   UNL     1     -48.200  28.693  22.712  1.00  0.00     0.064 C 
ATOM      6  C   UNL     1     -46.699  29.047  22.836  1.00  0.00    -0.021 C 
ATOM      7  C   UNL     1     -48.857  30.071  22.492  1.00  0.00     0.101 C 
ATOM      8  H   UNL     1     -48.367  28.077  21.817  1.00  0.00     0.056 H 
ATOM      9  H   UNL     1     -46.098  28.319  22.280  1.00  0.00     0.029 H 
ATOM     10  H   UNL     1     -46.356  29.019  23.877  1.00  0.00     0.029 H 
ATOM     11  C   UNL     1     -47.853  30.779  21.582  1.00  0.00     0.088 C 
ATOM     12  H   UNL     1     -48.967  30.643  23.420  1.00  0.00     0.065 H 
ATOM     13  H   UNL     1     -45.730  30.400  21.439  1.00  0.00     0.037 H 
ATOM     14  H   UNL     1     -48.059  31.848  21.478  1.00  0.00     0.063 H 
BRANCH   5  15
ATOM     15  N   UNL     1     -48.696  27.870  23.816  1.00  0.00    -0.324 N 
ATOM     16  C   UNL     1     -47.888  27.123  24.667  1.00  0.00     0.018 A 
ATOM     17  C   UNL     1     -48.713  26.512  25.594  1.00  0.00    -0.028 A 
ATOM     18  C   UNL     1     -50.056  26.816  25.260  1.00  0.00     0.061 A 
ATOM     19  H   UNL     1     -48.383  25.872  26.401  1.00  0.00     0.065 H 
ATOM     20  C   UNL     1     -50.019  27.624  24.132  1.00  0.00     0.146 A 
ATOM     21  C   UNL     1     -51.318  26.477  25.767  1.00  0.00     0.136 A 
ATOM     22  N   UNL     1     -51.097  28.080  23.467  1.00  0.00    -0.218 NA
ATOM     23  N   UNL     1     -52.416  26.942  25.145  1.00  0.00    -0.219 NA
ATOM     24  C   UNL     1     -52.249  27.694  24.045  1.00  0.00     0.120 A 
ATOM     25  H   UNL     1     -53.161  28.036  23.563  1.00  0.00     0.106 H 
BRANCH  16  26
ATOM     26  C   UNL     1     -46.406  27.024  24.558  1.00  0.00    -0.024 C 
ATOM     27  H   UNL     1     -45.938  28.013  24.544  1.00  0.00     0.029 H 
ATOM     28  H   UNL     1     -45.997  26.443  25.390  1.00  0.00     0.029 H 
ATOM     29  H   UNL     1     -46.124  26.517  23.629  1.00  0.00     0.029 H 
ENDBRANCH  16  26
BRANCH  21  30
ATOM     30  N   UNL     1     -51.509  25.691  26.893  1.00  0.00    -0.383 N 
ATOM     31  H   UNL     1     -50.677  25.515  27.437  1.00  0.00     0.158 HD
ATOM     32  H   UNL     1     -52.330  25.990  27.407  1.00  0.00     0.158 HD
ENDBRANCH  21  30
ENDBRANCH   5  15
BRANCH   7  33
ATOM     33  O   UNL     1     -50.119  29.979  21.833  1.00  0.00    -0.388 OA
ATOM     34  H   UNL     1     -50.294  29.015  21.767  1.00  0.00     0.211 HD
ENDBRANCH   7  33
BRANCH  11  35
ATOM     35  O   UNL     1     -47.917  30.199  20.275  1.00  0.00    -0.390 OA
ATOM     36  H   UNL     1     -48.741  30.561  19.885  1.00  0.00     0.211 HD
ENDBRANCH  11  35
ENDBRANCH   1   4
BRANCH   1  37
ATOM     37  O   UNL     1     -46.837  31.291  24.491  1.00  0.00    -0.493 OA
BRANCH  37  38
ATOM     38  C   UNL     1     -47.270  32.397  25.169  1.00  0.00     0.121 A 
ATOM     39  C   UNL     1     -48.622  32.369  25.509  1.00  0.00    -0.019 A 
ATOM     40  C   UNL     1     -46.500  33.506  25.525  1.00  0.00     0.007 A 
ATOM     41  C   UNL     1     -49.196  33.432  26.203  1.00  0.00    -0.049 A 
ATOM     42  H   UNL     1     -49.231  31.512  25.233  1.00  0.00     0.066 H 
ATOM     43  C   UNL     1     -47.046  34.582  26.217  1.00  0.00     0.076 A 
ATOM     44  H   UNL     1     -45.449  33.575  25.271  1.00  0.00     0.069 H 
ATOM     45  C   UNL     1     -48.413  34.540  26.559  1.00  0.00     0.001 A 
ATOM     46  H   UNL     1     -50.251  33.391  26.460  1.00  0.00     0.063 H 
ATOM     47  N   UNL     1     -46.256  35.625  26.536  1.00  0.00    -0.231 NA
ATOM     48  C   UNL     1     -48.947  35.627  27.257  1.00  0.00    -0.049 A 
ATOM     49  C   UNL     1     -46.797  36.661  27.200  1.00  0.00     0.124 A 
ATOM     50  C   UNL     1     -48.126  36.700  27.585  1.00  0.00    -0.019 A 
ATOM     51  H   UNL     1     -49.993  35.642  27.552  1.00  0.00     0.063 H 
ATOM     52  H   UNL     1     -48.519  37.545  28.140  1.00  0.00     0.066 H 
BRANCH  49  53
ATOM     53  N   UNL     1     -45.938  37.707  27.524  1.00  0.00    -0.384 N 
ATOM     54  H   UNL     1     -46.151  38.541  26.988  1.00  0.00     0.158 HD
ATOM     55  H   UNL     1     -44.993  37.376  27.347  1.00  0.00     0.158 HD
ENDBRANCH  49  53
ENDBRANCH  37  38
ENDBRANCH   1  37
TORSDOF 9
ENDMDL
