MODEL 1
REMARK VINA RESULT:      -9.6      0.000      0.000
REMARK SMILES CCc1cc(N(C)C2CC2)c2ccc(OCc3cncc(-n4cc([C@@H]5CCCO5)c5c(N)ncnc54)n3)cc2n1
REMARK SMILES IDX 16 1 15 4 14 5 3 6 4 7 40 8 5 9 39 11 11 12 38 13 12 14
REMARK SMILES IDX 13 16 2 19 1 22 6 26 7 27 8 31 9 32 10 33 17 39 18 40 37 41
REMARK SMILES IDX 19 42 21 44 20 45 22 47 23 48 36 49 24 50 30 52 35 53 31 54
REMARK SMILES IDX 34 55 33 56 25 58 26 59 29 60 27 62 28 65 32 70
REMARK H PARENT 16 2 16 3 4 10 38 15 12 17 13 18 2 20 2 21 1 23 1 24 1 25 7 28
REMARK H PARENT 7 29 7 30 8 34 9 35 9 36 10 37 10 38 18 43 20 46 23 51 34 57
REMARK H PARENT 25 61 26 63 26 64 27 66 27 67 28 68 28 69 32 71 32 72
REMARK Flexibility Score: inf
ROOT
ATOM      1  C   UNL     1     -46.192  34.604  26.707  1.00  0.00     0.132 C 
ATOM      2  H   UNL     1     -45.264  34.417  27.261  1.00  0.00     0.078 H 
ATOM      3  H   UNL     1     -45.931  34.544  25.645  1.00  0.00     0.078 H 
ENDROOT
BRANCH   1   4
ATOM      4  O   UNL     1     -47.081  33.546  27.090  1.00  0.00    -0.487 OA
BRANCH   4   5
ATOM      5  C   UNL     1     -47.567  32.705  26.127  1.00  0.00     0.122 A 
ATOM      6  C   UNL     1     -46.633  31.043  21.759  1.00  0.00     0.043 A 
ATOM      7  C   UNL     1     -47.763  30.239  21.740  1.00  0.00    -0.016 A 
ATOM      8  N   UNL     1     -46.325  31.841  22.805  1.00  0.00    -0.253 NA
ATOM      9  C   UNL     1     -48.616  30.237  22.848  1.00  0.00     0.048 A 
ATOM     10  H   UNL     1     -47.986  29.636  20.868  1.00  0.00     0.066 H 
ATOM     11  C   UNL     1     -47.132  31.844  23.881  1.00  0.00     0.076 A 
ATOM     12  C   UNL     1     -48.293  31.051  23.964  1.00  0.00     0.024 A 
ATOM     13  C   UNL     1     -46.802  32.659  24.957  1.00  0.00     0.007 A 
ATOM     14  C   UNL     1     -49.060  31.091  25.149  1.00  0.00    -0.047 A 
ATOM     15  H   UNL     1     -45.905  33.269  24.887  1.00  0.00     0.069 H 
ATOM     16  C   UNL     1     -48.701  31.912  26.220  1.00  0.00    -0.019 A 
ATOM     17  H   UNL     1     -49.942  30.460  25.245  1.00  0.00     0.063 H 
ATOM     18  H   UNL     1     -49.321  31.886  27.109  1.00  0.00     0.066 H 
BRANCH   6  19
ATOM     19  C   UNL     1     -45.704  31.088  20.574  1.00  0.00    -0.013 C 
ATOM     20  H   UNL     1     -45.549  30.075  20.184  1.00  0.00     0.033 H 
ATOM     21  H   UNL     1     -44.722  31.450  20.901  1.00  0.00     0.033 H 
BRANCH  19  22
ATOM     22  C   UNL     1     -46.240  31.995  19.478  1.00  0.00    -0.060 C 
ATOM     23  H   UNL     1     -47.121  31.555  18.996  1.00  0.00     0.023 H 
ATOM     24  H   UNL     1     -46.530  32.964  19.896  1.00  0.00     0.023 H 
ATOM     25  H   UNL     1     -45.486  32.171  18.703  1.00  0.00     0.023 H 
ENDBRANCH  19  22
ENDBRANCH   6  19
BRANCH   9  26
ATOM     26  N   UNL     1     -49.803  29.435  22.849  1.00  0.00    -0.371 N 
BRANCH  26  27
ATOM     27  C   UNL     1     -50.773  30.000  21.901  1.00  0.00     0.007 C 
ATOM     28  H   UNL     1     -50.760  31.096  21.914  1.00  0.00     0.046 H 
ATOM     29  H   UNL     1     -51.791  29.705  22.168  1.00  0.00     0.046 H 
ATOM     30  H   UNL     1     -50.572  29.669  20.876  1.00  0.00     0.046 H 
ENDBRANCH  26  27
BRANCH  26  31
ATOM     31  C   UNL     1     -49.613  27.963  22.858  1.00  0.00     0.029 C 
ATOM     32  C   UNL     1     -50.646  26.977  22.387  1.00  0.00    -0.031 C 
ATOM     33  C   UNL     1     -50.292  27.055  23.846  1.00  0.00    -0.031 C 
ATOM     34  H   UNL     1     -48.570  27.708  22.668  1.00  0.00     0.053 H 
ATOM     35  H   UNL     1     -50.298  26.115  21.828  1.00  0.00     0.029 H 
ATOM     36  H   UNL     1     -51.621  27.331  22.082  1.00  0.00     0.029 H 
ATOM     37  H   UNL     1     -49.705  26.249  24.271  1.00  0.00     0.029 H 
ATOM     38  H   UNL     1     -51.023  27.464  24.530  1.00  0.00     0.029 H 
ENDBRANCH  26  31
ENDBRANCH   9  26
ENDBRANCH   4   5
ENDBRANCH   1   4
BRANCH   1  39
ATOM     39  C   UNL     1     -46.670  35.992  27.077  1.00  0.00     0.099 A 
ATOM     40  C   UNL     1     -48.004  36.207  27.395  1.00  0.00     0.052 A 
ATOM     41  N   UNL     1     -45.778  37.010  27.139  1.00  0.00    -0.228 NA
ATOM     42  N   UNL     1     -48.483  37.415  27.769  1.00  0.00    -0.259 NA
ATOM     43  H   UNL     1     -48.737  35.409  27.363  1.00  0.00     0.086 H 
ATOM     44  C   UNL     1     -46.234  38.238  27.513  1.00  0.00     0.157 A 
ATOM     45  C   UNL     1     -47.571  38.426  27.821  1.00  0.00     0.070 A 
ATOM     46  H   UNL     1     -47.994  39.374  28.123  1.00  0.00     0.088 H 
BRANCH  44  47
ATOM     47  N   UNL     1     -45.271  39.289  27.580  1.00  0.00    -0.284 N 
ATOM     48  C   UNL     1     -45.179  40.289  26.623  1.00  0.00     0.019 A 
ATOM     49  C   UNL     1     -44.292  39.526  28.533  1.00  0.00     0.151 A 
ATOM     50  C   UNL     1     -44.156  41.163  26.940  1.00  0.00     0.012 A 
ATOM     51  H   UNL     1     -45.866  40.287  25.784  1.00  0.00     0.083 H 
ATOM     52  C   UNL     1     -43.586  40.668  28.159  1.00  0.00     0.067 A 
ATOM     53  N   UNL     1     -44.045  38.788  29.634  1.00  0.00    -0.218 NA
ATOM     54  C   UNL     1     -42.532  41.065  28.999  1.00  0.00     0.136 A 
ATOM     55  C   UNL     1     -43.026  39.270  30.358  1.00  0.00     0.120 A 
ATOM     56  N   UNL     1     -42.264  40.345  30.102  1.00  0.00    -0.219 NA
ATOM     57  H   UNL     1     -42.781  38.722  31.263  1.00  0.00     0.106 H 
BRANCH  50  58
ATOM     58  C   UNL     1     -43.715  42.396  26.197  1.00  0.00     0.085 C 
ATOM     59  C   UNL     1     -44.109  43.732  26.815  1.00  0.00    -0.020 C 
ATOM     60  O   UNL     1     -44.291  42.404  24.869  1.00  0.00    -0.373 OA
ATOM     61  H   UNL     1     -42.624  42.348  26.088  1.00  0.00     0.066 H 
ATOM     62  C   UNL     1     -45.458  43.993  26.195  1.00  0.00    -0.027 C 
ATOM     63  H   UNL     1     -44.115  43.760  27.907  1.00  0.00     0.030 H 
ATOM     64  H   UNL     1     -43.411  44.507  26.473  1.00  0.00     0.030 H 
ATOM     65  C   UNL     1     -45.271  43.450  24.797  1.00  0.00     0.048 C 
ATOM     66  H   UNL     1     -45.743  45.048  26.201  1.00  0.00     0.029 H 
ATOM     67  H   UNL     1     -46.234  43.426  26.721  1.00  0.00     0.029 H 
ATOM     68  H   UNL     1     -46.200  43.057  24.374  1.00  0.00     0.057 H 
ATOM     69  H   UNL     1     -44.883  44.221  24.123  1.00  0.00     0.057 H 
ENDBRANCH  50  58
BRANCH  54  70
ATOM     70  N   UNL     1     -41.717  42.161  28.742  1.00  0.00    -0.383 N 
ATOM     71  H   UNL     1     -41.431  42.642  29.596  1.00  0.00     0.158 HD
ATOM     72  H   UNL     1     -42.132  42.749  28.031  1.00  0.00     0.158 HD
ENDBRANCH  54  70
ENDBRANCH  44  47
ENDBRANCH   1  39
TORSDOF 11
ENDMDL
MODEL 2
REMARK VINA RESULT:      -9.5      1.683      2.676
REMARK SMILES CCc1cc(N(C)C2CC2)c2ccc(OCc3cncc(-n4cc([C@@H]5CCCO5)c5c(N)ncnc54)n3)cc2n1
REMARK SMILES IDX 16 1 15 4 14 5 3 6 4 7 40 8 5 9 39 11 11 12 38 13 12 14
REMARK SMILES IDX 13 16 2 19 1 22 6 26 7 27 8 31 9 32 10 33 17 39 18 40 37 41
REMARK SMILES IDX 19 42 21 44 20 45 22 47 23 48 36 49 24 50 30 52 35 53 31 54
REMARK SMILES IDX 34 55 33 56 25 58 26 59 29 60 27 62 28 65 32 70
REMARK H PARENT 16 2 16 3 4 10 38 15 12 17 13 18 2 20 2 21 1 23 1 24 1 25 7 28
REMARK H PARENT 7 29 7 30 8 34 9 35 9 36 10 37 10 38 18 43 20 46 23 51 34 57
REMARK H PARENT 25 61 26 63 26 64 27 66 27 67 28 68 28 69 32 71 32 72
REMARK Flexibility Score: inf
ROOT
ATOM      1  C   UNL     1     -46.059  34.346  26.762  1.00  0.00     0.132 C 
ATOM      2  H   UNL     1     -45.016  34.010  26.734  1.00  0.00     0.078 H 
ATOM      3  H   UNL     1     -46.303  34.668  25.743  1.00  0.00     0.078 H 
ENDROOT
BRANCH   1   4
ATOM      4  O   UNL     1     -46.819  33.191  27.142  1.00  0.00    -0.487 OA
BRANCH   4   5
ATOM      5  C   UNL     1     -47.353  32.395  26.166  1.00  0.00     0.122 A 
ATOM      6  C   UNL     1     -46.631  30.929  21.690  1.00  0.00     0.043 A 
ATOM      7  C   UNL     1     -47.765  30.130  21.687  1.00  0.00    -0.016 A 
ATOM      8  N   UNL     1     -46.271  31.677  22.755  1.00  0.00    -0.253 NA
ATOM      9  C   UNL     1     -48.566  30.081  22.831  1.00  0.00     0.048 A 
ATOM     10  H   UNL     1     -48.032  29.567  20.800  1.00  0.00     0.066 H 
ATOM     11  C   UNL     1     -47.027  31.635  23.866  1.00  0.00     0.076 A 
ATOM     12  C   UNL     1     -48.187  30.843  23.967  1.00  0.00     0.024 A 
ATOM     13  C   UNL     1     -46.643  32.399  24.960  1.00  0.00     0.007 A 
ATOM     14  C   UNL     1     -48.899  30.831  25.187  1.00  0.00    -0.047 A 
ATOM     15  H   UNL     1     -45.747  33.009  24.877  1.00  0.00     0.069 H 
ATOM     16  C   UNL     1     -48.486  31.602  26.276  1.00  0.00    -0.019 A 
ATOM     17  H   UNL     1     -49.779  30.200  25.296  1.00  0.00     0.063 H 
ATOM     18  H   UNL     1     -49.065  31.538  27.191  1.00  0.00     0.066 H 
BRANCH   6  19
ATOM     19  C   UNL     1     -45.758  31.024  20.466  1.00  0.00    -0.013 C 
ATOM     20  H   UNL     1     -45.682  30.041  19.986  1.00  0.00     0.033 H 
ATOM     21  H   UNL     1     -44.742  31.301  20.770  1.00  0.00     0.033 H 
BRANCH  19  22
ATOM     22  C   UNL     1     -46.290  32.050  19.477  1.00  0.00    -0.060 C 
ATOM     23  H   UNL     1     -46.123  31.726  18.444  1.00  0.00     0.023 H 
ATOM     24  H   UNL     1     -47.366  32.190  19.621  1.00  0.00     0.023 H 
ATOM     25  H   UNL     1     -45.800  33.020  19.609  1.00  0.00     0.023 H 
ENDBRANCH  19  22
ENDBRANCH   6  19
BRANCH   9  26
ATOM     26  N   UNL     1     -49.756  29.284  22.852  1.00  0.00    -0.371 N 
BRANCH  26  27
ATOM     27  C   UNL     1     -50.693  29.782  21.835  1.00  0.00     0.007 C 
ATOM     28  H   UNL     1     -51.228  30.674  22.180  1.00  0.00     0.046 H 
ATOM     29  H   UNL     1     -51.459  29.033  21.616  1.00  0.00     0.046 H 
ATOM     30  H   UNL     1     -50.176  30.034  20.902  1.00  0.00     0.046 H 
ENDBRANCH  26  27
BRANCH  26  31
ATOM     31  C   UNL     1     -49.574  27.816  22.972  1.00  0.00     0.029 C 
ATOM     32  C   UNL     1     -50.703  26.834  23.120  1.00  0.00    -0.031 C 
ATOM     33  C   UNL     1     -49.760  27.070  24.265  1.00  0.00    -0.031 C 
ATOM     34  H   UNL     1     -48.711  27.487  22.392  1.00  0.00     0.053 H 
ATOM     35  H   UNL     1     -50.624  25.895  22.584  1.00  0.00     0.029 H 
ATOM     36  H   UNL     1     -51.717  27.200  23.215  1.00  0.00     0.029 H 
ATOM     37  H   UNL     1     -49.042  26.292  24.501  1.00  0.00     0.029 H 
ATOM     38  H   UNL     1     -50.129  27.596  25.135  1.00  0.00     0.029 H 
ENDBRANCH  26  31
ENDBRANCH   9  26
ENDBRANCH   4   5
ENDBRANCH   1   4
BRANCH   1  39
ATOM     39  C   UNL     1     -46.140  35.500  27.737  1.00  0.00     0.099 A 
ATOM     40  C   UNL     1     -46.320  35.257  29.091  1.00  0.00     0.052 A 
ATOM     41  N   UNL     1     -45.988  36.768  27.283  1.00  0.00    -0.228 NA
ATOM     42  N   UNL     1     -46.362  36.243  30.014  1.00  0.00    -0.259 NA
ATOM     43  H   UNL     1     -46.435  34.251  29.483  1.00  0.00     0.086 H 
ATOM     44  C   UNL     1     -46.026  37.782  28.192  1.00  0.00     0.157 A 
ATOM     45  C   UNL     1     -46.213  37.510  29.538  1.00  0.00     0.070 A 
ATOM     46  H   UNL     1     -46.254  38.269  30.307  1.00  0.00     0.088 H 
BRANCH  44  47
ATOM     47  N   UNL     1     -45.854  39.106  27.688  1.00  0.00    -0.284 N 
ATOM     48  C   UNL     1     -44.608  39.692  27.520  1.00  0.00     0.019 A 
ATOM     49  C   UNL     1     -46.811  40.027  27.290  1.00  0.00     0.151 A 
ATOM     50  C   UNL     1     -44.746  40.975  27.025  1.00  0.00     0.012 A 
ATOM     51  H   UNL     1     -43.717  39.130  27.774  1.00  0.00     0.083 H 
ATOM     52  C   UNL     1     -46.157  41.189  26.887  1.00  0.00     0.067 A 
ATOM     53  N   UNL     1     -48.148  39.850  27.293  1.00  0.00    -0.218 NA
ATOM     54  C   UNL     1     -46.966  42.255  26.459  1.00  0.00     0.136 A 
ATOM     55  C   UNL     1     -48.810  40.931  26.856  1.00  0.00     0.120 A 
ATOM     56  N   UNL     1     -48.302  42.106  26.453  1.00  0.00    -0.219 NA
ATOM     57  H   UNL     1     -49.892  40.850  26.829  1.00  0.00     0.106 H 
BRANCH  50  58
ATOM     58  C   UNL     1     -43.665  41.965  26.677  1.00  0.00     0.085 C 
ATOM     59  C   UNL     1     -42.232  41.513  26.928  1.00  0.00    -0.020 C 
ATOM     60  O   UNL     1     -43.830  43.170  27.462  1.00  0.00    -0.373 OA
ATOM     61  H   UNL     1     -43.787  42.235  25.621  1.00  0.00     0.066 H 
ATOM     62  C   UNL     1     -41.998  41.947  28.352  1.00  0.00    -0.027 C 
ATOM     63  H   UNL     1     -42.038  40.451  26.755  1.00  0.00     0.030 H 
ATOM     64  H   UNL     1     -41.556  42.079  26.274  1.00  0.00     0.030 H 
ATOM     65  C   UNL     1     -42.756  43.253  28.411  1.00  0.00     0.048 C 
ATOM     66  H   UNL     1     -40.941  42.064  28.604  1.00  0.00     0.029 H 
ATOM     67  H   UNL     1     -42.437  41.223  29.048  1.00  0.00     0.029 H 
ATOM     68  H   UNL     1     -43.160  43.457  29.407  1.00  0.00     0.057 H 
ATOM     69  H   UNL     1     -42.119  44.093  28.117  1.00  0.00     0.057 H 
ENDBRANCH  50  58
BRANCH  54  70
ATOM     70  N   UNL     1     -46.463  43.487  26.057  1.00  0.00    -0.383 N 
ATOM     71  H   UNL     1     -45.971  43.970  26.809  1.00  0.00     0.158 HD
ATOM     72  H   UNL     1     -47.182  44.027  25.592  1.00  0.00     0.158 HD
ENDBRANCH  54  70
ENDBRANCH  44  47
ENDBRANCH   1  39
TORSDOF 11
ENDMDL
MODEL 3
REMARK VINA RESULT:      -9.3      2.282     11.936
REMARK SMILES CCc1cc(N(C)C2CC2)c2ccc(OCc3cncc(-n4cc([C@@H]5CCCO5)c5c(N)ncnc54)n3)cc2n1
REMARK SMILES IDX 16 1 15 4 14 5 3 6 4 7 40 8 5 9 39 11 11 12 38 13 12 14
REMARK SMILES IDX 13 16 2 19 1 22 6 26 7 27 8 31 9 32 10 33 17 39 18 40 37 41
REMARK SMILES IDX 19 42 21 44 20 45 22 47 23 48 36 49 24 50 30 52 35 53 31 54
REMARK SMILES IDX 34 55 33 56 25 58 26 59 29 60 27 62 28 65 32 70
REMARK H PARENT 16 2 16 3 4 10 38 15 12 17 13 18 2 20 2 21 1 23 1 24 1 25 7 28
REMARK H PARENT 7 29 7 30 8 34 9 35 9 36 10 37 10 38 18 43 20 46 23 51 34 57
REMARK H PARENT 25 61 26 63 26 64 27 66 27 67 28 68 28 69 32 71 32 72
REMARK Flexibility Score: inf
ROOT
ATOM      1  C   UNL     1     -46.249  35.475  27.319  1.00  0.00     0.132 C 
ATOM      2  H   UNL     1     -45.751  35.834  26.411  1.00  0.00     0.078 H 
ATOM      3  H   UNL     1     -45.510  34.867  27.853  1.00  0.00     0.078 H 
ENDROOT
BRANCH   1   4
ATOM      4  O   UNL     1     -46.588  36.656  28.058  1.00  0.00    -0.487 OA
BRANCH   4   5
ATOM      5  C   UNL     1     -46.196  37.876  27.578  1.00  0.00     0.122 A 
ATOM      6  C   UNL     1     -42.999  41.342  28.267  1.00  0.00     0.043 A 
ATOM      7  C   UNL     1     -43.489  42.107  27.220  1.00  0.00    -0.016 A 
ATOM      8  N   UNL     1     -43.541  40.155  28.616  1.00  0.00    -0.253 NA
ATOM      9  C   UNL     1     -44.578  41.634  26.482  1.00  0.00     0.048 A 
ATOM     10  H   UNL     1     -43.040  43.067  26.991  1.00  0.00     0.066 H 
ATOM     11  C   UNL     1     -44.584  39.683  27.912  1.00  0.00     0.076 A 
ATOM     12  C   UNL     1     -45.143  40.378  26.822  1.00  0.00     0.024 A 
ATOM     13  C   UNL     1     -45.128  38.456  28.271  1.00  0.00     0.007 A 
ATOM     14  C   UNL     1     -46.214  39.787  26.116  1.00  0.00    -0.047 A 
ATOM     15  H   UNL     1     -44.693  37.925  29.114  1.00  0.00     0.069 H 
ATOM     16  C   UNL     1     -46.737  38.548  26.492  1.00  0.00    -0.019 A 
ATOM     17  H   UNL     1     -46.638  40.293  25.250  1.00  0.00     0.063 H 
ATOM     18  H   UNL     1     -47.549  38.140  25.901  1.00  0.00     0.066 H 
BRANCH   6  19
ATOM     19  C   UNL     1     -41.841  41.831  29.097  1.00  0.00    -0.013 C 
ATOM     20  H   UNL     1     -42.065  42.827  29.498  1.00  0.00     0.033 H 
ATOM     21  H   UNL     1     -40.960  41.946  28.454  1.00  0.00     0.033 H 
BRANCH  19  22
ATOM     22  C   UNL     1     -41.519  40.870  30.231  1.00  0.00    -0.060 C 
ATOM     23  H   UNL     1     -40.647  40.253  29.990  1.00  0.00     0.023 H 
ATOM     24  H   UNL     1     -41.300  41.427  31.147  1.00  0.00     0.023 H 
ATOM     25  H   UNL     1     -42.361  40.199  30.434  1.00  0.00     0.023 H 
ENDBRANCH  19  22
ENDBRANCH   6  19
BRANCH   9  26
ATOM     26  N   UNL     1     -45.122  42.412  25.409  1.00  0.00    -0.371 N 
BRANCH  26  27
ATOM     27  C   UNL     1     -45.934  43.504  25.963  1.00  0.00     0.007 C 
ATOM     28  H   UNL     1     -46.925  43.154  26.274  1.00  0.00     0.046 H 
ATOM     29  H   UNL     1     -46.107  44.277  25.209  1.00  0.00     0.046 H 
ATOM     30  H   UNL     1     -45.449  43.966  26.830  1.00  0.00     0.046 H 
ENDBRANCH  26  27
BRANCH  26  31
ATOM     31  C   UNL     1     -44.208  42.725  24.282  1.00  0.00     0.029 C 
ATOM     32  C   UNL     1     -43.460  44.022  24.139  1.00  0.00    -0.031 C 
ATOM     33  C   UNL     1     -44.565  43.683  23.179  1.00  0.00    -0.031 C 
ATOM     34  H   UNL     1     -43.698  41.825  23.938  1.00  0.00     0.053 H 
ATOM     35  H   UNL     1     -42.440  43.974  23.774  1.00  0.00     0.029 H 
ATOM     36  H   UNL     1     -43.633  44.818  24.850  1.00  0.00     0.029 H 
ATOM     37  H   UNL     1     -44.292  43.405  22.167  1.00  0.00     0.029 H 
ATOM     38  H   UNL     1     -45.487  44.245  23.239  1.00  0.00     0.029 H 
ENDBRANCH  26  31
ENDBRANCH   9  26
ENDBRANCH   4   5
ENDBRANCH   1   4
BRANCH   1  39
ATOM     39  C   UNL     1     -47.437  34.642  26.887  1.00  0.00     0.099 A 
ATOM     40  C   UNL     1     -48.727  35.108  27.095  1.00  0.00     0.052 A 
ATOM     41  N   UNL     1     -47.228  33.460  26.256  1.00  0.00    -0.228 NA
ATOM     42  N   UNL     1     -49.825  34.427  26.697  1.00  0.00    -0.259 NA
ATOM     43  H   UNL     1     -48.923  36.054  27.589  1.00  0.00     0.086 H 
ATOM     44  C   UNL     1     -48.317  32.754  25.845  1.00  0.00     0.157 A 
ATOM     45  C   UNL     1     -49.595  33.241  26.069  1.00  0.00     0.070 A 
ATOM     46  H   UNL     1     -50.498  32.727  25.769  1.00  0.00     0.088 H 
BRANCH  44  47
ATOM     47  N   UNL     1     -48.068  31.519  25.174  1.00  0.00    -0.284 N 
ATOM     48  C   UNL     1     -48.636  30.318  25.571  1.00  0.00     0.019 A 
ATOM     49  C   UNL     1     -47.267  31.263  24.071  1.00  0.00     0.151 A 
ATOM     50  C   UNL     1     -48.214  29.292  24.746  1.00  0.00     0.012 A 
ATOM     51  H   UNL     1     -49.305  30.302  26.424  1.00  0.00     0.083 H 
ATOM     52  C   UNL     1     -47.332  29.899  23.792  1.00  0.00     0.067 A 
ATOM     53  N   UNL     1     -46.540  32.163  23.379  1.00  0.00    -0.218 NA
ATOM     54  C   UNL     1     -46.568  29.438  22.707  1.00  0.00     0.136 A 
ATOM     55  C   UNL     1     -45.863  31.605  22.365  1.00  0.00     0.120 A 
ATOM     56  N   UNL     1     -45.832  30.313  22.002  1.00  0.00    -0.219 NA
ATOM     57  H   UNL     1     -45.261  32.280  21.764  1.00  0.00     0.106 H 
BRANCH  50  58
ATOM     58  C   UNL     1     -48.590  27.835  24.796  1.00  0.00     0.085 C 
ATOM     59  C   UNL     1     -49.356  27.380  26.033  1.00  0.00    -0.020 C 
ATOM     60  O   UNL     1     -47.397  27.016  24.763  1.00  0.00    -0.373 OA
ATOM     61  H   UNL     1     -49.176  27.609  23.897  1.00  0.00     0.066 H 
ATOM     62  C   UNL     1     -48.248  26.998  26.981  1.00  0.00    -0.027 C 
ATOM     63  H   UNL     1     -50.056  28.110  26.447  1.00  0.00     0.030 H 
ATOM     64  H   UNL     1     -49.933  26.479  25.788  1.00  0.00     0.030 H 
ATOM     65  C   UNL     1     -47.229  26.392  26.045  1.00  0.00     0.048 C 
ATOM     66  H   UNL     1     -48.564  26.304  27.764  1.00  0.00     0.029 H 
ATOM     67  H   UNL     1     -47.835  27.892  27.463  1.00  0.00     0.029 H 
ATOM     68  H   UNL     1     -46.202  26.538  26.393  1.00  0.00     0.057 H 
ATOM     69  H   UNL     1     -47.401  25.318  25.914  1.00  0.00     0.057 H 
ENDBRANCH  50  58
BRANCH  54  70
ATOM     70  N   UNL     1     -46.503  28.102  22.327  1.00  0.00    -0.383 N 
ATOM     71  H   UNL     1     -47.384  27.766  21.936  1.00  0.00     0.158 HD
ATOM     72  H   UNL     1     -46.118  27.541  23.076  1.00  0.00     0.158 HD
ENDBRANCH  54  70
ENDBRANCH  44  47
ENDBRANCH   1  39
TORSDOF 11
ENDMDL
MODEL 4
REMARK VINA RESULT:      -9.1      1.215      2.996
REMARK SMILES CCc1cc(N(C)C2CC2)c2ccc(OCc3cncc(-n4cc([C@@H]5CCCO5)c5c(N)ncnc54)n3)cc2n1
REMARK SMILES IDX 16 1 15 4 14 5 3 6 4 7 40 8 5 9 39 11 11 12 38 13 12 14
REMARK SMILES IDX 13 16 2 19 1 22 6 26 7 27 8 31 9 32 10 33 17 39 18 40 37 41
REMARK SMILES IDX 19 42 21 44 20 45 22 47 23 48 36 49 24 50 30 52 35 53 31 54
REMARK SMILES IDX 34 55 33 56 25 58 26 59 29 60 27 62 28 65 32 70
REMARK H PARENT 16 2 16 3 4 10 38 15 12 17 13 18 2 20 2 21 1 23 1 24 1 25 7 28
REMARK H PARENT 7 29 7 30 8 34 9 35 9 36 10 37 10 38 18 43 20 46 23 51 34 57
REMARK H PARENT 25 61 26 63 26 64 27 66 27 67 28 68 28 69 32 71 32 72
REMARK Flexibility Score: inf
ROOT
ATOM      1  C   UNL     1     -47.065  35.130  28.011  1.00  0.00     0.132 C 
ATOM      2  H   UNL     1     -47.116  34.839  29.067  1.00  0.00     0.078 H 
ATOM      3  H   UNL     1     -46.049  34.890  27.677  1.00  0.00     0.078 H 
ENDROOT
BRANCH   1   4
ATOM      4  O   UNL     1     -48.041  34.316  27.347  1.00  0.00    -0.487 OA
BRANCH   4   5
ATOM      5  C   UNL     1     -47.639  33.483  26.340  1.00  0.00     0.122 A 
ATOM      6  C   UNL     1     -48.517  29.217  24.406  1.00  0.00     0.043 A 
ATOM      7  C   UNL     1     -47.546  29.375  23.429  1.00  0.00    -0.016 A 
ATOM      8  N   UNL     1     -48.759  30.154  25.349  1.00  0.00    -0.253 NA
ATOM      9  C   UNL     1     -46.792  30.551  23.402  1.00  0.00     0.048 A 
ATOM     10  H   UNL     1     -47.366  28.585  22.708  1.00  0.00     0.066 H 
ATOM     11  C   UNL     1     -48.047  31.294  25.332  1.00  0.00     0.076 A 
ATOM     12  C   UNL     1     -47.051  31.554  24.371  1.00  0.00     0.024 A 
ATOM     13  C   UNL     1     -48.310  32.256  26.298  1.00  0.00     0.007 A 
ATOM     14  C   UNL     1     -46.379  32.797  24.407  1.00  0.00    -0.047 A 
ATOM     15  H   UNL     1     -49.080  32.050  27.038  1.00  0.00     0.069 H 
ATOM     16  C   UNL     1     -46.669  33.752  25.384  1.00  0.00    -0.019 A 
ATOM     17  H   UNL     1     -45.630  33.030  23.653  1.00  0.00     0.063 H 
ATOM     18  H   UNL     1     -46.131  34.692  25.350  1.00  0.00     0.066 H 
BRANCH   6  19
ATOM     19  C   UNL     1     -49.332  27.952  24.479  1.00  0.00    -0.013 C 
ATOM     20  H   UNL     1     -48.931  27.210  23.778  1.00  0.00     0.033 H 
ATOM     21  H   UNL     1     -50.357  28.166  24.152  1.00  0.00     0.033 H 
BRANCH  19  22
ATOM     22  C   UNL     1     -49.358  27.384  25.888  1.00  0.00    -0.060 C 
ATOM     23  H   UNL     1     -50.300  26.860  26.086  1.00  0.00     0.023 H 
ATOM     24  H   UNL     1     -48.538  26.672  26.024  1.00  0.00     0.023 H 
ATOM     25  H   UNL     1     -49.249  28.174  26.639  1.00  0.00     0.023 H 
ENDBRANCH  19  22
ENDBRANCH   6  19
BRANCH   9  26
ATOM     26  N   UNL     1     -45.765  30.734  22.419  1.00  0.00    -0.371 N 
BRANCH  26  27
ATOM     27  C   UNL     1     -45.143  29.438  22.118  1.00  0.00     0.007 C 
ATOM     28  H   UNL     1     -45.795  28.810  21.500  1.00  0.00     0.046 H 
ATOM     29  H   UNL     1     -44.960  28.875  23.037  1.00  0.00     0.046 H 
ATOM     30  H   UNL     1     -44.191  29.561  21.591  1.00  0.00     0.046 H 
ENDBRANCH  26  27
BRANCH  26  31
ATOM     31  C   UNL     1     -46.082  31.636  21.284  1.00  0.00     0.029 C 
ATOM     32  C   UNL     1     -47.149  31.360  20.260  1.00  0.00    -0.031 C 
ATOM     33  C   UNL     1     -45.700  31.329  19.862  1.00  0.00    -0.031 C 
ATOM     34  H   UNL     1     -45.932  32.678  21.566  1.00  0.00     0.053 H 
ATOM     35  H   UNL     1     -47.749  32.198  19.923  1.00  0.00     0.029 H 
ATOM     36  H   UNL     1     -47.686  30.422  20.291  1.00  0.00     0.029 H 
ATOM     37  H   UNL     1     -45.321  32.146  19.258  1.00  0.00     0.029 H 
ATOM     38  H   UNL     1     -45.254  30.373  19.625  1.00  0.00     0.029 H 
ENDBRANCH  26  31
ENDBRANCH   9  26
ENDBRANCH   4   5
ENDBRANCH   1   4
BRANCH   1  39
ATOM     39  C   UNL     1     -47.331  36.618  27.935  1.00  0.00     0.099 A 
ATOM     40  C   UNL     1     -48.628  37.100  28.034  1.00  0.00     0.052 A 
ATOM     41  N   UNL     1     -46.288  37.476  27.817  1.00  0.00    -0.228 NA
ATOM     42  N   UNL     1     -48.924  38.419  28.012  1.00  0.00    -0.259 NA
ATOM     43  H   UNL     1     -49.480  36.436  28.139  1.00  0.00     0.086 H 
ATOM     44  C   UNL     1     -46.558  38.811  27.792  1.00  0.00     0.157 A 
ATOM     45  C   UNL     1     -47.864  39.265  27.887  1.00  0.00     0.070 A 
ATOM     46  H   UNL     1     -48.143  40.309  27.872  1.00  0.00     0.088 H 
BRANCH  44  47
ATOM     47  N   UNL     1     -45.441  39.692  27.677  1.00  0.00    -0.284 N 
ATOM     48  C   UNL     1     -45.294  40.589  26.629  1.00  0.00     0.019 A 
ATOM     49  C   UNL     1     -44.344  39.835  28.513  1.00  0.00     0.151 A 
ATOM     50  C   UNL     1     -44.120  41.305  26.774  1.00  0.00     0.012 A 
ATOM     51  H   UNL     1     -46.056  40.638  25.860  1.00  0.00     0.083 H 
ATOM     52  C   UNL     1     -43.511  40.814  27.975  1.00  0.00     0.067 A 
ATOM     53  N   UNL     1     -44.103  39.149  29.649  1.00  0.00    -0.218 NA
ATOM     54  C   UNL     1     -42.327  41.093  28.678  1.00  0.00     0.136 A 
ATOM     55  C   UNL     1     -42.951  39.510  30.231  1.00  0.00     0.120 A 
ATOM     56  N   UNL     1     -42.061  40.423  29.812  1.00  0.00    -0.219 NA
ATOM     57  H   UNL     1     -42.702  38.997  31.156  1.00  0.00     0.106 H 
BRANCH  50  58
ATOM     58  C   UNL     1     -43.570  42.390  25.885  1.00  0.00     0.085 C 
ATOM     59  C   UNL     1     -43.704  43.816  26.405  1.00  0.00    -0.020 C 
ATOM     60  O   UNL     1     -44.259  42.380  24.612  1.00  0.00    -0.373 OA
ATOM     61  H   UNL     1     -42.514  42.165  25.696  1.00  0.00     0.066 H 
ATOM     62  C   UNL     1     -45.051  44.233  25.870  1.00  0.00    -0.027 C 
ATOM     63  H   UNL     1     -43.606  43.933  27.487  1.00  0.00     0.030 H 
ATOM     64  H   UNL     1     -42.933  44.443  25.938  1.00  0.00     0.030 H 
ATOM     65  C   UNL     1     -45.075  43.557  24.519  1.00  0.00     0.048 C 
ATOM     66  H   UNL     1     -45.175  45.317  25.800  1.00  0.00     0.029 H 
ATOM     67  H   UNL     1     -45.852  43.838  26.506  1.00  0.00     0.029 H 
ATOM     68  H   UNL     1     -46.087  43.280  24.209  1.00  0.00     0.057 H 
ATOM     69  H   UNL     1     -44.640  44.201  23.747  1.00  0.00     0.057 H 
ENDBRANCH  50  58
BRANCH  54  70
ATOM     70  N   UNL     1     -41.382  42.019  28.251  1.00  0.00    -0.383 N 
ATOM     71  H   UNL     1     -40.943  41.750  27.370  1.00  0.00     0.158 HD
ATOM     72  H   UNL     1     -40.743  42.243  29.004  1.00  0.00     0.158 HD
ENDBRANCH  54  70
ENDBRANCH  44  47
ENDBRANCH   1  39
TORSDOF 11
ENDMDL
MODEL 5
REMARK VINA RESULT:      -9.0      2.510     12.208
REMARK SMILES CCc1cc(N(C)C2CC2)c2ccc(OCc3cncc(-n4cc([C@@H]5CCCO5)c5c(N)ncnc54)n3)cc2n1
REMARK SMILES IDX 16 1 15 4 14 5 3 6 4 7 40 8 5 9 39 11 11 12 38 13 12 14
REMARK SMILES IDX 13 16 2 19 1 22 6 26 7 27 8 31 9 32 10 33 17 39 18 40 37 41
REMARK SMILES IDX 19 42 21 44 20 45 22 47 23 48 36 49 24 50 30 52 35 53 31 54
REMARK SMILES IDX 34 55 33 56 25 58 26 59 29 60 27 62 28 65 32 70
REMARK H PARENT 16 2 16 3 4 10 38 15 12 17 13 18 2 20 2 21 1 23 1 24 1 25 7 28
REMARK H PARENT 7 29 7 30 8 34 9 35 9 36 10 37 10 38 18 43 20 46 23 51 34 57
REMARK H PARENT 25 61 26 63 26 64 27 66 27 67 28 68 28 69 32 71 32 72
REMARK Flexibility Score: inf
ROOT
ATOM      1  C   UNL     1     -48.540  35.210  27.367  1.00  0.00     0.132 C 
ATOM      2  H   UNL     1     -49.208  34.647  28.029  1.00  0.00     0.078 H 
ATOM      3  H   UNL     1     -49.174  35.928  26.833  1.00  0.00     0.078 H 
ENDROOT
BRANCH   1   4
ATOM      4  O   UNL     1     -47.614  35.874  28.237  1.00  0.00    -0.487 OA
BRANCH   4   5
ATOM      5  C   UNL     1     -47.067  37.063  27.843  1.00  0.00     0.122 A 
ATOM      6  C   UNL     1     -43.531  40.096  28.847  1.00  0.00     0.043 A 
ATOM      7  C   UNL     1     -43.886  40.968  27.828  1.00  0.00    -0.016 A 
ATOM      8  N   UNL     1     -44.218  38.963  29.107  1.00  0.00    -0.253 NA
ATOM      9  C   UNL     1     -44.989  40.663  27.025  1.00  0.00     0.048 A 
ATOM     10  H   UNL     1     -43.322  41.880  27.671  1.00  0.00     0.066 H 
ATOM     11  C   UNL     1     -45.277  38.652  28.339  1.00  0.00     0.076 A 
ATOM     12  C   UNL     1     -45.706  39.464  27.271  1.00  0.00     0.024 A 
ATOM     13  C   UNL     1     -45.971  37.480  28.607  1.00  0.00     0.007 A 
ATOM     14  C   UNL     1     -46.806  39.039  26.494  1.00  0.00    -0.047 A 
ATOM     15  H   UNL     1     -45.636  36.857  29.433  1.00  0.00     0.069 H 
ATOM     16  C   UNL     1     -47.482  37.850  26.778  1.00  0.00    -0.019 A 
ATOM     17  H   UNL     1     -47.132  39.636  25.643  1.00  0.00     0.063 H 
ATOM     18  H   UNL     1     -48.308  37.570  26.136  1.00  0.00     0.066 H 
BRANCH   6  19
ATOM     19  C   UNL     1     -42.362  40.405  29.746  1.00  0.00    -0.013 C 
ATOM     20  H   UNL     1     -41.703  39.531  29.813  1.00  0.00     0.033 H 
ATOM     21  H   UNL     1     -42.730  40.597  30.761  1.00  0.00     0.033 H 
BRANCH  19  22
ATOM     22  C   UNL     1     -41.581  41.613  29.253  1.00  0.00    -0.060 C 
ATOM     23  H   UNL     1     -40.527  41.548  29.545  1.00  0.00     0.023 H 
ATOM     24  H   UNL     1     -41.629  41.675  28.162  1.00  0.00     0.023 H 
ATOM     25  H   UNL     1     -41.987  42.544  29.664  1.00  0.00     0.023 H 
ENDBRANCH  19  22
ENDBRANCH   6  19
BRANCH   9  26
ATOM     26  N   UNL     1     -45.395  41.555  25.979  1.00  0.00    -0.371 N 
BRANCH  26  27
ATOM     27  C   UNL     1     -46.713  42.116  26.303  1.00  0.00     0.007 C 
ATOM     28  H   UNL     1     -46.645  42.891  27.075  1.00  0.00     0.046 H 
ATOM     29  H   UNL     1     -47.373  41.343  26.706  1.00  0.00     0.046 H 
ATOM     30  H   UNL     1     -47.191  42.556  25.421  1.00  0.00     0.046 H 
ENDBRANCH  26  27
BRANCH  26  31
ATOM     31  C   UNL     1     -44.358  42.473  25.446  1.00  0.00     0.029 C 
ATOM     32  C   UNL     1     -44.653  43.668  24.583  1.00  0.00    -0.031 C 
ATOM     33  C   UNL     1     -43.936  42.483  24.002  1.00  0.00    -0.031 C 
ATOM     34  H   UNL     1     -43.530  42.568  26.149  1.00  0.00     0.053 H 
ATOM     35  H   UNL     1     -44.078  44.570  24.763  1.00  0.00     0.029 H 
ATOM     36  H   UNL     1     -45.669  43.855  24.261  1.00  0.00     0.029 H 
ATOM     37  H   UNL     1     -42.877  42.582  23.791  1.00  0.00     0.029 H 
ATOM     38  H   UNL     1     -44.463  41.863  23.289  1.00  0.00     0.029 H 
ENDBRANCH  26  31
ENDBRANCH   9  26
ENDBRANCH   4   5
ENDBRANCH   1   4
BRANCH   1  39
ATOM     39  C   UNL     1     -47.907  34.221  26.412  1.00  0.00     0.099 A 
ATOM     40  C   UNL     1     -46.688  34.510  25.817  1.00  0.00     0.052 A 
ATOM     41  N   UNL     1     -48.519  33.034  26.180  1.00  0.00    -0.228 NA
ATOM     42  N   UNL     1     -46.056  33.652  24.985  1.00  0.00    -0.259 NA
ATOM     43  H   UNL     1     -46.173  35.449  25.992  1.00  0.00     0.086 H 
ATOM     44  C   UNL     1     -47.904  32.150  25.346  1.00  0.00     0.157 A 
ATOM     45  C   UNL     1     -46.688  32.466  24.761  1.00  0.00     0.070 A 
ATOM     46  H   UNL     1     -46.151  31.810  24.091  1.00  0.00     0.088 H 
BRANCH  44  47
ATOM     47  N   UNL     1     -48.564  30.904  25.128  1.00  0.00    -0.284 N 
ATOM     48  C   UNL     1     -48.325  29.778  25.902  1.00  0.00     0.019 A 
ATOM     49  C   UNL     1     -49.510  30.565  24.172  1.00  0.00     0.151 A 
ATOM     50  C   UNL     1     -49.097  28.720  25.460  1.00  0.00     0.012 A 
ATOM     51  H   UNL     1     -47.611  29.834  26.716  1.00  0.00     0.083 H 
ATOM     52  C   UNL     1     -49.848  29.225  24.348  1.00  0.00     0.067 A 
ATOM     53  N   UNL     1     -50.022  31.377  23.224  1.00  0.00    -0.218 NA
ATOM     54  C   UNL     1     -50.791  28.687  23.456  1.00  0.00     0.136 A 
ATOM     55  C   UNL     1     -50.914  30.753  22.442  1.00  0.00     0.120 A 
ATOM     56  N   UNL     1     -51.315  29.474  22.500  1.00  0.00    -0.219 NA
ATOM     57  H   UNL     1     -51.368  31.356  21.661  1.00  0.00     0.106 H 
BRANCH  50  58
ATOM     58  C   UNL     1     -49.172  27.321  26.013  1.00  0.00     0.085 C 
ATOM     59  C   UNL     1     -48.271  27.019  27.203  1.00  0.00    -0.020 C 
ATOM     60  O   UNL     1     -48.793  26.367  24.992  1.00  0.00    -0.373 OA
ATOM     61  H   UNL     1     -50.217  27.124  26.283  1.00  0.00     0.066 H 
ATOM     62  C   UNL     1     -46.999  26.554  26.540  1.00  0.00    -0.027 C 
ATOM     63  H   UNL     1     -48.124  27.845  27.903  1.00  0.00     0.030 H 
ATOM     64  H   UNL     1     -48.694  26.181  27.773  1.00  0.00     0.030 H 
ATOM     65  C   UNL     1     -47.528  25.788  25.349  1.00  0.00     0.048 C 
ATOM     66  H   UNL     1     -46.369  25.939  27.188  1.00  0.00     0.029 H 
ATOM     67  H   UNL     1     -46.409  27.414  26.204  1.00  0.00     0.029 H 
ATOM     68  H   UNL     1     -46.851  25.828  24.492  1.00  0.00     0.057 H 
ATOM     69  H   UNL     1     -47.706  24.737  25.602  1.00  0.00     0.057 H 
ENDBRANCH  50  58
BRANCH  54  70
ATOM     70  N   UNL     1     -51.204  27.360  23.484  1.00  0.00    -0.383 N 
ATOM     71  H   UNL     1     -51.800  27.155  24.286  1.00  0.00     0.158 HD
ATOM     72  H   UNL     1     -50.411  26.742  23.362  1.00  0.00     0.158 HD
ENDBRANCH  54  70
ENDBRANCH  44  47
ENDBRANCH   1  39
TORSDOF 11
ENDMDL
MODEL 6
REMARK VINA RESULT:      -8.7      2.265     11.711
REMARK SMILES CCc1cc(N(C)C2CC2)c2ccc(OCc3cncc(-n4cc([C@@H]5CCCO5)c5c(N)ncnc54)n3)cc2n1
REMARK SMILES IDX 16 1 15 4 14 5 3 6 4 7 40 8 5 9 39 11 11 12 38 13 12 14
REMARK SMILES IDX 13 16 2 19 1 22 6 26 7 27 8 31 9 32 10 33 17 39 18 40 37 41
REMARK SMILES IDX 19 42 21 44 20 45 22 47 23 48 36 49 24 50 30 52 35 53 31 54
REMARK SMILES IDX 34 55 33 56 25 58 26 59 29 60 27 62 28 65 32 70
REMARK H PARENT 16 2 16 3 4 10 38 15 12 17 13 18 2 20 2 21 1 23 1 24 1 25 7 28
REMARK H PARENT 7 29 7 30 8 34 9 35 9 36 10 37 10 38 18 43 20 46 23 51 34 57
REMARK H PARENT 25 61 26 63 26 64 27 66 27 67 28 68 28 69 32 71 32 72
REMARK Flexibility Score: inf
ROOT
ATOM      1  C   UNL     1     -48.297  36.183  27.112  1.00  0.00     0.132 C 
ATOM      2  H   UNL     1     -49.365  36.076  27.337  1.00  0.00     0.078 H 
ATOM      3  H   UNL     1     -48.237  36.782  26.196  1.00  0.00     0.078 H 
ENDROOT
BRANCH   1   4
ATOM      4  O   UNL     1     -47.741  36.882  28.233  1.00  0.00    -0.487 OA
BRANCH   4   5
ATOM      5  C   UNL     1     -46.824  37.872  28.012  1.00  0.00     0.122 A 
ATOM      6  C   UNL     1     -46.379  42.256  26.199  1.00  0.00     0.043 A 
ATOM      7  C   UNL     1     -45.026  42.325  26.494  1.00  0.00    -0.016 A 
ATOM      8  N   UNL     1     -47.130  41.167  26.473  1.00  0.00    -0.253 NA
ATOM      9  C   UNL     1     -44.408  41.234  27.113  1.00  0.00     0.048 A 
ATOM     10  H   UNL     1     -44.456  43.208  26.232  1.00  0.00     0.066 H 
ATOM     11  C   UNL     1     -46.552  40.112  27.075  1.00  0.00     0.076 A 
ATOM     12  C   UNL     1     -45.189  40.092  27.429  1.00  0.00     0.024 A 
ATOM     13  C   UNL     1     -47.334  39.001  27.363  1.00  0.00     0.007 A 
ATOM     14  C   UNL     1     -44.676  38.955  28.093  1.00  0.00    -0.047 A 
ATOM     15  H   UNL     1     -48.385  39.023  27.087  1.00  0.00     0.069 H 
ATOM     16  C   UNL     1     -45.486  37.854  28.380  1.00  0.00    -0.019 A 
ATOM     17  H   UNL     1     -43.634  38.934  28.406  1.00  0.00     0.063 H 
ATOM     18  H   UNL     1     -45.038  37.019  28.906  1.00  0.00     0.066 H 
BRANCH   6  19
ATOM     19  C   UNL     1     -47.072  43.404  25.511  1.00  0.00    -0.013 C 
ATOM     20  H   UNL     1     -47.167  43.193  24.440  1.00  0.00     0.033 H 
ATOM     21  H   UNL     1     -46.449  44.303  25.598  1.00  0.00     0.033 H 
BRANCH  19  22
ATOM     22  C   UNL     1     -48.440  43.675  26.116  1.00  0.00    -0.060 C 
ATOM     23  H   UNL     1     -49.239  43.476  25.393  1.00  0.00     0.023 H 
ATOM     24  H   UNL     1     -48.602  43.033  26.988  1.00  0.00     0.023 H 
ATOM     25  H   UNL     1     -48.533  44.717  26.440  1.00  0.00     0.023 H 
ENDBRANCH  19  22
ENDBRANCH   6  19
BRANCH   9  26
ATOM     26  N   UNL     1     -43.007  41.265  27.411  1.00  0.00    -0.371 N 
BRANCH  26  27
ATOM     27  C   UNL     1     -42.303  42.007  26.357  1.00  0.00     0.007 C 
ATOM     28  H   UNL     1     -42.157  41.396  25.459  1.00  0.00     0.046 H 
ATOM     29  H   UNL     1     -41.304  42.299  26.692  1.00  0.00     0.046 H 
ATOM     30  H   UNL     1     -42.850  42.912  26.068  1.00  0.00     0.046 H 
ENDBRANCH  26  27
BRANCH  26  31
ATOM     31  C   UNL     1     -42.631  41.530  28.821  1.00  0.00     0.029 C 
ATOM     32  C   UNL     1     -41.214  41.568  29.324  1.00  0.00    -0.031 C 
ATOM     33  C   UNL     1     -42.133  40.459  29.752  1.00  0.00    -0.031 C 
ATOM     34  H   UNL     1     -43.333  42.224  29.283  1.00  0.00     0.053 H 
ATOM     35  H   UNL     1     -40.962  42.327  30.056  1.00  0.00     0.029 H 
ATOM     36  H   UNL     1     -40.404  41.323  28.651  1.00  0.00     0.029 H 
ATOM     37  H   UNL     1     -42.503  40.470  30.771  1.00  0.00     0.029 H 
ATOM     38  H   UNL     1     -41.949  39.464  29.370  1.00  0.00     0.029 H 
ENDBRANCH  26  31
ENDBRANCH   9  26
ENDBRANCH   4   5
ENDBRANCH   1   4
BRANCH   1  39
ATOM     39  C   UNL     1     -47.737  34.793  26.897  1.00  0.00     0.099 A 
ATOM     40  C   UNL     1     -46.842  34.254  27.809  1.00  0.00     0.052 A 
ATOM     41  N   UNL     1     -48.153  34.064  25.832  1.00  0.00    -0.228 NA
ATOM     42  N   UNL     1     -46.337  33.006  27.692  1.00  0.00    -0.259 NA
ATOM     43  H   UNL     1     -46.499  34.812  28.675  1.00  0.00     0.086 H 
ATOM     44  C   UNL     1     -47.659  32.803  25.689  1.00  0.00     0.157 A 
ATOM     45  C   UNL     1     -46.762  32.291  26.613  1.00  0.00     0.070 A 
ATOM     46  H   UNL     1     -46.335  31.300  26.554  1.00  0.00     0.088 H 
BRANCH  44  47
ATOM     47  N   UNL     1     -48.121  32.055  24.565  1.00  0.00    -0.284 N 
ATOM     48  C   UNL     1     -49.465  31.931  24.242  1.00  0.00     0.019 A 
ATOM     49  C   UNL     1     -47.394  31.340  23.625  1.00  0.00     0.151 A 
ATOM     50  C   UNL     1     -49.616  31.148  23.114  1.00  0.00     0.012 A 
ATOM     51  H   UNL     1     -50.207  32.425  24.859  1.00  0.00     0.083 H 
ATOM     52  C   UNL     1     -48.290  30.764  22.726  1.00  0.00     0.067 A 
ATOM     53  N   UNL     1     -46.053  31.207  23.577  1.00  0.00    -0.218 NA
ATOM     54  C   UNL     1     -47.739  29.980  21.698  1.00  0.00     0.136 A 
ATOM     55  C   UNL     1     -45.649  30.446  22.550  1.00  0.00     0.120 A 
ATOM     56  N   UNL     1     -46.406  29.829  21.629  1.00  0.00    -0.219 NA
ATOM     57  H   UNL     1     -44.577  30.305  22.453  1.00  0.00     0.106 H 
BRANCH  50  58
ATOM     58  C   UNL     1     -50.888  30.767  22.402  1.00  0.00     0.085 C 
ATOM     59  C   UNL     1     -52.188  31.094  23.126  1.00  0.00    -0.020 C 
ATOM     60  O   UNL     1     -50.920  29.336  22.183  1.00  0.00    -0.373 OA
ATOM     61  H   UNL     1     -50.880  31.255  21.420  1.00  0.00     0.066 H 
ATOM     62  C   UNL     1     -52.424  29.854  23.949  1.00  0.00    -0.027 C 
ATOM     63  H   UNL     1     -52.179  32.016  23.713  1.00  0.00     0.030 H 
ATOM     64  H   UNL     1     -52.997  31.185  22.389  1.00  0.00     0.030 H 
ATOM     65  C   UNL     1     -51.936  28.765  23.022  1.00  0.00     0.048 C 
ATOM     66  H   UNL     1     -53.468  29.718  24.242  1.00  0.00     0.029 H 
ATOM     67  H   UNL     1     -51.814  29.879  24.859  1.00  0.00     0.029 H 
ATOM     68  H   UNL     1     -51.525  27.908  23.564  1.00  0.00     0.057 H 
ATOM     69  H   UNL     1     -52.741  28.409  22.371  1.00  0.00     0.057 H 
ENDBRANCH  50  58
BRANCH  54  70
ATOM     70  N   UNL     1     -48.504  29.316  20.746  1.00  0.00    -0.383 N 
ATOM     71  H   UNL     1     -48.339  29.664  19.802  1.00  0.00     0.158 HD
ATOM     72  H   UNL     1     -49.474  29.284  21.034  1.00  0.00     0.158 HD
ENDBRANCH  54  70
ENDBRANCH  44  47
ENDBRANCH   1  39
TORSDOF 11
ENDMDL
MODEL 7
REMARK VINA RESULT:      -8.6      1.990      4.069
REMARK SMILES CCc1cc(N(C)C2CC2)c2ccc(OCc3cncc(-n4cc([C@@H]5CCCO5)c5c(N)ncnc54)n3)cc2n1
REMARK SMILES IDX 16 1 15 4 14 5 3 6 4 7 40 8 5 9 39 11 11 12 38 13 12 14
REMARK SMILES IDX 13 16 2 19 1 22 6 26 7 27 8 31 9 32 10 33 17 39 18 40 37 41
REMARK SMILES IDX 19 42 21 44 20 45 22 47 23 48 36 49 24 50 30 52 35 53 31 54
REMARK SMILES IDX 34 55 33 56 25 58 26 59 29 60 27 62 28 65 32 70
REMARK H PARENT 16 2 16 3 4 10 38 15 12 17 13 18 2 20 2 21 1 23 1 24 1 25 7 28
REMARK H PARENT 7 29 7 30 8 34 9 35 9 36 10 37 10 38 18 43 20 46 23 51 34 57
REMARK H PARENT 25 61 26 63 26 64 27 66 27 67 28 68 28 69 32 71 32 72
REMARK Flexibility Score: inf
ROOT
ATOM      1  C   UNL     1     -48.662  35.319  26.979  1.00  0.00     0.132 C 
ATOM      2  H   UNL     1     -48.457  35.473  25.913  1.00  0.00     0.078 H 
ATOM      3  H   UNL     1     -49.711  35.598  27.132  1.00  0.00     0.078 H 
ENDROOT
BRANCH   1   4
ATOM      4  O   UNL     1     -48.454  33.919  27.206  1.00  0.00    -0.487 OA
BRANCH   4   5
ATOM      5  C   UNL     1     -47.942  33.150  26.197  1.00  0.00     0.122 A 
ATOM      6  C   UNL     1     -48.480  28.944  24.023  1.00  0.00     0.043 A 
ATOM      7  C   UNL     1     -47.449  29.188  23.128  1.00  0.00    -0.016 A 
ATOM      8  N   UNL     1     -48.832  29.825  24.985  1.00  0.00    -0.253 NA
ATOM      9  C   UNL     1     -46.751  30.396  23.207  1.00  0.00     0.048 A 
ATOM     10  H   UNL     1     -47.182  28.441  22.389  1.00  0.00     0.066 H 
ATOM     11  C   UNL     1     -48.174  30.995  25.069  1.00  0.00     0.076 A 
ATOM     12  C   UNL     1     -47.125  31.342  24.196  1.00  0.00     0.024 A 
ATOM     13  C   UNL     1     -48.551  31.899  26.054  1.00  0.00     0.007 A 
ATOM     14  C   UNL     1     -46.517  32.609  24.335  1.00  0.00    -0.047 A 
ATOM     15  H   UNL     1     -49.361  31.626  26.725  1.00  0.00     0.069 H 
ATOM     16  C   UNL     1     -46.920  33.505  25.328  1.00  0.00    -0.019 A 
ATOM     17  H   UNL     1     -45.727  32.909  23.649  1.00  0.00     0.063 H 
ATOM     18  H   UNL     1     -46.425  34.468  25.373  1.00  0.00     0.066 H 
BRANCH   6  19
ATOM     19  C   UNL     1     -49.238  27.643  23.982  1.00  0.00    -0.013 C 
ATOM     20  H   UNL     1     -48.634  26.875  23.485  1.00  0.00     0.033 H 
ATOM     21  H   UNL     1     -50.140  27.773  23.371  1.00  0.00     0.033 H 
BRANCH  19  22
ATOM     22  C   UNL     1     -49.632  27.181  25.375  1.00  0.00    -0.060 C 
ATOM     23  H   UNL     1     -49.304  26.151  25.558  1.00  0.00     0.023 H 
ATOM     24  H   UNL     1     -49.172  27.824  26.131  1.00  0.00     0.023 H 
ATOM     25  H   UNL     1     -50.718  27.217  25.515  1.00  0.00     0.023 H 
ENDBRANCH  19  22
ENDBRANCH   6  19
BRANCH   9  26
ATOM     26  N   UNL     1     -45.666  30.669  22.311  1.00  0.00    -0.371 N 
BRANCH  26  27
ATOM     27  C   UNL     1     -44.961  29.417  22.006  1.00  0.00     0.007 C 
ATOM     28  H   UNL     1     -45.638  28.663  21.585  1.00  0.00     0.046 H 
ATOM     29  H   UNL     1     -44.544  28.977  22.916  1.00  0.00     0.046 H 
ATOM     30  H   UNL     1     -44.146  29.577  21.292  1.00  0.00     0.046 H 
ENDBRANCH  26  27
BRANCH  26  31
ATOM     31  C   UNL     1     -45.944  31.603  21.192  1.00  0.00     0.029 C 
ATOM     32  C   UNL     1     -47.065  31.428  20.206  1.00  0.00    -0.031 C 
ATOM     33  C   UNL     1     -45.640  31.276  19.756  1.00  0.00    -0.031 C 
ATOM     34  H   UNL     1     -45.695  32.627  21.474  1.00  0.00     0.053 H 
ATOM     35  H   UNL     1     -47.603  32.317  19.894  1.00  0.00     0.029 H 
ATOM     36  H   UNL     1     -47.680  30.538  20.251  1.00  0.00     0.029 H 
ATOM     37  H   UNL     1     -45.213  32.062  19.143  1.00  0.00     0.029 H 
ATOM     38  H   UNL     1     -45.285  30.287  19.499  1.00  0.00     0.029 H 
ENDBRANCH  26  31
ENDBRANCH   9  26
ENDBRANCH   4   5
ENDBRANCH   1   4
BRANCH   1  39
ATOM     39  C   UNL     1     -47.734  36.227  27.757  1.00  0.00     0.099 A 
ATOM     40  C   UNL     1     -47.110  35.765  28.907  1.00  0.00     0.052 A 
ATOM     41  N   UNL     1     -47.483  37.477  27.296  1.00  0.00    -0.228 NA
ATOM     42  N   UNL     1     -46.242  36.515  29.623  1.00  0.00    -0.259 NA
ATOM     43  H   UNL     1     -47.286  34.766  29.293  1.00  0.00     0.086 H 
ATOM     44  C   UNL     1     -46.612  38.254  27.998  1.00  0.00     0.157 A 
ATOM     45  C   UNL     1     -46.007  37.769  29.146  1.00  0.00     0.070 A 
ATOM     46  H   UNL     1     -45.309  38.336  29.746  1.00  0.00     0.088 H 
BRANCH  44  47
ATOM     47  N   UNL     1     -46.358  39.561  27.484  1.00  0.00    -0.284 N 
ATOM     48  C   UNL     1     -45.078  40.062  27.298  1.00  0.00     0.019 A 
ATOM     49  C   UNL     1     -47.257  40.543  27.093  1.00  0.00     0.151 A 
ATOM     50  C   UNL     1     -45.136  41.349  26.798  1.00  0.00     0.012 A 
ATOM     51  H   UNL     1     -44.224  39.442  27.544  1.00  0.00     0.083 H 
ATOM     52  C   UNL     1     -46.531  41.656  26.675  1.00  0.00     0.067 A 
ATOM     53  N   UNL     1     -48.602  40.456  27.113  1.00  0.00    -0.218 NA
ATOM     54  C   UNL     1     -47.272  42.772  26.251  1.00  0.00     0.136 A 
ATOM     55  C   UNL     1     -49.195  41.576  26.679  1.00  0.00     0.120 A 
ATOM     56  N   UNL     1     -48.615  42.713  26.263  1.00  0.00    -0.219 NA
ATOM     57  H   UNL     1     -50.281  41.568  26.665  1.00  0.00     0.106 H 
BRANCH  50  58
ATOM     58  C   UNL     1     -43.996  42.263  26.430  1.00  0.00     0.085 C 
ATOM     59  C   UNL     1     -42.595  41.744  26.729  1.00  0.00    -0.020 C 
ATOM     60  O   UNL     1     -44.108  43.508  27.161  1.00  0.00    -0.373 OA
ATOM     61  H   UNL     1     -44.083  42.494  25.362  1.00  0.00     0.066 H 
ATOM     62  C   UNL     1     -42.362  42.225  28.139  1.00  0.00    -0.027 C 
ATOM     63  H   UNL     1     -42.457  40.667  26.604  1.00  0.00     0.030 H 
ATOM     64  H   UNL     1     -41.877  42.244  26.066  1.00  0.00     0.030 H 
ATOM     65  C   UNL     1     -43.048  43.572  28.128  1.00  0.00     0.048 C 
ATOM     66  H   UNL     1     -41.306  42.295  28.407  1.00  0.00     0.029 H 
ATOM     67  H   UNL     1     -42.853  41.556  28.855  1.00  0.00     0.029 H 
ATOM     68  H   UNL     1     -43.458  43.840  29.106  1.00  0.00     0.057 H 
ATOM     69  H   UNL     1     -42.360  44.363  27.812  1.00  0.00     0.057 H 
ENDBRANCH  50  58
BRANCH  54  70
ATOM     70  N   UNL     1     -46.693  43.966  25.837  1.00  0.00    -0.383 N 
ATOM     71  H   UNL     1     -46.772  44.702  26.540  1.00  0.00     0.158 HD
ATOM     72  H   UNL     1     -47.018  44.212  24.911  1.00  0.00     0.158 HD
ENDBRANCH  54  70
ENDBRANCH  44  47
ENDBRANCH   1  39
TORSDOF 11
ENDMDL
