MODEL 1
REMARK VINA RESULT:     -11.0      0.000      0.000
REMARK SMILES Cn1ccc(-c2cn([C@@H]3C[C@H](CCc4ccc5ccc(N6CCC6)nc5c4)[C@@H](O)[C@@H]3F)c3ncnc(N)c23)n1
REMARK SMILES IDX 9 1 10 2 11 3 28 4 30 5 31 6 8 13 6 14 7 15 38 16 32 18
REMARK SMILES IDX 36 19 33 20 35 21 34 22 5 24 2 25 3 26 39 27 4 28 1 31 37 35
REMARK SMILES IDX 12 38 13 41 14 44 15 45 27 46 16 47 26 49 17 51 25 53 18 54
REMARK SMILES IDX 20 55 19 56 21 59 22 60 24 61 23 62 29 69
REMARK H PARENT 9 7 10 8 10 9 11 10 28 11 30 12 7 17 34 23 3 29 4 30 1 32 1 33
REMARK H PARENT 1 34 37 36 37 37 12 39 12 40 13 42 13 43 15 48 27 50 16 52
REMARK H PARENT 18 57 19 58 22 63 22 64 24 65 24 66 23 67 23 68 29 70
REMARK Flexibility Score: inf
ROOT
ATOM      1  C   UNL     1     -45.258  38.097  29.015  1.00  0.00     0.069 C 
ATOM      2  C   UNL     1     -45.130  36.834  28.139  1.00  0.00    -0.024 C 
ATOM      3  C   UNL     1     -46.557  36.287  27.954  1.00  0.00    -0.010 C 
ATOM      4  C   UNL     1     -47.485  37.453  28.310  1.00  0.00     0.090 C 
ATOM      5  C   UNL     1     -46.730  38.165  29.425  1.00  0.00     0.147 C 
ATOM      6  F   UNL     1     -47.159  39.438  29.586  1.00  0.00    -0.242 F 
ATOM      7  H   UNL     1     -44.655  37.944  29.920  1.00  0.00     0.057 H 
ATOM      8  H   UNL     1     -44.630  37.029  27.185  1.00  0.00     0.029 H 
ATOM      9  H   UNL     1     -44.521  36.082  28.655  1.00  0.00     0.029 H 
ATOM     10  H   UNL     1     -46.716  35.474  28.679  1.00  0.00     0.033 H 
ATOM     11  H   UNL     1     -47.689  38.129  27.476  1.00  0.00     0.064 H 
ATOM     12  H   UNL     1     -46.887  37.647  30.379  1.00  0.00     0.071 H 
ENDROOT
BRANCH   1  13
ATOM     13  N   UNL     1     -44.742  39.316  28.407  1.00  0.00    -0.326 N 
ATOM     14  C   UNL     1     -44.591  41.062  27.018  1.00  0.00     0.033 A 
ATOM     15  C   UNL     1     -45.322  39.928  27.320  1.00  0.00     0.016 A 
ATOM     16  C   UNL     1     -43.508  41.135  27.947  1.00  0.00     0.071 A 
ATOM     17  H   UNL     1     -46.209  39.515  26.856  1.00  0.00     0.083 H 
ATOM     18  C   UNL     1     -43.645  40.044  28.801  1.00  0.00     0.146 A 
ATOM     19  C   UNL     1     -42.412  41.982  28.194  1.00  0.00     0.137 A 
ATOM     20  N   UNL     1     -42.849  39.745  29.843  1.00  0.00    -0.218 NA
ATOM     21  N   UNL     1     -41.605  41.724  29.243  1.00  0.00    -0.219 NA
ATOM     22  C   UNL     1     -41.857  40.636  29.988  1.00  0.00     0.120 A 
ATOM     23  H   UNL     1     -41.171  40.459  30.811  1.00  0.00     0.106 H 
BRANCH  14  24
ATOM     24  C   UNL     1     -44.887  42.019  25.947  1.00  0.00     0.095 A 
ATOM     25  N   UNL     1     -44.715  43.214  24.212  1.00  0.00    -0.275 N 
ATOM     26  C   UNL     1     -45.929  43.546  24.731  1.00  0.00     0.025 A 
ATOM     27  N   UNL     1     -44.051  42.295  24.937  1.00  0.00    -0.173 NA
ATOM     28  C   UNL     1     -46.073  42.784  25.867  1.00  0.00    -0.016 A 
ATOM     29  H   UNL     1     -46.579  44.273  24.262  1.00  0.00     0.084 H 
ATOM     30  H   UNL     1     -46.921  42.776  26.536  1.00  0.00     0.066 H 
BRANCH  25  31
ATOM     31  C   UNL     1     -44.111  43.741  23.010  1.00  0.00     0.030 C 
ATOM     32  H   UNL     1     -43.442  44.564  23.270  1.00  0.00     0.048 H 
ATOM     33  H   UNL     1     -43.548  42.938  22.528  1.00  0.00     0.048 H 
ATOM     34  H   UNL     1     -44.909  44.100  22.355  1.00  0.00     0.048 H 
ENDBRANCH  25  31
ENDBRANCH  14  24
BRANCH  19  35
ATOM     35  N   UNL     1     -42.100  43.095  27.426  1.00  0.00    -0.383 N 
ATOM     36  H   UNL     1     -41.834  43.881  27.999  1.00  0.00     0.158 HD
ATOM     37  H   UNL     1     -42.790  43.266  26.689  1.00  0.00     0.158 HD
ENDBRANCH  19  35
ENDBRANCH   1  13
BRANCH   3  38
ATOM     38  C   UNL     1     -46.836  35.725  26.556  1.00  0.00    -0.044 C 
ATOM     39  H   UNL     1     -45.940  35.220  26.171  1.00  0.00     0.027 H 
ATOM     40  H   UNL     1     -47.035  36.557  25.868  1.00  0.00     0.027 H 
BRANCH  38  41
ATOM     41  C   UNL     1     -48.023  34.758  26.534  1.00  0.00    -0.027 C 
ATOM     42  H   UNL     1     -48.902  35.250  26.097  1.00  0.00     0.032 H 
ATOM     43  H   UNL     1     -48.314  34.472  27.552  1.00  0.00     0.032 H 
BRANCH  41  44
ATOM     44  C   UNL     1     -47.702  33.511  25.749  1.00  0.00    -0.046 A 
ATOM     45  C   UNL     1     -46.460  33.362  25.128  1.00  0.00    -0.058 A 
ATOM     46  C   UNL     1     -48.662  32.496  25.602  1.00  0.00    -0.033 A 
ATOM     47  C   UNL     1     -46.185  32.215  24.386  1.00  0.00    -0.053 A 
ATOM     48  H   UNL     1     -45.702  34.138  25.215  1.00  0.00     0.063 H 
ATOM     49  C   UNL     1     -48.414  31.343  24.868  1.00  0.00     0.073 A 
ATOM     50  H   UNL     1     -49.639  32.602  26.071  1.00  0.00     0.065 H 
ATOM     51  C   UNL     1     -47.155  31.206  24.254  1.00  0.00     0.000 A 
ATOM     52  H   UNL     1     -45.213  32.112  23.909  1.00  0.00     0.063 H 
ATOM     53  N   UNL     1     -49.374  30.406  24.766  1.00  0.00    -0.231 NA
ATOM     54  C   UNL     1     -46.916  30.046  23.514  1.00  0.00    -0.049 A 
ATOM     55  C   UNL     1     -49.130  29.283  24.054  1.00  0.00     0.129 A 
ATOM     56  C   UNL     1     -47.913  29.079  23.413  1.00  0.00    -0.019 A 
ATOM     57  H   UNL     1     -45.965  29.888  23.012  1.00  0.00     0.063 H 
ATOM     58  H   UNL     1     -47.737  28.183  22.828  1.00  0.00     0.066 H 
BRANCH  55  59
ATOM     59  N   UNL     1     -50.149  28.317  23.947  1.00  0.00    -0.356 N 
ATOM     60  C   UNL     1     -50.145  27.246  22.989  1.00  0.00     0.021 C 
ATOM     61  C   UNL     1     -51.547  28.571  23.756  1.00  0.00     0.021 C 
ATOM     62  C   UNL     1     -51.650  27.127  23.252  1.00  0.00    -0.018 C 
ATOM     63  H   UNL     1     -49.539  26.391  23.296  1.00  0.00     0.049 H 
ATOM     64  H   UNL     1     -49.877  27.572  21.979  1.00  0.00     0.049 H 
ATOM     65  H   UNL     1     -51.744  29.340  23.001  1.00  0.00     0.049 H 
ATOM     66  H   UNL     1     -52.083  28.789  24.682  1.00  0.00     0.049 H 
ATOM     67  H   UNL     1     -52.277  26.974  22.370  1.00  0.00     0.030 H 
ATOM     68  H   UNL     1     -51.919  26.397  24.024  1.00  0.00     0.030 H 
ENDBRANCH  55  59
ENDBRANCH  41  44
ENDBRANCH  38  41
ENDBRANCH   3  38
BRANCH   4  69
ATOM     69  O   UNL     1     -48.732  36.945  28.783  1.00  0.00    -0.390 OA
ATOM     70  H   UNL     1     -48.617  35.990  28.926  1.00  0.00     0.211 HD
ENDBRANCH   4  69
TORSDOF 9
ENDMDL
MODEL 2
REMARK VINA RESULT:     -10.0      1.453      2.275
REMARK SMILES Cn1ccc(-c2cn([C@@H]3C[C@H](CCc4ccc5ccc(N6CCC6)nc5c4)[C@@H](O)[C@@H]3F)c3ncnc(N)c23)n1
REMARK SMILES IDX 9 1 10 2 11 3 28 4 30 5 31 6 8 13 6 14 7 15 38 16 32 18
REMARK SMILES IDX 36 19 33 20 35 21 34 22 5 24 2 25 3 26 39 27 4 28 1 31 37 35
REMARK SMILES IDX 12 38 13 41 14 44 15 45 27 46 16 47 26 49 17 51 25 53 18 54
REMARK SMILES IDX 20 55 19 56 21 59 22 60 24 61 23 62 29 69
REMARK H PARENT 9 7 10 8 10 9 11 10 28 11 30 12 7 17 34 23 3 29 4 30 1 32 1 33
REMARK H PARENT 1 34 37 36 37 37 12 39 12 40 13 42 13 43 15 48 27 50 16 52
REMARK H PARENT 18 57 19 58 22 63 22 64 24 65 24 66 23 67 23 68 29 70
REMARK Flexibility Score: inf
ROOT
ATOM      1  C   UNL     1     -45.348  38.531  29.401  1.00  0.00     0.069 C 
ATOM      2  C   UNL     1     -44.850  37.120  29.032  1.00  0.00    -0.024 C 
ATOM      3  C   UNL     1     -46.090  36.324  28.586  1.00  0.00    -0.010 C 
ATOM      4  C   UNL     1     -47.153  37.381  28.267  1.00  0.00     0.090 C 
ATOM      5  C   UNL     1     -46.872  38.471  29.293  1.00  0.00     0.147 C 
ATOM      6  F   UNL     1     -47.406  39.658  28.920  1.00  0.00    -0.242 F 
ATOM      7  H   UNL     1     -45.085  38.720  30.451  1.00  0.00     0.057 H 
ATOM      8  H   UNL     1     -44.065  37.133  28.270  1.00  0.00     0.029 H 
ATOM      9  H   UNL     1     -44.411  36.636  29.913  1.00  0.00     0.029 H 
ATOM     10  H   UNL     1     -46.440  35.717  29.434  1.00  0.00     0.033 H 
ATOM     11  H   UNL     1     -47.098  37.772  27.248  1.00  0.00     0.064 H 
ATOM     12  H   UNL     1     -47.316  38.205  30.259  1.00  0.00     0.071 H 
ENDROOT
BRANCH   1  13
ATOM     13  N   UNL     1     -44.729  39.614  28.647  1.00  0.00    -0.326 N 
ATOM     14  C   UNL     1     -44.453  41.178  27.074  1.00  0.00     0.033 A 
ATOM     15  C   UNL     1     -45.290  40.175  27.523  1.00  0.00     0.016 A 
ATOM     16  C   UNL     1     -43.323  41.220  27.948  1.00  0.00     0.071 A 
ATOM     17  H   UNL     1     -46.240  39.822  27.140  1.00  0.00     0.083 H 
ATOM     18  C   UNL     1     -43.539  40.245  28.919  1.00  0.00     0.146 A 
ATOM     19  C   UNL     1     -42.128  41.953  28.061  1.00  0.00     0.137 A 
ATOM     20  N   UNL     1     -42.731  39.964  29.957  1.00  0.00    -0.218 NA
ATOM     21  N   UNL     1     -41.304  41.712  29.101  1.00  0.00    -0.219 NA
ATOM     22  C   UNL     1     -41.639  40.743  29.968  1.00  0.00     0.120 A 
ATOM     23  H   UNL     1     -40.938  40.572  30.779  1.00  0.00     0.106 H 
BRANCH  14  24
ATOM     24  C   UNL     1     -44.692  42.049  25.918  1.00  0.00     0.095 A 
ATOM     25  N   UNL     1     -45.495  43.543  24.656  1.00  0.00    -0.275 N 
ATOM     26  C   UNL     1     -44.541  42.936  23.897  1.00  0.00     0.025 A 
ATOM     27  N   UNL     1     -45.619  43.016  25.889  1.00  0.00    -0.173 NA
ATOM     28  C   UNL     1     -43.997  41.954  24.690  1.00  0.00    -0.016 A 
ATOM     29  H   UNL     1     -44.326  43.247  22.883  1.00  0.00     0.084 H 
ATOM     30  H   UNL     1     -43.203  41.272  24.423  1.00  0.00     0.066 H 
BRANCH  25  31
ATOM     31  C   UNL     1     -46.341  44.646  24.268  1.00  0.00     0.030 C 
ATOM     32  H   UNL     1     -46.941  44.964  25.124  1.00  0.00     0.048 H 
ATOM     33  H   UNL     1     -45.704  45.467  23.931  1.00  0.00     0.048 H 
ATOM     34  H   UNL     1     -46.995  44.309  23.458  1.00  0.00     0.048 H 
ENDBRANCH  25  31
ENDBRANCH  14  24
BRANCH  19  35
ATOM     35  N   UNL     1     -41.731  42.937  27.168  1.00  0.00    -0.383 N 
ATOM     36  H   UNL     1     -42.022  42.725  26.225  1.00  0.00     0.158 HD
ATOM     37  H   UNL     1     -40.756  43.217  27.304  1.00  0.00     0.158 HD
ENDBRANCH  19  35
ENDBRANCH   1  13
BRANCH   3  38
ATOM     38  C   UNL     1     -45.837  35.378  27.408  1.00  0.00    -0.044 C 
ATOM     39  H   UNL     1     -45.862  34.336  27.754  1.00  0.00     0.027 H 
ATOM     40  H   UNL     1     -44.823  35.546  27.022  1.00  0.00     0.027 H 
BRANCH  38  41
ATOM     41  C   UNL     1     -46.846  35.567  26.271  1.00  0.00    -0.027 C 
ATOM     42  H   UNL     1     -46.343  35.976  25.385  1.00  0.00     0.032 H 
ATOM     43  H   UNL     1     -47.613  36.299  26.547  1.00  0.00     0.032 H 
BRANCH  41  44
ATOM     44  C   UNL     1     -47.519  34.266  25.911  1.00  0.00    -0.046 A 
ATOM     45  C   UNL     1     -48.837  34.017  26.299  1.00  0.00    -0.058 A 
ATOM     46  C   UNL     1     -46.816  33.272  25.210  1.00  0.00    -0.033 A 
ATOM     47  C   UNL     1     -49.439  32.800  25.980  1.00  0.00    -0.053 A 
ATOM     48  H   UNL     1     -49.401  34.764  26.853  1.00  0.00     0.063 H 
ATOM     49  C   UNL     1     -47.393  32.052  24.880  1.00  0.00     0.073 A 
ATOM     50  H   UNL     1     -45.785  33.447  24.910  1.00  0.00     0.065 H 
ATOM     51  C   UNL     1     -48.724  31.819  25.273  1.00  0.00     0.000 A 
ATOM     52  H   UNL     1     -50.467  32.621  26.288  1.00  0.00     0.063 H 
ATOM     53  N   UNL     1     -46.668  31.141  24.205  1.00  0.00    -0.231 NA
ATOM     54  C   UNL     1     -49.293  30.588  24.940  1.00  0.00    -0.049 A 
ATOM     55  C   UNL     1     -47.231  29.955  23.881  1.00  0.00     0.129 A 
ATOM     56  C   UNL     1     -48.539  29.650  24.242  1.00  0.00    -0.019 A 
ATOM     57  H   UNL     1     -50.315  30.349  25.224  1.00  0.00     0.063 H 
ATOM     58  H   UNL     1     -48.972  28.687  23.994  1.00  0.00     0.066 H 
BRANCH  55  59
ATOM     59  N   UNL     1     -46.456  29.007  23.186  1.00  0.00    -0.356 N 
ATOM     60  C   UNL     1     -46.075  27.730  23.721  1.00  0.00     0.021 C 
ATOM     61  C   UNL     1     -45.162  29.224  22.606  1.00  0.00     0.021 C 
ATOM     62  C   UNL     1     -44.990  27.701  22.639  1.00  0.00    -0.018 C 
ATOM     63  H   UNL     1     -46.856  26.971  23.634  1.00  0.00     0.049 H 
ATOM     64  H   UNL     1     -45.701  27.788  24.749  1.00  0.00     0.049 H 
ATOM     65  H   UNL     1     -44.486  29.781  23.263  1.00  0.00     0.049 H 
ATOM     66  H   UNL     1     -45.198  29.675  21.612  1.00  0.00     0.049 H 
ATOM     67  H   UNL     1     -44.009  27.340  22.957  1.00  0.00     0.030 H 
ATOM     68  H   UNL     1     -45.287  27.192  21.715  1.00  0.00     0.030 H 
ENDBRANCH  55  59
ENDBRANCH  41  44
ENDBRANCH  38  41
ENDBRANCH   3  38
BRANCH   4  69
ATOM     69  O   UNL     1     -48.453  36.825  28.457  1.00  0.00    -0.390 OA
ATOM     70  H   UNL     1     -49.087  37.425  28.028  1.00  0.00     0.211 HD
ENDBRANCH   4  69
TORSDOF 9
ENDMDL
MODEL 3
REMARK VINA RESULT:      -9.8      2.616      3.582
REMARK SMILES Cn1ccc(-c2cn([C@@H]3C[C@H](CCc4ccc5ccc(N6CCC6)nc5c4)[C@@H](O)[C@@H]3F)c3ncnc(N)c23)n1
REMARK SMILES IDX 9 1 10 2 11 3 28 4 30 5 31 6 8 13 6 14 7 15 38 16 32 18
REMARK SMILES IDX 36 19 33 20 35 21 34 22 5 24 2 25 3 26 39 27 4 28 1 31 37 35
REMARK SMILES IDX 12 38 13 41 14 44 15 45 27 46 16 47 26 49 17 51 25 53 18 54
REMARK SMILES IDX 20 55 19 56 21 59 22 60 24 61 23 62 29 69
REMARK H PARENT 9 7 10 8 10 9 11 10 28 11 30 12 7 17 34 23 3 29 4 30 1 32 1 33
REMARK H PARENT 1 34 37 36 37 37 12 39 12 40 13 42 13 43 15 48 27 50 16 52
REMARK H PARENT 18 57 19 58 22 63 22 64 24 65 24 66 23 67 23 68 29 70
REMARK Flexibility Score: inf
ROOT
ATOM      1  C   UNL     1     -45.359  37.892  28.056  1.00  0.00     0.069 C 
ATOM      2  C   UNL     1     -45.745  36.629  27.260  1.00  0.00    -0.024 C 
ATOM      3  C   UNL     1     -46.131  35.561  28.299  1.00  0.00    -0.010 C 
ATOM      4  C   UNL     1     -46.405  36.337  29.592  1.00  0.00     0.090 C 
ATOM      5  C   UNL     1     -45.398  37.478  29.528  1.00  0.00     0.147 C 
ATOM      6  F   UNL     1     -45.749  38.502  30.339  1.00  0.00    -0.242 F 
ATOM      7  H   UNL     1     -44.323  38.152  27.799  1.00  0.00     0.057 H 
ATOM      8  H   UNL     1     -46.543  36.814  26.534  1.00  0.00     0.029 H 
ATOM      9  H   UNL     1     -44.883  36.274  26.683  1.00  0.00     0.029 H 
ATOM     10  H   UNL     1     -45.266  34.901  28.461  1.00  0.00     0.033 H 
ATOM     11  H   UNL     1     -47.427  36.716  29.674  1.00  0.00     0.064 H 
ATOM     12  H   UNL     1     -44.411  37.130  29.855  1.00  0.00     0.071 H 
ENDROOT
BRANCH   1  13
ATOM     13  N   UNL     1     -46.145  39.077  27.740  1.00  0.00    -0.326 N 
ATOM     14  C   UNL     1     -47.869  40.501  27.713  1.00  0.00     0.033 A 
ATOM     15  C   UNL     1     -47.433  39.275  28.180  1.00  0.00     0.016 A 
ATOM     16  C   UNL     1     -46.810  41.068  26.939  1.00  0.00     0.071 A 
ATOM     17  H   UNL     1     -47.931  38.535  28.794  1.00  0.00     0.083 H 
ATOM     18  C   UNL     1     -45.753  40.162  26.992  1.00  0.00     0.146 A 
ATOM     19  C   UNL     1     -46.587  42.236  26.189  1.00  0.00     0.137 A 
ATOM     20  N   UNL     1     -44.546  40.315  26.420  1.00  0.00    -0.218 NA
ATOM     21  N   UNL     1     -45.381  42.432  25.617  1.00  0.00    -0.219 NA
ATOM     22  C   UNL     1     -44.450  41.475  25.754  1.00  0.00     0.120 A 
ATOM     23  H   UNL     1     -43.501  41.667  25.262  1.00  0.00     0.106 H 
BRANCH  14  24
ATOM     24  C   UNL     1     -49.176  41.110  27.980  1.00  0.00     0.095 A 
ATOM     25  N   UNL     1     -50.681  42.516  28.458  1.00  0.00    -0.275 N 
ATOM     26  C   UNL     1     -51.356  41.347  28.276  1.00  0.00     0.025 A 
ATOM     27  N   UNL     1     -49.350  42.401  28.295  1.00  0.00    -0.173 NA
ATOM     28  C   UNL     1     -50.402  40.407  27.964  1.00  0.00    -0.016 A 
ATOM     29  H   UNL     1     -52.431  41.279  28.375  1.00  0.00     0.084 H 
ATOM     30  H   UNL     1     -50.571  39.363  27.746  1.00  0.00     0.066 H 
BRANCH  25  31
ATOM     31  C   UNL     1     -51.247  43.801  28.793  1.00  0.00     0.030 C 
ATOM     32  H   UNL     1     -51.959  44.099  28.020  1.00  0.00     0.048 H 
ATOM     33  H   UNL     1     -51.756  43.712  29.756  1.00  0.00     0.048 H 
ATOM     34  H   UNL     1     -50.433  44.529  28.853  1.00  0.00     0.048 H 
ENDBRANCH  25  31
ENDBRANCH  14  24
BRANCH  19  35
ATOM     35  N   UNL     1     -47.535  43.231  25.998  1.00  0.00    -0.383 N 
ATOM     36  H   UNL     1     -47.460  43.958  26.694  1.00  0.00     0.158 HD
ATOM     37  H   UNL     1     -48.469  42.850  25.819  1.00  0.00     0.158 HD
ENDBRANCH  19  35
ENDBRANCH   1  13
BRANCH   3  38
ATOM     38  C   UNL     1     -47.316  34.683  27.884  1.00  0.00    -0.044 C 
ATOM     39  H   UNL     1     -48.200  34.942  28.482  1.00  0.00     0.027 H 
ATOM     40  H   UNL     1     -47.087  33.635  28.118  1.00  0.00     0.027 H 
BRANCH  38  41
ATOM     41  C   UNL     1     -47.649  34.805  26.394  1.00  0.00    -0.027 C 
ATOM     42  H   UNL     1     -47.030  35.586  25.933  1.00  0.00     0.032 H 
ATOM     43  H   UNL     1     -48.689  35.121  26.250  1.00  0.00     0.032 H 
BRANCH  41  44
ATOM     44  C   UNL     1     -47.430  33.499  25.672  1.00  0.00    -0.046 A 
ATOM     45  C   UNL     1     -46.461  33.394  24.673  1.00  0.00    -0.058 A 
ATOM     46  C   UNL     1     -48.223  32.380  25.972  1.00  0.00    -0.033 A 
ATOM     47  C   UNL     1     -46.285  32.187  23.997  1.00  0.00    -0.053 A 
ATOM     48  H   UNL     1     -45.840  34.248  24.412  1.00  0.00     0.063 H 
ATOM     49  C   UNL     1     -48.069  31.166  25.314  1.00  0.00     0.073 A 
ATOM     50  H   UNL     1     -48.990  32.449  26.741  1.00  0.00     0.065 H 
ATOM     51  C   UNL     1     -47.083  31.074  24.314  1.00  0.00     0.000 A 
ATOM     52  H   UNL     1     -45.525  32.119  23.221  1.00  0.00     0.063 H 
ATOM     53  N   UNL     1     -48.858  30.129  25.648  1.00  0.00    -0.231 NA
ATOM     54  C   UNL     1     -46.939  29.851  23.655  1.00  0.00    -0.049 A 
ATOM     55  C   UNL     1     -48.705  28.947  25.010  1.00  0.00     0.129 A 
ATOM     56  C   UNL     1     -47.758  28.782  24.005  1.00  0.00    -0.019 A 
ATOM     57  H   UNL     1     -46.199  29.723  22.869  1.00  0.00     0.063 H 
ATOM     58  H   UNL     1     -47.659  27.835  23.486  1.00  0.00     0.066 H 
BRANCH  55  59
ATOM     59  N   UNL     1     -49.548  27.875  25.362  1.00  0.00    -0.356 N 
ATOM     60  C   UNL     1     -49.270  26.949  26.424  1.00  0.00     0.021 C 
ATOM     61  C   UNL     1     -50.016  26.837  24.490  1.00  0.00     0.021 C 
ATOM     62  C   UNL     1     -50.289  26.018  25.756  1.00  0.00    -0.018 C 
ATOM     63  H   UNL     1     -49.544  27.325  27.412  1.00  0.00     0.049 H 
ATOM     64  H   UNL     1     -48.238  26.583  26.418  1.00  0.00     0.049 H 
ATOM     65  H   UNL     1     -49.231  26.437  23.840  1.00  0.00     0.049 H 
ATOM     66  H   UNL     1     -50.897  27.119  23.908  1.00  0.00     0.049 H 
ATOM     67  H   UNL     1     -50.012  24.963  25.710  1.00  0.00     0.030 H 
ATOM     68  H   UNL     1     -51.310  26.113  26.144  1.00  0.00     0.030 H 
ENDBRANCH  55  59
ENDBRANCH  41  44
ENDBRANCH  38  41
ENDBRANCH   3  38
BRANCH   4  69
ATOM     69  O   UNL     1     -46.154  35.498  30.717  1.00  0.00    -0.390 OA
ATOM     70  H   UNL     1     -46.477  34.609  30.490  1.00  0.00     0.211 HD
ENDBRANCH   4  69
TORSDOF 9
ENDMDL
MODEL 4
REMARK VINA RESULT:      -9.3      3.167      4.995
REMARK SMILES Cn1ccc(-c2cn([C@@H]3C[C@H](CCc4ccc5ccc(N6CCC6)nc5c4)[C@@H](O)[C@@H]3F)c3ncnc(N)c23)n1
REMARK SMILES IDX 9 1 10 2 11 3 28 4 30 5 31 6 8 13 6 14 7 15 38 16 32 18
REMARK SMILES IDX 36 19 33 20 35 21 34 22 5 24 2 25 3 26 39 27 4 28 1 31 37 35
REMARK SMILES IDX 12 38 13 41 14 44 15 45 27 46 16 47 26 49 17 51 25 53 18 54
REMARK SMILES IDX 20 55 19 56 21 59 22 60 24 61 23 62 29 69
REMARK H PARENT 9 7 10 8 10 9 11 10 28 11 30 12 7 17 34 23 3 29 4 30 1 32 1 33
REMARK H PARENT 1 34 37 36 37 37 12 39 12 40 13 42 13 43 15 48 27 50 16 52
REMARK H PARENT 18 57 19 58 22 63 22 64 24 65 24 66 23 67 23 68 29 70
REMARK Flexibility Score: inf
ROOT
ATOM      1  C   UNL     1     -46.136  36.505  27.080  1.00  0.00     0.069 C 
ATOM      2  C   UNL     1     -46.711  35.398  26.174  1.00  0.00    -0.024 C 
ATOM      3  C   UNL     1     -46.702  34.105  27.010  1.00  0.00    -0.010 C 
ATOM      4  C   UNL     1     -46.573  34.566  28.465  1.00  0.00     0.090 C 
ATOM      5  C   UNL     1     -45.682  35.797  28.357  1.00  0.00     0.147 C 
ATOM      6  F   UNL     1     -45.790  36.591  29.448  1.00  0.00    -0.242 F 
ATOM      7  H   UNL     1     -45.248  36.921  26.583  1.00  0.00     0.057 H 
ATOM      8  H   UNL     1     -47.707  35.640  25.790  1.00  0.00     0.029 H 
ATOM      9  H   UNL     1     -46.069  35.262  25.296  1.00  0.00     0.029 H 
ATOM     10  H   UNL     1     -45.808  33.522  26.743  1.00  0.00     0.033 H 
ATOM     11  H   UNL     1     -47.527  34.809  28.941  1.00  0.00     0.064 H 
ATOM     12  H   UNL     1     -44.630  35.498  28.277  1.00  0.00     0.071 H 
ENDROOT
BRANCH   1  13
ATOM     13  N   UNL     1     -47.024  37.639  27.298  1.00  0.00    -0.326 N 
ATOM     14  C   UNL     1     -48.844  38.785  27.907  1.00  0.00     0.033 A 
ATOM     15  C   UNL     1     -48.291  37.522  27.821  1.00  0.00     0.016 A 
ATOM     16  C   UNL     1     -47.883  39.712  27.398  1.00  0.00     0.071 A 
ATOM     17  H   UNL     1     -48.692  36.554  28.096  1.00  0.00     0.083 H 
ATOM     18  C   UNL     1     -46.762  38.964  27.044  1.00  0.00     0.146 A 
ATOM     19  C   UNL     1     -47.795  41.099  27.181  1.00  0.00     0.137 A 
ATOM     20  N   UNL     1     -45.610  39.446  26.545  1.00  0.00    -0.218 NA
ATOM     21  N   UNL     1     -46.648  41.619  26.701  1.00  0.00    -0.219 NA
ATOM     22  C   UNL     1     -45.642  40.779  26.406  1.00  0.00     0.120 A 
ATOM     23  H   UNL     1     -44.745  41.240  26.006  1.00  0.00     0.106 H 
BRANCH  14  24
ATOM     24  C   UNL     1     -50.171  39.112  28.440  1.00  0.00     0.095 A 
ATOM     25  N   UNL     1     -51.756  40.109  29.421  1.00  0.00    -0.275 N 
ATOM     26  C   UNL     1     -52.316  38.955  28.960  1.00  0.00     0.025 A 
ATOM     27  N   UNL     1     -50.448  40.227  29.130  1.00  0.00    -0.173 NA
ATOM     28  C   UNL     1     -51.307  38.280  28.315  1.00  0.00    -0.016 A 
ATOM     29  H   UNL     1     -53.359  38.717  29.118  1.00  0.00     0.084 H 
ATOM     30  H   UNL     1     -51.385  37.325  27.817  1.00  0.00     0.066 H 
BRANCH  25  31
ATOM     31  C   UNL     1     -52.417  41.159  30.159  1.00  0.00     0.030 C 
ATOM     32  H   UNL     1     -53.486  40.944  30.221  1.00  0.00     0.048 H 
ATOM     33  H   UNL     1     -51.984  41.199  31.162  1.00  0.00     0.048 H 
ATOM     34  H   UNL     1     -52.255  42.103  29.632  1.00  0.00     0.048 H 
ENDBRANCH  25  31
ENDBRANCH  14  24
BRANCH  19  35
ATOM     35  N   UNL     1     -48.823  41.993  27.441  1.00  0.00    -0.383 N 
ATOM     36  H   UNL     1     -49.730  41.571  27.308  1.00  0.00     0.158 HD
ATOM     37  H   UNL     1     -48.665  42.906  27.005  1.00  0.00     0.158 HD
ENDBRANCH  19  35
ENDBRANCH   1  13
BRANCH   3  38
ATOM     38  C   UNL     1     -47.925  33.208  26.789  1.00  0.00    -0.044 C 
ATOM     39  H   UNL     1     -48.722  33.484  27.493  1.00  0.00     0.027 H 
ATOM     40  H   UNL     1     -47.657  32.170  27.025  1.00  0.00     0.027 H 
BRANCH  38  41
ATOM     41  C   UNL     1     -48.458  33.277  25.355  1.00  0.00    -0.027 C 
ATOM     42  H   UNL     1     -47.651  33.564  24.667  1.00  0.00     0.032 H 
ATOM     43  H   UNL     1     -49.225  34.053  25.260  1.00  0.00     0.032 H 
BRANCH  41  44
ATOM     44  C   UNL     1     -49.042  31.956  24.921  1.00  0.00    -0.046 A 
ATOM     45  C   UNL     1     -50.188  31.914  24.123  1.00  0.00    -0.058 A 
ATOM     46  C   UNL     1     -48.462  30.749  25.342  1.00  0.00    -0.033 A 
ATOM     47  C   UNL     1     -50.731  30.686  23.749  1.00  0.00    -0.053 A 
ATOM     48  H   UNL     1     -50.665  32.834  23.792  1.00  0.00     0.063 H 
ATOM     49  C   UNL     1     -48.983  29.512  24.983  1.00  0.00     0.073 A 
ATOM     50  H   UNL     1     -47.574  30.765  25.973  1.00  0.00     0.065 H 
ATOM     51  C   UNL     1     -50.134  29.487  24.174  1.00  0.00     0.000 A 
ATOM     52  H   UNL     1     -51.623  30.669  23.127  1.00  0.00     0.063 H 
ATOM     53  N   UNL     1     -48.380  28.391  25.417  1.00  0.00    -0.231 NA
ATOM     54  C   UNL     1     -50.654  28.239  23.823  1.00  0.00    -0.049 A 
ATOM     55  C   UNL     1     -48.886  27.187  25.065  1.00  0.00     0.129 A 
ATOM     56  C   UNL     1     -50.025  27.082  24.274  1.00  0.00    -0.019 A 
ATOM     57  H   UNL     1     -51.545  28.158  23.206  1.00  0.00     0.063 H 
ATOM     58  H   UNL     1     -50.433  26.112  24.015  1.00  0.00     0.066 H 
BRANCH  55  59
ATOM     59  N   UNL     1     -48.251  26.023  25.537  1.00  0.00    -0.356 N 
ATOM     60  C   UNL     1     -48.647  25.314  26.723  1.00  0.00     0.021 C 
ATOM     61  C   UNL     1     -46.856  25.873  25.834  1.00  0.00     0.021 C 
ATOM     62  C   UNL     1     -47.258  24.667  26.690  1.00  0.00    -0.018 C 
ATOM     63  H   UNL     1     -49.491  24.640  26.565  1.00  0.00     0.049 H 
ATOM     64  H   UNL     1     -48.828  25.974  27.578  1.00  0.00     0.049 H 
ATOM     65  H   UNL     1     -46.443  26.720  26.392  1.00  0.00     0.049 H 
ATOM     66  H   UNL     1     -46.244  25.649  24.958  1.00  0.00     0.049 H 
ATOM     67  H   UNL     1     -46.751  24.577  27.654  1.00  0.00     0.030 H 
ATOM     68  H   UNL     1     -47.219  23.706  26.164  1.00  0.00     0.030 H 
ENDBRANCH  55  59
ENDBRANCH  41  44
ENDBRANCH  38  41
ENDBRANCH   3  38
BRANCH   4  69
ATOM     69  O   UNL     1     -45.941  33.547  29.237  1.00  0.00    -0.390 OA
ATOM     70  H   UNL     1     -46.450  33.453  30.061  1.00  0.00     0.211 HD
ENDBRANCH   4  69
TORSDOF 9
ENDMDL
MODEL 5
REMARK VINA RESULT:      -9.3      2.599      4.330
REMARK SMILES Cn1ccc(-c2cn([C@@H]3C[C@H](CCc4ccc5ccc(N6CCC6)nc5c4)[C@@H](O)[C@@H]3F)c3ncnc(N)c23)n1
REMARK SMILES IDX 9 1 10 2 11 3 28 4 30 5 31 6 8 13 6 14 7 15 38 16 32 18
REMARK SMILES IDX 36 19 33 20 35 21 34 22 5 24 2 25 3 26 39 27 4 28 1 31 37 35
REMARK SMILES IDX 12 38 13 41 14 44 15 45 27 46 16 47 26 49 17 51 25 53 18 54
REMARK SMILES IDX 20 55 19 56 21 59 22 60 24 61 23 62 29 69
REMARK H PARENT 9 7 10 8 10 9 11 10 28 11 30 12 7 17 34 23 3 29 4 30 1 32 1 33
REMARK H PARENT 1 34 37 36 37 37 12 39 12 40 13 42 13 43 15 48 27 50 16 52
REMARK H PARENT 18 57 19 58 22 63 22 64 24 65 24 66 23 67 23 68 29 70
REMARK Flexibility Score: inf
ROOT
ATOM      1  C   UNL     1     -43.770  40.477  26.845  1.00  0.00     0.069 C 
ATOM      2  C   UNL     1     -44.504  39.138  26.631  1.00  0.00    -0.024 C 
ATOM      3  C   UNL     1     -44.611  38.475  28.016  1.00  0.00    -0.010 C 
ATOM      4  C   UNL     1     -44.374  39.606  29.023  1.00  0.00     0.090 C 
ATOM      5  C   UNL     1     -43.352  40.487  28.315  1.00  0.00     0.147 C 
ATOM      6  F   UNL     1     -43.326  41.737  28.832  1.00  0.00    -0.242 F 
ATOM      7  H   UNL     1     -42.860  40.467  26.229  1.00  0.00     0.057 H 
ATOM      8  H   UNL     1     -45.479  39.261  26.150  1.00  0.00     0.029 H 
ATOM      9  H   UNL     1     -43.916  38.491  25.968  1.00  0.00     0.029 H 
ATOM     10  H   UNL     1     -43.800  37.739  28.115  1.00  0.00     0.033 H 
ATOM     11  H   UNL     1     -45.274  40.170  29.278  1.00  0.00     0.064 H 
ATOM     12  H   UNL     1     -42.346  40.068  28.432  1.00  0.00     0.071 H 
ENDROOT
BRANCH   1  13
ATOM     13  N   UNL     1     -44.513  41.655  26.418  1.00  0.00    -0.326 N 
ATOM     14  C   UNL     1     -46.253  43.004  26.021  1.00  0.00     0.033 A 
ATOM     15  C   UNL     1     -45.884  41.756  26.488  1.00  0.00     0.016 A 
ATOM     16  C   UNL     1     -45.059  43.688  25.632  1.00  0.00     0.071 A 
ATOM     17  H   UNL     1     -46.483  40.939  26.869  1.00  0.00     0.083 H 
ATOM     18  C   UNL     1     -44.002  42.824  25.908  1.00  0.00     0.146 A 
ATOM     19  C   UNL     1     -44.715  44.933  25.077  1.00  0.00     0.137 A 
ATOM     20  N   UNL     1     -42.695  43.082  25.718  1.00  0.00    -0.218 NA
ATOM     21  N   UNL     1     -43.413  45.233  24.892  1.00  0.00    -0.219 NA
ATOM     22  C   UNL     1     -42.495  44.306  25.207  1.00  0.00     0.120 A 
ATOM     23  H   UNL     1     -41.461  44.584  25.025  1.00  0.00     0.106 H 
BRANCH  14  24
ATOM     24  C   UNL     1     -47.620  43.530  25.954  1.00  0.00     0.095 A 
ATOM     25  N   UNL     1     -49.365  44.519  25.286  1.00  0.00    -0.275 N 
ATOM     26  C   UNL     1     -49.704  44.023  26.509  1.00  0.00     0.025 A 
ATOM     27  N   UNL     1     -48.097  44.244  24.926  1.00  0.00    -0.173 NA
ATOM     28  C   UNL     1     -48.586  43.372  26.974  1.00  0.00    -0.016 A 
ATOM     29  H   UNL     1     -50.688  44.164  26.936  1.00  0.00     0.084 H 
ATOM     30  H   UNL     1     -48.487  42.849  27.913  1.00  0.00     0.066 H 
BRANCH  25  31
ATOM     31  C   UNL     1     -50.208  45.276  24.392  1.00  0.00     0.030 C 
ATOM     32  H   UNL     1     -49.678  45.453  23.453  1.00  0.00     0.048 H 
ATOM     33  H   UNL     1     -51.117  44.699  24.205  1.00  0.00     0.048 H 
ATOM     34  H   UNL     1     -50.449  46.229  24.871  1.00  0.00     0.048 H 
ENDBRANCH  25  31
ENDBRANCH  14  24
BRANCH  19  35
ATOM     35  N   UNL     1     -45.636  45.903  24.708  1.00  0.00    -0.383 N 
ATOM     36  H   UNL     1     -46.489  45.493  24.358  1.00  0.00     0.158 HD
ATOM     37  H   UNL     1     -45.213  46.649  24.150  1.00  0.00     0.158 HD
ENDBRANCH  19  35
ENDBRANCH   1  13
BRANCH   3  38
ATOM     38  C   UNL     1     -45.937  37.746  28.261  1.00  0.00    -0.044 C 
ATOM     39  H   UNL     1     -46.451  38.187  29.125  1.00  0.00     0.027 H 
ATOM     40  H   UNL     1     -45.728  36.703  28.531  1.00  0.00     0.027 H 
BRANCH  38  41
ATOM     41  C   UNL     1     -46.861  37.776  27.040  1.00  0.00    -0.027 C 
ATOM     42  H   UNL     1     -46.308  38.123  26.157  1.00  0.00     0.032 H 
ATOM     43  H   UNL     1     -47.677  38.493  27.185  1.00  0.00     0.032 H 
BRANCH  41  44
ATOM     44  C   UNL     1     -47.450  36.415  26.762  1.00  0.00    -0.046 A 
ATOM     45  C   UNL     1     -48.669  36.040  27.331  1.00  0.00    -0.058 A 
ATOM     46  C   UNL     1     -46.762  35.494  25.956  1.00  0.00    -0.033 A 
ATOM     47  C   UNL     1     -49.190  34.770  27.085  1.00  0.00    -0.053 A 
ATOM     48  H   UNL     1     -49.217  36.729  27.969  1.00  0.00     0.063 H 
ATOM     49  C   UNL     1     -47.259  34.223  25.695  1.00  0.00     0.073 A 
ATOM     50  H   UNL     1     -45.806  35.768  25.514  1.00  0.00     0.065 H 
ATOM     51  C   UNL     1     -48.492  33.862  26.270  1.00  0.00     0.000 A 
ATOM     52  H   UNL     1     -50.141  34.491  27.534  1.00  0.00     0.063 H 
ATOM     53  N   UNL     1     -46.555  33.387  24.912  1.00  0.00    -0.231 NA
ATOM     54  C   UNL     1     -48.981  32.581  26.006  1.00  0.00    -0.049 A 
ATOM     55  C   UNL     1     -47.041  32.152  24.656  1.00  0.00     0.129 A 
ATOM     56  C   UNL     1     -48.248  31.721  25.195  1.00  0.00    -0.019 A 
ATOM     57  H   UNL     1     -49.924  32.244  26.429  1.00  0.00     0.063 H 
ATOM     58  H   UNL     1     -48.617  30.720  24.999  1.00  0.00     0.066 H 
BRANCH  55  59
ATOM     59  N   UNL     1     -46.285  31.283  23.845  1.00  0.00    -0.356 N 
ATOM     60  C   UNL     1     -45.841  31.604  22.517  1.00  0.00     0.021 C 
ATOM     61  C   UNL     1     -46.635  29.942  23.475  1.00  0.00     0.021 C 
ATOM     62  C   UNL     1     -45.643  30.098  22.316  1.00  0.00    -0.018 C 
ATOM     63  H   UNL     1     -44.933  32.211  22.497  1.00  0.00     0.049 H 
ATOM     64  H   UNL     1     -46.624  32.053  21.897  1.00  0.00     0.049 H 
ATOM     65  H   UNL     1     -47.684  29.841  23.176  1.00  0.00     0.049 H 
ATOM     66  H   UNL     1     -46.371  29.197  24.228  1.00  0.00     0.049 H 
ATOM     67  H   UNL     1     -45.970  29.698  21.353  1.00  0.00     0.030 H 
ATOM     68  H   UNL     1     -44.631  29.741  22.538  1.00  0.00     0.030 H 
ENDBRANCH  55  59
ENDBRANCH  41  44
ENDBRANCH  38  41
ENDBRANCH   3  38
BRANCH   4  69
ATOM     69  O   UNL     1     -43.834  39.068  30.229  1.00  0.00    -0.390 OA
ATOM     70  H   UNL     1     -43.580  38.147  30.045  1.00  0.00     0.211 HD
ENDBRANCH   4  69
TORSDOF 9
ENDMDL
MODEL 6
REMARK VINA RESULT:      -9.1      3.839      5.343
REMARK SMILES Cn1ccc(-c2cn([C@@H]3C[C@H](CCc4ccc5ccc(N6CCC6)nc5c4)[C@@H](O)[C@@H]3F)c3ncnc(N)c23)n1
REMARK SMILES IDX 9 1 10 2 11 3 28 4 30 5 31 6 8 13 6 14 7 15 38 16 32 18
REMARK SMILES IDX 36 19 33 20 35 21 34 22 5 24 2 25 3 26 39 27 4 28 1 31 37 35
REMARK SMILES IDX 12 38 13 41 14 44 15 45 27 46 16 47 26 49 17 51 25 53 18 54
REMARK SMILES IDX 20 55 19 56 21 59 22 60 24 61 23 62 29 69
REMARK H PARENT 9 7 10 8 10 9 11 10 28 11 30 12 7 17 34 23 3 29 4 30 1 32 1 33
REMARK H PARENT 1 34 37 36 37 37 12 39 12 40 13 42 13 43 15 48 27 50 16 52
REMARK H PARENT 18 57 19 58 22 63 22 64 24 65 24 66 23 67 23 68 29 70
REMARK Flexibility Score: inf
ROOT
ATOM      1  C   UNL     1     -46.434  37.067  27.675  1.00  0.00     0.069 C 
ATOM      2  C   UNL     1     -46.393  36.365  26.303  1.00  0.00    -0.024 C 
ATOM      3  C   UNL     1     -46.298  34.855  26.590  1.00  0.00    -0.010 C 
ATOM      4  C   UNL     1     -46.744  34.693  28.047  1.00  0.00     0.090 C 
ATOM      5  C   UNL     1     -46.221  35.961  28.709  1.00  0.00     0.147 C 
ATOM      6  F   UNL     1     -46.861  36.218  29.874  1.00  0.00    -0.242 F 
ATOM      7  H   UNL     1     -45.580  37.756  27.728  1.00  0.00     0.057 H 
ATOM      8  H   UNL     1     -47.251  36.617  25.672  1.00  0.00     0.029 H 
ATOM      9  H   UNL     1     -45.502  36.681  25.747  1.00  0.00     0.029 H 
ATOM     10  H   UNL     1     -45.245  34.549  26.507  1.00  0.00     0.033 H 
ATOM     11  H   UNL     1     -47.826  34.599  28.172  1.00  0.00     0.064 H 
ATOM     12  H   UNL     1     -45.155  35.853  28.943  1.00  0.00     0.071 H 
ENDROOT
BRANCH   1  13
ATOM     13  N   UNL     1     -47.612  37.892  27.904  1.00  0.00    -0.326 N 
ATOM     14  C   UNL     1     -48.846  39.706  28.336  1.00  0.00     0.033 A 
ATOM     15  C   UNL     1     -47.554  39.235  28.198  1.00  0.00     0.016 A 
ATOM     16  C   UNL     1     -49.731  38.601  28.136  1.00  0.00     0.071 A 
ATOM     17  H   UNL     1     -46.603  39.747  28.277  1.00  0.00     0.083 H 
ATOM     18  C   UNL     1     -48.928  37.498  27.857  1.00  0.00     0.146 A 
ATOM     19  C   UNL     1     -51.118  38.370  28.152  1.00  0.00     0.137 A 
ATOM     20  N   UNL     1     -49.356  36.254  27.577  1.00  0.00    -0.218 NA
ATOM     21  N   UNL     1     -51.583  37.139  27.858  1.00  0.00    -0.219 NA
ATOM     22  C   UNL     1     -50.694  36.167  27.601  1.00  0.00     0.120 A 
ATOM     23  H   UNL     1     -51.114  35.189  27.386  1.00  0.00     0.106 H 
BRANCH  14  24
ATOM     24  C   UNL     1     -49.233  41.092  28.620  1.00  0.00     0.095 A 
ATOM     25  N   UNL     1     -49.643  42.899  29.638  1.00  0.00    -0.275 N 
ATOM     26  C   UNL     1     -49.959  43.164  28.340  1.00  0.00     0.025 A 
ATOM     27  N   UNL     1     -49.210  41.641  29.841  1.00  0.00    -0.173 NA
ATOM     28  C   UNL     1     -49.704  42.004  27.647  1.00  0.00    -0.016 A 
ATOM     29  H   UNL     1     -50.323  44.131  28.020  1.00  0.00     0.084 H 
ATOM     30  H   UNL     1     -49.830  41.844  26.586  1.00  0.00     0.066 H 
BRANCH  25  31
ATOM     31  C   UNL     1     -49.732  43.808  30.756  1.00  0.00     0.030 C 
ATOM     32  H   UNL     1     -50.137  43.281  31.623  1.00  0.00     0.048 H 
ATOM     33  H   UNL     1     -48.729  44.179  30.978  1.00  0.00     0.048 H 
ATOM     34  H   UNL     1     -50.395  44.632  30.476  1.00  0.00     0.048 H 
ENDBRANCH  25  31
ENDBRANCH  14  24
BRANCH  19  35
ATOM     35  N   UNL     1     -52.065  39.341  28.445  1.00  0.00    -0.383 N 
ATOM     36  H   UNL     1     -51.664  40.266  28.447  1.00  0.00     0.158 HD
ATOM     37  H   UNL     1     -52.651  39.084  29.244  1.00  0.00     0.158 HD
ENDBRANCH  19  35
ENDBRANCH   1  13
BRANCH   3  38
ATOM     38  C   UNL     1     -47.114  33.982  25.630  1.00  0.00    -0.044 C 
ATOM     39  H   UNL     1     -46.503  33.139  25.282  1.00  0.00     0.027 H 
ATOM     40  H   UNL     1     -47.363  34.567  24.735  1.00  0.00     0.027 H 
BRANCH  38  41
ATOM     41  C   UNL     1     -48.406  33.456  26.263  1.00  0.00    -0.027 C 
ATOM     42  H   UNL     1     -49.180  34.234  26.240  1.00  0.00     0.032 H 
ATOM     43  H   UNL     1     -48.252  33.216  27.321  1.00  0.00     0.032 H 
BRANCH  41  44
ATOM     44  C   UNL     1     -48.907  32.226  25.549  1.00  0.00    -0.046 A 
ATOM     45  C   UNL     1     -49.898  32.326  24.571  1.00  0.00    -0.058 A 
ATOM     46  C   UNL     1     -48.408  30.957  25.885  1.00  0.00    -0.033 A 
ATOM     47  C   UNL     1     -50.369  31.178  23.936  1.00  0.00    -0.053 A 
ATOM     48  H   UNL     1     -50.311  33.295  24.300  1.00  0.00     0.063 H 
ATOM     49  C   UNL     1     -48.859  29.797  25.267  1.00  0.00     0.073 A 
ATOM     50  H   UNL     1     -47.642  30.861  26.653  1.00  0.00     0.065 H 
ATOM     51  C   UNL     1     -49.854  29.916  24.279  1.00  0.00     0.000 A 
ATOM     52  H   UNL     1     -51.141  31.271  23.175  1.00  0.00     0.063 H 
ATOM     53  N   UNL     1     -48.340  28.611  25.631  1.00  0.00    -0.231 NA
ATOM     54  C   UNL     1     -50.305  28.744  23.667  1.00  0.00    -0.049 A 
ATOM     55  C   UNL     1     -48.777  27.483  25.027  1.00  0.00     0.129 A 
ATOM     56  C   UNL     1     -49.763  27.520  24.047  1.00  0.00    -0.019 A 
ATOM     57  H   UNL     1     -51.076  28.774  22.903  1.00  0.00     0.063 H 
ATOM     58  H   UNL     1     -50.120  26.606  23.585  1.00  0.00     0.066 H 
BRANCH  55  59
ATOM     59  N   UNL     1     -48.233  26.248  25.427  1.00  0.00    -0.356 N 
ATOM     60  C   UNL     1     -48.722  25.472  26.534  1.00  0.00     0.021 C 
ATOM     61  C   UNL     1     -46.863  25.989  25.766  1.00  0.00     0.021 C 
ATOM     62  C   UNL     1     -47.373  24.746  26.504  1.00  0.00    -0.018 C 
ATOM     63  H   UNL     1     -49.596  24.866  26.287  1.00  0.00     0.049 H 
ATOM     64  H   UNL     1     -48.903  26.071  27.432  1.00  0.00     0.049 H 
ATOM     65  H   UNL     1     -46.428  26.762  26.408  1.00  0.00     0.049 H 
ATOM     66  H   UNL     1     -46.226  25.799  24.900  1.00  0.00     0.049 H 
ATOM     67  H   UNL     1     -46.916  24.548  27.477  1.00  0.00     0.030 H 
ATOM     68  H   UNL     1     -47.366  23.829  25.903  1.00  0.00     0.030 H 
ENDBRANCH  55  59
ENDBRANCH  41  44
ENDBRANCH  38  41
ENDBRANCH   3  38
BRANCH   4  69
ATOM     69  O   UNL     1     -46.132  33.534  28.609  1.00  0.00    -0.390 OA
ATOM     70  H   UNL     1     -46.844  32.988  28.986  1.00  0.00     0.211 HD
ENDBRANCH   4  69
TORSDOF 9
ENDMDL
MODEL 7
REMARK VINA RESULT:      -9.1      1.732      2.744
REMARK SMILES Cn1ccc(-c2cn([C@@H]3C[C@H](CCc4ccc5ccc(N6CCC6)nc5c4)[C@@H](O)[C@@H]3F)c3ncnc(N)c23)n1
REMARK SMILES IDX 9 1 10 2 11 3 28 4 30 5 31 6 8 13 6 14 7 15 38 16 32 18
REMARK SMILES IDX 36 19 33 20 35 21 34 22 5 24 2 25 3 26 39 27 4 28 1 31 37 35
REMARK SMILES IDX 12 38 13 41 14 44 15 45 27 46 16 47 26 49 17 51 25 53 18 54
REMARK SMILES IDX 20 55 19 56 21 59 22 60 24 61 23 62 29 69
REMARK H PARENT 9 7 10 8 10 9 11 10 28 11 30 12 7 17 34 23 3 29 4 30 1 32 1 33
REMARK H PARENT 1 34 37 36 37 37 12 39 12 40 13 42 13 43 15 48 27 50 16 52
REMARK H PARENT 18 57 19 58 22 63 22 64 24 65 24 66 23 67 23 68 29 70
REMARK Flexibility Score: inf
ROOT
ATOM      1  C   UNL     1     -45.396  38.072  28.098  1.00  0.00     0.069 C 
ATOM      2  C   UNL     1     -45.515  36.869  27.141  1.00  0.00    -0.024 C 
ATOM      3  C   UNL     1     -46.780  36.101  27.563  1.00  0.00    -0.010 C 
ATOM      4  C   UNL     1     -47.589  37.090  28.409  1.00  0.00     0.090 C 
ATOM      5  C   UNL     1     -46.510  37.888  29.130  1.00  0.00     0.147 C 
ATOM      6  F   UNL     1     -46.983  39.070  29.588  1.00  0.00    -0.242 F 
ATOM      7  H   UNL     1     -44.431  37.997  28.617  1.00  0.00     0.057 H 
ATOM      8  H   UNL     1     -45.539  37.167  26.088  1.00  0.00     0.029 H 
ATOM      9  H   UNL     1     -44.643  36.214  27.253  1.00  0.00     0.029 H 
ATOM     10  H   UNL     1     -46.480  35.256  28.200  1.00  0.00     0.033 H 
ATOM     11  H   UNL     1     -48.241  37.745  27.824  1.00  0.00     0.064 H 
ATOM     12  H   UNL     1     -46.141  37.328  29.997  1.00  0.00     0.071 H 
ENDROOT
BRANCH   1  13
ATOM     13  N   UNL     1     -45.384  39.374  27.445  1.00  0.00    -0.326 N 
ATOM     14  C   UNL     1     -44.588  41.192  26.415  1.00  0.00     0.033 A 
ATOM     15  C   UNL     1     -44.238  39.987  26.994  1.00  0.00     0.016 A 
ATOM     16  C   UNL     1     -46.006  41.330  26.533  1.00  0.00     0.071 A 
ATOM     17  H   UNL     1     -43.270  39.516  27.113  1.00  0.00     0.083 H 
ATOM     18  C   UNL     1     -46.464  40.176  27.164  1.00  0.00     0.146 A 
ATOM     19  C   UNL     1     -46.985  42.280  26.193  1.00  0.00     0.137 A 
ATOM     20  N   UNL     1     -47.745  39.880  27.448  1.00  0.00    -0.218 NA
ATOM     21  N   UNL     1     -48.282  42.008  26.445  1.00  0.00    -0.219 NA
ATOM     22  C   UNL     1     -48.583  40.851  27.056  1.00  0.00     0.120 A 
ATOM     23  H   UNL     1     -49.637  40.683  27.255  1.00  0.00     0.106 H 
BRANCH  14  24
ATOM     24  C   UNL     1     -43.670  42.145  25.782  1.00  0.00     0.095 A 
ATOM     25  N   UNL     1     -42.750  43.413  24.363  1.00  0.00    -0.275 N 
ATOM     26  C   UNL     1     -41.963  43.517  25.470  1.00  0.00     0.025 A 
ATOM     27  N   UNL     1     -43.792  42.575  24.519  1.00  0.00    -0.173 NA
ATOM     28  C   UNL     1     -42.535  42.699  26.416  1.00  0.00    -0.016 A 
ATOM     29  H   UNL     1     -41.086  44.150  25.497  1.00  0.00     0.084 H 
ATOM     30  H   UNL     1     -42.186  42.536  27.424  1.00  0.00     0.066 H 
BRANCH  25  31
ATOM     31  C   UNL     1     -42.568  44.092  23.102  1.00  0.00     0.030 C 
ATOM     32  H   UNL     1     -41.534  44.437  23.020  1.00  0.00     0.048 H 
ATOM     33  H   UNL     1     -42.792  43.388  22.296  1.00  0.00     0.048 H 
ATOM     34  H   UNL     1     -43.251  44.945  23.069  1.00  0.00     0.048 H 
ENDBRANCH  25  31
ENDBRANCH  14  24
BRANCH  19  35
ATOM     35  N   UNL     1     -46.711  43.500  25.592  1.00  0.00    -0.383 N 
ATOM     36  H   UNL     1     -46.283  43.383  24.686  1.00  0.00     0.158 HD
ATOM     37  H   UNL     1     -46.266  44.160  26.237  1.00  0.00     0.158 HD
ENDBRANCH  19  35
ENDBRANCH   1  13
BRANCH   3  38
ATOM     38  C   UNL     1     -47.591  35.537  26.392  1.00  0.00    -0.044 C 
ATOM     39  H   UNL     1     -46.930  35.354  25.534  1.00  0.00     0.027 H 
ATOM     40  H   UNL     1     -48.318  36.290  26.061  1.00  0.00     0.027 H 
BRANCH  38  41
ATOM     41  C   UNL     1     -48.334  34.246  26.754  1.00  0.00    -0.027 C 
ATOM     42  H   UNL     1     -49.415  34.388  26.631  1.00  0.00     0.032 H 
ATOM     43  H   UNL     1     -48.181  33.991  27.809  1.00  0.00     0.032 H 
BRANCH  41  44
ATOM     44  C   UNL     1     -47.877  33.091  25.900  1.00  0.00    -0.046 A 
ATOM     45  C   UNL     1     -46.870  33.265  24.948  1.00  0.00    -0.058 A 
ATOM     46  C   UNL     1     -48.484  31.831  26.025  1.00  0.00    -0.033 A 
ATOM     47  C   UNL     1     -46.474  32.194  24.148  1.00  0.00    -0.053 A 
ATOM     48  H   UNL     1     -46.391  34.234  24.821  1.00  0.00     0.063 H 
ATOM     49  C   UNL     1     -48.108  30.747  25.241  1.00  0.00     0.073 A 
ATOM     50  H   UNL     1     -49.277  31.681  26.755  1.00  0.00     0.065 H 
ATOM     51  C   UNL     1     -47.087  30.938  24.291  1.00  0.00     0.000 A 
ATOM     52  H   UNL     1     -45.687  32.345  23.412  1.00  0.00     0.063 H 
ATOM     53  N   UNL     1     -48.726  29.564  25.410  1.00  0.00    -0.231 NA
ATOM     54  C   UNL     1     -46.719  29.844  23.505  1.00  0.00    -0.049 A 
ATOM     55  C   UNL     1     -48.357  28.509  24.649  1.00  0.00     0.129 A 
ATOM     56  C   UNL     1     -47.361  28.622  23.685  1.00  0.00    -0.019 A 
ATOM     57  H   UNL     1     -45.942  29.934  22.750  1.00  0.00     0.063 H 
ATOM     58  H   UNL     1     -47.089  27.774  23.067  1.00  0.00     0.066 H 
BRANCH  55  59
ATOM     59  N   UNL     1     -49.021  27.281  24.830  1.00  0.00    -0.356 N 
ATOM     60  C   UNL     1     -50.315  27.147  25.441  1.00  0.00     0.021 C 
ATOM     61  C   UNL     1     -48.509  26.125  25.507  1.00  0.00     0.021 C 
ATOM     62  C   UNL     1     -49.965  25.669  25.644  1.00  0.00    -0.018 C 
ATOM     63  H   UNL     1     -51.142  27.352  24.758  1.00  0.00     0.049 H 
ATOM     64  H   UNL     1     -50.417  27.728  26.364  1.00  0.00     0.049 H 
ATOM     65  H   UNL     1     -48.009  26.369  26.450  1.00  0.00     0.049 H 
ATOM     66  H   UNL     1     -47.872  25.497  24.880  1.00  0.00     0.049 H 
ATOM     67  H   UNL     1     -50.242  25.242  26.611  1.00  0.00     0.030 H 
ATOM     68  H   UNL     1     -50.309  25.008  24.840  1.00  0.00     0.030 H 
ENDBRANCH  55  59
ENDBRANCH  41  44
ENDBRANCH  38  41
ENDBRANCH   3  38
BRANCH   4  69
ATOM     69  O   UNL     1     -48.400  36.375  29.339  1.00  0.00    -0.390 OA
ATOM     70  H   UNL     1     -49.238  36.861  29.422  1.00  0.00     0.211 HD
ENDBRANCH   4  69
TORSDOF 9
ENDMDL
