MODEL 1
REMARK VINA RESULT:     -10.3      0.000      0.000
REMARK SMILES CC(C)c1cc(N)c2ccc(OCc3cncc(-n4ccc5c(N)ncnc54)c3)cc2n1
REMARK SMILES IDX 13 1 12 4 11 5 4 6 5 7 32 8 6 9 31 11 8 12 30 13 9 14 10 16
REMARK SMILES IDX 2 19 1 21 3 25 7 29 14 32 15 33 29 34 16 35 18 37 17 39
REMARK SMILES IDX 19 41 20 42 28 43 21 44 22 46 27 47 23 49 26 50 25 51 24 53
REMARK H PARENT 13 2 13 3 5 10 30 15 9 17 10 18 2 20 1 22 1 23 1 24 3 26 3 27
REMARK H PARENT 3 28 7 30 7 31 15 36 29 38 17 40 20 45 21 48 26 52 24 54 24 55
REMARK Flexibility Score: inf
ROOT
ATOM      1  C   UNL     1     -47.661  36.035  26.791  1.00  0.00     0.115 C 
ATOM      2  H   UNL     1     -47.127  36.028  25.833  1.00  0.00     0.076 H 
ATOM      3  H   UNL     1     -48.513  36.711  26.649  1.00  0.00     0.076 H 
ENDROOT
BRANCH   1   4
ATOM      4  O   UNL     1     -48.207  34.748  27.089  1.00  0.00    -0.489 OA
BRANCH   4   5
ATOM      5  C   UNL     1     -47.875  33.691  26.287  1.00  0.00     0.122 A 
ATOM      6  C   UNL     1     -48.432  29.307  24.527  1.00  0.00     0.046 A 
ATOM      7  C   UNL     1     -47.313  29.414  23.710  1.00  0.00    -0.017 A 
ATOM      8  N   UNL     1     -48.845  30.329  25.309  1.00  0.00    -0.252 NA
ATOM      9  C   UNL     1     -46.612  30.619  23.657  1.00  0.00     0.043 A 
ATOM     10  H   UNL     1     -46.993  28.569  23.111  1.00  0.00     0.066 H 
ATOM     11  C   UNL     1     -48.138  31.470  25.325  1.00  0.00     0.076 A 
ATOM     12  C   UNL     1     -46.988  31.667  24.532  1.00  0.00     0.023 A 
ATOM     13  C   UNL     1     -48.563  32.484  26.175  1.00  0.00     0.007 A 
ATOM     14  C   UNL     1     -46.289  32.888  24.652  1.00  0.00    -0.047 A 
ATOM     15  H   UNL     1     -49.463  32.287  26.750  1.00  0.00     0.069 H 
ATOM     16  C   UNL     1     -46.733  33.887  25.519  1.00  0.00    -0.019 A 
ATOM     17  H   UNL     1     -45.385  33.073  24.080  1.00  0.00     0.063 H 
ATOM     18  H   UNL     1     -46.180  34.821  25.595  1.00  0.00     0.066 H 
BRANCH   6  19
ATOM     19  C   UNL     1     -49.251  28.035  24.601  1.00  0.00    -0.004 C 
ATOM     20  H   UNL     1     -48.791  27.302  23.924  1.00  0.00     0.036 H 
BRANCH  19  21
ATOM     21  C   UNL     1     -49.230  27.426  26.004  1.00  0.00    -0.057 C 
ATOM     22  H   UNL     1     -50.234  27.424  26.444  1.00  0.00     0.024 H 
ATOM     23  H   UNL     1     -48.867  26.393  25.997  1.00  0.00     0.024 H 
ATOM     24  H   UNL     1     -48.576  28.004  26.664  1.00  0.00     0.024 H 
ENDBRANCH  19  21
BRANCH  19  25
ATOM     25  C   UNL     1     -50.686  28.258  24.116  1.00  0.00    -0.057 C 
ATOM     26  H   UNL     1     -51.391  28.338  24.951  1.00  0.00     0.024 H 
ATOM     27  H   UNL     1     -51.011  27.425  23.483  1.00  0.00     0.024 H 
ATOM     28  H   UNL     1     -50.760  29.177  23.526  1.00  0.00     0.024 H 
ENDBRANCH  19  25
ENDBRANCH   6  19
BRANCH   9  29
ATOM     29  N   UNL     1     -45.432  30.669  22.882  1.00  0.00    -0.398 N 
ATOM     30  H   UNL     1     -44.616  30.301  23.361  1.00  0.00     0.156 HD
ATOM     31  H   UNL     1     -45.535  30.258  21.960  1.00  0.00     0.156 HD
ENDBRANCH   9  29
ENDBRANCH   4   5
ENDBRANCH   1   4
BRANCH   1  32
ATOM     32  C   UNL     1     -46.829  36.584  27.920  1.00  0.00     0.010 A 
ATOM     33  C   UNL     1     -46.905  36.046  29.196  1.00  0.00     0.034 A 
ATOM     34  C   UNL     1     -45.991  37.691  27.730  1.00  0.00    -0.028 A 
ATOM     35  N   UNL     1     -46.212  36.519  30.253  1.00  0.00    -0.262 NA
ATOM     36  H   UNL     1     -47.543  35.193  29.413  1.00  0.00     0.084 H 
ATOM     37  C   UNL     1     -45.243  38.207  28.793  1.00  0.00     0.066 A 
ATOM     38  H   UNL     1     -45.952  38.131  26.739  1.00  0.00     0.065 H 
ATOM     39  C   UNL     1     -45.396  37.579  30.026  1.00  0.00     0.051 A 
ATOM     40  H   UNL     1     -44.859  37.880  30.918  1.00  0.00     0.086 H 
BRANCH  37  41
ATOM     41  N   UNL     1     -44.359  39.325  28.642  1.00  0.00    -0.300 N 
ATOM     42  C   UNL     1     -43.359  39.681  29.540  1.00  0.00     0.012 A 
ATOM     43  C   UNL     1     -44.317  40.256  27.597  1.00  0.00     0.150 A 
ATOM     44  C   UNL     1     -42.705  40.801  29.084  1.00  0.00    -0.031 A 
ATOM     45  H   UNL     1     -43.190  39.131  30.453  1.00  0.00     0.082 H 
ATOM     46  C   UNL     1     -43.297  41.168  27.854  1.00  0.00     0.061 A 
ATOM     47  N   UNL     1     -45.105  40.282  26.501  1.00  0.00    -0.218 NA
ATOM     48  H   UNL     1     -41.891  41.306  29.589  1.00  0.00     0.065 H 
ATOM     49  C   UNL     1     -43.089  42.186  26.913  1.00  0.00     0.136 A 
ATOM     50  C   UNL     1     -44.810  41.293  25.672  1.00  0.00     0.120 A 
ATOM     51  N   UNL     1     -43.861  42.231  25.814  1.00  0.00    -0.219 NA
ATOM     52  H   UNL     1     -45.413  41.362  24.771  1.00  0.00     0.106 H 
BRANCH  49  53
ATOM     53  N   UNL     1     -42.104  43.157  27.036  1.00  0.00    -0.383 N 
ATOM     54  H   UNL     1     -42.508  44.033  27.348  1.00  0.00     0.158 HD
ATOM     55  H   UNL     1     -41.462  43.213  26.258  1.00  0.00     0.158 HD
ENDBRANCH  49  53
ENDBRANCH  37  41
ENDBRANCH   1  32
TORSDOF 9
ENDMDL
MODEL 2
REMARK VINA RESULT:     -10.2      1.897     10.715
REMARK SMILES CC(C)c1cc(N)c2ccc(OCc3cncc(-n4ccc5c(N)ncnc54)c3)cc2n1
REMARK SMILES IDX 13 1 12 4 11 5 4 6 5 7 32 8 6 9 31 11 8 12 30 13 9 14 10 16
REMARK SMILES IDX 2 19 1 21 3 25 7 29 14 32 15 33 29 34 16 35 18 37 17 39
REMARK SMILES IDX 19 41 20 42 28 43 21 44 22 46 27 47 23 49 26 50 25 51 24 53
REMARK H PARENT 13 2 13 3 5 10 30 15 9 17 10 18 2 20 1 22 1 23 1 24 3 26 3 27
REMARK H PARENT 3 28 7 30 7 31 15 36 29 38 17 40 20 45 21 48 26 52 24 54 24 55
REMARK Flexibility Score: inf
ROOT
ATOM      1  C   UNL     1     -46.784  36.695  26.626  1.00  0.00     0.115 C 
ATOM      2  H   UNL     1     -47.608  37.065  26.004  1.00  0.00     0.076 H 
ATOM      3  H   UNL     1     -45.865  36.967  26.093  1.00  0.00     0.076 H 
ENDROOT
BRANCH   1   4
ATOM      4  O   UNL     1     -46.741  37.370  27.885  1.00  0.00    -0.489 OA
BRANCH   4   5
ATOM      5  C   UNL     1     -45.759  38.298  28.099  1.00  0.00     0.122 A 
ATOM      6  C   UNL     1     -43.255  42.205  27.050  1.00  0.00     0.046 A 
ATOM      7  C   UNL     1     -42.423  42.056  28.152  1.00  0.00    -0.017 A 
ATOM      8  N   UNL     1     -44.276  41.353  26.805  1.00  0.00    -0.252 NA
ATOM      9  C   UNL     1     -42.661  41.024  29.061  1.00  0.00     0.043 A 
ATOM     10  H   UNL     1     -41.599  42.743  28.310  1.00  0.00     0.066 H 
ATOM     11  C   UNL     1     -44.471  40.311  27.629  1.00  0.00     0.076 A 
ATOM     12  C   UNL     1     -43.674  40.079  28.770  1.00  0.00     0.023 A 
ATOM     13  C   UNL     1     -45.500  39.428  27.323  1.00  0.00     0.007 A 
ATOM     14  C   UNL     1     -43.935  38.931  29.551  1.00  0.00    -0.047 A 
ATOM     15  H   UNL     1     -46.093  39.662  26.445  1.00  0.00     0.069 H 
ATOM     16  C   UNL     1     -44.969  38.055  29.216  1.00  0.00    -0.019 A 
ATOM     17  H   UNL     1     -43.331  38.698  30.421  1.00  0.00     0.063 H 
ATOM     18  H   UNL     1     -45.152  37.178  29.832  1.00  0.00     0.066 H 
BRANCH   6  19
ATOM     19  C   UNL     1     -43.066  43.326  26.048  1.00  0.00    -0.004 C 
ATOM     20  H   UNL     1     -43.096  44.275  26.601  1.00  0.00     0.036 H 
BRANCH  19  21
ATOM     21  C   UNL     1     -41.702  43.248  25.362  1.00  0.00    -0.057 C 
ATOM     22  H   UNL     1     -40.931  43.742  25.965  1.00  0.00     0.024 H 
ATOM     23  H   UNL     1     -41.384  42.213  25.198  1.00  0.00     0.024 H 
ATOM     24  H   UNL     1     -41.733  43.744  24.386  1.00  0.00     0.024 H 
ENDBRANCH  19  21
BRANCH  19  25
ATOM     25  C   UNL     1     -44.200  43.365  25.022  1.00  0.00    -0.057 C 
ATOM     26  H   UNL     1     -44.011  44.100  24.231  1.00  0.00     0.024 H 
ATOM     27  H   UNL     1     -45.146  43.631  25.505  1.00  0.00     0.024 H 
ATOM     28  H   UNL     1     -44.330  42.387  24.546  1.00  0.00     0.024 H 
ENDBRANCH  19  25
ENDBRANCH   6  19
BRANCH   9  29
ATOM     29  N   UNL     1     -41.748  40.848  30.123  1.00  0.00    -0.398 N 
ATOM     30  H   UNL     1     -41.527  39.875  30.313  1.00  0.00     0.156 HD
ATOM     31  H   UNL     1     -40.905  41.405  30.029  1.00  0.00     0.156 HD
ENDBRANCH   9  29
ENDBRANCH   4   5
ENDBRANCH   1   4
BRANCH   1  32
ATOM     32  C   UNL     1     -46.793  35.197  26.776  1.00  0.00     0.010 A 
ATOM     33  C   UNL     1     -46.210  34.580  27.872  1.00  0.00     0.034 A 
ATOM     34  C   UNL     1     -47.346  34.373  25.785  1.00  0.00    -0.028 A 
ATOM     35  N   UNL     1     -46.156  33.242  28.042  1.00  0.00    -0.262 NA
ATOM     36  H   UNL     1     -45.755  35.160  28.672  1.00  0.00     0.084 H 
ATOM     37  C   UNL     1     -47.325  32.981  25.924  1.00  0.00     0.066 A 
ATOM     38  H   UNL     1     -47.777  34.853  24.913  1.00  0.00     0.065 H 
ATOM     39  C   UNL     1     -46.718  32.478  27.072  1.00  0.00     0.051 A 
ATOM     40  H   UNL     1     -46.655  31.420  27.296  1.00  0.00     0.086 H 
BRANCH  37  41
ATOM     41  N   UNL     1     -47.894  32.101  24.946  1.00  0.00    -0.300 N 
ATOM     42  C   UNL     1     -49.170  31.554  25.010  1.00  0.00     0.012 A 
ATOM     43  C   UNL     1     -47.306  31.628  23.767  1.00  0.00     0.150 A 
ATOM     44  C   UNL     1     -49.387  30.757  23.910  1.00  0.00    -0.031 A 
ATOM     45  H   UNL     1     -49.834  31.747  25.839  1.00  0.00     0.082 H 
ATOM     46  C   UNL     1     -48.220  30.803  23.115  1.00  0.00     0.061 A 
ATOM     47  N   UNL     1     -46.073  31.918  23.302  1.00  0.00    -0.218 NA
ATOM     48  H   UNL     1     -50.290  30.196  23.706  1.00  0.00     0.065 H 
ATOM     49  C   UNL     1     -47.818  30.230  21.900  1.00  0.00     0.136 A 
ATOM     50  C   UNL     1     -45.804  31.319  22.133  1.00  0.00     0.120 A 
ATOM     51  N   UNL     1     -46.595  30.505  21.417  1.00  0.00    -0.219 NA
ATOM     52  H   UNL     1     -44.823  31.519  21.710  1.00  0.00     0.106 H 
BRANCH  49  53
ATOM     53  N   UNL     1     -48.627  29.396  21.140  1.00  0.00    -0.383 N 
ATOM     54  H   UNL     1     -48.158  29.136  20.280  1.00  0.00     0.158 HD
ATOM     55  H   UNL     1     -49.587  29.699  21.051  1.00  0.00     0.158 HD
ENDBRANCH  49  53
ENDBRANCH  37  41
ENDBRANCH   1  32
TORSDOF 9
ENDMDL
MODEL 3
REMARK VINA RESULT:      -9.9      2.035     10.501
REMARK SMILES CC(C)c1cc(N)c2ccc(OCc3cncc(-n4ccc5c(N)ncnc54)c3)cc2n1
REMARK SMILES IDX 13 1 12 4 11 5 4 6 5 7 32 8 6 9 31 11 8 12 30 13 9 14 10 16
REMARK SMILES IDX 2 19 1 21 3 25 7 29 14 32 15 33 29 34 16 35 18 37 17 39
REMARK SMILES IDX 19 41 20 42 28 43 21 44 22 46 27 47 23 49 26 50 25 51 24 53
REMARK H PARENT 13 2 13 3 5 10 30 15 9 17 10 18 2 20 1 22 1 23 1 24 3 26 3 27
REMARK H PARENT 3 28 7 30 7 31 15 36 29 38 17 40 20 45 21 48 26 52 24 54 24 55
REMARK Flexibility Score: inf
ROOT
ATOM      1  C   UNL     1     -48.206  36.267  27.547  1.00  0.00     0.115 C 
ATOM      2  H   UNL     1     -49.248  36.263  27.889  1.00  0.00     0.076 H 
ATOM      3  H   UNL     1     -48.206  36.834  26.608  1.00  0.00     0.076 H 
ENDROOT
BRANCH   1   4
ATOM      4  O   UNL     1     -47.365  36.983  28.455  1.00  0.00    -0.489 OA
BRANCH   4   5
ATOM      5  C   UNL     1     -46.723  38.105  28.010  1.00  0.00     0.122 A 
ATOM      6  C   UNL     1     -43.169  41.267  27.946  1.00  0.00     0.046 A 
ATOM      7  C   UNL     1     -43.776  42.039  26.962  1.00  0.00    -0.017 A 
ATOM      8  N   UNL     1     -43.724  40.120  28.398  1.00  0.00    -0.252 NA
ATOM      9  C   UNL     1     -44.973  41.607  26.389  1.00  0.00     0.043 A 
ATOM     10  H   UNL     1     -43.318  42.966  26.636  1.00  0.00     0.066 H 
ATOM     11  C   UNL     1     -44.912  39.731  27.910  1.00  0.00     0.076 A 
ATOM     12  C   UNL     1     -45.603  40.452  26.912  1.00  0.00     0.023 A 
ATOM     13  C   UNL     1     -45.477  38.572  28.429  1.00  0.00     0.007 A 
ATOM     14  C   UNL     1     -46.867  39.980  26.494  1.00  0.00    -0.047 A 
ATOM     15  H   UNL     1     -44.897  38.046  29.181  1.00  0.00     0.069 H 
ATOM     16  C   UNL     1     -47.415  38.818  27.038  1.00  0.00    -0.019 A 
ATOM     17  H   UNL     1     -47.445  40.518  25.749  1.00  0.00     0.063 H 
ATOM     18  H   UNL     1     -48.390  38.473  26.701  1.00  0.00     0.066 H 
BRANCH   6  19
ATOM     19  C   UNL     1     -41.853  41.669  28.581  1.00  0.00    -0.004 C 
ATOM     20  H   UNL     1     -41.911  42.739  28.819  1.00  0.00     0.036 H 
BRANCH  19  21
ATOM     21  C   UNL     1     -41.608  40.928  29.896  1.00  0.00    -0.057 C 
ATOM     22  H   UNL     1     -42.554  40.597  30.340  1.00  0.00     0.024 H 
ATOM     23  H   UNL     1     -40.979  40.043  29.755  1.00  0.00     0.024 H 
ATOM     24  H   UNL     1     -41.108  41.581  30.618  1.00  0.00     0.024 H 
ENDBRANCH  19  21
BRANCH  19  25
ATOM     25  C   UNL     1     -40.681  41.484  27.615  1.00  0.00    -0.057 C 
ATOM     26  H   UNL     1     -39.748  41.256  28.143  1.00  0.00     0.024 H 
ATOM     27  H   UNL     1     -40.518  42.395  27.030  1.00  0.00     0.024 H 
ATOM     28  H   UNL     1     -40.877  40.666  26.914  1.00  0.00     0.024 H 
ENDBRANCH  19  25
ENDBRANCH   6  19
BRANCH   9  29
ATOM     29  N   UNL     1     -45.607  42.454  25.454  1.00  0.00    -0.398 N 
ATOM     30  H   UNL     1     -46.193  41.959  24.789  1.00  0.00     0.156 HD
ATOM     31  H   UNL     1     -46.107  43.227  25.881  1.00  0.00     0.156 HD
ENDBRANCH   9  29
ENDBRANCH   4   5
ENDBRANCH   1   4
BRANCH   1  32
ATOM     32  C   UNL     1     -47.685  34.888  27.244  1.00  0.00     0.010 A 
ATOM     33  C   UNL     1     -46.648  34.333  27.979  1.00  0.00     0.034 A 
ATOM     34  C   UNL     1     -48.196  34.140  26.173  1.00  0.00    -0.028 A 
ATOM     35  N   UNL     1     -46.118  33.117  27.730  1.00  0.00    -0.262 NA
ATOM     36  H   UNL     1     -46.201  34.864  28.815  1.00  0.00     0.084 H 
ATOM     37  C   UNL     1     -47.685  32.870  25.886  1.00  0.00     0.066 A 
ATOM     38  H   UNL     1     -48.987  34.585  25.580  1.00  0.00     0.065 H 
ATOM     39  C   UNL     1     -46.650  32.415  26.698  1.00  0.00     0.051 A 
ATOM     40  H   UNL     1     -46.185  31.443  26.582  1.00  0.00     0.086 H 
BRANCH  37  41
ATOM     41  N   UNL     1     -48.189  32.062  24.814  1.00  0.00    -0.300 N 
ATOM     42  C   UNL     1     -49.531  31.790  24.582  1.00  0.00     0.012 A 
ATOM     43  C   UNL     1     -47.461  31.406  23.815  1.00  0.00     0.150 A 
ATOM     44  C   UNL     1     -49.655  30.985  23.473  1.00  0.00    -0.031 A 
ATOM     45  H   UNL     1     -50.311  32.165  25.227  1.00  0.00     0.082 H 
ATOM     46  C   UNL     1     -48.354  30.742  22.977  1.00  0.00     0.061 A 
ATOM     47  N   UNL     1     -46.121  31.410  23.651  1.00  0.00    -0.218 NA
ATOM     48  H   UNL     1     -50.585  30.606  23.069  1.00  0.00     0.065 H 
ATOM     49  C   UNL     1     -47.816  30.024  21.900  1.00  0.00     0.136 A 
ATOM     50  C   UNL     1     -45.725  30.696  22.588  1.00  0.00     0.120 A 
ATOM     51  N   UNL     1     -46.486  30.014  21.717  1.00  0.00    -0.219 NA
ATOM     52  H   UNL     1     -44.654  30.665  22.406  1.00  0.00     0.106 H 
BRANCH  49  53
ATOM     53  N   UNL     1     -48.587  29.324  20.982  1.00  0.00    -0.383 N 
ATOM     54  H   UNL     1     -49.261  29.941  20.542  1.00  0.00     0.158 HD
ATOM     55  H   UNL     1     -48.942  28.437  21.312  1.00  0.00     0.158 HD
ENDBRANCH  49  53
ENDBRANCH  37  41
ENDBRANCH   1  32
TORSDOF 9
ENDMDL
MODEL 4
REMARK VINA RESULT:      -9.8      1.102      1.931
REMARK SMILES CC(C)c1cc(N)c2ccc(OCc3cncc(-n4ccc5c(N)ncnc54)c3)cc2n1
REMARK SMILES IDX 13 1 12 4 11 5 4 6 5 7 32 8 6 9 31 11 8 12 30 13 9 14 10 16
REMARK SMILES IDX 2 19 1 21 3 25 7 29 14 32 15 33 29 34 16 35 18 37 17 39
REMARK SMILES IDX 19 41 20 42 28 43 21 44 22 46 27 47 23 49 26 50 25 51 24 53
REMARK H PARENT 13 2 13 3 5 10 30 15 9 17 10 18 2 20 1 22 1 23 1 24 3 26 3 27
REMARK H PARENT 3 28 7 30 7 31 15 36 29 38 17 40 20 45 21 48 26 52 24 54 24 55
REMARK Flexibility Score: inf
ROOT
ATOM      1  C   UNL     1     -47.477  35.189  26.210  1.00  0.00     0.115 C 
ATOM      2  H   UNL     1     -46.809  35.048  25.351  1.00  0.00     0.076 H 
ATOM      3  H   UNL     1     -48.368  35.690  25.812  1.00  0.00     0.076 H 
ENDROOT
BRANCH   1   4
ATOM      4  O   UNL     1     -47.915  33.935  26.737  1.00  0.00    -0.489 OA
BRANCH   4   5
ATOM      5  C   UNL     1     -47.749  32.809  25.978  1.00  0.00     0.122 A 
ATOM      6  C   UNL     1     -48.628  28.296  24.759  1.00  0.00     0.046 A 
ATOM      7  C   UNL     1     -47.705  28.319  23.721  1.00  0.00    -0.017 A 
ATOM      8  N   UNL     1     -48.878  29.386  25.518  1.00  0.00    -0.252 NA
ATOM      9  C   UNL     1     -47.039  29.508  23.419  1.00  0.00     0.043 A 
ATOM     10  H   UNL     1     -47.510  27.422  23.144  1.00  0.00     0.066 H 
ATOM     11  C   UNL     1     -48.190  30.516  25.288  1.00  0.00     0.076 A 
ATOM     12  C   UNL     1     -47.232  30.631  24.259  1.00  0.00     0.023 A 
ATOM     13  C   UNL     1     -48.438  31.604  26.116  1.00  0.00     0.007 A 
ATOM     14  C   UNL     1     -46.532  31.851  24.124  1.00  0.00    -0.047 A 
ATOM     15  H   UNL     1     -49.196  31.468  26.880  1.00  0.00     0.069 H 
ATOM     16  C   UNL     1     -46.794  32.925  24.975  1.00  0.00    -0.019 A 
ATOM     17  H   UNL     1     -45.768  31.975  23.364  1.00  0.00     0.063 H 
ATOM     18  H   UNL     1     -46.243  33.856  24.853  1.00  0.00     0.066 H 
BRANCH   6  19
ATOM     19  C   UNL     1     -49.406  27.043  25.111  1.00  0.00    -0.004 C 
ATOM     20  H   UNL     1     -50.007  27.264  26.003  1.00  0.00     0.036 H 
BRANCH  19  21
ATOM     21  C   UNL     1     -50.379  26.648  24.000  1.00  0.00    -0.057 C 
ATOM     22  H   UNL     1     -49.840  26.404  23.077  1.00  0.00     0.024 H 
ATOM     23  H   UNL     1     -50.981  25.776  24.274  1.00  0.00     0.024 H 
ATOM     24  H   UNL     1     -51.066  27.471  23.779  1.00  0.00     0.024 H 
ENDBRANCH  19  21
BRANCH  19  25
ATOM     25  C   UNL     1     -48.475  25.883  25.469  1.00  0.00    -0.057 C 
ATOM     26  H   UNL     1     -47.422  26.185  25.461  1.00  0.00     0.024 H 
ATOM     27  H   UNL     1     -48.592  25.062  24.754  1.00  0.00     0.024 H 
ATOM     28  H   UNL     1     -48.703  25.493  26.467  1.00  0.00     0.024 H 
ENDBRANCH  19  25
ENDBRANCH   6  19
BRANCH   9  29
ATOM     29  N   UNL     1     -46.046  29.478  22.415  1.00  0.00    -0.398 N 
ATOM     30  H   UNL     1     -45.645  28.557  22.268  1.00  0.00     0.156 HD
ATOM     31  H   UNL     1     -46.344  29.894  21.539  1.00  0.00     0.156 HD
ENDBRANCH   9  29
ENDBRANCH   4   5
ENDBRANCH   1   4
BRANCH   1  32
ATOM     32  C   UNL     1     -46.888  36.084  27.267  1.00  0.00     0.010 A 
ATOM     33  C   UNL     1     -46.962  35.754  28.612  1.00  0.00     0.034 A 
ATOM     34  C   UNL     1     -46.291  37.308  26.931  1.00  0.00    -0.028 A 
ATOM     35  N   UNL     1     -46.484  36.533  29.605  1.00  0.00    -0.262 NA
ATOM     36  H   UNL     1     -47.421  34.825  28.942  1.00  0.00     0.084 H 
ATOM     37  C   UNL     1     -45.770  38.142  27.925  1.00  0.00     0.066 A 
ATOM     38  H   UNL     1     -46.258  37.581  25.882  1.00  0.00     0.065 H 
ATOM     39  C   UNL     1     -45.897  37.700  29.239  1.00  0.00     0.051 A 
ATOM     40  H   UNL     1     -45.520  38.253  30.092  1.00  0.00     0.086 H 
BRANCH  37  41
ATOM     41  N   UNL     1     -45.135  39.392  27.627  1.00  0.00    -0.300 N 
ATOM     42  C   UNL     1     -45.481  40.233  26.576  1.00  0.00     0.012 A 
ATOM     43  C   UNL     1     -44.077  40.005  28.307  1.00  0.00     0.150 A 
ATOM     44  C   UNL     1     -44.669  41.342  26.584  1.00  0.00    -0.031 A 
ATOM     45  H   UNL     1     -46.266  39.982  25.877  1.00  0.00     0.082 H 
ATOM     46  C   UNL     1     -43.783  41.212  27.678  1.00  0.00     0.061 A 
ATOM     47  N   UNL     1     -43.438  39.540  29.402  1.00  0.00    -0.218 NA
ATOM     48  H   UNL     1     -44.705  42.157  25.872  1.00  0.00     0.065 H 
ATOM     49  C   UNL     1     -42.746  41.985  28.218  1.00  0.00     0.136 A 
ATOM     50  C   UNL     1     -42.472  40.365  29.830  1.00  0.00     0.120 A 
ATOM     51  N   UNL     1     -42.097  41.544  29.308  1.00  0.00    -0.219 NA
ATOM     52  H   UNL     1     -41.925  40.042  30.711  1.00  0.00     0.106 H 
BRANCH  49  53
ATOM     53  N   UNL     1     -42.352  43.211  27.700  1.00  0.00    -0.383 N 
ATOM     54  H   UNL     1     -43.087  43.604  27.122  1.00  0.00     0.158 HD
ATOM     55  H   UNL     1     -41.419  43.230  27.310  1.00  0.00     0.158 HD
ENDBRANCH  49  53
ENDBRANCH  37  41
ENDBRANCH   1  32
TORSDOF 9
ENDMDL
MODEL 5
REMARK VINA RESULT:      -9.6      1.782     10.609
REMARK SMILES CC(C)c1cc(N)c2ccc(OCc3cncc(-n4ccc5c(N)ncnc54)c3)cc2n1
REMARK SMILES IDX 13 1 12 4 11 5 4 6 5 7 32 8 6 9 31 11 8 12 30 13 9 14 10 16
REMARK SMILES IDX 2 19 1 21 3 25 7 29 14 32 15 33 29 34 16 35 18 37 17 39
REMARK SMILES IDX 19 41 20 42 28 43 21 44 22 46 27 47 23 49 26 50 25 51 24 53
REMARK H PARENT 13 2 13 3 5 10 30 15 9 17 10 18 2 20 1 22 1 23 1 24 3 26 3 27
REMARK H PARENT 3 28 7 30 7 31 15 36 29 38 17 40 20 45 21 48 26 52 24 54 24 55
REMARK Flexibility Score: inf
ROOT
ATOM      1  C   UNL     1     -48.853  35.176  26.962  1.00  0.00     0.115 C 
ATOM      2  H   UNL     1     -49.914  34.903  26.988  1.00  0.00     0.076 H 
ATOM      3  H   UNL     1     -48.802  36.102  26.374  1.00  0.00     0.076 H 
ENDROOT
BRANCH   1   4
ATOM      4  O   UNL     1     -48.366  35.496  28.267  1.00  0.00    -0.489 OA
BRANCH   4   5
ATOM      5  C   UNL     1     -47.394  36.449  28.391  1.00  0.00     0.122 A 
ATOM      6  C   UNL     1     -44.969  40.300  27.005  1.00  0.00     0.046 A 
ATOM      7  C   UNL     1     -44.111  40.243  28.097  1.00  0.00    -0.017 A 
ATOM      8  N   UNL     1     -45.982  39.419  26.846  1.00  0.00    -0.252 NA
ATOM      9  C   UNL     1     -44.315  39.276  29.083  1.00  0.00     0.043 A 
ATOM     10  H   UNL     1     -43.293  40.949  28.185  1.00  0.00     0.066 H 
ATOM     11  C   UNL     1     -46.145  38.438  27.747  1.00  0.00     0.076 A 
ATOM     12  C   UNL     1     -45.321  38.300  28.884  1.00  0.00     0.023 A 
ATOM     13  C   UNL     1     -47.167  37.522  27.529  1.00  0.00     0.007 A 
ATOM     14  C   UNL     1     -45.549  37.209  29.752  1.00  0.00    -0.047 A 
ATOM     15  H   UNL     1     -47.782  37.684  26.650  1.00  0.00     0.069 H 
ATOM     16  C   UNL     1     -46.576  36.299  29.505  1.00  0.00    -0.019 A 
ATOM     17  H   UNL     1     -44.922  37.048  30.623  1.00  0.00     0.063 H 
ATOM     18  H   UNL     1     -46.735  35.466  30.187  1.00  0.00     0.066 H 
BRANCH   6  19
ATOM     19  C   UNL     1     -44.816  41.347  25.921  1.00  0.00    -0.004 C 
ATOM     20  H   UNL     1     -44.784  40.825  24.955  1.00  0.00     0.036 H 
BRANCH  19  21
ATOM     21  C   UNL     1     -46.012  42.299  25.878  1.00  0.00    -0.057 C 
ATOM     22  H   UNL     1     -46.590  42.159  24.958  1.00  0.00     0.024 H 
ATOM     23  H   UNL     1     -46.690  42.142  26.724  1.00  0.00     0.024 H 
ATOM     24  H   UNL     1     -45.677  43.340  25.910  1.00  0.00     0.024 H 
ENDBRANCH  19  21
BRANCH  19  25
ATOM     25  C   UNL     1     -43.501  42.118  26.060  1.00  0.00    -0.057 C 
ATOM     26  H   UNL     1     -43.256  42.676  25.150  1.00  0.00     0.024 H 
ATOM     27  H   UNL     1     -42.673  41.431  26.263  1.00  0.00     0.024 H 
ATOM     28  H   UNL     1     -43.553  42.833  26.888  1.00  0.00     0.024 H 
ENDBRANCH  19  25
ENDBRANCH   6  19
BRANCH   9  29
ATOM     29  N   UNL     1     -43.377  39.190  30.135  1.00  0.00    -0.398 N 
ATOM     30  H   UNL     1     -42.420  39.070  29.817  1.00  0.00     0.156 HD
ATOM     31  H   UNL     1     -43.449  39.948  30.805  1.00  0.00     0.156 HD
ENDBRANCH   9  29
ENDBRANCH   4   5
ENDBRANCH   1   4
BRANCH   1  32
ATOM     32  C   UNL     1     -48.002  34.149  26.264  1.00  0.00     0.010 A 
ATOM     33  C   UNL     1     -46.661  34.386  26.001  1.00  0.00     0.034 A 
ATOM     34  C   UNL     1     -48.549  32.941  25.811  1.00  0.00    -0.028 A 
ATOM     35  N   UNL     1     -45.859  33.518  25.348  1.00  0.00    -0.262 NA
ATOM     36  H   UNL     1     -46.176  35.307  26.316  1.00  0.00     0.084 H 
ATOM     37  C   UNL     1     -47.753  32.006  25.142  1.00  0.00     0.066 A 
ATOM     38  H   UNL     1     -49.604  32.767  25.991  1.00  0.00     0.065 H 
ATOM     39  C   UNL     1     -46.419  32.352  24.942  1.00  0.00     0.051 A 
ATOM     40  H   UNL     1     -45.704  31.703  24.450  1.00  0.00     0.086 H 
BRANCH  37  41
ATOM     41  N   UNL     1     -48.265  30.750  24.677  1.00  0.00    -0.300 N 
ATOM     42  C   UNL     1     -48.752  29.735  25.493  1.00  0.00     0.012 A 
ATOM     43  C   UNL     1     -48.379  30.302  23.356  1.00  0.00     0.150 A 
ATOM     44  C   UNL     1     -49.160  28.675  24.718  1.00  0.00    -0.031 A 
ATOM     45  H   UNL     1     -48.759  29.820  26.569  1.00  0.00     0.082 H 
ATOM     46  C   UNL     1     -48.936  29.025  23.367  1.00  0.00     0.061 A 
ATOM     47  N   UNL     1     -48.035  30.975  22.238  1.00  0.00    -0.218 NA
ATOM     48  H   UNL     1     -49.570  27.744  25.087  1.00  0.00     0.065 H 
ATOM     49  C   UNL     1     -49.138  28.400  22.128  1.00  0.00     0.136 A 
ATOM     50  C   UNL     1     -48.279  30.281  21.118  1.00  0.00     0.120 A 
ATOM     51  N   UNL     1     -48.804  29.050  21.002  1.00  0.00    -0.219 NA
ATOM     52  H   UNL     1     -48.022  30.775  20.185  1.00  0.00     0.106 H 
BRANCH  49  53
ATOM     53  N   UNL     1     -49.692  27.134  21.988  1.00  0.00    -0.383 N 
ATOM     54  H   UNL     1     -50.292  26.921  22.777  1.00  0.00     0.158 HD
ATOM     55  H   UNL     1     -49.040  26.412  21.715  1.00  0.00     0.158 HD
ENDBRANCH  49  53
ENDBRANCH  37  41
ENDBRANCH   1  32
TORSDOF 9
ENDMDL
MODEL 6
REMARK VINA RESULT:      -9.5      2.256     11.285
REMARK SMILES CC(C)c1cc(N)c2ccc(OCc3cncc(-n4ccc5c(N)ncnc54)c3)cc2n1
REMARK SMILES IDX 13 1 12 4 11 5 4 6 5 7 32 8 6 9 31 11 8 12 30 13 9 14 10 16
REMARK SMILES IDX 2 19 1 21 3 25 7 29 14 32 15 33 29 34 16 35 18 37 17 39
REMARK SMILES IDX 19 41 20 42 28 43 21 44 22 46 27 47 23 49 26 50 25 51 24 53
REMARK H PARENT 13 2 13 3 5 10 30 15 9 17 10 18 2 20 1 22 1 23 1 24 3 26 3 27
REMARK H PARENT 3 28 7 30 7 31 15 36 29 38 17 40 20 45 21 48 26 52 24 54 24 55
REMARK Flexibility Score: inf
ROOT
ATOM      1  C   UNL     1     -46.432  32.834  24.464  1.00  0.00     0.115 C 
ATOM      2  H   UNL     1     -46.266  33.556  23.656  1.00  0.00     0.076 H 
ATOM      3  H   UNL     1     -45.476  32.766  24.998  1.00  0.00     0.076 H 
ENDROOT
BRANCH   1   4
ATOM      4  O   UNL     1     -47.392  33.319  25.405  1.00  0.00    -0.489 OA
BRANCH   4   5
ATOM      5  C   UNL     1     -47.011  34.287  26.292  1.00  0.00     0.122 A 
ATOM      6  C   UNL     1     -46.082  38.762  27.613  1.00  0.00     0.046 A 
ATOM      7  C   UNL     1     -45.715  38.384  28.899  1.00  0.00    -0.017 A 
ATOM      8  N   UNL     1     -46.516  37.863  26.701  1.00  0.00    -0.252 NA
ATOM      9  C   UNL     1     -45.829  37.046  29.282  1.00  0.00     0.043 A 
ATOM     10  H   UNL     1     -45.350  39.124  29.602  1.00  0.00     0.066 H 
ATOM     11  C   UNL     1     -46.559  36.563  27.031  1.00  0.00     0.076 A 
ATOM     12  C   UNL     1     -46.202  36.087  28.311  1.00  0.00     0.023 A 
ATOM     13  C   UNL     1     -46.965  35.661  26.055  1.00  0.00     0.007 A 
ATOM     14  C   UNL     1     -46.243  34.695  28.546  1.00  0.00    -0.047 A 
ATOM     15  H   UNL     1     -47.245  36.081  25.094  1.00  0.00     0.069 H 
ATOM     16  C   UNL     1     -46.646  33.810  27.546  1.00  0.00    -0.019 A 
ATOM     17  H   UNL     1     -45.952  34.282  29.506  1.00  0.00     0.063 H 
ATOM     18  H   UNL     1     -46.671  32.741  27.749  1.00  0.00     0.066 H 
BRANCH   6  19
ATOM     19  C   UNL     1     -46.011  40.203  27.151  1.00  0.00    -0.004 C 
ATOM     20  H   UNL     1     -45.828  40.828  28.036  1.00  0.00     0.036 H 
BRANCH  19  21
ATOM     21  C   UNL     1     -44.846  40.434  26.189  1.00  0.00    -0.057 C 
ATOM     22  H   UNL     1     -45.074  40.032  25.195  1.00  0.00     0.024 H 
ATOM     23  H   UNL     1     -44.615  41.498  26.072  1.00  0.00     0.024 H 
ATOM     24  H   UNL     1     -43.942  39.936  26.553  1.00  0.00     0.024 H 
ENDBRANCH  19  21
BRANCH  19  25
ATOM     25  C   UNL     1     -47.335  40.666  26.538  1.00  0.00    -0.057 C 
ATOM     26  H   UNL     1     -48.003  39.824  26.323  1.00  0.00     0.024 H 
ATOM     27  H   UNL     1     -47.157  41.198  25.597  1.00  0.00     0.024 H 
ATOM     28  H   UNL     1     -47.862  41.347  27.214  1.00  0.00     0.024 H 
ENDBRANCH  19  25
ENDBRANCH   6  19
BRANCH   9  29
ATOM     29  N   UNL     1     -45.368  36.680  30.566  1.00  0.00    -0.398 N 
ATOM     30  H   UNL     1     -44.625  35.988  30.549  1.00  0.00     0.156 HD
ATOM     31  H   UNL     1     -45.118  37.473  31.148  1.00  0.00     0.156 HD
ENDBRANCH   9  29
ENDBRANCH   4   5
ENDBRANCH   1   4
BRANCH   1  32
ATOM     32  C   UNL     1     -46.766  31.456  23.957  1.00  0.00     0.010 A 
ATOM     33  C   UNL     1     -46.420  31.058  22.674  1.00  0.00     0.034 A 
ATOM     34  C   UNL     1     -47.485  30.548  24.747  1.00  0.00    -0.028 A 
ATOM     35  N   UNL     1     -46.724  29.851  22.154  1.00  0.00    -0.262 NA
ATOM     36  H   UNL     1     -45.871  31.717  22.006  1.00  0.00     0.084 H 
ATOM     37  C   UNL     1     -47.811  29.280  24.255  1.00  0.00     0.066 A 
ATOM     38  H   UNL     1     -47.781  30.868  25.740  1.00  0.00     0.065 H 
ATOM     39  C   UNL     1     -47.404  28.992  22.955  1.00  0.00     0.051 A 
ATOM     40  H   UNL     1     -47.586  28.038  22.472  1.00  0.00     0.086 H 
BRANCH  37  41
ATOM     41  N   UNL     1     -48.527  28.313  25.033  1.00  0.00    -0.300 N 
ATOM     42  C   UNL     1     -47.986  27.562  26.070  1.00  0.00     0.012 A 
ATOM     43  C   UNL     1     -49.871  27.938  24.917  1.00  0.00     0.150 A 
ATOM     44  C   UNL     1     -48.951  26.735  26.595  1.00  0.00    -0.031 A 
ATOM     45  H   UNL     1     -46.948  27.646  26.355  1.00  0.00     0.082 H 
ATOM     46  C   UNL     1     -50.147  26.970  25.879  1.00  0.00     0.061 A 
ATOM     47  N   UNL     1     -50.777  28.426  24.044  1.00  0.00    -0.218 NA
ATOM     48  H   UNL     1     -48.807  26.030  27.404  1.00  0.00     0.065 H 
ATOM     49  C   UNL     1     -51.455  26.465  25.930  1.00  0.00     0.136 A 
ATOM     50  C   UNL     1     -51.990  27.875  24.191  1.00  0.00     0.120 A 
ATOM     51  N   UNL     1     -52.374  26.937  25.072  1.00  0.00    -0.219 NA
ATOM     52  H   UNL     1     -52.762  28.233  23.514  1.00  0.00     0.106 H 
BRANCH  49  53
ATOM     53  N   UNL     1     -51.872  25.506  26.842  1.00  0.00    -0.383 N 
ATOM     54  H   UNL     1     -52.492  24.839  26.395  1.00  0.00     0.158 HD
ATOM     55  H   UNL     1     -52.176  25.869  27.734  1.00  0.00     0.158 HD
ENDBRANCH  49  53
ENDBRANCH  37  41
ENDBRANCH   1  32
TORSDOF 9
ENDMDL
MODEL 7
REMARK VINA RESULT:      -9.4      2.007     10.927
REMARK SMILES CC(C)c1cc(N)c2ccc(OCc3cncc(-n4ccc5c(N)ncnc54)c3)cc2n1
REMARK SMILES IDX 13 1 12 4 11 5 4 6 5 7 32 8 6 9 31 11 8 12 30 13 9 14 10 16
REMARK SMILES IDX 2 19 1 21 3 25 7 29 14 32 15 33 29 34 16 35 18 37 17 39
REMARK SMILES IDX 19 41 20 42 28 43 21 44 22 46 27 47 23 49 26 50 25 51 24 53
REMARK H PARENT 13 2 13 3 5 10 30 15 9 17 10 18 2 20 1 22 1 23 1 24 3 26 3 27
REMARK H PARENT 3 28 7 30 7 31 15 36 29 38 17 40 20 45 21 48 26 52 24 54 24 55
REMARK Flexibility Score: inf
ROOT
ATOM      1  C   UNL     1     -45.577  35.930  27.984  1.00  0.00     0.115 C 
ATOM      2  H   UNL     1     -44.780  36.165  27.269  1.00  0.00     0.076 H 
ATOM      3  H   UNL     1     -45.134  35.226  28.699  1.00  0.00     0.076 H 
ENDROOT
BRANCH   1   4
ATOM      4  O   UNL     1     -45.958  37.086  28.733  1.00  0.00    -0.489 OA
BRANCH   4   5
ATOM      5  C   UNL     1     -45.108  38.158  28.765  1.00  0.00     0.122 A 
ATOM      6  C   UNL     1     -43.171  42.142  27.030  1.00  0.00     0.046 A 
ATOM      7  C   UNL     1     -42.311  42.282  28.113  1.00  0.00    -0.017 A 
ATOM      8  N   UNL     1     -44.070  41.134  26.958  1.00  0.00    -0.252 NA
ATOM      9  C   UNL     1     -42.396  41.386  29.180  1.00  0.00     0.043 A 
ATOM     10  H   UNL     1     -41.586  43.087  28.133  1.00  0.00     0.066 H 
ATOM     11  C   UNL     1     -44.111  40.221  27.941  1.00  0.00     0.076 A 
ATOM     12  C   UNL     1     -43.275  40.282  29.076  1.00  0.00     0.023 A 
ATOM     13  C   UNL     1     -45.014  39.173  27.812  1.00  0.00     0.007 A 
ATOM     14  C   UNL     1     -43.368  39.249  30.036  1.00  0.00    -0.047 A 
ATOM     15  H   UNL     1     -45.646  39.183  26.930  1.00  0.00     0.069 H 
ATOM     16  C   UNL     1     -44.278  38.203  29.878  1.00  0.00    -0.019 A 
ATOM     17  H   UNL     1     -42.726  39.241  30.911  1.00  0.00     0.063 H 
ATOM     18  H   UNL     1     -44.333  37.419  30.630  1.00  0.00     0.066 H 
BRANCH   6  19
ATOM     19  C   UNL     1     -43.148  43.103  25.859  1.00  0.00    -0.004 C 
ATOM     20  H   UNL     1     -43.755  42.665  25.057  1.00  0.00     0.036 H 
BRANCH  19  21
ATOM     21  C   UNL     1     -43.779  44.449  26.218  1.00  0.00    -0.057 C 
ATOM     22  H   UNL     1     -43.208  45.277  25.781  1.00  0.00     0.024 H 
ATOM     23  H   UNL     1     -44.809  44.527  25.856  1.00  0.00     0.024 H 
ATOM     24  H   UNL     1     -43.796  44.589  27.303  1.00  0.00     0.024 H 
ENDBRANCH  19  21
BRANCH  19  25
ATOM     25  C   UNL     1     -41.733  43.285  25.306  1.00  0.00    -0.057 C 
ATOM     26  H   UNL     1     -41.568  42.691  24.401  1.00  0.00     0.024 H 
ATOM     27  H   UNL     1     -40.988  42.977  26.047  1.00  0.00     0.024 H 
ATOM     28  H   UNL     1     -41.543  44.335  25.056  1.00  0.00     0.024 H 
ENDBRANCH  19  25
ENDBRANCH   6  19
BRANCH   9  29
ATOM     29  N   UNL     1     -41.453  41.505  30.225  1.00  0.00    -0.398 N 
ATOM     30  H   UNL     1     -41.035  42.427  30.292  1.00  0.00     0.156 HD
ATOM     31  H   UNL     1     -41.805  41.194  31.124  1.00  0.00     0.156 HD
ENDBRANCH   9  29
ENDBRANCH   4   5
ENDBRANCH   1   4
BRANCH   1  32
ATOM     32  C   UNL     1     -46.754  35.245  27.343  1.00  0.00     0.010 A 
ATOM     33  C   UNL     1     -48.056  35.603  27.662  1.00  0.00     0.034 A 
ATOM     34  C   UNL     1     -46.574  34.185  26.443  1.00  0.00    -0.028 A 
ATOM     35  N   UNL     1     -49.148  35.001  27.147  1.00  0.00    -0.262 NA
ATOM     36  H   UNL     1     -48.265  36.410  28.361  1.00  0.00     0.084 H 
ATOM     37  C   UNL     1     -47.677  33.541  25.874  1.00  0.00     0.066 A 
ATOM     38  H   UNL     1     -45.557  33.885  26.215  1.00  0.00     0.065 H 
ATOM     39  C   UNL     1     -48.934  33.993  26.265  1.00  0.00     0.051 A 
ATOM     40  H   UNL     1     -49.861  33.581  25.881  1.00  0.00     0.086 H 
BRANCH  37  41
ATOM     41  N   UNL     1     -47.541  32.466  24.935  1.00  0.00    -0.300 N 
ATOM     42  C   UNL     1     -46.334  31.977  24.450  1.00  0.00     0.012 A 
ATOM     43  C   UNL     1     -48.557  31.712  24.335  1.00  0.00     0.150 A 
ATOM     44  C   UNL     1     -46.572  30.948  23.569  1.00  0.00    -0.031 A 
ATOM     45  H   UNL     1     -45.386  32.402  24.744  1.00  0.00     0.082 H 
ATOM     46  C   UNL     1     -47.972  30.768  23.495  1.00  0.00     0.061 A 
ATOM     47  N   UNL     1     -49.886  31.840  24.531  1.00  0.00    -0.218 NA
ATOM     48  H   UNL     1     -45.817  30.390  23.031  1.00  0.00     0.065 H 
ATOM     49  C   UNL     1     -48.830  29.903  22.800  1.00  0.00     0.136 A 
ATOM     50  C   UNL     1     -50.603  30.958  23.820  1.00  0.00     0.120 A 
ATOM     51  N   UNL     1     -50.157  30.012  22.980  1.00  0.00    -0.219 NA
ATOM     52  H   UNL     1     -51.682  31.015  23.940  1.00  0.00     0.106 H 
BRANCH  49  53
ATOM     53  N   UNL     1     -48.386  28.910  21.938  1.00  0.00    -0.383 N 
ATOM     54  H   UNL     1     -49.137  28.612  21.325  1.00  0.00     0.158 HD
ATOM     55  H   UNL     1     -47.848  28.175  22.375  1.00  0.00     0.158 HD
ENDBRANCH  49  53
ENDBRANCH  37  41
ENDBRANCH   1  32
TORSDOF 9
ENDMDL
