MODEL 1
REMARK VINA RESULT:     -10.2      0.000      0.000
REMARK SMILES CNc1ccc2ccc(CC[C@H]3C[C@@H](n4cc(C5CCOCC5)c5c(N)ncnc54)[C@H](O)[C@@H]3O)cc2n1
REMARK SMILES IDX 10 1 9 4 3 5 4 6 37 7 5 8 36 10 6 11 35 13 7 14 8 16 2 19
REMARK SMILES IDX 1 21 11 25 12 28 13 29 33 30 14 32 31 35 34 39 15 41 16 42
REMARK SMILES IDX 30 43 17 44 24 46 29 47 25 48 28 49 27 50 18 52 19 53 23 54
REMARK SMILES IDX 20 56 22 59 21 62 26 67 32 70
REMARK H PARENT 10 2 10 3 4 9 5 12 35 15 7 17 8 18 2 20 1 22 1 23 1 24 11 26
REMARK H PARENT 11 27 12 31 13 33 13 34 33 36 14 37 31 38 34 40 16 45 28 51
REMARK H PARENT 18 55 19 57 19 58 23 60 23 61 20 63 20 64 22 65 22 66 26 68
REMARK H PARENT 26 69 32 71
REMARK Flexibility Score: inf
ROOT
ATOM      1  C   UNL     1     -47.757  37.363  27.603  1.00  0.00    -0.027 C 
ATOM      2  H   UNL     1     -48.396  36.923  28.376  1.00  0.00     0.032 H 
ATOM      3  H   UNL     1     -48.330  38.192  27.170  1.00  0.00     0.032 H 
ENDROOT
BRANCH   1   4
ATOM      4  C   UNL     1     -46.518  37.927  28.256  1.00  0.00    -0.046 A 
ATOM      5  C   UNL     1     -43.081  41.236  28.287  1.00  0.00     0.126 A 
ATOM      6  C   UNL     1     -42.486  40.672  29.410  1.00  0.00    -0.019 A 
ATOM      7  N   UNL     1     -44.202  40.716  27.745  1.00  0.00    -0.231 NA
ATOM      8  C   UNL     1     -43.044  39.531  29.980  1.00  0.00    -0.049 A 
ATOM      9  H   UNL     1     -41.602  41.123  29.849  1.00  0.00     0.066 H 
ATOM     10  C   UNL     1     -44.748  39.614  28.293  1.00  0.00     0.073 A 
ATOM     11  C   UNL     1     -44.197  38.978  29.421  1.00  0.00     0.000 A 
ATOM     12  H   UNL     1     -42.580  39.091  30.858  1.00  0.00     0.063 H 
ATOM     13  C   UNL     1     -45.898  39.074  27.733  1.00  0.00    -0.033 A 
ATOM     14  C   UNL     1     -44.802  37.827  29.954  1.00  0.00    -0.053 A 
ATOM     15  H   UNL     1     -46.320  39.569  26.861  1.00  0.00     0.065 H 
ATOM     16  C   UNL     1     -45.955  37.304  29.371  1.00  0.00    -0.058 A 
ATOM     17  H   UNL     1     -44.377  37.334  30.825  1.00  0.00     0.063 H 
ATOM     18  H   UNL     1     -46.409  36.410  29.794  1.00  0.00     0.063 H 
BRANCH   5  19
ATOM     19  N   UNL     1     -42.504  42.404  27.755  1.00  0.00    -0.373 N 
ATOM     20  H   UNL     1     -41.499  42.367  27.897  1.00  0.00     0.161 HD
BRANCH  19  21
ATOM     21  C   UNL     1     -42.844  42.657  26.365  1.00  0.00     0.005 C 
ATOM     22  H   UNL     1     -42.463  41.870  25.705  1.00  0.00     0.045 H 
ATOM     23  H   UNL     1     -42.385  43.601  26.053  1.00  0.00     0.045 H 
ATOM     24  H   UNL     1     -43.927  42.761  26.227  1.00  0.00     0.045 H 
ENDBRANCH  19  21
ENDBRANCH   5  19
ENDBRANCH   1   4
BRANCH   1  25
ATOM     25  C   UNL     1     -47.398  36.332  26.527  1.00  0.00    -0.044 C 
ATOM     26  H   UNL     1     -48.163  36.359  25.740  1.00  0.00     0.027 H 
ATOM     27  H   UNL     1     -46.458  36.628  26.041  1.00  0.00     0.027 H 
BRANCH  25  28
ATOM     28  C   UNL     1     -47.252  34.882  27.009  1.00  0.00    -0.010 C 
ATOM     29  C   UNL     1     -48.304  33.913  26.460  1.00  0.00    -0.024 C 
ATOM     30  C   UNL     1     -45.931  34.196  26.658  1.00  0.00     0.085 C 
ATOM     31  H   UNL     1     -47.349  34.911  28.104  1.00  0.00     0.033 H 
ATOM     32  C   UNL     1     -47.699  32.507  26.665  1.00  0.00     0.064 C 
ATOM     33  H   UNL     1     -48.530  34.109  25.408  1.00  0.00     0.029 H 
ATOM     34  H   UNL     1     -49.249  34.014  27.006  1.00  0.00     0.029 H 
ATOM     35  C   UNL     1     -46.204  32.718  26.975  1.00  0.00     0.101 C 
ATOM     36  H   UNL     1     -45.668  34.311  25.604  1.00  0.00     0.063 H 
ATOM     37  H   UNL     1     -48.185  32.054  27.540  1.00  0.00     0.056 H 
ATOM     38  H   UNL     1     -45.528  32.052  26.432  1.00  0.00     0.065 H 
BRANCH  30  39
ATOM     39  O   UNL     1     -44.856  34.679  27.458  1.00  0.00    -0.390 OA
ATOM     40  H   UNL     1     -44.264  33.926  27.633  1.00  0.00     0.211 HD
ENDBRANCH  30  39
BRANCH  32  41
ATOM     41  N   UNL     1     -47.946  31.603  25.551  1.00  0.00    -0.326 N 
ATOM     42  C   UNL     1     -48.835  30.563  25.584  1.00  0.00     0.010 A 
ATOM     43  C   UNL     1     -47.345  31.646  24.319  1.00  0.00     0.146 A 
ATOM     44  C   UNL     1     -48.816  29.909  24.361  1.00  0.00    -0.014 A 
ATOM     45  H   UNL     1     -49.414  30.358  26.477  1.00  0.00     0.082 H 
ATOM     46  C   UNL     1     -47.855  30.608  23.538  1.00  0.00     0.065 A 
ATOM     47  N   UNL     1     -46.421  32.552  23.956  1.00  0.00    -0.218 NA
ATOM     48  C   UNL     1     -47.325  30.520  22.233  1.00  0.00     0.136 A 
ATOM     49  C   UNL     1     -46.002  32.362  22.701  1.00  0.00     0.120 A 
ATOM     50  N   UNL     1     -46.399  31.419  21.835  1.00  0.00    -0.219 NA
ATOM     51  H   UNL     1     -45.250  33.054  22.335  1.00  0.00     0.106 H 
BRANCH  44  52
ATOM     52  C   UNL     1     -49.684  28.711  24.063  1.00  0.00    -0.010 C 
ATOM     53  C   UNL     1     -51.125  29.069  23.689  1.00  0.00    -0.023 C 
ATOM     54  C   UNL     1     -49.604  27.637  25.154  1.00  0.00    -0.023 C 
ATOM     55  H   UNL     1     -49.261  28.240  23.160  1.00  0.00     0.035 H 
ATOM     56  C   UNL     1     -51.961  27.812  23.493  1.00  0.00     0.047 C 
ATOM     57  H   UNL     1     -51.146  29.677  22.776  1.00  0.00     0.030 H 
ATOM     58  H   UNL     1     -51.592  29.672  24.470  1.00  0.00     0.030 H 
ATOM     59  C   UNL     1     -50.550  26.486  24.850  1.00  0.00     0.047 C 
ATOM     60  H   UNL     1     -48.578  27.260  25.247  1.00  0.00     0.030 H 
ATOM     61  H   UNL     1     -49.864  28.059  26.129  1.00  0.00     0.030 H 
ATOM     62  O   UNL     1     -51.875  26.970  24.641  1.00  0.00    -0.381 OA
ATOM     63  H   UNL     1     -53.013  28.082  23.353  1.00  0.00     0.057 H 
ATOM     64  H   UNL     1     -51.643  27.255  22.604  1.00  0.00     0.057 H 
ATOM     65  H   UNL     1     -50.222  25.920  23.970  1.00  0.00     0.057 H 
ATOM     66  H   UNL     1     -50.575  25.791  25.696  1.00  0.00     0.057 H 
ENDBRANCH  44  52
BRANCH  48  67
ATOM     67  N   UNL     1     -47.666  29.579  21.278  1.00  0.00    -0.383 N 
ATOM     68  H   UNL     1     -47.976  28.717  21.710  1.00  0.00     0.158 HD
ATOM     69  H   UNL     1     -47.056  29.487  20.482  1.00  0.00     0.158 HD
ENDBRANCH  48  67
ENDBRANCH  32  41
BRANCH  35  70
ATOM     70  O   UNL     1     -45.975  32.490  28.378  1.00  0.00    -0.388 OA
ATOM     71  H   UNL     1     -45.021  32.271  28.434  1.00  0.00     0.211 HD
ENDBRANCH  35  70
ENDBRANCH  25  28
ENDBRANCH   1  25
TORSDOF 10
ENDMDL
MODEL 2
REMARK VINA RESULT:     -10.0      3.007     11.630
REMARK SMILES CNc1ccc2ccc(CC[C@H]3C[C@@H](n4cc(C5CCOCC5)c5c(N)ncnc54)[C@H](O)[C@@H]3O)cc2n1
REMARK SMILES IDX 10 1 9 4 3 5 4 6 37 7 5 8 36 10 6 11 35 13 7 14 8 16 2 19
REMARK SMILES IDX 1 21 11 25 12 28 13 29 33 30 14 32 31 35 34 39 15 41 16 42
REMARK SMILES IDX 30 43 17 44 24 46 29 47 25 48 28 49 27 50 18 52 19 53 23 54
REMARK SMILES IDX 20 56 22 59 21 62 26 67 32 70
REMARK H PARENT 10 2 10 3 4 9 5 12 35 15 7 17 8 18 2 20 1 22 1 23 1 24 11 26
REMARK H PARENT 11 27 12 31 13 33 13 34 33 36 14 37 31 38 34 40 16 45 28 51
REMARK H PARENT 18 55 19 57 19 58 23 60 23 61 20 63 20 64 22 65 22 66 26 68
REMARK H PARENT 26 69 32 71
REMARK Flexibility Score: inf
ROOT
ATOM      1  C   UNL     1     -46.348  34.952  26.553  1.00  0.00    -0.027 C 
ATOM      2  H   UNL     1     -46.088  34.689  27.584  1.00  0.00     0.032 H 
ATOM      3  H   UNL     1     -45.398  35.133  26.036  1.00  0.00     0.032 H 
ENDROOT
BRANCH   1   4
ATOM      4  C   UNL     1     -47.028  33.772  25.904  1.00  0.00    -0.046 A 
ATOM      5  C   UNL     1     -46.787  30.099  22.868  1.00  0.00     0.126 A 
ATOM      6  C   UNL     1     -48.107  29.743  23.122  1.00  0.00    -0.019 A 
ATOM      7  N   UNL     1     -46.207  31.149  23.485  1.00  0.00    -0.231 NA
ATOM      8  C   UNL     1     -48.859  30.498  24.018  1.00  0.00    -0.049 A 
ATOM      9  H   UNL     1     -48.547  28.877  22.638  1.00  0.00     0.066 H 
ATOM     10  C   UNL     1     -46.927  31.882  24.354  1.00  0.00     0.073 A 
ATOM     11  C   UNL     1     -48.272  31.594  24.654  1.00  0.00     0.000 A 
ATOM     12  H   UNL     1     -49.889  30.221  24.218  1.00  0.00     0.063 H 
ATOM     13  C   UNL     1     -46.333  32.966  24.986  1.00  0.00    -0.033 A 
ATOM     14  C   UNL     1     -48.983  32.392  25.566  1.00  0.00    -0.053 A 
ATOM     15  H   UNL     1     -45.294  33.185  24.751  1.00  0.00     0.065 H 
ATOM     16  C   UNL     1     -48.364  33.477  26.184  1.00  0.00    -0.058 A 
ATOM     17  H   UNL     1     -50.022  32.171  25.798  1.00  0.00     0.063 H 
ATOM     18  H   UNL     1     -48.929  34.086  26.886  1.00  0.00     0.063 H 
BRANCH   5  19
ATOM     19  N   UNL     1     -46.051  29.296  21.977  1.00  0.00    -0.373 N 
ATOM     20  H   UNL     1     -46.126  29.689  21.043  1.00  0.00     0.161 HD
BRANCH  19  21
ATOM     21  C   UNL     1     -44.667  29.087  22.366  1.00  0.00     0.005 C 
ATOM     22  H   UNL     1     -43.977  29.647  21.724  1.00  0.00     0.045 H 
ATOM     23  H   UNL     1     -44.425  28.025  22.263  1.00  0.00     0.045 H 
ATOM     24  H   UNL     1     -44.498  29.359  23.415  1.00  0.00     0.045 H 
ENDBRANCH  19  21
ENDBRANCH   5  19
ENDBRANCH   1   4
BRANCH   1  25
ATOM     25  C   UNL     1     -47.237  36.200  26.507  1.00  0.00    -0.044 C 
ATOM     26  H   UNL     1     -47.196  36.628  25.497  1.00  0.00     0.027 H 
ATOM     27  H   UNL     1     -48.284  35.905  26.665  1.00  0.00     0.027 H 
BRANCH  25  28
ATOM     28  C   UNL     1     -46.894  37.307  27.515  1.00  0.00    -0.010 C 
ATOM     29  C   UNL     1     -45.553  38.005  27.270  1.00  0.00    -0.024 C 
ATOM     30  C   UNL     1     -47.884  38.470  27.585  1.00  0.00     0.085 C 
ATOM     31  H   UNL     1     -46.855  36.822  28.501  1.00  0.00     0.033 H 
ATOM     32  C   UNL     1     -45.645  39.333  28.052  1.00  0.00     0.064 C 
ATOM     33  H   UNL     1     -45.368  38.172  26.205  1.00  0.00     0.029 H 
ATOM     34  H   UNL     1     -44.722  37.393  27.638  1.00  0.00     0.029 H 
ATOM     35  C   UNL     1     -47.132  39.526  28.409  1.00  0.00     0.101 C 
ATOM     36  H   UNL     1     -48.130  38.869  26.598  1.00  0.00     0.063 H 
ATOM     37  H   UNL     1     -45.067  39.220  28.979  1.00  0.00     0.056 H 
ATOM     38  H   UNL     1     -47.517  40.534  28.230  1.00  0.00     0.065 H 
BRANCH  30  39
ATOM     39  O   UNL     1     -49.090  38.099  28.246  1.00  0.00    -0.390 OA
ATOM     40  H   UNL     1     -49.190  37.135  28.149  1.00  0.00     0.211 HD
ENDBRANCH  30  39
BRANCH  32  41
ATOM     41  N   UNL     1     -45.059  40.463  27.344  1.00  0.00    -0.326 N 
ATOM     42  C   UNL     1     -45.667  41.126  26.313  1.00  0.00     0.010 A 
ATOM     43  C   UNL     1     -43.835  41.030  27.589  1.00  0.00     0.146 A 
ATOM     44  C   UNL     1     -44.831  42.140  25.870  1.00  0.00    -0.014 A 
ATOM     45  H   UNL     1     -46.648  40.826  25.963  1.00  0.00     0.082 H 
ATOM     46  C   UNL     1     -43.646  42.085  26.694  1.00  0.00     0.065 A 
ATOM     47  N   UNL     1     -42.984  40.616  28.542  1.00  0.00    -0.218 NA
ATOM     48  C   UNL     1     -42.419  42.770  26.822  1.00  0.00     0.136 A 
ATOM     49  C   UNL     1     -41.863  41.346  28.562  1.00  0.00     0.120 A 
ATOM     50  N   UNL     1     -41.543  42.382  27.774  1.00  0.00    -0.219 NA
ATOM     51  H   UNL     1     -41.121  41.069  29.305  1.00  0.00     0.106 H 
BRANCH  44  52
ATOM     52  C   UNL     1     -45.202  43.066  24.737  1.00  0.00    -0.010 C 
ATOM     53  C   UNL     1     -44.172  43.103  23.605  1.00  0.00    -0.023 C 
ATOM     54  C   UNL     1     -45.599  44.466  25.223  1.00  0.00    -0.023 C 
ATOM     55  H   UNL     1     -46.115  42.647  24.282  1.00  0.00     0.035 H 
ATOM     56  C   UNL     1     -44.567  44.123  22.546  1.00  0.00     0.047 C 
ATOM     57  H   UNL     1     -44.068  42.111  23.147  1.00  0.00     0.030 H 
ATOM     58  H   UNL     1     -43.184  43.371  23.986  1.00  0.00     0.030 H 
ATOM     59  C   UNL     1     -45.890  45.383  24.047  1.00  0.00     0.047 C 
ATOM     60  H   UNL     1     -46.477  44.410  25.877  1.00  0.00     0.030 H 
ATOM     61  H   UNL     1     -44.797  44.906  25.824  1.00  0.00     0.030 H 
ATOM     62  O   UNL     1     -44.789  45.401  23.141  1.00  0.00    -0.381 OA
ATOM     63  H   UNL     1     -43.762  44.230  21.812  1.00  0.00     0.057 H 
ATOM     64  H   UNL     1     -45.467  43.808  22.004  1.00  0.00     0.057 H 
ATOM     65  H   UNL     1     -46.799  45.077  23.515  1.00  0.00     0.057 H 
ATOM     66  H   UNL     1     -46.048  46.407  24.403  1.00  0.00     0.057 H 
ENDBRANCH  44  52
BRANCH  48  67
ATOM     67  N   UNL     1     -42.000  43.840  26.051  1.00  0.00    -0.383 N 
ATOM     68  H   UNL     1     -41.363  44.435  26.568  1.00  0.00     0.158 HD
ATOM     69  H   UNL     1     -42.695  44.305  25.492  1.00  0.00     0.158 HD
ENDBRANCH  48  67
ENDBRANCH  32  41
BRANCH  35  70
ATOM     70  O   UNL     1     -47.323  39.250  29.809  1.00  0.00    -0.388 OA
ATOM     71  H   UNL     1     -48.266  39.464  29.970  1.00  0.00     0.211 HD
ENDBRANCH  35  70
ENDBRANCH  25  28
ENDBRANCH   1  25
TORSDOF 10
ENDMDL
MODEL 3
REMARK VINA RESULT:      -9.9      2.925     10.937
REMARK SMILES CNc1ccc2ccc(CC[C@H]3C[C@@H](n4cc(C5CCOCC5)c5c(N)ncnc54)[C@H](O)[C@@H]3O)cc2n1
REMARK SMILES IDX 10 1 9 4 3 5 4 6 37 7 5 8 36 10 6 11 35 13 7 14 8 16 2 19
REMARK SMILES IDX 1 21 11 25 12 28 13 29 33 30 14 32 31 35 34 39 15 41 16 42
REMARK SMILES IDX 30 43 17 44 24 46 29 47 25 48 28 49 27 50 18 52 19 53 23 54
REMARK SMILES IDX 20 56 22 59 21 62 26 67 32 70
REMARK H PARENT 10 2 10 3 4 9 5 12 35 15 7 17 8 18 2 20 1 22 1 23 1 24 11 26
REMARK H PARENT 11 27 12 31 13 33 13 34 33 36 14 37 31 38 34 40 16 45 28 51
REMARK H PARENT 18 55 19 57 19 58 23 60 23 61 20 63 20 64 22 65 22 66 26 68
REMARK H PARENT 26 69 32 71
REMARK Flexibility Score: inf
ROOT
ATOM      1  C   UNL     1     -47.123  30.665  22.835  1.00  0.00    -0.027 C 
ATOM      2  H   UNL     1     -46.095  30.979  22.625  1.00  0.00     0.032 H 
ATOM      3  H   UNL     1     -47.616  30.566  21.861  1.00  0.00     0.032 H 
ENDROOT
BRANCH   1   4
ATOM      4  C   UNL     1     -47.094  29.309  23.497  1.00  0.00    -0.046 A 
ATOM      5  C   UNL     1     -49.358  25.986  26.066  1.00  0.00     0.126 A 
ATOM      6  C   UNL     1     -48.244  25.153  26.054  1.00  0.00    -0.019 A 
ATOM      7  N   UNL     1     -49.352  27.183  25.444  1.00  0.00    -0.231 NA
ATOM      8  C   UNL     1     -47.086  25.569  25.404  1.00  0.00    -0.049 A 
ATOM      9  H   UNL     1     -48.279  24.181  26.535  1.00  0.00     0.066 H 
ATOM     10  C   UNL     1     -48.236  27.590  24.811  1.00  0.00     0.073 A 
ATOM     11  C   UNL     1     -47.064  26.811  24.766  1.00  0.00     0.000 A 
ATOM     12  H   UNL     1     -46.216  24.919  25.393  1.00  0.00     0.063 H 
ATOM     13  C   UNL     1     -48.226  28.824  24.175  1.00  0.00    -0.033 A 
ATOM     14  C   UNL     1     -45.922  27.282  24.096  1.00  0.00    -0.053 A 
ATOM     15  H   UNL     1     -49.133  29.423  24.212  1.00  0.00     0.065 H 
ATOM     16  C   UNL     1     -45.938  28.526  23.468  1.00  0.00    -0.058 A 
ATOM     17  H   UNL     1     -45.017  26.681  24.061  1.00  0.00     0.063 H 
ATOM     18  H   UNL     1     -45.046  28.878  22.956  1.00  0.00     0.063 H 
BRANCH   5  19
ATOM     19  N   UNL     1     -50.519  25.520  26.710  1.00  0.00    -0.373 N 
ATOM     20  H   UNL     1     -50.383  25.579  27.715  1.00  0.00     0.161 HD
BRANCH  19  21
ATOM     21  C   UNL     1     -51.741  26.184  26.290  1.00  0.00     0.005 C 
ATOM     22  H   UNL     1     -51.730  27.250  26.542  1.00  0.00     0.045 H 
ATOM     23  H   UNL     1     -52.590  25.730  26.813  1.00  0.00     0.045 H 
ATOM     24  H   UNL     1     -51.918  26.061  25.215  1.00  0.00     0.045 H 
ENDBRANCH  19  21
ENDBRANCH   5  19
ENDBRANCH   1   4
BRANCH   1  25
ATOM     25  C   UNL     1     -47.849  31.694  23.709  1.00  0.00    -0.044 C 
ATOM     26  H   UNL     1     -48.062  32.586  23.105  1.00  0.00     0.027 H 
ATOM     27  H   UNL     1     -48.828  31.292  24.004  1.00  0.00     0.027 H 
BRANCH  25  28
ATOM     28  C   UNL     1     -47.110  32.137  24.980  1.00  0.00    -0.010 C 
ATOM     29  C   UNL     1     -46.655  33.599  24.983  1.00  0.00    -0.024 C 
ATOM     30  C   UNL     1     -47.902  32.017  26.283  1.00  0.00     0.085 C 
ATOM     31  H   UNL     1     -46.218  31.498  25.054  1.00  0.00     0.033 H 
ATOM     32  C   UNL     1     -46.398  33.936  26.468  1.00  0.00     0.064 C 
ATOM     33  H   UNL     1     -47.404  34.261  24.539  1.00  0.00     0.029 H 
ATOM     34  H   UNL     1     -45.741  33.724  24.391  1.00  0.00     0.029 H 
ATOM     35  C   UNL     1     -47.050  32.806  27.289  1.00  0.00     0.101 C 
ATOM     36  H   UNL     1     -48.899  32.457  26.208  1.00  0.00     0.063 H 
ATOM     37  H   UNL     1     -45.313  33.919  26.635  1.00  0.00     0.056 H 
ATOM     38  H   UNL     1     -47.639  33.146  28.145  1.00  0.00     0.065 H 
BRANCH  30  39
ATOM     39  O   UNL     1     -48.026  30.661  26.703  1.00  0.00    -0.390 OA
ATOM     40  H   UNL     1     -47.310  30.158  26.276  1.00  0.00     0.211 HD
ENDBRANCH  30  39
BRANCH  32  41
ATOM     41  N   UNL     1     -46.846  35.269  26.844  1.00  0.00    -0.326 N 
ATOM     42  C   UNL     1     -46.022  36.356  26.958  1.00  0.00     0.010 A 
ATOM     43  C   UNL     1     -48.132  35.643  27.137  1.00  0.00     0.146 A 
ATOM     44  C   UNL     1     -46.773  37.459  27.336  1.00  0.00    -0.014 A 
ATOM     45  H   UNL     1     -44.958  36.267  26.768  1.00  0.00     0.082 H 
ATOM     46  C   UNL     1     -48.140  37.004  27.451  1.00  0.00     0.065 A 
ATOM     47  N   UNL     1     -49.188  34.813  27.116  1.00  0.00    -0.218 NA
ATOM     48  C   UNL     1     -49.403  37.539  27.780  1.00  0.00     0.136 A 
ATOM     49  C   UNL     1     -50.323  35.439  27.445  1.00  0.00     0.120 A 
ATOM     50  N   UNL     1     -50.486  36.731  27.764  1.00  0.00    -0.219 NA
ATOM     51  H   UNL     1     -51.222  34.832  27.454  1.00  0.00     0.106 H 
BRANCH  44  52
ATOM     52  C   UNL     1     -46.167  38.824  27.550  1.00  0.00    -0.010 C 
ATOM     53  C   UNL     1     -46.321  39.765  26.350  1.00  0.00    -0.023 C 
ATOM     54  C   UNL     1     -44.725  38.756  28.068  1.00  0.00    -0.023 C 
ATOM     55  H   UNL     1     -46.745  39.296  28.361  1.00  0.00     0.035 H 
ATOM     56  C   UNL     1     -45.608  41.085  26.604  1.00  0.00     0.047 C 
ATOM     57  H   UNL     1     -47.382  39.947  26.140  1.00  0.00     0.030 H 
ATOM     58  H   UNL     1     -45.900  39.316  25.448  1.00  0.00     0.030 H 
ATOM     59  C   UNL     1     -44.131  40.150  28.196  1.00  0.00     0.047 C 
ATOM     60  H   UNL     1     -44.690  38.247  29.039  1.00  0.00     0.030 H 
ATOM     61  H   UNL     1     -44.100  38.167  27.391  1.00  0.00     0.030 H 
ATOM     62  O   UNL     1     -44.246  40.858  26.964  1.00  0.00    -0.381 OA
ATOM     63  H   UNL     1     -45.617  41.694  25.694  1.00  0.00     0.057 H 
ATOM     64  H   UNL     1     -46.105  41.663  27.392  1.00  0.00     0.057 H 
ATOM     65  H   UNL     1     -44.618  40.721  28.995  1.00  0.00     0.057 H 
ATOM     66  H   UNL     1     -43.066  40.079  28.445  1.00  0.00     0.057 H 
ENDBRANCH  44  52
BRANCH  48  67
ATOM     67  N   UNL     1     -49.665  38.851  28.131  1.00  0.00    -0.383 N 
ATOM     68  H   UNL     1     -48.855  39.284  28.557  1.00  0.00     0.158 HD
ATOM     69  H   UNL     1     -50.555  39.045  28.560  1.00  0.00     0.158 HD
ENDBRANCH  48  67
ENDBRANCH  32  41
BRANCH  35  70
ATOM     70  O   UNL     1     -46.021  31.944  27.809  1.00  0.00    -0.388 OA
ATOM     71  H   UNL     1     -46.492  31.115  28.035  1.00  0.00     0.211 HD
ENDBRANCH  35  70
ENDBRANCH  25  28
ENDBRANCH   1  25
TORSDOF 10
ENDMDL
MODEL 4
REMARK VINA RESULT:      -9.7      3.207     11.269
REMARK SMILES CNc1ccc2ccc(CC[C@H]3C[C@@H](n4cc(C5CCOCC5)c5c(N)ncnc54)[C@H](O)[C@@H]3O)cc2n1
REMARK SMILES IDX 10 1 9 4 3 5 4 6 37 7 5 8 36 10 6 11 35 13 7 14 8 16 2 19
REMARK SMILES IDX 1 21 11 25 12 28 13 29 33 30 14 32 31 35 34 39 15 41 16 42
REMARK SMILES IDX 30 43 17 44 24 46 29 47 25 48 28 49 27 50 18 52 19 53 23 54
REMARK SMILES IDX 20 56 22 59 21 62 26 67 32 70
REMARK H PARENT 10 2 10 3 4 9 5 12 35 15 7 17 8 18 2 20 1 22 1 23 1 24 11 26
REMARK H PARENT 11 27 12 31 13 33 13 34 33 36 14 37 31 38 34 40 16 45 28 51
REMARK H PARENT 18 55 19 57 19 58 23 60 23 61 20 63 20 64 22 65 22 66 26 68
REMARK H PARENT 26 69 32 71
REMARK Flexibility Score: inf
ROOT
ATOM      1  C   UNL     1     -47.955  35.795  27.318  1.00  0.00    -0.027 C 
ATOM      2  H   UNL     1     -47.662  36.706  26.786  1.00  0.00     0.032 H 
ATOM      3  H   UNL     1     -49.038  35.865  27.468  1.00  0.00     0.032 H 
ENDROOT
BRANCH   1   4
ATOM      4  C   UNL     1     -47.668  34.602  26.440  1.00  0.00    -0.046 A 
ATOM      5  C   UNL     1     -49.219  30.560  24.432  1.00  0.00     0.126 A 
ATOM      6  C   UNL     1     -47.983  30.328  23.838  1.00  0.00    -0.019 A 
ATOM      7  N   UNL     1     -49.442  31.651  25.194  1.00  0.00    -0.231 NA
ATOM      8  C   UNL     1     -46.943  31.230  24.047  1.00  0.00    -0.049 A 
ATOM      9  H   UNL     1     -47.831  29.461  23.204  1.00  0.00     0.066 H 
ATOM     10  C   UNL     1     -48.442  32.528  25.399  1.00  0.00     0.073 A 
ATOM     11  C   UNL     1     -47.160  32.356  24.843  1.00  0.00     0.000 A 
ATOM     12  H   UNL     1     -45.978  31.050  23.583  1.00  0.00     0.063 H 
ATOM     13  C   UNL     1     -48.669  33.648  26.187  1.00  0.00    -0.033 A 
ATOM     14  C   UNL     1     -46.146  33.298  25.089  1.00  0.00    -0.053 A 
ATOM     15  H   UNL     1     -49.661  33.777  26.614  1.00  0.00     0.065 H 
ATOM     16  C   UNL     1     -46.400  34.412  25.887  1.00  0.00    -0.058 A 
ATOM     17  H   UNL     1     -45.155  33.166  24.661  1.00  0.00     0.063 H 
ATOM     18  H   UNL     1     -45.604  35.131  26.070  1.00  0.00     0.063 H 
BRANCH   5  19
ATOM     19  N   UNL     1     -50.253  29.642  24.176  1.00  0.00    -0.373 N 
ATOM     20  H   UNL     1     -50.429  29.102  25.018  1.00  0.00     0.161 HD
BRANCH  19  21
ATOM     21  C   UNL     1     -51.469  30.243  23.656  1.00  0.00     0.005 C 
ATOM     22  H   UNL     1     -51.340  30.591  22.625  1.00  0.00     0.045 H 
ATOM     23  H   UNL     1     -51.725  31.114  24.268  1.00  0.00     0.045 H 
ATOM     24  H   UNL     1     -52.316  29.549  23.708  1.00  0.00     0.045 H 
ENDBRANCH  19  21
ENDBRANCH   5  19
ENDBRANCH   1   4
BRANCH   1  25
ATOM     25  C   UNL     1     -47.227  35.682  28.664  1.00  0.00    -0.044 C 
ATOM     26  H   UNL     1     -47.946  35.864  29.472  1.00  0.00     0.027 H 
ATOM     27  H   UNL     1     -46.878  34.649  28.800  1.00  0.00     0.027 H 
BRANCH  25  28
ATOM     28  C   UNL     1     -46.030  36.623  28.861  1.00  0.00    -0.010 C 
ATOM     29  C   UNL     1     -45.608  37.396  27.608  1.00  0.00    -0.024 C 
ATOM     30  C   UNL     1     -46.218  37.725  29.903  1.00  0.00     0.085 C 
ATOM     31  H   UNL     1     -45.188  35.987  29.173  1.00  0.00     0.033 H 
ATOM     32  C   UNL     1     -44.764  38.578  28.133  1.00  0.00     0.064 C 
ATOM     33  H   UNL     1     -46.471  37.739  27.029  1.00  0.00     0.029 H 
ATOM     34  H   UNL     1     -45.017  36.762  26.939  1.00  0.00     0.029 H 
ATOM     35  C   UNL     1     -45.026  38.660  29.649  1.00  0.00     0.101 C 
ATOM     36  H   UNL     1     -47.156  38.269  29.772  1.00  0.00     0.063 H 
ATOM     37  H   UNL     1     -43.705  38.337  27.965  1.00  0.00     0.056 H 
ATOM     38  H   UNL     1     -45.211  39.670  30.026  1.00  0.00     0.065 H 
BRANCH  30  39
ATOM     39  O   UNL     1     -46.164  37.212  31.231  1.00  0.00    -0.390 OA
ATOM     40  H   UNL     1     -46.128  37.974  31.836  1.00  0.00     0.211 HD
ENDBRANCH  30  39
BRANCH  32  41
ATOM     41  N   UNL     1     -45.012  39.826  27.425  1.00  0.00    -0.326 N 
ATOM     42  C   UNL     1     -44.035  40.600  26.861  1.00  0.00     0.010 A 
ATOM     43  C   UNL     1     -46.234  40.412  27.214  1.00  0.00     0.146 A 
ATOM     44  C   UNL     1     -44.620  41.714  26.275  1.00  0.00    -0.014 A 
ATOM     45  H   UNL     1     -42.993  40.309  26.922  1.00  0.00     0.082 H 
ATOM     46  C   UNL     1     -46.042  41.595  26.498  1.00  0.00     0.065 A 
ATOM     47  N   UNL     1     -47.403  39.905  27.638  1.00  0.00    -0.218 NA
ATOM     48  C   UNL     1     -47.218  42.319  26.205  1.00  0.00     0.136 A 
ATOM     49  C   UNL     1     -48.438  40.681  27.297  1.00  0.00     0.120 A 
ATOM     50  N   UNL     1     -48.410  41.833  26.613  1.00  0.00    -0.219 NA
ATOM     51  H   UNL     1     -49.419  40.338  27.609  1.00  0.00     0.106 H 
BRANCH  44  52
ATOM     52  C   UNL     1     -43.818  42.776  25.563  1.00  0.00    -0.010 C 
ATOM     53  C   UNL     1     -43.942  44.169  26.188  1.00  0.00    -0.023 C 
ATOM     54  C   UNL     1     -44.059  42.782  24.048  1.00  0.00    -0.023 C 
ATOM     55  H   UNL     1     -42.758  42.498  25.687  1.00  0.00     0.035 H 
ATOM     56  C   UNL     1     -43.183  45.200  25.365  1.00  0.00     0.047 C 
ATOM     57  H   UNL     1     -43.565  44.162  27.218  1.00  0.00     0.030 H 
ATOM     58  H   UNL     1     -44.987  44.478  26.244  1.00  0.00     0.030 H 
ATOM     59  C   UNL     1     -43.291  43.913  23.384  1.00  0.00     0.047 C 
ATOM     60  H   UNL     1     -43.761  41.823  23.609  1.00  0.00     0.030 H 
ATOM     61  H   UNL     1     -45.124  42.902  23.829  1.00  0.00     0.030 H 
ATOM     62  O   UNL     1     -43.603  45.160  24.002  1.00  0.00    -0.381 OA
ATOM     63  H   UNL     1     -43.385  46.205  25.749  1.00  0.00     0.057 H 
ATOM     64  H   UNL     1     -42.100  45.038  25.421  1.00  0.00     0.057 H 
ATOM     65  H   UNL     1     -42.209  43.742  23.427  1.00  0.00     0.057 H 
ATOM     66  H   UNL     1     -43.571  43.984  22.327  1.00  0.00     0.057 H 
ENDBRANCH  44  52
BRANCH  48  67
ATOM     67  N   UNL     1     -47.286  43.517  25.516  1.00  0.00    -0.383 N 
ATOM     68  H   UNL     1     -48.133  43.572  24.963  1.00  0.00     0.158 HD
ATOM     69  H   UNL     1     -46.442  43.846  25.078  1.00  0.00     0.158 HD
ENDBRANCH  48  67
ENDBRANCH  32  41
BRANCH  35  70
ATOM     70  O   UNL     1     -43.877  38.157  30.356  1.00  0.00    -0.388 OA
ATOM     71  H   UNL     1     -43.237  38.899  30.336  1.00  0.00     0.211 HD
ENDBRANCH  35  70
ENDBRANCH  25  28
ENDBRANCH   1  25
TORSDOF 10
ENDMDL
MODEL 5
REMARK VINA RESULT:      -9.7      2.342      2.924
REMARK SMILES CNc1ccc2ccc(CC[C@H]3C[C@@H](n4cc(C5CCOCC5)c5c(N)ncnc54)[C@H](O)[C@@H]3O)cc2n1
REMARK SMILES IDX 10 1 9 4 3 5 4 6 37 7 5 8 36 10 6 11 35 13 7 14 8 16 2 19
REMARK SMILES IDX 1 21 11 25 12 28 13 29 33 30 14 32 31 35 34 39 15 41 16 42
REMARK SMILES IDX 30 43 17 44 24 46 29 47 25 48 28 49 27 50 18 52 19 53 23 54
REMARK SMILES IDX 20 56 22 59 21 62 26 67 32 70
REMARK H PARENT 10 2 10 3 4 9 5 12 35 15 7 17 8 18 2 20 1 22 1 23 1 24 11 26
REMARK H PARENT 11 27 12 31 13 33 13 34 33 36 14 37 31 38 34 40 16 45 28 51
REMARK H PARENT 18 55 19 57 19 58 23 60 23 61 20 63 20 64 22 65 22 66 26 68
REMARK H PARENT 26 69 32 71
REMARK Flexibility Score: inf
ROOT
ATOM      1  C   UNL     1     -47.742  35.724  26.974  1.00  0.00    -0.027 C 
ATOM      2  H   UNL     1     -48.688  35.630  27.518  1.00  0.00     0.032 H 
ATOM      3  H   UNL     1     -47.964  36.313  26.076  1.00  0.00     0.032 H 
ENDROOT
BRANCH   1   4
ATOM      4  C   UNL     1     -46.764  36.498  27.824  1.00  0.00    -0.046 A 
ATOM      5  C   UNL     1     -43.775  40.193  28.247  1.00  0.00     0.126 A 
ATOM      6  C   UNL     1     -43.427  39.821  29.542  1.00  0.00    -0.019 A 
ATOM      7  N   UNL     1     -44.671  39.487  27.527  1.00  0.00    -0.231 NA
ATOM      8  C   UNL     1     -43.997  38.683  30.103  1.00  0.00    -0.049 A 
ATOM      9  H   UNL     1     -42.727  40.419  30.116  1.00  0.00     0.066 H 
ATOM     10  C   UNL     1     -45.228  38.387  28.064  1.00  0.00     0.073 A 
ATOM     11  C   UNL     1     -44.917  37.938  29.362  1.00  0.00     0.000 A 
ATOM     12  H   UNL     1     -43.726  38.392  31.114  1.00  0.00     0.063 H 
ATOM     13  C   UNL     1     -46.145  37.656  27.322  1.00  0.00    -0.033 A 
ATOM     14  C   UNL     1     -45.522  36.780  29.878  1.00  0.00    -0.053 A 
ATOM     15  H   UNL     1     -46.383  38.006  26.320  1.00  0.00     0.065 H 
ATOM     16  C   UNL     1     -46.438  36.063  29.110  1.00  0.00    -0.058 A 
ATOM     17  H   UNL     1     -45.282  36.432  30.880  1.00  0.00     0.063 H 
ATOM     18  H   UNL     1     -46.896  35.167  29.523  1.00  0.00     0.063 H 
BRANCH   5  19
ATOM     19  N   UNL     1     -43.199  41.365  27.724  1.00  0.00    -0.373 N 
ATOM     20  H   UNL     1     -43.891  42.108  27.743  1.00  0.00     0.161 HD
BRANCH  19  21
ATOM     21  C   UNL     1     -41.961  41.763  28.374  1.00  0.00     0.005 C 
ATOM     22  H   UNL     1     -42.025  42.779  28.779  1.00  0.00     0.045 H 
ATOM     23  H   UNL     1     -41.152  41.751  27.637  1.00  0.00     0.045 H 
ATOM     24  H   UNL     1     -41.684  41.065  29.173  1.00  0.00     0.045 H 
ENDBRANCH  19  21
ENDBRANCH   5  19
ENDBRANCH   1   4
BRANCH   1  25
ATOM     25  C   UNL     1     -47.181  34.348  26.595  1.00  0.00    -0.044 C 
ATOM     26  H   UNL     1     -46.164  34.475  26.203  1.00  0.00     0.027 H 
ATOM     27  H   UNL     1     -47.078  33.737  27.503  1.00  0.00     0.027 H 
BRANCH  25  28
ATOM     28  C   UNL     1     -47.998  33.549  25.570  1.00  0.00    -0.010 C 
ATOM     29  C   UNL     1     -47.178  32.592  24.700  1.00  0.00    -0.024 C 
ATOM     30  C   UNL     1     -49.087  32.645  26.149  1.00  0.00     0.085 C 
ATOM     31  H   UNL     1     -48.474  34.291  24.912  1.00  0.00     0.033 H 
ATOM     32  C   UNL     1     -48.205  31.592  24.127  1.00  0.00     0.064 C 
ATOM     33  H   UNL     1     -46.395  32.087  25.274  1.00  0.00     0.029 H 
ATOM     34  H   UNL     1     -46.671  33.135  23.894  1.00  0.00     0.029 H 
ATOM     35  C   UNL     1     -49.493  31.770  24.954  1.00  0.00     0.101 C 
ATOM     36  H   UNL     1     -48.720  32.019  26.966  1.00  0.00     0.063 H 
ATOM     37  H   UNL     1     -48.407  31.875  23.085  1.00  0.00     0.056 H 
ATOM     38  H   UNL     1     -49.963  30.835  25.273  1.00  0.00     0.065 H 
BRANCH  30  39
ATOM     39  O   UNL     1     -50.207  33.396  26.611  1.00  0.00    -0.390 OA
ATOM     40  H   UNL     1     -50.969  33.150  26.056  1.00  0.00     0.211 HD
ENDBRANCH  30  39
BRANCH  32  41
ATOM     41  N   UNL     1     -47.717  30.221  24.087  1.00  0.00    -0.326 N 
ATOM     42  C   UNL     1     -48.312  29.171  24.732  1.00  0.00     0.010 A 
ATOM     43  C   UNL     1     -46.610  29.770  23.414  1.00  0.00     0.146 A 
ATOM     44  C   UNL     1     -47.585  28.015  24.486  1.00  0.00    -0.014 A 
ATOM     45  H   UNL     1     -49.205  29.321  25.327  1.00  0.00     0.082 H 
ATOM     46  C   UNL     1     -46.485  28.397  23.630  1.00  0.00     0.065 A 
ATOM     47  N   UNL     1     -45.802  30.549  22.675  1.00  0.00    -0.218 NA
ATOM     48  C   UNL     1     -45.381  27.786  22.998  1.00  0.00     0.136 A 
ATOM     49  C   UNL     1     -44.798  29.852  22.130  1.00  0.00     0.120 A 
ATOM     50  N   UNL     1     -44.552  28.540  22.245  1.00  0.00    -0.219 NA
ATOM     51  H   UNL     1     -44.098  30.415  21.521  1.00  0.00     0.106 H 
BRANCH  44  52
ATOM     52  C   UNL     1     -47.973  26.671  25.053  1.00  0.00    -0.010 C 
ATOM     53  C   UNL     1     -49.396  26.627  25.621  1.00  0.00    -0.023 C 
ATOM     54  C   UNL     1     -46.928  26.117  26.028  1.00  0.00    -0.023 C 
ATOM     55  H   UNL     1     -47.981  25.968  24.204  1.00  0.00     0.035 H 
ATOM     56  C   UNL     1     -49.682  25.273  26.255  1.00  0.00     0.047 C 
ATOM     57  H   UNL     1     -50.130  26.833  24.833  1.00  0.00     0.030 H 
ATOM     58  H   UNL     1     -49.535  27.397  26.381  1.00  0.00     0.030 H 
ATOM     59  C   UNL     1     -47.396  24.802  26.631  1.00  0.00     0.047 C 
ATOM     60  H   UNL     1     -45.968  25.972  25.519  1.00  0.00     0.030 H 
ATOM     61  H   UNL     1     -46.741  26.829  26.838  1.00  0.00     0.030 H 
ATOM     62  O   UNL     1     -48.684  24.953  27.223  1.00  0.00    -0.381 OA
ATOM     63  H   UNL     1     -50.650  25.299  26.767  1.00  0.00     0.057 H 
ATOM     64  H   UNL     1     -49.731  24.480  25.500  1.00  0.00     0.057 H 
ATOM     65  H   UNL     1     -47.428  24.005  25.878  1.00  0.00     0.057 H 
ATOM     66  H   UNL     1     -46.701  24.484  27.416  1.00  0.00     0.057 H 
ENDBRANCH  44  52
BRANCH  48  67
ATOM     67  N   UNL     1     -45.043  26.446  23.067  1.00  0.00    -0.383 N 
ATOM     68  H   UNL     1     -45.848  25.857  22.891  1.00  0.00     0.158 HD
ATOM     69  H   UNL     1     -44.435  26.162  23.817  1.00  0.00     0.158 HD
ENDBRANCH  48  67
ENDBRANCH  32  41
BRANCH  35  70
ATOM     70  O   UNL     1     -50.468  32.477  24.166  1.00  0.00    -0.388 OA
ATOM     71  H   UNL     1     -50.843  33.139  24.784  1.00  0.00     0.211 HD
ENDBRANCH  35  70
ENDBRANCH  25  28
ENDBRANCH   1  25
TORSDOF 10
ENDMDL
MODEL 6
REMARK VINA RESULT:      -9.6      3.219     10.500
REMARK SMILES CNc1ccc2ccc(CC[C@H]3C[C@@H](n4cc(C5CCOCC5)c5c(N)ncnc54)[C@H](O)[C@@H]3O)cc2n1
REMARK SMILES IDX 10 1 9 4 3 5 4 6 37 7 5 8 36 10 6 11 35 13 7 14 8 16 2 19
REMARK SMILES IDX 1 21 11 25 12 28 13 29 33 30 14 32 31 35 34 39 15 41 16 42
REMARK SMILES IDX 30 43 17 44 24 46 29 47 25 48 28 49 27 50 18 52 19 53 23 54
REMARK SMILES IDX 20 56 22 59 21 62 26 67 32 70
REMARK H PARENT 10 2 10 3 4 9 5 12 35 15 7 17 8 18 2 20 1 22 1 23 1 24 11 26
REMARK H PARENT 11 27 12 31 13 33 13 34 33 36 14 37 31 38 34 40 16 45 28 51
REMARK H PARENT 18 55 19 57 19 58 23 60 23 61 20 63 20 64 22 65 22 66 26 68
REMARK H PARENT 26 69 32 71
REMARK Flexibility Score: inf
ROOT
ATOM      1  C   UNL     1     -45.991  34.386  26.356  1.00  0.00    -0.027 C 
ATOM      2  H   UNL     1     -45.015  33.992  26.053  1.00  0.00     0.032 H 
ATOM      3  H   UNL     1     -46.075  35.378  25.896  1.00  0.00     0.032 H 
ENDROOT
BRANCH   1   4
ATOM      4  C   UNL     1     -47.074  33.502  25.788  1.00  0.00    -0.046 A 
ATOM      5  C   UNL     1     -48.411  30.296  22.516  1.00  0.00     0.126 A 
ATOM      6  C   UNL     1     -49.705  30.249  23.026  1.00  0.00    -0.019 A 
ATOM      7  N   UNL     1     -47.464  31.084  23.066  1.00  0.00    -0.231 NA
ATOM      8  C   UNL     1     -50.040  31.046  24.116  1.00  0.00    -0.049 A 
ATOM      9  H   UNL     1     -50.444  29.586  22.589  1.00  0.00     0.066 H 
ATOM     10  C   UNL     1     -47.781  31.856  24.122  1.00  0.00     0.073 A 
ATOM     11  C   UNL     1     -49.071  31.874  24.686  1.00  0.00     0.000 A 
ATOM     12  H   UNL     1     -51.049  31.009  24.515  1.00  0.00     0.063 H 
ATOM     13  C   UNL     1     -46.809  32.672  24.685  1.00  0.00    -0.033 A 
ATOM     14  C   UNL     1     -49.354  32.701  25.786  1.00  0.00    -0.053 A 
ATOM     15  H   UNL     1     -45.814  32.655  24.246  1.00  0.00     0.065 H 
ATOM     16  C   UNL     1     -48.360  33.512  26.331  1.00  0.00    -0.058 A 
ATOM     17  H   UNL     1     -50.350  32.716  26.222  1.00  0.00     0.063 H 
ATOM     18  H   UNL     1     -48.596  34.149  27.181  1.00  0.00     0.063 H 
BRANCH   5  19
ATOM     19  N   UNL     1     -48.102  29.456  21.431  1.00  0.00    -0.373 N 
ATOM     20  H   UNL     1     -47.838  28.543  21.789  1.00  0.00     0.161 HD
BRANCH  19  21
ATOM     21  C   UNL     1     -49.154  29.361  20.432  1.00  0.00     0.005 C 
ATOM     22  H   UNL     1     -49.778  28.474  20.585  1.00  0.00     0.045 H 
ATOM     23  H   UNL     1     -48.696  29.275  19.442  1.00  0.00     0.045 H 
ATOM     24  H   UNL     1     -49.783  30.259  20.423  1.00  0.00     0.045 H 
ENDBRANCH  19  21
ENDBRANCH   5  19
ENDBRANCH   1   4
BRANCH   1  25
ATOM     25  C   UNL     1     -46.098  34.485  27.883  1.00  0.00    -0.044 C 
ATOM     26  H   UNL     1     -47.145  34.333  28.175  1.00  0.00     0.027 H 
ATOM     27  H   UNL     1     -45.537  33.658  28.339  1.00  0.00     0.027 H 
BRANCH  25  28
ATOM     28  C   UNL     1     -45.608  35.799  28.507  1.00  0.00    -0.010 C 
ATOM     29  C   UNL     1     -45.620  37.003  27.560  1.00  0.00    -0.024 C 
ATOM     30  C   UNL     1     -46.405  36.298  29.713  1.00  0.00     0.085 C 
ATOM     31  H   UNL     1     -44.570  35.620  28.824  1.00  0.00     0.033 H 
ATOM     32  C   UNL     1     -45.569  38.239  28.484  1.00  0.00     0.064 C 
ATOM     33  H   UNL     1     -46.506  37.010  26.919  1.00  0.00     0.029 H 
ATOM     34  H   UNL     1     -44.752  36.981  26.891  1.00  0.00     0.029 H 
ATOM     35  C   UNL     1     -45.896  37.735  29.903  1.00  0.00     0.101 C 
ATOM     36  H   UNL     1     -47.482  36.302  29.530  1.00  0.00     0.063 H 
ATOM     37  H   UNL     1     -44.542  38.629  28.471  1.00  0.00     0.056 H 
ATOM     38  H   UNL     1     -46.613  38.353  30.452  1.00  0.00     0.065 H 
BRANCH  30  39
ATOM     39  O   UNL     1     -46.137  35.525  30.879  1.00  0.00    -0.390 OA
ATOM     40  H   UNL     1     -45.702  36.112  31.523  1.00  0.00     0.211 HD
ENDBRANCH  30  39
BRANCH  32  41
ATOM     41  N   UNL     1     -46.423  39.331  28.036  1.00  0.00    -0.326 N 
ATOM     42  C   UNL     1     -47.739  39.474  28.384  1.00  0.00     0.010 A 
ATOM     43  C   UNL     1     -46.057  40.365  27.214  1.00  0.00     0.146 A 
ATOM     44  C   UNL     1     -48.247  40.614  27.780  1.00  0.00    -0.014 A 
ATOM     45  H   UNL     1     -48.222  38.751  29.031  1.00  0.00     0.082 H 
ATOM     46  C   UNL     1     -47.162  41.197  27.025  1.00  0.00     0.065 A 
ATOM     47  N   UNL     1     -44.827  40.524  26.695  1.00  0.00    -0.218 NA
ATOM     48  C   UNL     1     -46.940  42.314  26.192  1.00  0.00     0.136 A 
ATOM     49  C   UNL     1     -44.746  41.617  25.929  1.00  0.00     0.120 A 
ATOM     50  N   UNL     1     -45.714  42.505  25.659  1.00  0.00    -0.219 NA
ATOM     51  H   UNL     1     -43.782  41.812  25.469  1.00  0.00     0.106 H 
BRANCH  44  52
ATOM     52  C   UNL     1     -49.677  41.063  27.959  1.00  0.00    -0.010 C 
ATOM     53  C   UNL     1     -49.842  42.229  28.939  1.00  0.00    -0.023 C 
ATOM     54  C   UNL     1     -50.629  39.899  28.258  1.00  0.00    -0.023 C 
ATOM     55  H   UNL     1     -50.001  41.460  26.983  1.00  0.00     0.035 H 
ATOM     56  C   UNL     1     -51.313  42.564  29.137  1.00  0.00     0.047 C 
ATOM     57  H   UNL     1     -49.303  43.113  28.578  1.00  0.00     0.030 H 
ATOM     58  H   UNL     1     -49.413  41.983  29.912  1.00  0.00     0.030 H 
ATOM     59  C   UNL     1     -52.041  40.406  28.505  1.00  0.00     0.047 C 
ATOM     60  H   UNL     1     -50.632  39.183  27.428  1.00  0.00     0.030 H 
ATOM     61  H   UNL     1     -50.294  39.344  29.140  1.00  0.00     0.030 H 
ATOM     62  O   UNL     1     -52.044  41.402  29.525  1.00  0.00    -0.381 OA
ATOM     63  H   UNL     1     -51.421  43.310  29.933  1.00  0.00     0.057 H 
ATOM     64  H   UNL     1     -51.753  42.989  28.228  1.00  0.00     0.057 H 
ATOM     65  H   UNL     1     -52.486  40.815  27.590  1.00  0.00     0.057 H 
ATOM     66  H   UNL     1     -52.680  39.581  28.840  1.00  0.00     0.057 H 
ENDBRANCH  44  52
BRANCH  48  67
ATOM     67  N   UNL     1     -47.876  43.273  25.850  1.00  0.00    -0.383 N 
ATOM     68  H   UNL     1     -47.789  44.094  26.438  1.00  0.00     0.158 HD
ATOM     69  H   UNL     1     -48.811  42.957  25.657  1.00  0.00     0.158 HD
ENDBRANCH  48  67
ENDBRANCH  32  41
BRANCH  35  70
ATOM     70  O   UNL     1     -44.689  37.705  30.685  1.00  0.00    -0.388 OA
ATOM     71  H   UNL     1     -45.003  37.653  31.612  1.00  0.00     0.211 HD
ENDBRANCH  35  70
ENDBRANCH  25  28
ENDBRANCH   1  25
TORSDOF 10
ENDMDL
MODEL 7
REMARK VINA RESULT:      -9.6      2.517     11.325
REMARK SMILES CNc1ccc2ccc(CC[C@H]3C[C@@H](n4cc(C5CCOCC5)c5c(N)ncnc54)[C@H](O)[C@@H]3O)cc2n1
REMARK SMILES IDX 10 1 9 4 3 5 4 6 37 7 5 8 36 10 6 11 35 13 7 14 8 16 2 19
REMARK SMILES IDX 1 21 11 25 12 28 13 29 33 30 14 32 31 35 34 39 15 41 16 42
REMARK SMILES IDX 30 43 17 44 24 46 29 47 25 48 28 49 27 50 18 52 19 53 23 54
REMARK SMILES IDX 20 56 22 59 21 62 26 67 32 70
REMARK H PARENT 10 2 10 3 4 9 5 12 35 15 7 17 8 18 2 20 1 22 1 23 1 24 11 26
REMARK H PARENT 11 27 12 31 13 33 13 34 33 36 14 37 31 38 34 40 16 45 28 51
REMARK H PARENT 18 55 19 57 19 58 23 60 23 61 20 63 20 64 22 65 22 66 26 68
REMARK H PARENT 26 69 32 71
REMARK Flexibility Score: inf
ROOT
ATOM      1  C   UNL     1     -46.212  33.865  25.609  1.00  0.00    -0.027 C 
ATOM      2  H   UNL     1     -45.259  33.815  25.072  1.00  0.00     0.032 H 
ATOM      3  H   UNL     1     -46.717  34.769  25.249  1.00  0.00     0.032 H 
ENDROOT
BRANCH   1   4
ATOM      4  C   UNL     1     -47.049  32.667  25.233  1.00  0.00    -0.046 A 
ATOM      5  C   UNL     1     -48.600  29.687  21.845  1.00  0.00     0.126 A 
ATOM      6  C   UNL     1     -49.371  28.976  22.759  1.00  0.00    -0.019 A 
ATOM      7  N   UNL     1     -47.847  30.740  22.224  1.00  0.00    -0.231 NA
ATOM      8  C   UNL     1     -49.386  29.371  24.094  1.00  0.00    -0.049 A 
ATOM      9  H   UNL     1     -49.946  28.113  22.440  1.00  0.00     0.066 H 
ATOM     10  C   UNL     1     -47.856  31.125  23.513  1.00  0.00     0.073 A 
ATOM     11  C   UNL     1     -48.620  30.467  24.495  1.00  0.00     0.000 A 
ATOM     12  H   UNL     1     -49.987  28.816  24.808  1.00  0.00     0.063 H 
ATOM     13  C   UNL     1     -47.086  32.213  23.904  1.00  0.00    -0.033 A 
ATOM     14  C   UNL     1     -48.598  30.910  25.828  1.00  0.00    -0.053 A 
ATOM     15  H   UNL     1     -46.497  32.719  23.142  1.00  0.00     0.065 H 
ATOM     16  C   UNL     1     -47.819  32.006  26.193  1.00  0.00    -0.058 A 
ATOM     17  H   UNL     1     -49.189  30.402  26.587  1.00  0.00     0.063 H 
ATOM     18  H   UNL     1     -47.816  32.339  27.229  1.00  0.00     0.063 H 
BRANCH   5  19
ATOM     19  N   UNL     1     -48.589  29.241  20.510  1.00  0.00    -0.373 N 
ATOM     20  H   UNL     1     -47.669  28.867  20.297  1.00  0.00     0.161 HD
BRANCH  19  21
ATOM     21  C   UNL     1     -49.645  28.297  20.188  1.00  0.00     0.005 C 
ATOM     22  H   UNL     1     -50.572  28.529  20.723  1.00  0.00     0.045 H 
ATOM     23  H   UNL     1     -49.330  27.294  20.494  1.00  0.00     0.045 H 
ATOM     24  H   UNL     1     -49.839  28.262  19.110  1.00  0.00     0.045 H 
ENDBRANCH  19  21
ENDBRANCH   5  19
ENDBRANCH   1   4
BRANCH   1  25
ATOM     25  C   UNL     1     -45.991  33.935  27.125  1.00  0.00    -0.044 C 
ATOM     26  H   UNL     1     -46.405  33.029  27.586  1.00  0.00     0.027 H 
ATOM     27  H   UNL     1     -44.913  33.912  27.335  1.00  0.00     0.027 H 
BRANCH  25  28
ATOM     28  C   UNL     1     -46.592  35.156  27.835  1.00  0.00    -0.010 C 
ATOM     29  C   UNL     1     -45.568  36.190  28.313  1.00  0.00    -0.024 C 
ATOM     30  C   UNL     1     -47.569  35.991  27.006  1.00  0.00     0.085 C 
ATOM     31  H   UNL     1     -47.125  34.767  28.716  1.00  0.00     0.033 H 
ATOM     32  C   UNL     1     -46.380  37.485  28.533  1.00  0.00     0.064 C 
ATOM     33  H   UNL     1     -44.763  36.334  27.586  1.00  0.00     0.029 H 
ATOM     34  H   UNL     1     -45.092  35.865  29.244  1.00  0.00     0.029 H 
ATOM     35  C   UNL     1     -47.740  37.268  27.842  1.00  0.00     0.101 C 
ATOM     36  H   UNL     1     -47.173  36.238  26.019  1.00  0.00     0.063 H 
ATOM     37  H   UNL     1     -46.542  37.602  29.613  1.00  0.00     0.056 H 
ATOM     38  H   UNL     1     -48.082  38.111  27.234  1.00  0.00     0.065 H 
BRANCH  30  39
ATOM     39  O   UNL     1     -48.824  35.335  26.850  1.00  0.00    -0.390 OA
ATOM     40  H   UNL     1     -48.828  34.569  27.450  1.00  0.00     0.211 HD
ENDBRANCH  30  39
BRANCH  32  41
ATOM     41  N   UNL     1     -45.683  38.686  28.096  1.00  0.00    -0.326 N 
ATOM     42  C   UNL     1     -46.038  39.429  27.003  1.00  0.00     0.010 A 
ATOM     43  C   UNL     1     -44.585  39.252  28.692  1.00  0.00     0.146 A 
ATOM     44  C   UNL     1     -45.160  40.496  26.875  1.00  0.00    -0.014 A 
ATOM     45  H   UNL     1     -46.885  39.144  26.391  1.00  0.00     0.082 H 
ATOM     46  C   UNL     1     -44.221  40.388  27.967  1.00  0.00     0.065 A 
ATOM     47  N   UNL     1     -43.985  38.769  29.793  1.00  0.00    -0.218 NA
ATOM     48  C   UNL     1     -43.097  41.083  28.462  1.00  0.00     0.136 A 
ATOM     49  C   UNL     1     -42.938  39.516  30.160  1.00  0.00     0.120 A 
ATOM     50  N   UNL     1     -42.474  40.626  29.569  1.00  0.00    -0.219 NA
ATOM     51  H   UNL     1     -42.397  39.186  31.041  1.00  0.00     0.106 H 
BRANCH  44  52
ATOM     52  C   UNL     1     -45.272  41.515  25.767  1.00  0.00    -0.010 C 
ATOM     53  C   UNL     1     -43.988  41.684  24.950  1.00  0.00    -0.023 C 
ATOM     54  C   UNL     1     -45.848  42.852  26.249  1.00  0.00    -0.023 C 
ATOM     55  H   UNL     1     -46.015  41.118  25.056  1.00  0.00     0.035 H 
ATOM     56  C   UNL     1     -44.147  42.789  23.915  1.00  0.00     0.047 C 
ATOM     57  H   UNL     1     -43.722  40.743  24.454  1.00  0.00     0.030 H 
ATOM     58  H   UNL     1     -43.146  41.940  25.596  1.00  0.00     0.030 H 
ATOM     59  C   UNL     1     -45.872  43.869  25.119  1.00  0.00     0.047 C 
ATOM     60  H   UNL     1     -46.862  42.712  26.644  1.00  0.00     0.030 H 
ATOM     61  H   UNL     1     -45.251  43.254  27.073  1.00  0.00     0.030 H 
ATOM     62  O   UNL     1     -44.577  43.999  24.536  1.00  0.00    -0.381 OA
ATOM     63  H   UNL     1     -43.186  42.985  23.428  1.00  0.00     0.057 H 
ATOM     64  H   UNL     1     -44.860  42.504  23.132  1.00  0.00     0.057 H 
ATOM     65  H   UNL     1     -46.597  43.591  24.345  1.00  0.00     0.057 H 
ATOM     66  H   UNL     1     -46.165  44.850  25.507  1.00  0.00     0.057 H 
ENDBRANCH  44  52
BRANCH  48  67
ATOM     67  N   UNL     1     -42.542  42.227  27.916  1.00  0.00    -0.383 N 
ATOM     68  H   UNL     1     -42.688  43.027  28.519  1.00  0.00     0.158 HD
ATOM     69  H   UNL     1     -42.675  42.379  26.930  1.00  0.00     0.158 HD
ENDBRANCH  48  67
ENDBRANCH  32  41
BRANCH  35  70
ATOM     70  O   UNL     1     -48.749  37.042  28.843  1.00  0.00    -0.388 OA
ATOM     71  H   UNL     1     -49.414  37.743  28.679  1.00  0.00     0.211 HD
ENDBRANCH  35  70
ENDBRANCH  25  28
ENDBRANCH   1  25
TORSDOF 10
ENDMDL
