MODEL 1
REMARK VINA RESULT:      -8.7      0.000      0.000
REMARK SMILES CCc1cc(NCCCN(C)C)c2ccc(OCc3cncc(-n4cc(-c5ccn(C)n5)c5c(N)ncnc54)c3)cc2n1
REMARK SMILES IDX 3 1 4 2 5 3 13 4 14 5 15 6 16 7 41 8 42 9 43 10 2 15 1 18
REMARK SMILES IDX 6 22 7 24 8 27 9 30 10 33 11 34 12 38 17 42 18 43 19 46
REMARK SMILES IDX 20 47 40 48 21 49 23 51 22 53 24 55 25 56 39 57 26 58 33 60
REMARK SMILES IDX 38 61 34 62 37 63 36 64 27 66 28 67 32 68 29 69 30 71 31 73
REMARK SMILES IDX 35 77
REMARK H PARENT 4 11 14 12 15 13 41 14 2 16 2 17 1 19 1 20 1 21 6 23 7 25 7 26
REMARK H PARENT 8 28 8 29 9 31 9 32 11 35 11 36 11 37 12 39 12 40 12 41 18 44
REMARK H PARENT 18 45 20 50 40 52 22 54 25 59 37 65 28 70 29 72 31 74 31 75
REMARK H PARENT 31 76 35 78 35 79
REMARK Flexibility Score: inf
ROOT
ATOM      1  C   UNL     1     -46.551  31.139  22.054  1.00  0.00     0.043 A 
ATOM      2  C   UNL     1     -47.676  30.329  21.967  1.00  0.00    -0.017 A 
ATOM      3  C   UNL     1     -48.664  30.398  22.952  1.00  0.00     0.045 A 
ATOM      4  C   UNL     1     -48.422  31.242  24.076  1.00  0.00     0.024 A 
ATOM      5  C   UNL     1     -49.280  31.344  25.199  1.00  0.00    -0.047 A 
ATOM      6  C   UNL     1     -49.006  32.212  26.259  1.00  0.00    -0.019 A 
ATOM      7  C   UNL     1     -47.864  32.997  26.225  1.00  0.00     0.122 A 
ATOM      8  C   UNL     1     -47.008  32.896  25.127  1.00  0.00     0.007 A 
ATOM      9  C   UNL     1     -47.254  32.035  24.066  1.00  0.00     0.076 A 
ATOM     10  N   UNL     1     -46.353  31.999  23.074  1.00  0.00    -0.253 NA
ATOM     11  H   UNL     1     -47.768  29.656  21.124  1.00  0.00     0.066 H 
ATOM     12  H   UNL     1     -50.178  30.737  25.268  1.00  0.00     0.063 H 
ATOM     13  H   UNL     1     -49.716  32.251  27.079  1.00  0.00     0.066 H 
ATOM     14  H   UNL     1     -46.108  33.508  25.099  1.00  0.00     0.069 H 
ENDROOT
BRANCH   1  15
ATOM     15  C   UNL     1     -45.502  31.110  20.974  1.00  0.00    -0.013 C 
ATOM     16  H   UNL     1     -44.581  31.570  21.353  1.00  0.00     0.033 H 
ATOM     17  H   UNL     1     -45.252  30.073  20.724  1.00  0.00     0.033 H 
BRANCH  15  18
ATOM     18  C   UNL     1     -45.962  31.853  19.729  1.00  0.00    -0.060 C 
ATOM     19  H   UNL     1     -45.839  32.936  19.846  1.00  0.00     0.023 H 
ATOM     20  H   UNL     1     -45.375  31.535  18.861  1.00  0.00     0.023 H 
ATOM     21  H   UNL     1     -47.018  31.657  19.515  1.00  0.00     0.023 H 
ENDBRANCH  15  18
ENDBRANCH   1  15
BRANCH   3  22
ATOM     22  N   UNL     1     -49.801  29.574  22.907  1.00  0.00    -0.384 N 
ATOM     23  H   UNL     1     -50.610  30.044  22.508  1.00  0.00     0.160 HD
BRANCH  22  24
ATOM     24  C   UNL     1     -49.748  28.198  22.412  1.00  0.00     0.016 C 
ATOM     25  H   UNL     1     -48.791  28.073  21.892  1.00  0.00     0.049 H 
ATOM     26  H   UNL     1     -50.514  28.025  21.647  1.00  0.00     0.049 H 
BRANCH  24  27
ATOM     27  C   UNL     1     -49.858  27.150  23.524  1.00  0.00    -0.023 C 
ATOM     28  H   UNL     1     -49.945  26.159  23.061  1.00  0.00     0.030 H 
ATOM     29  H   UNL     1     -50.792  27.299  24.080  1.00  0.00     0.030 H 
BRANCH  27  30
ATOM     30  C   UNL     1     -48.703  27.152  24.536  1.00  0.00    -0.001 C 
ATOM     31  H   UNL     1     -48.554  28.175  24.905  1.00  0.00     0.043 H 
ATOM     32  H   UNL     1     -47.785  26.894  23.989  1.00  0.00     0.043 H 
BRANCH  30  33
ATOM     33  N   UNL     1     -48.873  26.215  25.659  1.00  0.00    -0.309 NA
BRANCH  33  34
ATOM     34  C   UNL     1     -50.288  25.979  25.959  1.00  0.00    -0.014 C 
ATOM     35  H   UNL     1     -50.658  25.051  25.508  1.00  0.00     0.039 H 
ATOM     36  H   UNL     1     -50.461  25.933  27.039  1.00  0.00     0.039 H 
ATOM     37  H   UNL     1     -50.901  26.809  25.590  1.00  0.00     0.039 H 
ENDBRANCH  33  34
BRANCH  33  38
ATOM     38  C   UNL     1     -48.201  26.739  26.853  1.00  0.00    -0.014 C 
ATOM     39  H   UNL     1     -48.901  26.806  27.692  1.00  0.00     0.039 H 
ATOM     40  H   UNL     1     -47.768  27.731  26.682  1.00  0.00     0.039 H 
ATOM     41  H   UNL     1     -47.399  26.062  27.172  1.00  0.00     0.039 H 
ENDBRANCH  33  38
ENDBRANCH  30  33
ENDBRANCH  27  30
ENDBRANCH  24  27
ENDBRANCH  22  24
ENDBRANCH   3  22
BRANCH   7  42
ATOM     42  O   UNL     1     -47.476  33.905  27.171  1.00  0.00    -0.489 OA
BRANCH  42  43
ATOM     43  C   UNL     1     -46.190  34.518  27.049  1.00  0.00     0.115 C 
ATOM     44  H   UNL     1     -46.061  34.756  25.986  1.00  0.00     0.076 H 
ATOM     45  H   UNL     1     -45.394  33.804  27.301  1.00  0.00     0.076 H 
BRANCH  43  46
ATOM     46  C   UNL     1     -46.060  35.807  27.819  1.00  0.00     0.010 A 
ATOM     47  C   UNL     1     -45.986  35.781  29.204  1.00  0.00     0.034 A 
ATOM     48  C   UNL     1     -45.953  37.057  27.191  1.00  0.00    -0.028 A 
ATOM     49  N   UNL     1     -45.847  36.880  29.971  1.00  0.00    -0.262 NA
ATOM     50  H   UNL     1     -46.038  34.848  29.760  1.00  0.00     0.084 H 
ATOM     51  C   UNL     1     -45.811  38.229  27.949  1.00  0.00     0.066 A 
ATOM     52  H   UNL     1     -45.977  37.078  26.105  1.00  0.00     0.065 H 
ATOM     53  C   UNL     1     -45.765  38.076  29.330  1.00  0.00     0.051 A 
ATOM     54  H   UNL     1     -45.674  38.905  30.021  1.00  0.00     0.086 H 
BRANCH  51  55
ATOM     55  N   UNL     1     -45.724  39.513  27.320  1.00  0.00    -0.299 N 
ATOM     56  C   UNL     1     -44.563  40.070  26.817  1.00  0.00     0.021 A 
ATOM     57  C   UNL     1     -46.752  40.433  27.087  1.00  0.00     0.150 A 
ATOM     58  C   UNL     1     -44.835  41.318  26.301  1.00  0.00     0.033 A 
ATOM     59  H   UNL     1     -43.613  39.556  26.848  1.00  0.00     0.083 H 
ATOM     60  C   UNL     1     -46.227  41.547  26.429  1.00  0.00     0.071 A 
ATOM     61  N   UNL     1     -48.045  40.287  27.441  1.00  0.00    -0.218 NA
ATOM     62  C   UNL     1     -47.141  42.553  26.066  1.00  0.00     0.137 A 
ATOM     63  C   UNL     1     -48.808  41.322  27.076  1.00  0.00     0.120 A 
ATOM     64  N   UNL     1     -48.434  42.422  26.408  1.00  0.00    -0.219 NA
ATOM     65  H   UNL     1     -49.858  41.262  27.345  1.00  0.00     0.106 H 
BRANCH  58  66
ATOM     66  C   UNL     1     -43.840  42.214  25.719  1.00  0.00     0.095 A 
ATOM     67  C   UNL     1     -42.658  42.650  26.354  1.00  0.00    -0.016 A 
ATOM     68  N   UNL     1     -43.932  42.670  24.465  1.00  0.00    -0.173 NA
ATOM     69  C   UNL     1     -42.022  43.431  25.418  1.00  0.00     0.025 A 
ATOM     70  H   UNL     1     -42.312  42.419  27.352  1.00  0.00     0.066 H 
ATOM     71  N   UNL     1     -42.816  43.405  24.309  1.00  0.00    -0.275 N 
ATOM     72  H   UNL     1     -41.089  43.974  25.445  1.00  0.00     0.084 H 
BRANCH  71  73
ATOM     73  C   UNL     1     -42.568  44.058  23.046  1.00  0.00     0.030 C 
ATOM     74  H   UNL     1     -43.334  43.736  22.336  1.00  0.00     0.048 H 
ATOM     75  H   UNL     1     -42.616  45.141  23.181  1.00  0.00     0.048 H 
ATOM     76  H   UNL     1     -41.573  43.768  22.699  1.00  0.00     0.048 H 
ENDBRANCH  71  73
ENDBRANCH  58  66
BRANCH  62  77
ATOM     77  N   UNL     1     -46.818  43.686  25.330  1.00  0.00    -0.383 N 
ATOM     78  H   UNL     1     -46.708  43.439  24.354  1.00  0.00     0.158 HD
ATOM     79  H   UNL     1     -46.059  44.229  25.726  1.00  0.00     0.158 HD
ENDBRANCH  62  77
ENDBRANCH  51  55
ENDBRANCH  43  46
ENDBRANCH  42  43
ENDBRANCH   7  42
TORSDOF 16
ENDMDL
MODEL 2
REMARK VINA RESULT:      -8.7      1.953     12.896
REMARK SMILES CCc1cc(NCCCN(C)C)c2ccc(OCc3cncc(-n4cc(-c5ccn(C)n5)c5c(N)ncnc54)c3)cc2n1
REMARK SMILES IDX 3 1 4 2 5 3 13 4 14 5 15 6 16 7 41 8 42 9 43 10 2 15 1 18
REMARK SMILES IDX 6 22 7 24 8 27 9 30 10 33 11 34 12 38 17 42 18 43 19 46
REMARK SMILES IDX 20 47 40 48 21 49 23 51 22 53 24 55 25 56 39 57 26 58 33 60
REMARK SMILES IDX 38 61 34 62 37 63 36 64 27 66 28 67 32 68 29 69 30 71 31 73
REMARK SMILES IDX 35 77
REMARK H PARENT 4 11 14 12 15 13 41 14 2 16 2 17 1 19 1 20 1 21 6 23 7 25 7 26
REMARK H PARENT 8 28 8 29 9 31 9 32 11 35 11 36 11 37 12 39 12 40 12 41 18 44
REMARK H PARENT 18 45 20 50 40 52 22 54 25 59 37 65 28 70 29 72 31 74 31 75
REMARK H PARENT 31 76 35 78 35 79
REMARK Flexibility Score: inf
ROOT
ATOM      1  C   UNL     1     -43.410  41.494  27.717  1.00  0.00     0.043 A 
ATOM      2  C   UNL     1     -44.274  42.220  26.908  1.00  0.00    -0.017 A 
ATOM      3  C   UNL     1     -45.454  41.633  26.444  1.00  0.00     0.045 A 
ATOM      4  C   UNL     1     -45.673  40.257  26.746  1.00  0.00     0.024 A 
ATOM      5  C   UNL     1     -46.770  39.498  26.267  1.00  0.00    -0.047 A 
ATOM      6  C   UNL     1     -46.951  38.159  26.622  1.00  0.00    -0.019 A 
ATOM      7  C   UNL     1     -46.036  37.543  27.462  1.00  0.00     0.122 A 
ATOM      8  C   UNL     1     -44.948  38.280  27.932  1.00  0.00     0.007 A 
ATOM      9  C   UNL     1     -44.742  39.609  27.587  1.00  0.00     0.076 A 
ATOM     10  N   UNL     1     -43.650  40.215  28.074  1.00  0.00    -0.253 NA
ATOM     11  H   UNL     1     -44.015  43.240  26.654  1.00  0.00     0.066 H 
ATOM     12  H   UNL     1     -47.501  39.941  25.597  1.00  0.00     0.063 H 
ATOM     13  H   UNL     1     -47.822  37.644  26.231  1.00  0.00     0.066 H 
ATOM     14  H   UNL     1     -44.226  37.799  28.589  1.00  0.00     0.069 H 
ENDROOT
BRANCH   1  15
ATOM     15  C   UNL     1     -42.159  42.129  28.264  1.00  0.00    -0.013 C 
ATOM     16  H   UNL     1     -41.465  42.329  27.439  1.00  0.00     0.033 H 
ATOM     17  H   UNL     1     -42.398  43.100  28.712  1.00  0.00     0.033 H 
BRANCH  15  18
ATOM     18  C   UNL     1     -41.479  41.233  29.288  1.00  0.00    -0.060 C 
ATOM     19  H   UNL     1     -40.890  40.449  28.800  1.00  0.00     0.023 H 
ATOM     20  H   UNL     1     -40.805  41.822  29.918  1.00  0.00     0.023 H 
ATOM     21  H   UNL     1     -42.212  40.745  29.939  1.00  0.00     0.023 H 
ENDBRANCH  15  18
ENDBRANCH   1  15
BRANCH   3  22
ATOM     22  N   UNL     1     -46.336  42.331  25.602  1.00  0.00    -0.384 N 
ATOM     23  H   UNL     1     -46.811  41.722  24.941  1.00  0.00     0.160 HD
BRANCH  22  24
ATOM     24  C   UNL     1     -47.284  43.321  26.114  1.00  0.00     0.016 C 
ATOM     25  H   UNL     1     -47.238  43.283  27.209  1.00  0.00     0.049 H 
ATOM     26  H   UNL     1     -48.315  43.046  25.862  1.00  0.00     0.049 H 
BRANCH  24  27
ATOM     27  C   UNL     1     -46.982  44.748  25.646  1.00  0.00    -0.023 C 
ATOM     28  H   UNL     1     -46.237  45.186  26.321  1.00  0.00     0.030 H 
ATOM     29  H   UNL     1     -47.880  45.369  25.754  1.00  0.00     0.030 H 
BRANCH  27  30
ATOM     30  C   UNL     1     -46.500  44.867  24.192  1.00  0.00    -0.001 C 
ATOM     31  H   UNL     1     -46.633  45.903  23.856  1.00  0.00     0.043 H 
ATOM     32  H   UNL     1     -47.174  44.261  23.571  1.00  0.00     0.043 H 
BRANCH  30  33
ATOM     33  N   UNL     1     -45.113  44.424  23.972  1.00  0.00    -0.309 NA
BRANCH  33  34
ATOM     34  C   UNL     1     -44.145  45.407  24.465  1.00  0.00    -0.014 C 
ATOM     35  H   UNL     1     -43.157  44.964  24.638  1.00  0.00     0.039 H 
ATOM     36  H   UNL     1     -44.034  46.239  23.764  1.00  0.00     0.039 H 
ATOM     37  H   UNL     1     -44.493  45.848  25.406  1.00  0.00     0.039 H 
ENDBRANCH  33  34
BRANCH  33  38
ATOM     38  C   UNL     1     -44.886  44.189  22.542  1.00  0.00    -0.014 C 
ATOM     39  H   UNL     1     -45.575  44.788  21.938  1.00  0.00     0.039 H 
ATOM     40  H   UNL     1     -45.013  43.134  22.270  1.00  0.00     0.039 H 
ATOM     41  H   UNL     1     -43.874  44.500  22.256  1.00  0.00     0.039 H 
ENDBRANCH  33  38
ENDBRANCH  30  33
ENDBRANCH  27  30
ENDBRANCH  24  27
ENDBRANCH  22  24
ENDBRANCH   3  22
BRANCH   7  42
ATOM     42  O   UNL     1     -46.091  36.253  27.915  1.00  0.00    -0.489 OA
BRANCH  42  43
ATOM     43  C   UNL     1     -45.926  35.188  26.976  1.00  0.00     0.115 C 
ATOM     44  H   UNL     1     -45.212  34.488  27.426  1.00  0.00     0.076 H 
ATOM     45  H   UNL     1     -45.457  35.552  26.053  1.00  0.00     0.076 H 
BRANCH  43  46
ATOM     46  C   UNL     1     -47.196  34.422  26.702  1.00  0.00     0.010 A 
ATOM     47  C   UNL     1     -48.426  35.017  26.940  1.00  0.00     0.034 A 
ATOM     48  C   UNL     1     -47.199  33.130  26.157  1.00  0.00    -0.028 A 
ATOM     49  N   UNL     1     -49.610  34.417  26.705  1.00  0.00    -0.262 NA
ATOM     50  H   UNL     1     -48.504  36.025  27.340  1.00  0.00     0.084 H 
ATOM     51  C   UNL     1     -48.407  32.466  25.898  1.00  0.00     0.066 A 
ATOM     52  H   UNL     1     -46.237  32.674  25.938  1.00  0.00     0.065 H 
ATOM     53  C   UNL     1     -49.576  33.159  26.193  1.00  0.00     0.051 A 
ATOM     54  H   UNL     1     -50.567  32.746  26.053  1.00  0.00     0.086 H 
BRANCH  51  55
ATOM     55  N   UNL     1     -48.423  31.137  25.362  1.00  0.00    -0.299 N 
ATOM     56  C   UNL     1     -48.647  29.989  26.100  1.00  0.00     0.021 A 
ATOM     57  C   UNL     1     -48.228  30.737  24.036  1.00  0.00     0.150 A 
ATOM     58  C   UNL     1     -48.573  28.888  25.276  1.00  0.00     0.033 A 
ATOM     59  H   UNL     1     -48.848  30.013  27.162  1.00  0.00     0.083 H 
ATOM     60  C   UNL     1     -48.347  29.348  23.955  1.00  0.00     0.071 A 
ATOM     61  N   UNL     1     -47.961  31.548  22.992  1.00  0.00    -0.218 NA
ATOM     62  C   UNL     1     -48.235  28.779  22.674  1.00  0.00     0.137 A 
ATOM     63  C   UNL     1     -47.839  30.890  21.834  1.00  0.00     0.120 A 
ATOM     64  N   UNL     1     -47.971  29.573  21.621  1.00  0.00    -0.219 NA
ATOM     65  H   UNL     1     -47.613  31.493  20.961  1.00  0.00     0.106 H 
BRANCH  58  66
ATOM     66  C   UNL     1     -48.721  27.504  25.718  1.00  0.00     0.095 A 
ATOM     67  C   UNL     1     -49.937  26.795  25.797  1.00  0.00    -0.016 A 
ATOM     68  N   UNL     1     -47.673  26.739  26.042  1.00  0.00    -0.173 NA
ATOM     69  C   UNL     1     -49.582  25.533  26.215  1.00  0.00     0.025 A 
ATOM     70  H   UNL     1     -50.934  27.149  25.572  1.00  0.00     0.066 H 
ATOM     71  N   UNL     1     -48.224  25.549  26.339  1.00  0.00    -0.275 N 
ATOM     72  H   UNL     1     -50.169  24.647  26.413  1.00  0.00     0.084 H 
BRANCH  71  73
ATOM     73  C   UNL     1     -47.373  24.452  26.732  1.00  0.00     0.030 C 
ATOM     74  H   UNL     1     -46.333  24.763  26.610  1.00  0.00     0.048 H 
ATOM     75  H   UNL     1     -47.568  24.196  27.775  1.00  0.00     0.048 H 
ATOM     76  H   UNL     1     -47.597  23.596  26.089  1.00  0.00     0.048 H 
ENDBRANCH  71  73
ENDBRANCH  58  66
BRANCH  62  77
ATOM     77  N   UNL     1     -48.414  27.431  22.388  1.00  0.00    -0.383 N 
ATOM     78  H   UNL     1     -47.779  26.877  22.951  1.00  0.00     0.158 HD
ATOM     79  H   UNL     1     -48.409  27.218  21.397  1.00  0.00     0.158 HD
ENDBRANCH  62  77
ENDBRANCH  51  55
ENDBRANCH  43  46
ENDBRANCH  42  43
ENDBRANCH   7  42
TORSDOF 16
ENDMDL
MODEL 3
REMARK VINA RESULT:      -8.1      1.307      2.113
REMARK SMILES CCc1cc(NCCCN(C)C)c2ccc(OCc3cncc(-n4cc(-c5ccn(C)n5)c5c(N)ncnc54)c3)cc2n1
REMARK SMILES IDX 3 1 4 2 5 3 13 4 14 5 15 6 16 7 41 8 42 9 43 10 2 15 1 18
REMARK SMILES IDX 6 22 7 24 8 27 9 30 10 33 11 34 12 38 17 42 18 43 19 46
REMARK SMILES IDX 20 47 40 48 21 49 23 51 22 53 24 55 25 56 39 57 26 58 33 60
REMARK SMILES IDX 38 61 34 62 37 63 36 64 27 66 28 67 32 68 29 69 30 71 31 73
REMARK SMILES IDX 35 77
REMARK H PARENT 4 11 14 12 15 13 41 14 2 16 2 17 1 19 1 20 1 21 6 23 7 25 7 26
REMARK H PARENT 8 28 8 29 9 31 9 32 11 35 11 36 11 37 12 39 12 40 12 41 18 44
REMARK H PARENT 18 45 20 50 40 52 22 54 25 59 37 65 28 70 29 72 31 74 31 75
REMARK H PARENT 31 76 35 78 35 79
REMARK Flexibility Score: inf
ROOT
ATOM      1  C   UNL     1     -46.303  30.444  22.795  1.00  0.00     0.043 A 
ATOM      2  C   UNL     1     -47.521  29.819  22.561  1.00  0.00    -0.017 A 
ATOM      3  C   UNL     1     -48.673  30.268  23.213  1.00  0.00     0.045 A 
ATOM      4  C   UNL     1     -48.524  31.302  24.183  1.00  0.00     0.024 A 
ATOM      5  C   UNL     1     -49.577  31.795  24.994  1.00  0.00    -0.047 A 
ATOM      6  C   UNL     1     -49.379  32.834  25.908  1.00  0.00    -0.019 A 
ATOM      7  C   UNL     1     -48.122  33.403  26.037  1.00  0.00     0.122 A 
ATOM      8  C   UNL     1     -47.077  32.917  25.249  1.00  0.00     0.007 A 
ATOM      9  C   UNL     1     -47.246  31.881  24.340  1.00  0.00     0.076 A 
ATOM     10  N   UNL     1     -46.169  31.476  23.653  1.00  0.00    -0.253 NA
ATOM     11  H   UNL     1     -47.555  28.990  21.865  1.00  0.00     0.066 H 
ATOM     12  H   UNL     1     -50.573  31.367  24.930  1.00  0.00     0.063 H 
ATOM     13  H   UNL     1     -50.234  33.171  26.484  1.00  0.00     0.066 H 
ATOM     14  H   UNL     1     -46.088  33.359  25.350  1.00  0.00     0.069 H 
ENDROOT
BRANCH   1  15
ATOM     15  C   UNL     1     -45.063  30.002  22.063  1.00  0.00    -0.013 C 
ATOM     16  H   UNL     1     -45.261  30.003  20.984  1.00  0.00     0.033 H 
ATOM     17  H   UNL     1     -44.254  30.721  22.232  1.00  0.00     0.033 H 
BRANCH  15  18
ATOM     18  C   UNL     1     -44.627  28.610  22.494  1.00  0.00    -0.060 C 
ATOM     19  H   UNL     1     -44.155  28.069  21.667  1.00  0.00     0.023 H 
ATOM     20  H   UNL     1     -43.903  28.678  23.313  1.00  0.00     0.023 H 
ATOM     21  H   UNL     1     -45.478  28.015  22.842  1.00  0.00     0.023 H 
ENDBRANCH  15  18
ENDBRANCH   1  15
BRANCH   3  22
ATOM     22  N   UNL     1     -49.915  29.641  23.018  1.00  0.00    -0.384 N 
ATOM     23  H   UNL     1     -50.246  29.718  22.060  1.00  0.00     0.160 HD
BRANCH  22  24
ATOM     24  C   UNL     1     -50.198  28.296  23.521  1.00  0.00     0.016 C 
ATOM     25  H   UNL     1     -50.983  28.388  24.280  1.00  0.00     0.049 H 
ATOM     26  H   UNL     1     -49.332  27.885  24.053  1.00  0.00     0.049 H 
BRANCH  24  27
ATOM     27  C   UNL     1     -50.662  27.327  22.429  1.00  0.00    -0.023 C 
ATOM     28  H   UNL     1     -51.714  27.539  22.201  1.00  0.00     0.030 H 
ATOM     29  H   UNL     1     -50.644  26.301  22.816  1.00  0.00     0.030 H 
BRANCH  27  30
ATOM     30  C   UNL     1     -49.832  27.357  21.137  1.00  0.00    -0.001 C 
ATOM     31  H   UNL     1     -49.512  26.335  20.895  1.00  0.00     0.043 H 
ATOM     32  H   UNL     1     -48.912  27.917  21.350  1.00  0.00     0.043 H 
BRANCH  30  33
ATOM     33  N   UNL     1     -50.516  27.972  19.987  1.00  0.00    -0.309 NA
BRANCH  33  34
ATOM     34  C   UNL     1     -49.841  29.195  19.545  1.00  0.00    -0.014 C 
ATOM     35  H   UNL     1     -48.876  29.339  20.042  1.00  0.00     0.039 H 
ATOM     36  H   UNL     1     -49.676  29.186  18.463  1.00  0.00     0.039 H 
ATOM     37  H   UNL     1     -50.466  30.072  19.748  1.00  0.00     0.039 H 
ENDBRANCH  33  34
BRANCH  33  38
ATOM     38  C   UNL     1     -51.906  28.280  20.339  1.00  0.00    -0.014 C 
ATOM     39  H   UNL     1     -51.963  28.711  21.344  1.00  0.00     0.039 H 
ATOM     40  H   UNL     1     -52.548  27.393  20.306  1.00  0.00     0.039 H 
ATOM     41  H   UNL     1     -52.319  29.032  19.656  1.00  0.00     0.039 H 
ENDBRANCH  33  38
ENDBRANCH  30  33
ENDBRANCH  27  30
ENDBRANCH  24  27
ENDBRANCH  22  24
ENDBRANCH   3  22
BRANCH   7  42
ATOM     42  O   UNL     1     -47.781  34.436  26.866  1.00  0.00    -0.489 OA
BRANCH  42  43
ATOM     43  C   UNL     1     -46.396  34.689  27.114  1.00  0.00     0.115 C 
ATOM     44  H   UNL     1     -45.917  34.778  26.132  1.00  0.00     0.076 H 
ATOM     45  H   UNL     1     -45.926  33.828  27.607  1.00  0.00     0.076 H 
BRANCH  43  46
ATOM     46  C   UNL     1     -46.142  35.976  27.857  1.00  0.00     0.010 A 
ATOM     47  C   UNL     1     -45.955  35.955  29.232  1.00  0.00     0.034 A 
ATOM     48  C   UNL     1     -46.028  37.215  27.209  1.00  0.00    -0.028 A 
ATOM     49  N   UNL     1     -45.701  37.052  29.973  1.00  0.00    -0.262 NA
ATOM     50  H   UNL     1     -46.005  35.029  29.800  1.00  0.00     0.084 H 
ATOM     51  C   UNL     1     -45.768  38.383  27.941  1.00  0.00     0.066 A 
ATOM     52  H   UNL     1     -46.141  37.230  26.128  1.00  0.00     0.065 H 
ATOM     53  C   UNL     1     -45.616  38.238  29.315  1.00  0.00     0.051 A 
ATOM     54  H   UNL     1     -45.429  39.067  29.987  1.00  0.00     0.086 H 
BRANCH  51  55
ATOM     55  N   UNL     1     -45.673  39.658  27.293  1.00  0.00    -0.299 N 
ATOM     56  C   UNL     1     -44.510  40.195  26.772  1.00  0.00     0.021 A 
ATOM     57  C   UNL     1     -46.693  40.585  27.056  1.00  0.00     0.150 A 
ATOM     58  C   UNL     1     -44.773  41.439  26.241  1.00  0.00     0.033 A 
ATOM     59  H   UNL     1     -43.565  39.671  26.803  1.00  0.00     0.083 H 
ATOM     60  C   UNL     1     -46.162  41.685  26.378  1.00  0.00     0.071 A 
ATOM     61  N   UNL     1     -47.984  40.459  27.422  1.00  0.00    -0.218 NA
ATOM     62  C   UNL     1     -47.067  42.695  26.007  1.00  0.00     0.137 A 
ATOM     63  C   UNL     1     -48.740  41.497  27.049  1.00  0.00     0.120 A 
ATOM     64  N   UNL     1     -48.360  42.583  26.362  1.00  0.00    -0.219 NA
ATOM     65  H   UNL     1     -49.788  41.452  27.326  1.00  0.00     0.106 H 
BRANCH  58  66
ATOM     66  C   UNL     1     -43.773  42.316  25.638  1.00  0.00     0.095 A 
ATOM     67  C   UNL     1     -42.592  42.764  26.265  1.00  0.00    -0.016 A 
ATOM     68  N   UNL     1     -43.861  42.740  24.373  1.00  0.00    -0.173 NA
ATOM     69  C   UNL     1     -41.951  43.518  25.310  1.00  0.00     0.025 A 
ATOM     70  H   UNL     1     -42.248  42.558  27.269  1.00  0.00     0.066 H 
ATOM     71  N   UNL     1     -42.742  43.466  24.201  1.00  0.00    -0.275 N 
ATOM     72  H   UNL     1     -41.015  44.058  25.326  1.00  0.00     0.084 H 
BRANCH  71  73
ATOM     73  C   UNL     1     -42.489  44.085  22.921  1.00  0.00     0.030 C 
ATOM     74  H   UNL     1     -43.278  44.817  22.731  1.00  0.00     0.048 H 
ATOM     75  H   UNL     1     -41.516  44.582  22.944  1.00  0.00     0.048 H 
ATOM     76  H   UNL     1     -42.493  43.305  22.156  1.00  0.00     0.048 H 
ENDBRANCH  71  73
ENDBRANCH  58  66
BRANCH  62  77
ATOM     77  N   UNL     1     -46.739  43.815  25.253  1.00  0.00    -0.383 N 
ATOM     78  H   UNL     1     -47.543  44.428  25.186  1.00  0.00     0.158 HD
ATOM     79  H   UNL     1     -46.288  43.597  24.372  1.00  0.00     0.158 HD
ENDBRANCH  62  77
ENDBRANCH  51  55
ENDBRANCH  43  46
ENDBRANCH  42  43
ENDBRANCH   7  42
TORSDOF 16
ENDMDL
MODEL 4
REMARK VINA RESULT:      -7.9      1.768     12.862
REMARK SMILES CCc1cc(NCCCN(C)C)c2ccc(OCc3cncc(-n4cc(-c5ccn(C)n5)c5c(N)ncnc54)c3)cc2n1
REMARK SMILES IDX 3 1 4 2 5 3 13 4 14 5 15 6 16 7 41 8 42 9 43 10 2 15 1 18
REMARK SMILES IDX 6 22 7 24 8 27 9 30 10 33 11 34 12 38 17 42 18 43 19 46
REMARK SMILES IDX 20 47 40 48 21 49 23 51 22 53 24 55 25 56 39 57 26 58 33 60
REMARK SMILES IDX 38 61 34 62 37 63 36 64 27 66 28 67 32 68 29 69 30 71 31 73
REMARK SMILES IDX 35 77
REMARK H PARENT 4 11 14 12 15 13 41 14 2 16 2 17 1 19 1 20 1 21 6 23 7 25 7 26
REMARK H PARENT 8 28 8 29 9 31 9 32 11 35 11 36 11 37 12 39 12 40 12 41 18 44
REMARK H PARENT 18 45 20 50 40 52 22 54 25 59 37 65 28 70 29 72 31 74 31 75
REMARK H PARENT 31 76 35 78 35 79
REMARK Flexibility Score: inf
ROOT
ATOM      1  C   UNL     1     -47.480  43.319  25.941  1.00  0.00     0.043 A 
ATOM      2  C   UNL     1     -46.200  43.846  25.829  1.00  0.00    -0.017 A 
ATOM      3  C   UNL     1     -45.087  43.027  26.037  1.00  0.00     0.045 A 
ATOM      4  C   UNL     1     -45.322  41.685  26.459  1.00  0.00     0.024 A 
ATOM      5  C   UNL     1     -44.301  40.764  26.802  1.00  0.00    -0.047 A 
ATOM      6  C   UNL     1     -44.590  39.450  27.181  1.00  0.00    -0.019 A 
ATOM      7  C   UNL     1     -45.908  39.025  27.230  1.00  0.00     0.122 A 
ATOM      8  C   UNL     1     -46.921  39.928  26.902  1.00  0.00     0.007 A 
ATOM      9  C   UNL     1     -46.660  41.240  26.531  1.00  0.00     0.076 A 
ATOM     10  N   UNL     1     -47.710  42.030  26.263  1.00  0.00    -0.253 NA
ATOM     11  H   UNL     1     -46.089  44.893  25.575  1.00  0.00     0.066 H 
ATOM     12  H   UNL     1     -43.257  41.063  26.788  1.00  0.00     0.063 H 
ATOM     13  H   UNL     1     -43.757  38.796  27.414  1.00  0.00     0.066 H 
ATOM     14  H   UNL     1     -47.958  39.599  26.943  1.00  0.00     0.069 H 
ENDROOT
BRANCH   1  15
ATOM     15  C   UNL     1     -48.687  44.179  25.672  1.00  0.00    -0.013 C 
ATOM     16  H   UNL     1     -49.370  43.644  25.002  1.00  0.00     0.033 H 
ATOM     17  H   UNL     1     -49.237  44.352  26.604  1.00  0.00     0.033 H 
BRANCH  15  18
ATOM     18  C   UNL     1     -48.297  45.507  25.039  1.00  0.00    -0.060 C 
ATOM     19  H   UNL     1     -47.229  45.531  24.797  1.00  0.00     0.023 H 
ATOM     20  H   UNL     1     -48.859  45.663  24.113  1.00  0.00     0.023 H 
ATOM     21  H   UNL     1     -48.508  46.345  25.711  1.00  0.00     0.023 H 
ENDBRANCH  15  18
ENDBRANCH   1  15
BRANCH   3  22
ATOM     22  N   UNL     1     -43.780  43.534  25.957  1.00  0.00    -0.384 N 
ATOM     23  H   UNL     1     -43.215  43.289  26.766  1.00  0.00     0.160 HD
BRANCH  22  24
ATOM     24  C   UNL     1     -42.968  43.412  24.746  1.00  0.00     0.016 C 
ATOM     25  H   UNL     1     -42.215  42.638  24.932  1.00  0.00     0.049 H 
ATOM     26  H   UNL     1     -42.396  44.329  24.561  1.00  0.00     0.049 H 
BRANCH  24  27
ATOM     27  C   UNL     1     -43.784  43.035  23.505  1.00  0.00    -0.023 C 
ATOM     28  H   UNL     1     -44.598  42.368  23.814  1.00  0.00     0.030 H 
ATOM     29  H   UNL     1     -43.162  42.445  22.821  1.00  0.00     0.030 H 
BRANCH  27  30
ATOM     30  C   UNL     1     -44.354  44.223  22.716  1.00  0.00    -0.001 C 
ATOM     31  H   UNL     1     -45.437  44.278  22.888  1.00  0.00     0.043 H 
ATOM     32  H   UNL     1     -44.231  43.999  21.648  1.00  0.00     0.043 H 
BRANCH  30  33
ATOM     33  N   UNL     1     -43.716  45.516  23.015  1.00  0.00    -0.309 NA
BRANCH  33  34
ATOM     34  C   UNL     1     -44.648  46.446  23.657  1.00  0.00    -0.014 C 
ATOM     35  H   UNL     1     -45.655  46.023  23.755  1.00  0.00     0.039 H 
ATOM     36  H   UNL     1     -44.295  46.736  24.651  1.00  0.00     0.039 H 
ATOM     37  H   UNL     1     -44.722  47.375  23.079  1.00  0.00     0.039 H 
ENDBRANCH  33  34
BRANCH  33  38
ATOM     38  C   UNL     1     -43.200  46.115  21.779  1.00  0.00    -0.014 C 
ATOM     39  H   UNL     1     -43.690  47.075  21.582  1.00  0.00     0.039 H 
ATOM     40  H   UNL     1     -43.350  45.465  20.910  1.00  0.00     0.039 H 
ATOM     41  H   UNL     1     -42.129  46.328  21.873  1.00  0.00     0.039 H 
ENDBRANCH  33  38
ENDBRANCH  30  33
ENDBRANCH  27  30
ENDBRANCH  24  27
ENDBRANCH  22  24
ENDBRANCH   3  22
BRANCH   7  42
ATOM     42  O   UNL     1     -46.344  37.771  27.557  1.00  0.00    -0.489 OA
BRANCH  42  43
ATOM     43  C   UNL     1     -46.811  36.912  26.513  1.00  0.00     0.115 C 
ATOM     44  H   UNL     1     -46.190  37.127  25.635  1.00  0.00     0.076 H 
ATOM     45  H   UNL     1     -47.840  37.170  26.230  1.00  0.00     0.076 H 
BRANCH  43  46
ATOM     46  C   UNL     1     -46.659  35.445  26.825  1.00  0.00     0.010 A 
ATOM     47  C   UNL     1     -46.084  35.049  28.023  1.00  0.00     0.034 A 
ATOM     48  C   UNL     1     -47.129  34.436  25.970  1.00  0.00    -0.028 A 
ATOM     49  N   UNL     1     -45.928  33.764  28.394  1.00  0.00    -0.262 NA
ATOM     50  H   UNL     1     -45.718  35.774  28.747  1.00  0.00     0.084 H 
ATOM     51  C   UNL     1     -46.985  33.084  26.314  1.00  0.00     0.066 A 
ATOM     52  H   UNL     1     -47.610  34.744  25.046  1.00  0.00     0.065 H 
ATOM     53  C   UNL     1     -46.378  32.812  27.535  1.00  0.00     0.051 A 
ATOM     54  H   UNL     1     -46.197  31.809  27.902  1.00  0.00     0.086 H 
BRANCH  51  55
ATOM     55  N   UNL     1     -47.440  32.045  25.439  1.00  0.00    -0.299 N 
ATOM     56  C   UNL     1     -48.395  31.099  25.764  1.00  0.00     0.021 A 
ATOM     57  C   UNL     1     -47.036  31.782  24.126  1.00  0.00     0.150 A 
ATOM     58  C   UNL     1     -48.578  30.242  24.701  1.00  0.00     0.033 A 
ATOM     59  H   UNL     1     -48.893  31.085  26.723  1.00  0.00     0.083 H 
ATOM     60  C   UNL     1     -47.751  30.685  23.639  1.00  0.00     0.071 A 
ATOM     61  N   UNL     1     -46.103  32.461  23.429  1.00  0.00    -0.218 NA
ATOM     62  C   UNL     1     -47.508  30.316  22.304  1.00  0.00     0.137 A 
ATOM     63  C   UNL     1     -45.932  31.996  22.188  1.00  0.00     0.120 A 
ATOM     64  N   UNL     1     -46.583  30.985  21.594  1.00  0.00    -0.219 NA
ATOM     65  H   UNL     1     -45.185  32.500  21.584  1.00  0.00     0.106 H 
BRANCH  58  66
ATOM     66  C   UNL     1     -49.483  29.097  24.700  1.00  0.00     0.095 A 
ATOM     67  C   UNL     1     -50.667  28.988  23.942  1.00  0.00    -0.016 A 
ATOM     68  N   UNL     1     -49.231  27.983  25.396  1.00  0.00    -0.173 NA
ATOM     69  C   UNL     1     -51.154  27.734  24.226  1.00  0.00     0.025 A 
ATOM     70  H   UNL     1     -51.101  29.718  23.272  1.00  0.00     0.066 H 
ATOM     71  N   UNL     1     -50.261  27.174  25.090  1.00  0.00    -0.275 N 
ATOM     72  H   UNL     1     -52.032  27.206  23.882  1.00  0.00     0.084 H 
BRANCH  71  73
ATOM     73  C   UNL     1     -50.318  25.851  25.665  1.00  0.00     0.030 C 
ATOM     74  H   UNL     1     -51.253  25.380  25.350  1.00  0.00     0.048 H 
ATOM     75  H   UNL     1     -49.467  25.264  25.313  1.00  0.00     0.048 H 
ATOM     76  H   UNL     1     -50.283  25.948  26.753  1.00  0.00     0.048 H 
ENDBRANCH  71  73
ENDBRANCH  58  66
BRANCH  62  77
ATOM     77  N   UNL     1     -48.187  29.313  21.624  1.00  0.00    -0.383 N 
ATOM     78  H   UNL     1     -47.699  28.432  21.739  1.00  0.00     0.158 HD
ATOM     79  H   UNL     1     -48.422  29.553  20.668  1.00  0.00     0.158 HD
ENDBRANCH  62  77
ENDBRANCH  51  55
ENDBRANCH  43  46
ENDBRANCH  42  43
ENDBRANCH   7  42
TORSDOF 16
ENDMDL
MODEL 5
REMARK VINA RESULT:      -7.8      2.018      3.317
REMARK SMILES CCc1cc(NCCCN(C)C)c2ccc(OCc3cncc(-n4cc(-c5ccn(C)n5)c5c(N)ncnc54)c3)cc2n1
REMARK SMILES IDX 3 1 4 2 5 3 13 4 14 5 15 6 16 7 41 8 42 9 43 10 2 15 1 18
REMARK SMILES IDX 6 22 7 24 8 27 9 30 10 33 11 34 12 38 17 42 18 43 19 46
REMARK SMILES IDX 20 47 40 48 21 49 23 51 22 53 24 55 25 56 39 57 26 58 33 60
REMARK SMILES IDX 38 61 34 62 37 63 36 64 27 66 28 67 32 68 29 69 30 71 31 73
REMARK SMILES IDX 35 77
REMARK H PARENT 4 11 14 12 15 13 41 14 2 16 2 17 1 19 1 20 1 21 6 23 7 25 7 26
REMARK H PARENT 8 28 8 29 9 31 9 32 11 35 11 36 11 37 12 39 12 40 12 41 18 44
REMARK H PARENT 18 45 20 50 40 52 22 54 25 59 37 65 28 70 29 72 31 74 31 75
REMARK H PARENT 31 76 35 78 35 79
REMARK Flexibility Score: inf
ROOT
ATOM      1  C   UNL     1     -50.300  30.869  23.753  1.00  0.00     0.043 A 
ATOM      2  C   UNL     1     -49.497  29.954  23.084  1.00  0.00    -0.017 A 
ATOM      3  C   UNL     1     -48.106  30.031  23.200  1.00  0.00     0.045 A 
ATOM      4  C   UNL     1     -47.562  31.126  23.933  1.00  0.00     0.024 A 
ATOM      5  C   UNL     1     -46.176  31.395  24.058  1.00  0.00    -0.047 A 
ATOM      6  C   UNL     1     -45.698  32.467  24.816  1.00  0.00    -0.019 A 
ATOM      7  C   UNL     1     -46.596  33.301  25.466  1.00  0.00     0.122 A 
ATOM      8  C   UNL     1     -47.963  33.049  25.341  1.00  0.00     0.007 A 
ATOM      9  C   UNL     1     -48.462  31.995  24.587  1.00  0.00     0.076 A 
ATOM     10  N   UNL     1     -49.794  31.861  24.514  1.00  0.00    -0.253 NA
ATOM     11  H   UNL     1     -49.970  29.188  22.484  1.00  0.00     0.066 H 
ATOM     12  H   UNL     1     -45.443  30.772  23.554  1.00  0.00     0.063 H 
ATOM     13  H   UNL     1     -44.624  32.604  24.881  1.00  0.00     0.066 H 
ATOM     14  H   UNL     1     -48.670  33.703  25.847  1.00  0.00     0.069 H 
ENDROOT
BRANCH   1  15
ATOM     15  C   UNL     1     -51.801  30.768  23.676  1.00  0.00    -0.013 C 
ATOM     16  H   UNL     1     -52.074  29.965  22.981  1.00  0.00     0.033 H 
ATOM     17  H   UNL     1     -52.206  30.484  24.654  1.00  0.00     0.033 H 
BRANCH  15  18
ATOM     18  C   UNL     1     -52.425  32.074  23.209  1.00  0.00    -0.060 C 
ATOM     19  H   UNL     1     -51.711  32.668  22.627  1.00  0.00     0.023 H 
ATOM     20  H   UNL     1     -53.295  31.872  22.577  1.00  0.00     0.023 H 
ATOM     21  H   UNL     1     -52.755  32.684  24.057  1.00  0.00     0.023 H 
ENDBRANCH  15  18
ENDBRANCH   1  15
BRANCH   3  22
ATOM     22  N   UNL     1     -47.265  29.139  22.515  1.00  0.00    -0.384 N 
ATOM     23  H   UNL     1     -46.344  29.530  22.332  1.00  0.00     0.160 HD
BRANCH  22  24
ATOM     24  C   UNL     1     -47.123  27.738  22.915  1.00  0.00     0.016 C 
ATOM     25  H   UNL     1     -46.732  27.188  22.052  1.00  0.00     0.049 H 
ATOM     26  H   UNL     1     -48.101  27.287  23.122  1.00  0.00     0.049 H 
BRANCH  24  27
ATOM     27  C   UNL     1     -46.181  27.540  24.107  1.00  0.00    -0.023 C 
ATOM     28  H   UNL     1     -46.228  28.435  24.739  1.00  0.00     0.030 H 
ATOM     29  H   UNL     1     -45.146  27.482  23.753  1.00  0.00     0.030 H 
BRANCH  27  30
ATOM     30  C   UNL     1     -46.460  26.290  24.955  1.00  0.00    -0.001 C 
ATOM     31  H   UNL     1     -45.536  25.993  25.467  1.00  0.00     0.043 H 
ATOM     32  H   UNL     1     -46.698  25.470  24.264  1.00  0.00     0.043 H 
BRANCH  30  33
ATOM     33  N   UNL     1     -47.562  26.441  25.921  1.00  0.00    -0.309 NA
BRANCH  33  34
ATOM     34  C   UNL     1     -47.627  25.311  26.851  1.00  0.00    -0.014 C 
ATOM     35  H   UNL     1     -48.628  25.182  27.277  1.00  0.00     0.039 H 
ATOM     36  H   UNL     1     -47.335  24.378  26.361  1.00  0.00     0.039 H 
ATOM     37  H   UNL     1     -46.919  25.453  27.676  1.00  0.00     0.039 H 
ENDBRANCH  33  34
BRANCH  33  38
ATOM     38  C   UNL     1     -48.838  26.562  25.208  1.00  0.00    -0.014 C 
ATOM     39  H   UNL     1     -49.607  26.985  25.863  1.00  0.00     0.039 H 
ATOM     40  H   UNL     1     -49.195  25.596  24.832  1.00  0.00     0.039 H 
ATOM     41  H   UNL     1     -48.741  27.250  24.359  1.00  0.00     0.039 H 
ENDBRANCH  33  38
ENDBRANCH  30  33
ENDBRANCH  27  30
ENDBRANCH  24  27
ENDBRANCH  22  24
ENDBRANCH   3  22
BRANCH   7  42
ATOM     42  O   UNL     1     -46.281  34.370  26.259  1.00  0.00    -0.489 OA
BRANCH  42  43
ATOM     43  C   UNL     1     -47.165  34.716  27.329  1.00  0.00     0.115 C 
ATOM     44  H   UNL     1     -46.699  34.343  28.248  1.00  0.00     0.076 H 
ATOM     45  H   UNL     1     -48.119  34.181  27.232  1.00  0.00     0.076 H 
BRANCH  43  46
ATOM     46  C   UNL     1     -47.361  36.201  27.492  1.00  0.00     0.010 A 
ATOM     47  C   UNL     1     -48.629  36.708  27.739  1.00  0.00     0.034 A 
ATOM     48  C   UNL     1     -46.296  37.114  27.461  1.00  0.00    -0.028 A 
ATOM     49  N   UNL     1     -48.893  38.017  27.920  1.00  0.00    -0.262 NA
ATOM     50  H   UNL     1     -49.500  36.060  27.801  1.00  0.00     0.084 H 
ATOM     51  C   UNL     1     -46.525  38.486  27.641  1.00  0.00     0.066 A 
ATOM     52  H   UNL     1     -45.298  36.717  27.301  1.00  0.00     0.065 H 
ATOM     53  C   UNL     1     -47.841  38.875  27.866  1.00  0.00     0.051 A 
ATOM     54  H   UNL     1     -48.145  39.906  28.003  1.00  0.00     0.086 H 
BRANCH  51  55
ATOM     55  N   UNL     1     -45.449  39.430  27.589  1.00  0.00    -0.299 N 
ATOM     56  C   UNL     1     -45.267  40.367  26.589  1.00  0.00     0.021 A 
ATOM     57  C   UNL     1     -44.403  39.601  28.502  1.00  0.00     0.150 A 
ATOM     58  C   UNL     1     -44.126  41.097  26.841  1.00  0.00     0.033 A 
ATOM     59  H   UNL     1     -45.951  40.469  25.758  1.00  0.00     0.083 H 
ATOM     60  C   UNL     1     -43.587  40.649  28.072  1.00  0.00     0.071 A 
ATOM     61  N   UNL     1     -44.195  38.874  29.619  1.00  0.00    -0.218 NA
ATOM     62  C   UNL     1     -42.511  40.995  28.909  1.00  0.00     0.137 A 
ATOM     63  C   UNL     1     -43.123  39.270  30.312  1.00  0.00     0.120 A 
ATOM     64  N   UNL     1     -42.291  40.283  30.028  1.00  0.00    -0.219 NA
ATOM     65  H   UNL     1     -42.903  38.713  31.216  1.00  0.00     0.106 H 
BRANCH  58  66
ATOM     66  C   UNL     1     -43.602  42.149  25.975  1.00  0.00     0.095 A 
ATOM     67  C   UNL     1     -42.285  42.656  26.005  1.00  0.00    -0.016 A 
ATOM     68  N   UNL     1     -44.330  42.705  25.000  1.00  0.00    -0.173 NA
ATOM     69  C   UNL     1     -42.243  43.586  24.993  1.00  0.00     0.025 A 
ATOM     70  H   UNL     1     -41.476  42.375  26.665  1.00  0.00     0.066 H 
ATOM     71  N   UNL     1     -43.480  43.572  24.421  1.00  0.00    -0.275 N 
ATOM     72  H   UNL     1     -41.449  44.227  24.635  1.00  0.00     0.084 H 
BRANCH  71  73
ATOM     73  C   UNL     1     -43.929  44.362  23.299  1.00  0.00     0.030 C 
ATOM     74  H   UNL     1     -43.294  44.131  22.440  1.00  0.00     0.048 H 
ATOM     75  H   UNL     1     -44.968  44.114  23.073  1.00  0.00     0.048 H 
ATOM     76  H   UNL     1     -43.846  45.418  23.567  1.00  0.00     0.048 H 
ENDBRANCH  71  73
ENDBRANCH  58  66
BRANCH  62  77
ATOM     77  N   UNL     1     -41.650  42.064  28.691  1.00  0.00    -0.383 N 
ATOM     78  H   UNL     1     -41.158  41.932  27.815  1.00  0.00     0.158 HD
ATOM     79  H   UNL     1     -41.063  42.286  29.486  1.00  0.00     0.158 HD
ENDBRANCH  62  77
ENDBRANCH  51  55
ENDBRANCH  43  46
ENDBRANCH  42  43
ENDBRANCH   7  42
TORSDOF 16
ENDMDL
MODEL 6
REMARK VINA RESULT:      -7.8      1.663      3.552
REMARK SMILES CCc1cc(NCCCN(C)C)c2ccc(OCc3cncc(-n4cc(-c5ccn(C)n5)c5c(N)ncnc54)c3)cc2n1
REMARK SMILES IDX 3 1 4 2 5 3 13 4 14 5 15 6 16 7 41 8 42 9 43 10 2 15 1 18
REMARK SMILES IDX 6 22 7 24 8 27 9 30 10 33 11 34 12 38 17 42 18 43 19 46
REMARK SMILES IDX 20 47 40 48 21 49 23 51 22 53 24 55 25 56 39 57 26 58 33 60
REMARK SMILES IDX 38 61 34 62 37 63 36 64 27 66 28 67 32 68 29 69 30 71 31 73
REMARK SMILES IDX 35 77
REMARK H PARENT 4 11 14 12 15 13 41 14 2 16 2 17 1 19 1 20 1 21 6 23 7 25 7 26
REMARK H PARENT 8 28 8 29 9 31 9 32 11 35 11 36 11 37 12 39 12 40 12 41 18 44
REMARK H PARENT 18 45 20 50 40 52 22 54 25 59 37 65 28 70 29 72 31 74 31 75
REMARK H PARENT 31 76 35 78 35 79
REMARK Flexibility Score: inf
ROOT
ATOM      1  C   UNL     1     -48.418  27.608  25.954  1.00  0.00     0.043 A 
ATOM      2  C   UNL     1     -49.249  27.299  24.885  1.00  0.00    -0.017 A 
ATOM      3  C   UNL     1     -49.816  28.323  24.123  1.00  0.00     0.045 A 
ATOM      4  C   UNL     1     -49.591  29.666  24.546  1.00  0.00     0.024 A 
ATOM      5  C   UNL     1     -50.175  30.805  23.937  1.00  0.00    -0.047 A 
ATOM      6  C   UNL     1     -49.894  32.101  24.376  1.00  0.00    -0.019 A 
ATOM      7  C   UNL     1     -49.024  32.292  25.439  1.00  0.00     0.122 A 
ATOM      8  C   UNL     1     -48.451  31.176  26.050  1.00  0.00     0.007 A 
ATOM      9  C   UNL     1     -48.721  29.878  25.638  1.00  0.00     0.076 A 
ATOM     10  N   UNL     1     -48.136  28.878  26.312  1.00  0.00    -0.253 NA
ATOM     11  H   UNL     1     -49.438  26.257  24.659  1.00  0.00     0.066 H 
ATOM     12  H   UNL     1     -50.871  30.696  23.111  1.00  0.00     0.063 H 
ATOM     13  H   UNL     1     -50.365  32.927  23.853  1.00  0.00     0.066 H 
ATOM     14  H   UNL     1     -47.770  31.321  26.887  1.00  0.00     0.069 H 
ENDROOT
BRANCH   1  15
ATOM     15  C   UNL     1     -47.761  26.514  26.754  1.00  0.00    -0.013 C 
ATOM     16  H   UNL     1     -46.915  26.932  27.312  1.00  0.00     0.033 H 
ATOM     17  H   UNL     1     -48.463  26.124  27.500  1.00  0.00     0.033 H 
BRANCH  15  18
ATOM     18  C   UNL     1     -47.268  25.387  25.859  1.00  0.00    -0.060 C 
ATOM     19  H   UNL     1     -46.242  25.570  25.522  1.00  0.00     0.023 H 
ATOM     20  H   UNL     1     -47.283  24.438  26.404  1.00  0.00     0.023 H 
ATOM     21  H   UNL     1     -47.899  25.279  24.971  1.00  0.00     0.023 H 
ENDBRANCH  15  18
ENDBRANCH   1  15
BRANCH   3  22
ATOM     22  N   UNL     1     -50.681  28.045  23.052  1.00  0.00    -0.384 N 
ATOM     23  H   UNL     1     -51.314  28.815  22.850  1.00  0.00     0.160 HD
BRANCH  22  24
ATOM     24  C   UNL     1     -50.206  27.466  21.795  1.00  0.00     0.016 C 
ATOM     25  H   UNL     1     -51.086  27.259  21.175  1.00  0.00     0.049 H 
ATOM     26  H   UNL     1     -49.739  26.488  21.964  1.00  0.00     0.049 H 
BRANCH  24  27
ATOM     27  C   UNL     1     -49.253  28.387  21.026  1.00  0.00    -0.023 C 
ATOM     28  H   UNL     1     -48.985  27.899  20.081  1.00  0.00     0.030 H 
ATOM     29  H   UNL     1     -48.314  28.491  21.582  1.00  0.00     0.030 H 
BRANCH  27  30
ATOM     30  C   UNL     1     -49.795  29.797  20.748  1.00  0.00    -0.001 C 
ATOM     31  H   UNL     1     -50.629  29.999  21.433  1.00  0.00     0.043 H 
ATOM     32  H   UNL     1     -50.229  29.790  19.739  1.00  0.00     0.043 H 
BRANCH  30  33
ATOM     33  N   UNL     1     -48.785  30.866  20.832  1.00  0.00    -0.309 NA
BRANCH  33  34
ATOM     34  C   UNL     1     -48.376  31.330  19.504  1.00  0.00    -0.014 C 
ATOM     35  H   UNL     1     -47.313  31.146  19.310  1.00  0.00     0.039 H 
ATOM     36  H   UNL     1     -48.961  30.845  18.717  1.00  0.00     0.039 H 
ATOM     37  H   UNL     1     -48.562  32.406  19.400  1.00  0.00     0.039 H 
ENDBRANCH  33  34
BRANCH  33  38
ATOM     38  C   UNL     1     -47.610  30.387  21.567  1.00  0.00    -0.014 C 
ATOM     39  H   UNL     1     -47.560  30.850  22.557  1.00  0.00     0.039 H 
ATOM     40  H   UNL     1     -46.675  30.600  21.036  1.00  0.00     0.039 H 
ATOM     41  H   UNL     1     -47.675  29.305  21.734  1.00  0.00     0.039 H 
ENDBRANCH  33  38
ENDBRANCH  30  33
ENDBRANCH  27  30
ENDBRANCH  24  27
ENDBRANCH  22  24
ENDBRANCH   3  22
BRANCH   7  42
ATOM     42  O   UNL     1     -48.635  33.494  25.962  1.00  0.00    -0.489 OA
BRANCH  42  43
ATOM     43  C   UNL     1     -47.242  33.727  26.187  1.00  0.00     0.115 C 
ATOM     44  H   UNL     1     -46.821  34.036  25.223  1.00  0.00     0.076 H 
ATOM     45  H   UNL     1     -46.731  32.794  26.459  1.00  0.00     0.076 H 
BRANCH  43  46
ATOM     46  C   UNL     1     -46.967  34.832  27.174  1.00  0.00     0.010 A 
ATOM     47  C   UNL     1     -46.562  34.523  28.464  1.00  0.00     0.034 A 
ATOM     48  C   UNL     1     -47.048  36.191  26.832  1.00  0.00    -0.028 A 
ATOM     49  N   UNL     1     -46.274  35.444  29.403  1.00  0.00    -0.262 NA
ATOM     50  H   UNL     1     -46.454  33.493  28.795  1.00  0.00     0.084 H 
ATOM     51  C   UNL     1     -46.760  37.185  27.778  1.00  0.00     0.066 A 
ATOM     52  H   UNL     1     -47.332  36.437  25.812  1.00  0.00     0.065 H 
ATOM     53  C   UNL     1     -46.381  36.751  29.044  1.00  0.00     0.051 A 
ATOM     54  H   UNL     1     -46.149  37.421  29.862  1.00  0.00     0.086 H 
BRANCH  51  55
ATOM     55  N   UNL     1     -46.861  38.575  27.448  1.00  0.00    -0.299 N 
ATOM     56  C   UNL     1     -45.838  39.338  26.916  1.00  0.00     0.021 A 
ATOM     57  C   UNL     1     -47.971  39.417  27.581  1.00  0.00     0.150 A 
ATOM     58  C   UNL     1     -46.272  40.634  26.739  1.00  0.00     0.033 A 
ATOM     59  H   UNL     1     -44.865  38.926  26.690  1.00  0.00     0.083 H 
ATOM     60  C   UNL     1     -47.635  40.692  27.120  1.00  0.00     0.071 A 
ATOM     61  N   UNL     1     -49.175  39.072  28.080  1.00  0.00    -0.218 NA
ATOM     62  C   UNL     1     -48.659  41.655  27.130  1.00  0.00     0.137 A 
ATOM     63  C   UNL     1     -50.054  40.080  28.073  1.00  0.00     0.120 A 
ATOM     64  N   UNL     1     -49.867  41.328  27.621  1.00  0.00    -0.219 NA
ATOM     65  H   UNL     1     -51.038  39.861  28.474  1.00  0.00     0.106 H 
BRANCH  58  66
ATOM     66  C   UNL     1     -45.447  41.727  26.233  1.00  0.00     0.095 A 
ATOM     67  C   UNL     1     -44.552  41.643  25.146  1.00  0.00    -0.016 A 
ATOM     68  N   UNL     1     -45.512  42.966  26.733  1.00  0.00    -0.173 NA
ATOM     69  C   UNL     1     -44.042  42.913  25.010  1.00  0.00     0.025 A 
ATOM     70  H   UNL     1     -44.318  40.780  24.538  1.00  0.00     0.066 H 
ATOM     71  N   UNL     1     -44.650  43.664  25.973  1.00  0.00    -0.275 N 
ATOM     72  H   UNL     1     -43.328  43.334  24.317  1.00  0.00     0.084 H 
BRANCH  71  73
ATOM     73  C   UNL     1     -44.463  45.073  26.224  1.00  0.00     0.030 C 
ATOM     74  H   UNL     1     -43.583  45.408  25.669  1.00  0.00     0.048 H 
ATOM     75  H   UNL     1     -45.346  45.622  25.890  1.00  0.00     0.048 H 
ATOM     76  H   UNL     1     -44.318  45.214  27.298  1.00  0.00     0.048 H 
ENDBRANCH  71  73
ENDBRANCH  58  66
BRANCH  62  77
ATOM     77  N   UNL     1     -48.537  42.945  26.628  1.00  0.00    -0.383 N 
ATOM     78  H   UNL     1     -48.110  43.544  27.326  1.00  0.00     0.158 HD
ATOM     79  H   UNL     1     -49.388  43.306  26.213  1.00  0.00     0.158 HD
ENDBRANCH  62  77
ENDBRANCH  51  55
ENDBRANCH  43  46
ENDBRANCH  42  43
ENDBRANCH   7  42
TORSDOF 16
ENDMDL
MODEL 7
REMARK VINA RESULT:      -7.7      1.639      3.154
REMARK SMILES CCc1cc(NCCCN(C)C)c2ccc(OCc3cncc(-n4cc(-c5ccn(C)n5)c5c(N)ncnc54)c3)cc2n1
REMARK SMILES IDX 3 1 4 2 5 3 13 4 14 5 15 6 16 7 41 8 42 9 43 10 2 15 1 18
REMARK SMILES IDX 6 22 7 24 8 27 9 30 10 33 11 34 12 38 17 42 18 43 19 46
REMARK SMILES IDX 20 47 40 48 21 49 23 51 22 53 24 55 25 56 39 57 26 58 33 60
REMARK SMILES IDX 38 61 34 62 37 63 36 64 27 66 28 67 32 68 29 69 30 71 31 73
REMARK SMILES IDX 35 77
REMARK H PARENT 4 11 14 12 15 13 41 14 2 16 2 17 1 19 1 20 1 21 6 23 7 25 7 26
REMARK H PARENT 8 28 8 29 9 31 9 32 11 35 11 36 11 37 12 39 12 40 12 41 18 44
REMARK H PARENT 18 45 20 50 40 52 22 54 25 59 37 65 28 70 29 72 31 74 31 75
REMARK H PARENT 31 76 35 78 35 79
REMARK Flexibility Score: inf
ROOT
ATOM      1  C   UNL     1     -46.601  30.921  22.239  1.00  0.00     0.043 A 
ATOM      2  C   UNL     1     -47.621  30.099  22.699  1.00  0.00    -0.017 A 
ATOM      3  C   UNL     1     -48.271  30.396  23.900  1.00  0.00     0.045 A 
ATOM      4  C   UNL     1     -47.781  31.496  24.663  1.00  0.00     0.024 A 
ATOM      5  C   UNL     1     -48.269  31.863  25.943  1.00  0.00    -0.047 A 
ATOM      6  C   UNL     1     -47.770  32.971  26.632  1.00  0.00    -0.019 A 
ATOM      7  C   UNL     1     -46.767  33.739  26.061  1.00  0.00     0.122 A 
ATOM      8  C   UNL     1     -46.274  33.381  24.805  1.00  0.00     0.007 A 
ATOM      9  C   UNL     1     -46.747  32.279  24.104  1.00  0.00     0.076 A 
ATOM     10  N   UNL     1     -46.185  32.011  22.918  1.00  0.00    -0.253 NA
ATOM     11  H   UNL     1     -47.899  29.235  22.108  1.00  0.00     0.066 H 
ATOM     12  H   UNL     1     -49.045  31.278  26.428  1.00  0.00     0.063 H 
ATOM     13  H   UNL     1     -48.201  33.202  27.600  1.00  0.00     0.066 H 
ATOM     14  H   UNL     1     -45.485  33.980  24.355  1.00  0.00     0.069 H 
ENDROOT
BRANCH   1  15
ATOM     15  C   UNL     1     -45.926  30.640  20.923  1.00  0.00    -0.013 C 
ATOM     16  H   UNL     1     -44.874  30.386  21.104  1.00  0.00     0.033 H 
ATOM     17  H   UNL     1     -46.381  29.762  20.450  1.00  0.00     0.033 H 
BRANCH  15  18
ATOM     18  C   UNL     1     -46.002  31.838  19.989  1.00  0.00    -0.060 C 
ATOM     19  H   UNL     1     -45.088  32.439  20.040  1.00  0.00     0.023 H 
ATOM     20  H   UNL     1     -46.131  31.502  18.955  1.00  0.00     0.023 H 
ATOM     21  H   UNL     1     -46.846  32.488  20.243  1.00  0.00     0.023 H 
ENDBRANCH  15  18
ENDBRANCH   1  15
BRANCH   3  22
ATOM     22  N   UNL     1     -49.288  29.570  24.406  1.00  0.00    -0.384 N 
ATOM     23  H   UNL     1     -49.765  29.045  23.677  1.00  0.00     0.160 HD
BRANCH  22  24
ATOM     24  C   UNL     1     -49.085  28.707  25.570  1.00  0.00     0.016 C 
ATOM     25  H   UNL     1     -49.611  29.166  26.415  1.00  0.00     0.049 H 
ATOM     26  H   UNL     1     -48.030  28.687  25.867  1.00  0.00     0.049 H 
BRANCH  24  27
ATOM     27  C   UNL     1     -49.608  27.281  25.365  1.00  0.00    -0.023 C 
ATOM     28  H   UNL     1     -50.208  27.259  24.448  1.00  0.00     0.030 H 
ATOM     29  H   UNL     1     -50.298  27.022  26.177  1.00  0.00     0.030 H 
BRANCH  27  30
ATOM     30  C   UNL     1     -48.524  26.194  25.304  1.00  0.00    -0.001 C 
ATOM     31  H   UNL     1     -48.486  25.786  24.286  1.00  0.00     0.043 H 
ATOM     32  H   UNL     1     -48.850  25.366  25.948  1.00  0.00     0.043 H 
BRANCH  30  33
ATOM     33  N   UNL     1     -47.187  26.641  25.733  1.00  0.00    -0.309 NA
BRANCH  33  34
ATOM     34  C   UNL     1     -46.215  26.574  24.639  1.00  0.00    -0.014 C 
ATOM     35  H   UNL     1     -45.914  27.569  24.291  1.00  0.00     0.039 H 
ATOM     36  H   UNL     1     -45.318  26.025  24.941  1.00  0.00     0.039 H 
ATOM     37  H   UNL     1     -46.634  26.025  23.788  1.00  0.00     0.039 H 
ENDBRANCH  33  34
BRANCH  33  38
ATOM     38  C   UNL     1     -46.722  25.816  26.853  1.00  0.00    -0.014 C 
ATOM     39  H   UNL     1     -46.872  24.753  26.638  1.00  0.00     0.039 H 
ATOM     40  H   UNL     1     -47.240  26.057  27.788  1.00  0.00     0.039 H 
ATOM     41  H   UNL     1     -45.645  25.952  27.009  1.00  0.00     0.039 H 
ENDBRANCH  33  38
ENDBRANCH  30  33
ENDBRANCH  27  30
ENDBRANCH  24  27
ENDBRANCH  22  24
ENDBRANCH   3  22
BRANCH   7  42
ATOM     42  O   UNL     1     -46.199  34.861  26.599  1.00  0.00    -0.489 OA
BRANCH  42  43
ATOM     43  C   UNL     1     -46.955  36.074  26.616  1.00  0.00     0.115 C 
ATOM     44  H   UNL     1     -47.873  35.858  27.176  1.00  0.00     0.076 H 
ATOM     45  H   UNL     1     -47.272  36.348  25.602  1.00  0.00     0.076 H 
BRANCH  43  46
ATOM     46  C   UNL     1     -46.256  37.211  27.318  1.00  0.00     0.010 A 
ATOM     47  C   UNL     1     -45.638  36.992  28.541  1.00  0.00     0.034 A 
ATOM     48  C   UNL     1     -46.150  38.494  26.762  1.00  0.00    -0.028 A 
ATOM     49  N   UNL     1     -44.973  37.942  29.227  1.00  0.00    -0.262 NA
ATOM     50  H   UNL     1     -45.657  36.018  29.023  1.00  0.00     0.084 H 
ATOM     51  C   UNL     1     -45.470  39.515  27.443  1.00  0.00     0.066 A 
ATOM     52  H   UNL     1     -46.605  38.660  25.789  1.00  0.00     0.065 H 
ATOM     53  C   UNL     1     -44.905  39.179  28.668  1.00  0.00     0.051 A 
ATOM     54  H   UNL     1     -44.370  39.883  29.293  1.00  0.00     0.086 H 
BRANCH  51  55
ATOM     55  N   UNL     1     -45.375  40.836  26.895  1.00  0.00    -0.299 N 
ATOM     56  C   UNL     1     -46.452  41.609  26.505  1.00  0.00     0.021 A 
ATOM     57  C   UNL     1     -44.223  41.591  26.656  1.00  0.00     0.150 A 
ATOM     58  C   UNL     1     -46.002  42.813  26.007  1.00  0.00     0.033 A 
ATOM     59  H   UNL     1     -47.475  41.271  26.602  1.00  0.00     0.083 H 
ATOM     60  C   UNL     1     -44.590  42.832  26.132  1.00  0.00     0.071 A 
ATOM     61  N   UNL     1     -42.953  41.197  26.880  1.00  0.00    -0.218 NA
ATOM     62  C   UNL     1     -43.550  43.745  25.884  1.00  0.00     0.137 A 
ATOM     63  C   UNL     1     -42.050  42.134  26.571  1.00  0.00     0.120 A 
ATOM     64  N   UNL     1     -42.278  43.370  26.105  1.00  0.00    -0.219 NA
ATOM     65  H   UNL     1     -41.010  41.867  26.724  1.00  0.00     0.106 H 
BRANCH  58  66
ATOM     66  C   UNL     1     -46.858  43.864  25.467  1.00  0.00     0.095 A 
ATOM     67  C   UNL     1     -46.730  44.450  24.191  1.00  0.00    -0.016 A 
ATOM     68  N   UNL     1     -47.915  44.341  26.133  1.00  0.00    -0.173 NA
ATOM     69  C   UNL     1     -47.770  45.346  24.108  1.00  0.00     0.025 A 
ATOM     70  H   UNL     1     -45.989  44.243  23.431  1.00  0.00     0.066 H 
ATOM     71  N   UNL     1     -48.450  45.238  25.285  1.00  0.00    -0.275 N 
ATOM     72  H   UNL     1     -48.080  46.022  23.324  1.00  0.00     0.084 H 
BRANCH  71  73
ATOM     73  C   UNL     1     -49.638  45.959  25.674  1.00  0.00     0.030 C 
ATOM     74  H   UNL     1     -50.118  46.344  24.770  1.00  0.00     0.048 H 
ATOM     75  H   UNL     1     -50.317  45.285  26.199  1.00  0.00     0.048 H 
ATOM     76  H   UNL     1     -49.342  46.780  26.332  1.00  0.00     0.048 H 
ENDBRANCH  71  73
ENDBRANCH  58  66
BRANCH  62  77
ATOM     77  N   UNL     1     -43.731  45.053  25.451  1.00  0.00    -0.383 N 
ATOM     78  H   UNL     1     -44.284  45.057  24.602  1.00  0.00     0.158 HD
ATOM     79  H   UNL     1     -42.875  45.593  25.409  1.00  0.00     0.158 HD
ENDBRANCH  62  77
ENDBRANCH  51  55
ENDBRANCH  43  46
ENDBRANCH  42  43
ENDBRANCH   7  42
TORSDOF 16
ENDMDL
