MODEL 1
REMARK VINA RESULT:     -10.7      0.000      0.000
REMARK SMILES Nc1ncnc2c1c(Br)cn2[C@@H]1O[C@H](COc2ccc3ccc(N4CCCC4)nc3c2)[C@@H](O)[C@H]1O
REMARK SMILES IDX 15 1 14 4 12 5 13 6 34 7 32 9 11 13 2 14 3 15 7 16 4 17 6 18
REMARK SMILES IDX 8 19 5 20 9 22 10 23 1 25 35 28 33 30 16 32 17 33 18 34
REMARK SMILES IDX 31 35 19 36 30 38 20 40 29 42 21 43 23 44 22 45 24 48 25 49
REMARK SMILES IDX 28 50 26 51 27 54
REMARK H PARENT 15 2 15 3 12 8 34 10 14 11 32 12 4 21 10 24 1 26 1 27 35 29
REMARK H PARENT 33 31 18 37 31 39 19 41 21 46 22 47 25 52 25 53 28 55 28 56
REMARK H PARENT 26 57 26 58 27 59 27 60
REMARK Flexibility Score: inf
ROOT
ATOM      1  C   UNL     1     -46.752  35.782  26.574  1.00  0.00     0.117 C 
ATOM      2  H   UNL     1     -47.077  36.564  25.878  1.00  0.00     0.073 H 
ATOM      3  H   UNL     1     -45.878  35.305  26.114  1.00  0.00     0.073 H 
ENDROOT
BRANCH   1   4
ATOM      4  C   UNL     1     -46.353  36.332  27.946  1.00  0.00     0.123 C 
ATOM      5  C   UNL     1     -45.067  38.059  28.847  1.00  0.00     0.164 C 
ATOM      6  O   UNL     1     -45.063  36.978  27.884  1.00  0.00    -0.345 OA
ATOM      7  C   UNL     1     -46.468  38.123  29.474  1.00  0.00     0.128 C 
ATOM      8  H   UNL     1     -44.288  37.842  29.588  1.00  0.00     0.088 H 
ATOM      9  C   UNL     1     -47.312  37.405  28.436  1.00  0.00     0.114 C 
ATOM     10  H   UNL     1     -46.842  39.128  29.686  1.00  0.00     0.068 H 
ATOM     11  H   UNL     1     -46.270  35.513  28.671  1.00  0.00     0.067 H 
ATOM     12  H   UNL     1     -47.574  38.093  27.622  1.00  0.00     0.066 H 
BRANCH   5  13
ATOM     13  N   UNL     1     -44.692  39.304  28.185  1.00  0.00    -0.302 N 
ATOM     14  C   UNL     1     -42.595  42.161  28.110  1.00  0.00     0.137 A 
ATOM     15  N   UNL     1     -41.836  41.966  29.207  1.00  0.00    -0.219 NA
ATOM     16  C   UNL     1     -43.581  41.215  27.792  1.00  0.00     0.075 A 
ATOM     17  C   UNL     1     -42.046  40.861  29.948  1.00  0.00     0.120 A 
ATOM     18  C   UNL     1     -43.687  40.122  28.646  1.00  0.00     0.148 A 
ATOM     19  C   UNL     1     -44.572  41.023  26.798  1.00  0.00     0.049 A 
ATOM     20  N   UNL     1     -42.951  39.889  29.747  1.00  0.00    -0.218 NA
ATOM     21  H   UNL     1     -41.402  40.745  30.814  1.00  0.00     0.106 H 
ATOM     22  Br  UNL     1     -44.920  42.181  25.364  1.00  0.00    -0.048 Br
ATOM     23  C   UNL     1     -45.245  39.851  27.054  1.00  0.00     0.023 A 
ATOM     24  H   UNL     1     -46.051  39.360  26.522  1.00  0.00     0.083 H 
BRANCH  14  25
ATOM     25  N   UNL     1     -42.346  43.306  27.374  1.00  0.00    -0.383 N 
ATOM     26  H   UNL     1     -41.758  43.120  26.571  1.00  0.00     0.158 HD
ATOM     27  H   UNL     1     -42.156  44.144  27.907  1.00  0.00     0.158 HD
ENDBRANCH  14  25
ENDBRANCH   5  13
BRANCH   7  28
ATOM     28  O   UNL     1     -46.537  37.379  30.707  1.00  0.00    -0.386 OA
ATOM     29  H   UNL     1     -46.250  36.469  30.503  1.00  0.00     0.211 HD
ENDBRANCH   7  28
BRANCH   9  30
ATOM     30  O   UNL     1     -48.504  36.866  28.989  1.00  0.00    -0.387 OA
ATOM     31  H   UNL     1     -49.235  37.390  28.598  1.00  0.00     0.211 HD
ENDBRANCH   9  30
ENDBRANCH   1   4
BRANCH   1  32
ATOM     32  O   UNL     1     -47.734  34.746  26.692  1.00  0.00    -0.491 OA
BRANCH  32  33
ATOM     33  C   UNL     1     -47.577  33.603  25.958  1.00  0.00     0.121 A 
ATOM     34  C   UNL     1     -46.453  33.601  25.134  1.00  0.00    -0.019 A 
ATOM     35  C   UNL     1     -48.414  32.485  25.971  1.00  0.00     0.007 A 
ATOM     36  C   UNL     1     -46.170  32.496  24.334  1.00  0.00    -0.049 A 
ATOM     37  H   UNL     1     -45.793  34.466  25.116  1.00  0.00     0.066 H 
ATOM     38  C   UNL     1     -48.153  31.368  25.186  1.00  0.00     0.076 A 
ATOM     39  H   UNL     1     -49.297  32.440  26.600  1.00  0.00     0.069 H 
ATOM     40  C   UNL     1     -47.017  31.379  24.358  1.00  0.00     0.001 A 
ATOM     41  H   UNL     1     -45.289  32.513  23.696  1.00  0.00     0.063 H 
ATOM     42  N   UNL     1     -48.990  30.316  25.241  1.00  0.00    -0.231 NA
ATOM     43  C   UNL     1     -46.777  30.252  23.573  1.00  0.00    -0.049 A 
ATOM     44  C   UNL     1     -48.753  29.215  24.492  1.00  0.00     0.129 A 
ATOM     45  C   UNL     1     -47.653  29.170  23.640  1.00  0.00    -0.019 A 
ATOM     46  H   UNL     1     -45.922  30.206  22.906  1.00  0.00     0.063 H 
ATOM     47  H   UNL     1     -47.472  28.307  23.010  1.00  0.00     0.066 H 
BRANCH  44  48
ATOM     48  N   UNL     1     -49.646  28.171  24.568  1.00  0.00    -0.357 N 
ATOM     49  C   UNL     1     -49.512  27.074  25.520  1.00  0.00     0.019 C 
ATOM     50  C   UNL     1     -51.042  28.408  24.218  1.00  0.00     0.019 C 
ATOM     51  C   UNL     1     -50.950  26.636  25.797  1.00  0.00    -0.034 C 
ATOM     52  H   UNL     1     -48.941  26.258  25.063  1.00  0.00     0.049 H 
ATOM     53  H   UNL     1     -49.026  27.371  26.456  1.00  0.00     0.049 H 
ATOM     54  C   UNL     1     -51.708  27.077  24.555  1.00  0.00    -0.034 C 
ATOM     55  H   UNL     1     -51.472  29.208  24.834  1.00  0.00     0.049 H 
ATOM     56  H   UNL     1     -51.170  28.654  23.159  1.00  0.00     0.049 H 
ATOM     57  H   UNL     1     -51.338  27.166  26.677  1.00  0.00     0.029 H 
ATOM     58  H   UNL     1     -51.031  25.562  25.987  1.00  0.00     0.029 H 
ATOM     59  H   UNL     1     -51.551  26.357  23.744  1.00  0.00     0.029 H 
ATOM     60  H   UNL     1     -52.783  27.177  24.725  1.00  0.00     0.029 H 
ENDBRANCH  44  48
ENDBRANCH  32  33
ENDBRANCH   1  32
TORSDOF 8
ENDMDL
MODEL 2
REMARK VINA RESULT:     -10.1      3.566     11.517
REMARK SMILES Nc1ncnc2c1c(Br)cn2[C@@H]1O[C@H](COc2ccc3ccc(N4CCCC4)nc3c2)[C@@H](O)[C@H]1O
REMARK SMILES IDX 15 1 14 4 12 5 13 6 34 7 32 9 11 13 2 14 3 15 7 16 4 17 6 18
REMARK SMILES IDX 8 19 5 20 9 22 10 23 1 25 35 28 33 30 16 32 17 33 18 34
REMARK SMILES IDX 31 35 19 36 30 38 20 40 29 42 21 43 23 44 22 45 24 48 25 49
REMARK SMILES IDX 28 50 26 51 27 54
REMARK H PARENT 15 2 15 3 12 8 34 10 14 11 32 12 4 21 10 24 1 26 1 27 35 29
REMARK H PARENT 33 31 18 37 31 39 19 41 21 46 22 47 25 52 25 53 28 55 28 56
REMARK H PARENT 26 57 26 58 27 59 27 60
REMARK Flexibility Score: inf
ROOT
ATOM      1  C   UNL     1     -46.494  33.207  26.120  1.00  0.00     0.117 C 
ATOM      2  H   UNL     1     -45.787  32.396  26.328  1.00  0.00     0.073 H 
ATOM      3  H   UNL     1     -45.922  33.990  25.610  1.00  0.00     0.073 H 
ENDROOT
BRANCH   1   4
ATOM      4  C   UNL     1     -47.653  32.773  25.218  1.00  0.00     0.123 C 
ATOM      5  C   UNL     1     -48.333  30.903  23.999  1.00  0.00     0.164 C 
ATOM      6  O   UNL     1     -47.216  31.785  24.261  1.00  0.00    -0.345 OA
ATOM      7  C   UNL     1     -49.493  31.332  24.909  1.00  0.00     0.128 C 
ATOM      8  H   UNL     1     -48.582  30.995  22.935  1.00  0.00     0.088 H 
ATOM      9  C   UNL     1     -48.769  32.100  26.001  1.00  0.00     0.114 C 
ATOM     10  H   UNL     1     -50.100  30.516  25.312  1.00  0.00     0.068 H 
ATOM     11  H   UNL     1     -48.030  33.631  24.649  1.00  0.00     0.067 H 
ATOM     12  H   UNL     1     -48.359  31.404  26.743  1.00  0.00     0.066 H 
BRANCH   5  13
ATOM     13  N   UNL     1     -47.925  29.519  24.223  1.00  0.00    -0.302 N 
ATOM     14  C   UNL     1     -45.591  26.929  23.591  1.00  0.00     0.137 A 
ATOM     15  N   UNL     1     -44.723  27.545  22.763  1.00  0.00    -0.219 NA
ATOM     16  C   UNL     1     -46.695  27.648  24.073  1.00  0.00     0.075 A 
ATOM     17  C   UNL     1     -44.943  28.834  22.443  1.00  0.00     0.120 A 
ATOM     18  C   UNL     1     -46.797  28.972  23.658  1.00  0.00     0.148 A 
ATOM     19  C   UNL     1     -47.816  27.420  24.907  1.00  0.00     0.049 A 
ATOM     20  N   UNL     1     -45.955  29.625  22.837  1.00  0.00    -0.218 NA
ATOM     21  H   UNL     1     -44.210  29.287  21.782  1.00  0.00     0.106 H 
ATOM     22  Br  UNL     1     -48.227  25.802  25.765  1.00  0.00    -0.048 Br
ATOM     23  C   UNL     1     -48.561  28.573  24.988  1.00  0.00     0.023 A 
ATOM     24  H   UNL     1     -49.470  28.799  25.531  1.00  0.00     0.083 H 
BRANCH  14  25
ATOM     25  N   UNL     1     -45.327  25.605  23.900  1.00  0.00    -0.383 N 
ATOM     26  H   UNL     1     -44.977  25.092  23.101  1.00  0.00     0.158 HD
ATOM     27  H   UNL     1     -46.007  25.143  24.489  1.00  0.00     0.158 HD
ENDBRANCH  14  25
ENDBRANCH   5  13
BRANCH   7  28
ATOM     28  O   UNL     1     -50.393  32.236  24.239  1.00  0.00    -0.386 OA
ATOM     29  H   UNL     1     -51.250  31.775  24.166  1.00  0.00     0.211 HD
ENDBRANCH   7  28
BRANCH   9  30
ATOM     30  O   UNL     1     -49.618  33.031  26.658  1.00  0.00    -0.387 OA
ATOM     31  H   UNL     1     -50.522  32.654  26.592  1.00  0.00     0.211 HD
ENDBRANCH   9  30
ENDBRANCH   1   4
BRANCH   1  32
ATOM     32  O   UNL     1     -46.971  33.809  27.329  1.00  0.00    -0.491 OA
BRANCH  32  33
ATOM     33  C   UNL     1     -46.974  35.172  27.429  1.00  0.00     0.121 A 
ATOM     34  C   UNL     1     -48.239  35.751  27.348  1.00  0.00    -0.019 A 
ATOM     35  C   UNL     1     -45.859  35.995  27.605  1.00  0.00     0.007 A 
ATOM     36  C   UNL     1     -48.388  37.133  27.439  1.00  0.00    -0.049 A 
ATOM     37  H   UNL     1     -49.115  35.119  27.213  1.00  0.00     0.066 H 
ATOM     38  C   UNL     1     -45.979  37.377  27.703  1.00  0.00     0.076 A 
ATOM     39  H   UNL     1     -44.855  35.590  27.678  1.00  0.00     0.069 H 
ATOM     40  C   UNL     1     -47.261  37.947  27.617  1.00  0.00     0.001 A 
ATOM     41  H   UNL     1     -49.383  37.566  27.372  1.00  0.00     0.063 H 
ATOM     42  N   UNL     1     -44.872  38.122  27.876  1.00  0.00    -0.231 NA
ATOM     43  C   UNL     1     -47.358  39.335  27.711  1.00  0.00    -0.049 A 
ATOM     44  C   UNL     1     -44.965  39.467  27.981  1.00  0.00     0.129 A 
ATOM     45  C   UNL     1     -46.204  40.094  27.890  1.00  0.00    -0.019 A 
ATOM     46  H   UNL     1     -48.320  39.835  27.642  1.00  0.00     0.063 H 
ATOM     47  H   UNL     1     -46.286  41.174  27.939  1.00  0.00     0.066 H 
BRANCH  44  48
ATOM     48  N   UNL     1     -43.804  40.189  28.139  1.00  0.00    -0.357 N 
ATOM     49  C   UNL     1     -43.533  41.431  27.424  1.00  0.00     0.019 C 
ATOM     50  C   UNL     1     -43.120  40.154  29.427  1.00  0.00     0.019 C 
ATOM     51  C   UNL     1     -42.640  42.229  28.374  1.00  0.00    -0.034 C 
ATOM     52  H   UNL     1     -43.004  41.210  26.490  1.00  0.00     0.049 H 
ATOM     53  H   UNL     1     -44.438  42.004  27.194  1.00  0.00     0.049 H 
ATOM     54  C   UNL     1     -41.989  41.161  29.239  1.00  0.00    -0.034 C 
ATOM     55  H   UNL     1     -43.783  40.484  30.236  1.00  0.00     0.049 H 
ATOM     56  H   UNL     1     -42.725  39.160  29.662  1.00  0.00     0.049 H 
ATOM     57  H   UNL     1     -43.256  42.888  28.999  1.00  0.00     0.029 H 
ATOM     58  H   UNL     1     -41.913  42.849  27.843  1.00  0.00     0.029 H 
ATOM     59  H   UNL     1     -41.154  40.699  28.699  1.00  0.00     0.029 H 
ATOM     60  H   UNL     1     -41.612  41.552  30.188  1.00  0.00     0.029 H 
ENDBRANCH  44  48
ENDBRANCH  32  33
ENDBRANCH   1  32
TORSDOF 8
ENDMDL
MODEL 3
REMARK VINA RESULT:      -9.9      1.940      2.789
REMARK SMILES Nc1ncnc2c1c(Br)cn2[C@@H]1O[C@H](COc2ccc3ccc(N4CCCC4)nc3c2)[C@@H](O)[C@H]1O
REMARK SMILES IDX 15 1 14 4 12 5 13 6 34 7 32 9 11 13 2 14 3 15 7 16 4 17 6 18
REMARK SMILES IDX 8 19 5 20 9 22 10 23 1 25 35 28 33 30 16 32 17 33 18 34
REMARK SMILES IDX 31 35 19 36 30 38 20 40 29 42 21 43 23 44 22 45 24 48 25 49
REMARK SMILES IDX 28 50 26 51 27 54
REMARK H PARENT 15 2 15 3 12 8 34 10 14 11 32 12 4 21 10 24 1 26 1 27 35 29
REMARK H PARENT 33 31 18 37 31 39 19 41 21 46 22 47 25 52 25 53 28 55 28 56
REMARK H PARENT 26 57 26 58 27 59 27 60
REMARK Flexibility Score: inf
ROOT
ATOM      1  C   UNL     1     -45.835  36.101  27.706  1.00  0.00     0.117 C 
ATOM      2  H   UNL     1     -44.744  36.014  27.642  1.00  0.00     0.073 H 
ATOM      3  H   UNL     1     -46.178  35.235  28.283  1.00  0.00     0.073 H 
ENDROOT
BRANCH   1   4
ATOM      4  C   UNL     1     -46.292  37.380  28.412  1.00  0.00     0.123 C 
ATOM      5  C   UNL     1     -45.629  39.607  28.632  1.00  0.00     0.164 C 
ATOM      6  O   UNL     1     -45.167  38.237  28.702  1.00  0.00    -0.345 OA
ATOM      7  C   UNL     1     -47.101  39.584  28.196  1.00  0.00     0.128 C 
ATOM      8  H   UNL     1     -45.495  40.050  29.626  1.00  0.00     0.088 H 
ATOM      9  C   UNL     1     -47.215  38.218  27.541  1.00  0.00     0.114 C 
ATOM     10  H   UNL     1     -47.404  40.390  27.521  1.00  0.00     0.068 H 
ATOM     11  H   UNL     1     -46.767  37.133  29.369  1.00  0.00     0.067 H 
ATOM     12  H   UNL     1     -46.843  38.262  26.510  1.00  0.00     0.066 H 
BRANCH   5  13
ATOM     13  N   UNL     1     -44.782  40.360  27.711  1.00  0.00    -0.302 N 
ATOM     14  C   UNL     1     -41.655  41.900  27.073  1.00  0.00     0.137 A 
ATOM     15  N   UNL     1     -40.999  41.667  28.229  1.00  0.00    -0.219 NA
ATOM     16  C   UNL     1     -42.970  41.434  26.935  1.00  0.00     0.075 A 
ATOM     17  C   UNL     1     -41.631  40.981  29.200  1.00  0.00     0.120 A 
ATOM     18  C   UNL     1     -43.497  40.741  28.020  1.00  0.00     0.148 A 
ATOM     19  C   UNL     1     -43.998  41.458  25.960  1.00  0.00     0.049 A 
ATOM     20  N   UNL     1     -42.880  40.486  29.187  1.00  0.00    -0.218 NA
ATOM     21  H   UNL     1     -41.057  40.811  30.106  1.00  0.00     0.106 H 
ATOM     22  Br  UNL     1     -43.880  42.264  24.270  1.00  0.00    -0.048 Br
ATOM     23  C   UNL     1     -45.101  40.799  26.451  1.00  0.00     0.023 A 
ATOM     24  H   UNL     1     -46.067  40.597  26.006  1.00  0.00     0.083 H 
BRANCH  14  25
ATOM     25  N   UNL     1     -40.969  42.604  26.098  1.00  0.00    -0.383 N 
ATOM     26  H   UNL     1     -40.876  42.072  25.242  1.00  0.00     0.158 HD
ATOM     27  H   UNL     1     -40.162  43.126  26.412  1.00  0.00     0.158 HD
ENDBRANCH  14  25
ENDBRANCH   5  13
BRANCH   7  28
ATOM     28  O   UNL     1     -47.995  39.622  29.326  1.00  0.00    -0.386 OA
ATOM     29  H   UNL     1     -47.463  39.898  30.095  1.00  0.00     0.211 HD
ENDBRANCH   7  28
BRANCH   9  30
ATOM     30  O   UNL     1     -48.551  37.735  27.532  1.00  0.00    -0.387 OA
ATOM     31  H   UNL     1     -49.048  38.349  26.950  1.00  0.00     0.211 HD
ENDBRANCH   9  30
ENDBRANCH   1   4
BRANCH   1  32
ATOM     32  O   UNL     1     -46.446  35.968  26.418  1.00  0.00    -0.491 OA
BRANCH  32  33
ATOM     33  C   UNL     1     -47.030  34.777  26.086  1.00  0.00     0.121 A 
ATOM     34  C   UNL     1     -48.333  34.625  26.556  1.00  0.00    -0.019 A 
ATOM     35  C   UNL     1     -46.451  33.747  25.340  1.00  0.00     0.007 A 
ATOM     36  C   UNL     1     -49.047  33.460  26.286  1.00  0.00    -0.049 A 
ATOM     37  H   UNL     1     -48.794  35.421  27.137  1.00  0.00     0.066 H 
ATOM     38  C   UNL     1     -47.142  32.575  25.053  1.00  0.00     0.076 A 
ATOM     39  H   UNL     1     -45.442  33.822  24.949  1.00  0.00     0.069 H 
ATOM     40  C   UNL     1     -48.455  32.435  25.535  1.00  0.00     0.001 A 
ATOM     41  H   UNL     1     -50.062  33.359  26.663  1.00  0.00     0.063 H 
ATOM     42  N   UNL     1     -46.538  31.618  24.326  1.00  0.00    -0.231 NA
ATOM     43  C   UNL     1     -49.128  31.249  25.241  1.00  0.00    -0.049 A 
ATOM     44  C   UNL     1     -47.193  30.473  24.028  1.00  0.00     0.129 A 
ATOM     45  C   UNL     1     -48.490  30.266  24.489  1.00  0.00    -0.019 A 
ATOM     46  H   UNL     1     -50.140  31.078  25.595  1.00  0.00     0.063 H 
ATOM     47  H   UNL     1     -49.012  29.338  24.284  1.00  0.00     0.066 H 
BRANCH  44  48
ATOM     48  N   UNL     1     -46.529  29.514  23.298  1.00  0.00    -0.357 N 
ATOM     49  C   UNL     1     -45.441  29.824  22.377  1.00  0.00     0.019 C 
ATOM     50  C   UNL     1     -46.395  28.171  23.851  1.00  0.00     0.019 C 
ATOM     51  C   UNL     1     -44.556  28.578  22.404  1.00  0.00    -0.034 C 
ATOM     52  H   UNL     1     -45.845  29.989  21.372  1.00  0.00     0.049 H 
ATOM     53  H   UNL     1     -44.858  30.702  22.676  1.00  0.00     0.049 H 
ATOM     54  C   UNL     1     -45.505  27.469  22.829  1.00  0.00    -0.034 C 
ATOM     55  H   UNL     1     -45.895  28.195  24.828  1.00  0.00     0.049 H 
ATOM     56  H   UNL     1     -47.359  27.662  23.947  1.00  0.00     0.049 H 
ATOM     57  H   UNL     1     -43.765  28.699  23.156  1.00  0.00     0.029 H 
ATOM     58  H   UNL     1     -44.078  28.383  21.439  1.00  0.00     0.029 H 
ATOM     59  H   UNL     1     -46.101  27.136  21.971  1.00  0.00     0.029 H 
ATOM     60  H   UNL     1     -44.987  26.602  23.248  1.00  0.00     0.029 H 
ENDBRANCH  44  48
ENDBRANCH  32  33
ENDBRANCH   1  32
TORSDOF 8
ENDMDL
MODEL 4
REMARK VINA RESULT:      -9.8      3.261     11.055
REMARK SMILES Nc1ncnc2c1c(Br)cn2[C@@H]1O[C@H](COc2ccc3ccc(N4CCCC4)nc3c2)[C@@H](O)[C@H]1O
REMARK SMILES IDX 15 1 14 4 12 5 13 6 34 7 32 9 11 13 2 14 3 15 7 16 4 17 6 18
REMARK SMILES IDX 8 19 5 20 9 22 10 23 1 25 35 28 33 30 16 32 17 33 18 34
REMARK SMILES IDX 31 35 19 36 30 38 20 40 29 42 21 43 23 44 22 45 24 48 25 49
REMARK SMILES IDX 28 50 26 51 27 54
REMARK H PARENT 15 2 15 3 12 8 34 10 14 11 32 12 4 21 10 24 1 26 1 27 35 29
REMARK H PARENT 33 31 18 37 31 39 19 41 21 46 22 47 25 52 25 53 28 55 28 56
REMARK H PARENT 26 57 26 58 27 59 27 60
REMARK Flexibility Score: inf
ROOT
ATOM      1  C   UNL     1     -48.376  35.751  26.673  1.00  0.00     0.117 C 
ATOM      2  H   UNL     1     -47.828  36.224  25.850  1.00  0.00     0.073 H 
ATOM      3  H   UNL     1     -49.427  35.722  26.365  1.00  0.00     0.073 H 
ENDROOT
BRANCH   1   4
ATOM      4  C   UNL     1     -47.904  34.323  26.962  1.00  0.00     0.123 C 
ATOM      5  C   UNL     1     -48.239  32.159  26.154  1.00  0.00     0.164 C 
ATOM      6  O   UNL     1     -48.916  33.363  26.587  1.00  0.00    -0.345 OA
ATOM      7  C   UNL     1     -46.728  32.430  26.194  1.00  0.00     0.128 C 
ATOM      8  H   UNL     1     -48.536  31.353  26.836  1.00  0.00     0.088 H 
ATOM      9  C   UNL     1     -46.678  33.947  26.145  1.00  0.00     0.114 C 
ATOM     10  H   UNL     1     -46.148  31.973  25.387  1.00  0.00     0.068 H 
ATOM     11  H   UNL     1     -47.720  34.196  28.035  1.00  0.00     0.067 H 
ATOM     12  H   UNL     1     -46.779  34.294  25.109  1.00  0.00     0.066 H 
BRANCH   5  13
ATOM     13  N   UNL     1     -48.708  31.787  24.823  1.00  0.00    -0.302 N 
ATOM     14  C   UNL     1     -47.959  30.424  21.639  1.00  0.00     0.137 A 
ATOM     15  N   UNL     1     -46.643  30.159  21.762  1.00  0.00    -0.219 NA
ATOM     16  C   UNL     1     -48.640  30.995  22.724  1.00  0.00     0.075 A 
ATOM     17  C   UNL     1     -46.036  30.441  22.931  1.00  0.00     0.120 A 
ATOM     18  C   UNL     1     -47.887  31.233  23.869  1.00  0.00     0.148 A 
ATOM     19  C   UNL     1     -49.951  31.437  23.028  1.00  0.00     0.049 A 
ATOM     20  N   UNL     1     -46.576  30.984  24.035  1.00  0.00    -0.218 NA
ATOM     21  H   UNL     1     -44.979  30.200  22.983  1.00  0.00     0.106 H 
ATOM     22  Br  UNL     1     -51.421  31.377  21.863  1.00  0.00    -0.048 Br
ATOM     23  C   UNL     1     -49.976  31.921  24.315  1.00  0.00     0.023 A 
ATOM     24  H   UNL     1     -50.786  32.329  24.908  1.00  0.00     0.083 H 
BRANCH  14  25
ATOM     25  N   UNL     1     -48.546  30.116  20.424  1.00  0.00    -0.383 N 
ATOM     26  H   UNL     1     -48.603  29.117  20.272  1.00  0.00     0.158 HD
ATOM     27  H   UNL     1     -48.270  30.691  19.638  1.00  0.00     0.158 HD
ENDBRANCH  14  25
ENDBRANCH   5  13
BRANCH   7  28
ATOM     28  O   UNL     1     -46.138  31.996  27.435  1.00  0.00    -0.386 OA
ATOM     29  H   UNL     1     -46.729  31.312  27.803  1.00  0.00     0.211 HD
ENDBRANCH   7  28
BRANCH   9  30
ATOM     30  O   UNL     1     -45.473  34.464  26.692  1.00  0.00    -0.387 OA
ATOM     31  H   UNL     1     -45.023  34.921  25.950  1.00  0.00     0.211 HD
ENDBRANCH   9  30
ENDBRANCH   1   4
BRANCH   1  32
ATOM     32  O   UNL     1     -48.346  36.559  27.855  1.00  0.00    -0.491 OA
BRANCH  32  33
ATOM     33  C   UNL     1     -47.247  37.338  28.092  1.00  0.00     0.121 A 
ATOM     34  C   UNL     1     -46.566  37.026  29.268  1.00  0.00    -0.019 A 
ATOM     35  C   UNL     1     -46.770  38.372  27.283  1.00  0.00     0.007 A 
ATOM     36  C   UNL     1     -45.425  37.738  29.630  1.00  0.00    -0.049 A 
ATOM     37  H   UNL     1     -46.928  36.221  29.905  1.00  0.00     0.066 H 
ATOM     38  C   UNL     1     -45.632  39.096  27.619  1.00  0.00     0.076 A 
ATOM     39  H   UNL     1     -47.264  38.647  26.358  1.00  0.00     0.069 H 
ATOM     40  C   UNL     1     -44.956  38.772  28.808  1.00  0.00     0.001 A 
ATOM     41  H   UNL     1     -44.909  37.481  30.551  1.00  0.00     0.063 H 
ATOM     42  N   UNL     1     -45.214  40.079  26.801  1.00  0.00    -0.231 NA
ATOM     43  C   UNL     1     -43.821  39.515  29.130  1.00  0.00    -0.049 A 
ATOM     44  C   UNL     1     -44.105  40.793  27.103  1.00  0.00     0.129 A 
ATOM     45  C   UNL     1     -43.400  40.530  28.274  1.00  0.00    -0.019 A 
ATOM     46  H   UNL     1     -43.262  39.319  30.040  1.00  0.00     0.063 H 
ATOM     47  H   UNL     1     -42.530  41.119  28.542  1.00  0.00     0.066 H 
BRANCH  44  48
ATOM     48  N   UNL     1     -43.726  41.800  26.246  1.00  0.00    -0.357 N 
ATOM     49  C   UNL     1     -44.450  42.120  25.021  1.00  0.00     0.019 C 
ATOM     50  C   UNL     1     -43.049  42.972  26.788  1.00  0.00     0.019 C 
ATOM     51  C   UNL     1     -44.222  43.620  24.827  1.00  0.00    -0.034 C 
ATOM     52  H   UNL     1     -44.027  41.554  24.184  1.00  0.00     0.049 H 
ATOM     53  H   UNL     1     -45.524  41.912  25.086  1.00  0.00     0.049 H 
ATOM     54  C   UNL     1     -42.924  43.886  25.573  1.00  0.00    -0.034 C 
ATOM     55  H   UNL     1     -43.659  43.458  27.561  1.00  0.00     0.049 H 
ATOM     56  H   UNL     1     -42.063  42.731  27.200  1.00  0.00     0.049 H 
ATOM     57  H   UNL     1     -45.040  44.184  25.292  1.00  0.00     0.029 H 
ATOM     58  H   UNL     1     -44.173  43.902  23.772  1.00  0.00     0.029 H 
ATOM     59  H   UNL     1     -42.069  43.586  24.957  1.00  0.00     0.029 H 
ATOM     60  H   UNL     1     -42.800  44.937  25.849  1.00  0.00     0.029 H 
ENDBRANCH  44  48
ENDBRANCH  32  33
ENDBRANCH   1  32
TORSDOF 8
ENDMDL
MODEL 5
REMARK VINA RESULT:      -9.6      2.803     11.285
REMARK SMILES Nc1ncnc2c1c(Br)cn2[C@@H]1O[C@H](COc2ccc3ccc(N4CCCC4)nc3c2)[C@@H](O)[C@H]1O
REMARK SMILES IDX 15 1 14 4 12 5 13 6 34 7 32 9 11 13 2 14 3 15 7 16 4 17 6 18
REMARK SMILES IDX 8 19 5 20 9 22 10 23 1 25 35 28 33 30 16 32 17 33 18 34
REMARK SMILES IDX 31 35 19 36 30 38 20 40 29 42 21 43 23 44 22 45 24 48 25 49
REMARK SMILES IDX 28 50 26 51 27 54
REMARK H PARENT 15 2 15 3 12 8 34 10 14 11 32 12 4 21 10 24 1 26 1 27 35 29
REMARK H PARENT 33 31 18 37 31 39 19 41 21 46 22 47 25 52 25 53 28 55 28 56
REMARK H PARENT 26 57 26 58 27 59 27 60
REMARK Flexibility Score: inf
ROOT
ATOM      1  C   UNL     1     -47.427  36.024  26.410  1.00  0.00     0.117 C 
ATOM      2  H   UNL     1     -46.636  36.298  25.703  1.00  0.00     0.073 H 
ATOM      3  H   UNL     1     -48.366  36.045  25.845  1.00  0.00     0.073 H 
ENDROOT
BRANCH   1   4
ATOM      4  C   UNL     1     -47.238  34.626  27.005  1.00  0.00     0.123 C 
ATOM      5  C   UNL     1     -47.384  32.393  26.342  1.00  0.00     0.164 C 
ATOM      6  O   UNL     1     -48.077  33.663  26.332  1.00  0.00    -0.345 OA
ATOM      7  C   UNL     1     -46.010  32.614  26.990  1.00  0.00     0.128 C 
ATOM      8  H   UNL     1     -48.003  31.686  26.908  1.00  0.00     0.088 H 
ATOM      9  C   UNL     1     -45.819  34.112  26.823  1.00  0.00     0.114 C 
ATOM     10  H   UNL     1     -45.186  32.042  26.551  1.00  0.00     0.068 H 
ATOM     11  H   UNL     1     -47.527  34.624  28.063  1.00  0.00     0.067 H 
ATOM     12  H   UNL     1     -45.451  34.334  25.814  1.00  0.00     0.066 H 
BRANCH   5  13
ATOM     13  N   UNL     1     -47.287  31.879  24.980  1.00  0.00    -0.302 N 
ATOM     14  C   UNL     1     -48.642  29.817  22.436  1.00  0.00     0.137 A 
ATOM     15  N   UNL     1     -49.713  29.288  23.061  1.00  0.00    -0.219 NA
ATOM     16  C   UNL     1     -47.820  30.709  23.139  1.00  0.00     0.075 A 
ATOM     17  C   UNL     1     -49.961  29.651  24.333  1.00  0.00     0.120 A 
ATOM     18  C   UNL     1     -48.195  30.993  24.448  1.00  0.00     0.148 A 
ATOM     19  C   UNL     1     -46.640  31.459  22.907  1.00  0.00     0.049 A 
ATOM     20  N   UNL     1     -49.254  30.491  25.108  1.00  0.00    -0.218 NA
ATOM     21  H   UNL     1     -50.841  29.206  24.787  1.00  0.00     0.106 H 
ATOM     22  Br  UNL     1     -45.658  31.481  21.309  1.00  0.00    -0.048 Br
ATOM     23  C   UNL     1     -46.326  32.167  24.043  1.00  0.00     0.023 A 
ATOM     24  H   UNL     1     -45.516  32.855  24.253  1.00  0.00     0.083 H 
BRANCH  14  25
ATOM     25  N   UNL     1     -48.424  29.422  21.127  1.00  0.00    -0.383 N 
ATOM     26  H   UNL     1     -47.598  29.854  20.733  1.00  0.00     0.158 HD
ATOM     27  H   UNL     1     -49.245  29.365  20.538  1.00  0.00     0.158 HD
ENDBRANCH  14  25
ENDBRANCH   5  13
BRANCH   7  28
ATOM     28  O   UNL     1     -46.027  32.313  28.400  1.00  0.00    -0.386 OA
ATOM     29  H   UNL     1     -46.788  31.722  28.551  1.00  0.00     0.211 HD
ENDBRANCH   7  28
BRANCH   9  30
ATOM     30  O   UNL     1     -44.912  34.648  27.776  1.00  0.00    -0.387 OA
ATOM     31  H   UNL     1     -44.806  35.593  27.534  1.00  0.00     0.211 HD
ENDBRANCH   9  30
ENDBRANCH   1   4
BRANCH   1  32
ATOM     32  O   UNL     1     -47.577  37.012  27.436  1.00  0.00    -0.491 OA
BRANCH  32  33
ATOM     33  C   UNL     1     -46.577  37.925  27.622  1.00  0.00     0.121 A 
ATOM     34  C   UNL     1     -45.876  37.773  28.817  1.00  0.00    -0.019 A 
ATOM     35  C   UNL     1     -46.214  38.950  26.745  1.00  0.00     0.007 A 
ATOM     36  C   UNL     1     -44.827  38.635  29.131  1.00  0.00    -0.049 A 
ATOM     37  H   UNL     1     -46.149  36.978  29.507  1.00  0.00     0.066 H 
ATOM     38  C   UNL     1     -45.169  39.822  27.033  1.00  0.00     0.076 A 
ATOM     39  H   UNL     1     -46.728  39.104  25.802  1.00  0.00     0.069 H 
ATOM     40  C   UNL     1     -44.472  39.658  28.242  1.00  0.00     0.001 A 
ATOM     41  H   UNL     1     -44.293  38.501  30.069  1.00  0.00     0.063 H 
ATOM     42  N   UNL     1     -44.859  40.789  26.150  1.00  0.00    -0.231 NA
ATOM     43  C   UNL     1     -43.432  40.547  28.514  1.00  0.00    -0.049 A 
ATOM     44  C   UNL     1     -43.842  41.643  26.405  1.00  0.00     0.129 A 
ATOM     45  C   UNL     1     -43.122  41.543  27.592  1.00  0.00    -0.019 A 
ATOM     46  H   UNL     1     -42.863  40.477  29.437  1.00  0.00     0.063 H 
ATOM     47  H   UNL     1     -42.327  42.244  27.821  1.00  0.00     0.066 H 
BRANCH  44  48
ATOM     48  N   UNL     1     -43.572  42.628  25.481  1.00  0.00    -0.357 N 
ATOM     49  C   UNL     1     -42.270  43.273  25.361  1.00  0.00     0.019 C 
ATOM     50  C   UNL     1     -44.283  42.616  24.208  1.00  0.00     0.019 C 
ATOM     51  C   UNL     1     -42.170  43.651  23.883  1.00  0.00    -0.034 C 
ATOM     52  H   UNL     1     -42.244  44.169  25.991  1.00  0.00     0.049 H 
ATOM     53  H   UNL     1     -41.435  42.619  25.636  1.00  0.00     0.049 H 
ATOM     54  C   UNL     1     -43.620  43.754  23.438  1.00  0.00    -0.034 C 
ATOM     55  H   UNL     1     -44.129  41.667  23.679  1.00  0.00     0.049 H 
ATOM     56  H   UNL     1     -45.356  42.796  24.328  1.00  0.00     0.049 H 
ATOM     57  H   UNL     1     -41.667  42.849  23.327  1.00  0.00     0.029 H 
ATOM     58  H   UNL     1     -41.608  44.576  23.725  1.00  0.00     0.029 H 
ATOM     59  H   UNL     1     -44.040  44.718  23.747  1.00  0.00     0.029 H 
ATOM     60  H   UNL     1     -43.741  43.656  22.356  1.00  0.00     0.029 H 
ENDBRANCH  44  48
ENDBRANCH  32  33
ENDBRANCH   1  32
TORSDOF 8
ENDMDL
MODEL 6
REMARK VINA RESULT:      -9.4      4.182     11.769
REMARK SMILES Nc1ncnc2c1c(Br)cn2[C@@H]1O[C@H](COc2ccc3ccc(N4CCCC4)nc3c2)[C@@H](O)[C@H]1O
REMARK SMILES IDX 15 1 14 4 12 5 13 6 34 7 32 9 11 13 2 14 3 15 7 16 4 17 6 18
REMARK SMILES IDX 8 19 5 20 9 22 10 23 1 25 35 28 33 30 16 32 17 33 18 34
REMARK SMILES IDX 31 35 19 36 30 38 20 40 29 42 21 43 23 44 22 45 24 48 25 49
REMARK SMILES IDX 28 50 26 51 27 54
REMARK H PARENT 15 2 15 3 12 8 34 10 14 11 32 12 4 21 10 24 1 26 1 27 35 29
REMARK H PARENT 33 31 18 37 31 39 19 41 21 46 22 47 25 52 25 53 28 55 28 56
REMARK H PARENT 26 57 26 58 27 59 27 60
REMARK Flexibility Score: inf
ROOT
ATOM      1  C   UNL     1     -46.321  31.904  23.732  1.00  0.00     0.117 C 
ATOM      2  H   UNL     1     -45.234  31.881  23.877  1.00  0.00     0.073 H 
ATOM      3  H   UNL     1     -46.560  32.909  23.367  1.00  0.00     0.073 H 
ENDROOT
BRANCH   1   4
ATOM      4  C   UNL     1     -46.808  30.876  22.707  1.00  0.00     0.123 C 
ATOM      5  C   UNL     1     -47.344  28.607  22.604  1.00  0.00     0.164 C 
ATOM      6  O   UNL     1     -46.341  29.552  23.046  1.00  0.00    -0.345 OA
ATOM      7  C   UNL     1     -48.525  29.407  22.035  1.00  0.00     0.128 C 
ATOM      8  H   UNL     1     -46.877  27.960  21.851  1.00  0.00     0.088 H 
ATOM      9  C   UNL     1     -48.325  30.768  22.680  1.00  0.00     0.114 C 
ATOM     10  H   UNL     1     -49.516  28.994  22.243  1.00  0.00     0.068 H 
ATOM     11  H   UNL     1     -46.410  31.115  21.714  1.00  0.00     0.067 H 
ATOM     12  H   UNL     1     -48.733  30.765  23.698  1.00  0.00     0.066 H 
BRANCH   5  13
ATOM     13  N   UNL     1     -47.733  27.750  23.720  1.00  0.00    -0.302 N 
ATOM     14  C   UNL     1     -50.336  26.257  25.604  1.00  0.00     0.137 A 
ATOM     15  N   UNL     1     -51.430  26.732  24.976  1.00  0.00    -0.219 NA
ATOM     16  C   UNL     1     -49.069  26.639  25.141  1.00  0.00     0.075 A 
ATOM     17  C   UNL     1     -51.262  27.545  23.916  1.00  0.00     0.120 A 
ATOM     18  C   UNL     1     -49.045  27.484  24.037  1.00  0.00     0.148 A 
ATOM     19  C   UNL     1     -47.712  26.412  25.481  1.00  0.00     0.049 A 
ATOM     20  N   UNL     1     -50.109  27.980  23.380  1.00  0.00    -0.218 NA
ATOM     21  H   UNL     1     -52.173  27.892  23.439  1.00  0.00     0.106 H 
ATOM     22  Br  UNL     1     -47.106  25.348  26.902  1.00  0.00    -0.048 Br
ATOM     23  C   UNL     1     -46.907  27.101  24.604  1.00  0.00     0.023 A 
ATOM     24  H   UNL     1     -45.829  27.168  24.528  1.00  0.00     0.083 H 
BRANCH  14  25
ATOM     25  N   UNL     1     -50.552  25.421  26.687  1.00  0.00    -0.383 N 
ATOM     26  H   UNL     1     -50.589  25.932  27.559  1.00  0.00     0.158 HD
ATOM     27  H   UNL     1     -50.043  24.546  26.681  1.00  0.00     0.158 HD
ENDBRANCH  14  25
ENDBRANCH   5  13
BRANCH   7  28
ATOM     28  O   UNL     1     -48.426  29.564  20.605  1.00  0.00    -0.386 OA
ATOM     29  H   UNL     1     -49.281  29.922  20.302  1.00  0.00     0.211 HD
ENDBRANCH   7  28
BRANCH   9  30
ATOM     30  O   UNL     1     -48.937  31.811  21.936  1.00  0.00    -0.387 OA
ATOM     31  H   UNL     1     -49.882  31.802  22.200  1.00  0.00     0.211 HD
ENDBRANCH   9  30
ENDBRANCH   1   4
BRANCH   1  32
ATOM     32  O   UNL     1     -47.018  31.773  24.976  1.00  0.00    -0.491 OA
BRANCH  32  33
ATOM     33  C   UNL     1     -47.508  32.898  25.578  1.00  0.00     0.121 A 
ATOM     34  C   UNL     1     -48.851  32.816  25.942  1.00  0.00    -0.019 A 
ATOM     35  C   UNL     1     -46.799  34.071  25.850  1.00  0.00     0.007 A 
ATOM     36  C   UNL     1     -49.477  33.891  26.568  1.00  0.00    -0.049 A 
ATOM     37  H   UNL     1     -49.412  31.907  25.736  1.00  0.00     0.066 H 
ATOM     38  C   UNL     1     -47.399  35.157  26.477  1.00  0.00     0.076 A 
ATOM     39  H   UNL     1     -45.752  34.179  25.589  1.00  0.00     0.069 H 
ATOM     40  C   UNL     1     -48.754  35.061  26.837  1.00  0.00     0.001 A 
ATOM     41  H   UNL     1     -50.526  33.809  26.843  1.00  0.00     0.063 H 
ATOM     42  N   UNL     1     -46.668  36.261  26.720  1.00  0.00    -0.231 NA
ATOM     43  C   UNL     1     -49.337  36.165  27.459  1.00  0.00    -0.049 A 
ATOM     44  C   UNL     1     -47.227  37.328  27.335  1.00  0.00     0.129 A 
ATOM     45  C   UNL     1     -48.569  37.301  27.704  1.00  0.00    -0.019 A 
ATOM     46  H   UNL     1     -50.384  36.154  27.751  1.00  0.00     0.063 H 
ATOM     47  H   UNL     1     -49.036  38.163  28.167  1.00  0.00     0.066 H 
BRANCH  44  48
ATOM     48  N   UNL     1     -46.446  38.441  27.546  1.00  0.00    -0.357 N 
ATOM     49  C   UNL     1     -45.531  38.571  28.674  1.00  0.00     0.019 C 
ATOM     50  C   UNL     1     -45.991  39.213  26.396  1.00  0.00     0.019 C 
ATOM     51  C   UNL     1     -44.409  39.467  28.149  1.00  0.00    -0.034 C 
ATOM     52  H   UNL     1     -46.047  39.049  29.514  1.00  0.00     0.049 H 
ATOM     53  H   UNL     1     -45.117  37.613  29.008  1.00  0.00     0.049 H 
ATOM     54  C   UNL     1     -45.069  40.252  27.027  1.00  0.00    -0.034 C 
ATOM     55  H   UNL     1     -45.423  38.584  25.699  1.00  0.00     0.049 H 
ATOM     56  H   UNL     1     -46.818  39.694  25.863  1.00  0.00     0.049 H 
ATOM     57  H   UNL     1     -43.598  38.849  27.743  1.00  0.00     0.029 H 
ATOM     58  H   UNL     1     -43.987  40.109  28.928  1.00  0.00     0.029 H 
ATOM     59  H   UNL     1     -45.656  41.079  27.443  1.00  0.00     0.029 H 
ATOM     60  H   UNL     1     -44.349  40.663  26.314  1.00  0.00     0.029 H 
ENDBRANCH  44  48
ENDBRANCH  32  33
ENDBRANCH   1  32
TORSDOF 8
ENDMDL
MODEL 7
REMARK VINA RESULT:      -9.2      3.405     11.712
REMARK SMILES Nc1ncnc2c1c(Br)cn2[C@@H]1O[C@H](COc2ccc3ccc(N4CCCC4)nc3c2)[C@@H](O)[C@H]1O
REMARK SMILES IDX 15 1 14 4 12 5 13 6 34 7 32 9 11 13 2 14 3 15 7 16 4 17 6 18
REMARK SMILES IDX 8 19 5 20 9 22 10 23 1 25 35 28 33 30 16 32 17 33 18 34
REMARK SMILES IDX 31 35 19 36 30 38 20 40 29 42 21 43 23 44 22 45 24 48 25 49
REMARK SMILES IDX 28 50 26 51 27 54
REMARK H PARENT 15 2 15 3 12 8 34 10 14 11 32 12 4 21 10 24 1 26 1 27 35 29
REMARK H PARENT 33 31 18 37 31 39 19 41 21 46 22 47 25 52 25 53 28 55 28 56
REMARK H PARENT 26 57 26 58 27 59 27 60
REMARK Flexibility Score: inf
ROOT
ATOM      1  C   UNL     1     -46.386  32.923  26.039  1.00  0.00     0.117 C 
ATOM      2  H   UNL     1     -45.622  32.162  26.237  1.00  0.00     0.073 H 
ATOM      3  H   UNL     1     -45.876  33.743  25.522  1.00  0.00     0.073 H 
ENDROOT
BRANCH   1   4
ATOM      4  C   UNL     1     -47.524  32.410  25.152  1.00  0.00     0.123 C 
ATOM      5  C   UNL     1     -48.071  30.513  23.907  1.00  0.00     0.164 C 
ATOM      6  O   UNL     1     -47.026  31.482  24.164  1.00  0.00    -0.345 OA
ATOM      7  C   UNL     1     -49.242  30.824  24.850  1.00  0.00     0.128 C 
ATOM      8  H   UNL     1     -48.351  30.605  22.850  1.00  0.00     0.088 H 
ATOM      9  C   UNL     1     -48.562  31.629  25.944  1.00  0.00     0.114 C 
ATOM     10  H   UNL     1     -49.769  29.952  25.248  1.00  0.00     0.068 H 
ATOM     11  H   UNL     1     -47.985  33.244  24.610  1.00  0.00     0.067 H 
ATOM     12  H   UNL     1     -48.077  30.956  26.661  1.00  0.00     0.066 H 
BRANCH   5  13
ATOM     13  N   UNL     1     -47.543  29.165  24.092  1.00  0.00    -0.302 N 
ATOM     14  C   UNL     1     -47.843  26.005  25.669  1.00  0.00     0.137 A 
ATOM     15  N   UNL     1     -48.939  26.188  26.432  1.00  0.00    -0.219 NA
ATOM     16  C   UNL     1     -47.386  27.067  24.874  1.00  0.00     0.075 A 
ATOM     17  C   UNL     1     -49.563  27.381  26.388  1.00  0.00     0.120 A 
ATOM     18  C   UNL     1     -48.127  28.242  24.928  1.00  0.00     0.148 A 
ATOM     19  C   UNL     1     -46.324  27.324  23.973  1.00  0.00     0.049 A 
ATOM     20  N   UNL     1     -49.225  28.467  25.672  1.00  0.00    -0.218 NA
ATOM     21  H   UNL     1     -50.446  27.474  27.012  1.00  0.00     0.106 H 
ATOM     22  Br  UNL     1     -44.978  26.107  23.494  1.00  0.00    -0.048 Br
ATOM     23  C   UNL     1     -46.432  28.613  23.505  1.00  0.00     0.023 A 
ATOM     24  H   UNL     1     -45.827  29.169  22.800  1.00  0.00     0.083 H 
BRANCH  14  25
ATOM     25  N   UNL     1     -47.233  24.764  25.739  1.00  0.00    -0.383 N 
ATOM     26  H   UNL     1     -46.257  24.806  25.477  1.00  0.00     0.158 HD
ATOM     27  H   UNL     1     -47.775  23.984  25.392  1.00  0.00     0.158 HD
ENDBRANCH  14  25
ENDBRANCH   5  13
BRANCH   7  28
ATOM     28  O   UNL     1     -50.231  31.661  24.219  1.00  0.00    -0.386 OA
ATOM     29  H   UNL     1     -49.749  32.257  23.614  1.00  0.00     0.211 HD
ENDBRANCH   7  28
BRANCH   9  30
ATOM     30  O   UNL     1     -49.471  32.471  26.638  1.00  0.00    -0.387 OA
ATOM     31  H   UNL     1     -48.930  32.953  27.299  1.00  0.00     0.211 HD
ENDBRANCH   9  30
ENDBRANCH   1   4
BRANCH   1  32
ATOM     32  O   UNL     1     -46.887  33.490  27.255  1.00  0.00    -0.491 OA
BRANCH  32  33
ATOM     33  C   UNL     1     -46.928  34.851  27.378  1.00  0.00     0.121 A 
ATOM     34  C   UNL     1     -48.209  35.395  27.310  1.00  0.00    -0.019 A 
ATOM     35  C   UNL     1     -45.836  35.702  27.564  1.00  0.00     0.007 A 
ATOM     36  C   UNL     1     -48.397  36.771  27.425  1.00  0.00    -0.049 A 
ATOM     37  H   UNL     1     -49.067  34.741  27.166  1.00  0.00     0.066 H 
ATOM     38  C   UNL     1     -45.995  37.078  27.686  1.00  0.00     0.076 A 
ATOM     39  H   UNL     1     -44.821  35.324  27.628  1.00  0.00     0.069 H 
ATOM     40  C   UNL     1     -47.293  37.614  27.613  1.00  0.00     0.001 A 
ATOM     41  H   UNL     1     -49.404  37.176  27.368  1.00  0.00     0.063 H 
ATOM     42  N   UNL     1     -44.909  37.851  27.869  1.00  0.00    -0.231 NA
ATOM     43  C   UNL     1     -47.429  38.996  27.731  1.00  0.00    -0.049 A 
ATOM     44  C   UNL     1     -45.039  39.192  27.997  1.00  0.00     0.129 A 
ATOM     45  C   UNL     1     -46.296  39.784  27.919  1.00  0.00    -0.019 A 
ATOM     46  H   UNL     1     -48.405  39.469  27.673  1.00  0.00     0.063 H 
ATOM     47  H   UNL     1     -46.408  40.860  27.987  1.00  0.00     0.066 H 
BRANCH  44  48
ATOM     48  N   UNL     1     -43.899  39.943  28.164  1.00  0.00    -0.357 N 
ATOM     49  C   UNL     1     -43.617  41.148  27.391  1.00  0.00     0.019 C 
ATOM     50  C   UNL     1     -43.273  39.994  29.481  1.00  0.00     0.019 C 
ATOM     51  C   UNL     1     -42.781  42.015  28.333  1.00  0.00    -0.034 C 
ATOM     52  H   UNL     1     -43.043  40.884  26.496  1.00  0.00     0.049 H 
ATOM     53  H   UNL     1     -44.520  41.689  27.089  1.00  0.00     0.049 H 
ATOM     54  C   UNL     1     -42.152  41.010  29.285  1.00  0.00    -0.034 C 
ATOM     55  H   UNL     1     -43.978  40.357  30.239  1.00  0.00     0.049 H 
ATOM     56  H   UNL     1     -42.873  39.023  29.789  1.00  0.00     0.049 H 
ATOM     57  H   UNL     1     -43.435  42.696  28.891  1.00  0.00     0.029 H 
ATOM     58  H   UNL     1     -42.041  42.618  27.799  1.00  0.00     0.029 H 
ATOM     59  H   UNL     1     -41.285  40.535  28.810  1.00  0.00     0.029 H 
ATOM     60  H   UNL     1     -41.825  41.462  30.225  1.00  0.00     0.029 H 
ENDBRANCH  44  48
ENDBRANCH  32  33
ENDBRANCH   1  32
TORSDOF 8
ENDMDL
