MODEL 1
REMARK VINA RESULT:     -10.0      0.000      0.000
REMARK SMILES CNc1ccc2ccc(OCc3cc(Br)cc(-n4cc(Cl)c5c(N)ncnc54)c3)cc2n1
REMARK SMILES IDX 11 1 10 4 9 5 3 6 4 7 32 8 5 9 31 11 6 12 30 14 7 15 8 17
REMARK SMILES IDX 2 20 1 22 12 26 13 27 29 28 14 29 17 31 15 33 16 34 18 36
REMARK SMILES IDX 19 37 28 38 20 39 22 41 27 42 21 43 23 44 26 45 25 46 24 48
REMARK H PARENT 11 2 11 3 4 10 5 13 30 16 7 18 8 19 2 21 1 23 1 24 1 25 13 30
REMARK H PARENT 29 32 16 35 19 40 26 47 24 49 24 50
REMARK Flexibility Score: inf
ROOT
ATOM      1  C   UNL     1     -46.659  34.625  26.737  1.00  0.00     0.113 C 
ATOM      2  H   UNL     1     -46.467  34.598  25.658  1.00  0.00     0.076 H 
ATOM      3  H   UNL     1     -45.721  34.323  27.222  1.00  0.00     0.076 H 
ENDROOT
BRANCH   1   4
ATOM      4  O   UNL     1     -47.693  33.671  26.988  1.00  0.00    -0.489 OA
BRANCH   4   5
ATOM      5  C   UNL     1     -48.095  32.853  25.968  1.00  0.00     0.122 A 
ATOM      6  C   UNL     1     -46.453  30.182  22.377  1.00  0.00     0.126 A 
ATOM      7  C   UNL     1     -47.742  29.823  21.996  1.00  0.00    -0.019 A 
ATOM      8  N   UNL     1     -46.229  30.991  23.432  1.00  0.00    -0.231 NA
ATOM      9  C   UNL     1     -48.829  30.323  22.706  1.00  0.00    -0.049 A 
ATOM     10  H   UNL     1     -47.900  29.149  21.161  1.00  0.00     0.066 H 
ATOM     11  C   UNL     1     -47.276  31.478  24.125  1.00  0.00     0.076 A 
ATOM     12  C   UNL     1     -48.608  31.170  23.794  1.00  0.00     0.001 A 
ATOM     13  H   UNL     1     -49.835  30.043  22.408  1.00  0.00     0.063 H 
ATOM     14  C   UNL     1     -47.049  32.317  25.207  1.00  0.00     0.007 A 
ATOM     15  C   UNL     1     -49.666  31.706  24.545  1.00  0.00    -0.049 A 
ATOM     16  H   UNL     1     -46.022  32.560  25.468  1.00  0.00     0.069 H 
ATOM     17  C   UNL     1     -49.409  32.547  25.629  1.00  0.00    -0.019 A 
ATOM     18  H   UNL     1     -50.697  31.475  24.287  1.00  0.00     0.063 H 
ATOM     19  H   UNL     1     -50.257  32.953  26.171  1.00  0.00     0.066 H 
BRANCH   6  20
ATOM     20  N   UNL     1     -45.378  29.636  21.652  1.00  0.00    -0.373 N 
ATOM     21  H   UNL     1     -44.822  30.395  21.270  1.00  0.00     0.161 HD
BRANCH  20  22
ATOM     22  C   UNL     1     -44.564  28.700  22.410  1.00  0.00     0.005 C 
ATOM     23  H   UNL     1     -45.034  27.711  22.468  1.00  0.00     0.045 H 
ATOM     24  H   UNL     1     -44.456  29.074  23.433  1.00  0.00     0.045 H 
ATOM     25  H   UNL     1     -43.558  28.608  21.989  1.00  0.00     0.045 H 
ENDBRANCH  20  22
ENDBRANCH   6  20
ENDBRANCH   4   5
ENDBRANCH   1   4
BRANCH   1  26
ATOM     26  C   UNL     1     -47.052  36.044  27.089  1.00  0.00    -0.008 A 
ATOM     27  C   UNL     1     -48.374  36.324  27.451  1.00  0.00    -0.041 A 
ATOM     28  C   UNL     1     -46.105  37.086  27.108  1.00  0.00    -0.031 A 
ATOM     29  C   UNL     1     -48.738  37.623  27.794  1.00  0.00     0.020 A 
ATOM     30  H   UNL     1     -49.118  35.531  27.465  1.00  0.00     0.064 H 
ATOM     31  C   UNL     1     -46.465  38.404  27.447  1.00  0.00     0.049 A 
ATOM     32  H   UNL     1     -45.089  36.831  26.819  1.00  0.00     0.065 H 
ATOM     33  Br  UNL     1     -50.531  37.988  28.276  1.00  0.00    -0.051 Br
ATOM     34  C   UNL     1     -47.799  38.658  27.791  1.00  0.00    -0.024 A 
ATOM     35  H   UNL     1     -48.141  39.644  28.085  1.00  0.00     0.066 H 
BRANCH  31  36
ATOM     36  N   UNL     1     -45.477  39.451  27.441  1.00  0.00    -0.300 N 
ATOM     37  C   UNL     1     -45.387  40.452  26.486  1.00  0.00     0.030 A 
ATOM     38  C   UNL     1     -44.441  39.668  28.357  1.00  0.00     0.151 A 
ATOM     39  C   UNL     1     -44.329  41.273  26.783  1.00  0.00     0.072 A 
ATOM     40  H   UNL     1     -46.064  40.505  25.647  1.00  0.00     0.084 H 
ATOM     41  C   UNL     1     -43.722  40.798  27.965  1.00  0.00     0.080 A 
ATOM     42  N   UNL     1     -44.170  38.937  29.458  1.00  0.00    -0.218 NA
ATOM     43  Cl  UNL     1     -43.836  42.622  25.871  1.00  0.00    -0.082 Cl
ATOM     44  C   UNL     1     -42.639  41.181  28.772  1.00  0.00     0.137 A 
ATOM     45  C   UNL     1     -43.117  39.395  30.147  1.00  0.00     0.120 A 
ATOM     46  N   UNL     1     -42.344  40.453  29.862  1.00  0.00    -0.219 NA
ATOM     47  H   UNL     1     -42.854  38.841  31.044  1.00  0.00     0.106 H 
BRANCH  44  48
ATOM     48  N   UNL     1     -41.832  42.277  28.517  1.00  0.00    -0.383 N 
ATOM     49  H   UNL     1     -42.297  43.103  28.164  1.00  0.00     0.158 HD
ATOM     50  H   UNL     1     -40.958  42.011  28.080  1.00  0.00     0.158 HD
ENDBRANCH  44  48
ENDBRANCH  31  36
ENDBRANCH   1  26
TORSDOF 7
ENDMDL
MODEL 2
REMARK VINA RESULT:      -9.9      1.645      2.435
REMARK SMILES CNc1ccc2ccc(OCc3cc(Br)cc(-n4cc(Cl)c5c(N)ncnc54)c3)cc2n1
REMARK SMILES IDX 11 1 10 4 9 5 3 6 4 7 32 8 5 9 31 11 6 12 30 14 7 15 8 17
REMARK SMILES IDX 2 20 1 22 12 26 13 27 29 28 14 29 17 31 15 33 16 34 18 36
REMARK SMILES IDX 19 37 28 38 20 39 22 41 27 42 21 43 23 44 26 45 25 46 24 48
REMARK H PARENT 11 2 11 3 4 10 5 13 30 16 7 18 8 19 2 21 1 23 1 24 1 25 13 30
REMARK H PARENT 29 32 16 35 19 40 26 47 24 49 24 50
REMARK Flexibility Score: inf
ROOT
ATOM      1  C   UNL     1     -46.935  35.727  27.689  1.00  0.00     0.113 C 
ATOM      2  H   UNL     1     -46.135  35.435  28.379  1.00  0.00     0.076 H 
ATOM      3  H   UNL     1     -47.845  35.229  28.047  1.00  0.00     0.076 H 
ENDROOT
BRANCH   1   4
ATOM      4  O   UNL     1     -46.559  35.233  26.401  1.00  0.00    -0.489 OA
BRANCH   4   5
ATOM      5  C   UNL     1     -47.167  34.103  25.926  1.00  0.00     0.122 A 
ATOM      6  C   UNL     1     -46.641  30.540  22.804  1.00  0.00     0.126 A 
ATOM      7  C   UNL     1     -47.866  29.986  23.162  1.00  0.00    -0.019 A 
ATOM      8  N   UNL     1     -46.174  31.660  23.392  1.00  0.00    -0.231 NA
ATOM      9  C   UNL     1     -48.640  30.610  24.135  1.00  0.00    -0.049 A 
ATOM     10  H   UNL     1     -48.211  29.069  22.696  1.00  0.00     0.066 H 
ATOM     11  C   UNL     1     -46.917  32.269  24.335  1.00  0.00     0.076 A 
ATOM     12  C   UNL     1     -48.170  31.776  24.743  1.00  0.00     0.001 A 
ATOM     13  H   UNL     1     -49.596  30.178  24.415  1.00  0.00     0.063 H 
ATOM     14  C   UNL     1     -46.443  33.426  24.937  1.00  0.00     0.007 A 
ATOM     15  C   UNL     1     -48.909  32.449  25.729  1.00  0.00    -0.049 A 
ATOM     16  H   UNL     1     -45.476  33.813  24.627  1.00  0.00     0.069 H 
ATOM     17  C   UNL     1     -48.408  33.611  26.318  1.00  0.00    -0.019 A 
ATOM     18  H   UNL     1     -49.881  32.074  26.041  1.00  0.00     0.063 H 
ATOM     19  H   UNL     1     -49.019  34.109  27.064  1.00  0.00     0.066 H 
BRANCH   6  20
ATOM     20  N   UNL     1     -45.875  29.867  21.834  1.00  0.00    -0.373 N 
ATOM     21  H   UNL     1     -45.467  30.553  21.205  1.00  0.00     0.161 HD
BRANCH  20  22
ATOM     22  C   UNL     1     -44.869  28.975  22.386  1.00  0.00     0.005 C 
ATOM     23  H   UNL     1     -45.189  27.928  22.342  1.00  0.00     0.045 H 
ATOM     24  H   UNL     1     -44.713  29.228  23.440  1.00  0.00     0.045 H 
ATOM     25  H   UNL     1     -43.905  29.090  21.878  1.00  0.00     0.045 H 
ENDBRANCH  20  22
ENDBRANCH   6  20
ENDBRANCH   4   5
ENDBRANCH   1   4
BRANCH   1  26
ATOM     26  C   UNL     1     -47.051  37.236  27.744  1.00  0.00    -0.008 A 
ATOM     27  C   UNL     1     -48.303  37.824  27.947  1.00  0.00    -0.041 A 
ATOM     28  C   UNL     1     -45.916  38.063  27.642  1.00  0.00    -0.031 A 
ATOM     29  C   UNL     1     -48.413  39.211  28.017  1.00  0.00     0.020 A 
ATOM     30  H   UNL     1     -49.190  37.204  28.050  1.00  0.00     0.064 H 
ATOM     31  C   UNL     1     -46.019  39.466  27.706  1.00  0.00     0.049 A 
ATOM     32  H   UNL     1     -44.961  37.570  27.483  1.00  0.00     0.065 H 
ATOM     33  Br  UNL     1     -50.115  39.994  28.287  1.00  0.00    -0.051 Br
ATOM     34  C   UNL     1     -47.287  40.029  27.895  1.00  0.00    -0.024 A 
ATOM     35  H   UNL     1     -47.436  41.100  27.977  1.00  0.00     0.066 H 
BRANCH  31  36
ATOM     36  N   UNL     1     -44.841  40.286  27.583  1.00  0.00    -0.300 N 
ATOM     37  C   UNL     1     -43.747  40.235  28.432  1.00  0.00     0.030 A 
ATOM     38  C   UNL     1     -44.569  41.269  26.624  1.00  0.00     0.151 A 
ATOM     39  C   UNL     1     -42.812  41.156  28.028  1.00  0.00     0.072 A 
ATOM     40  H   UNL     1     -43.708  39.567  29.278  1.00  0.00     0.084 H 
ATOM     41  C   UNL     1     -43.311  41.815  26.884  1.00  0.00     0.080 A 
ATOM     42  N   UNL     1     -45.361  41.635  25.595  1.00  0.00    -0.218 NA
ATOM     43  Cl  UNL     1     -41.320  41.451  28.788  1.00  0.00    -0.082 Cl
ATOM     44  C   UNL     1     -42.857  42.820  26.016  1.00  0.00     0.137 A 
ATOM     45  C   UNL     1     -44.825  42.601  24.838  1.00  0.00     0.120 A 
ATOM     46  N   UNL     1     -43.641  43.209  24.996  1.00  0.00    -0.219 NA
ATOM     47  H   UNL     1     -45.423  42.935  23.994  1.00  0.00     0.106 H 
BRANCH  44  48
ATOM     48  N   UNL     1     -41.633  43.457  26.140  1.00  0.00    -0.383 N 
ATOM     49  H   UNL     1     -41.556  44.135  26.887  1.00  0.00     0.158 HD
ATOM     50  H   UNL     1     -41.244  43.708  25.240  1.00  0.00     0.158 HD
ENDBRANCH  44  48
ENDBRANCH  31  36
ENDBRANCH   1  26
TORSDOF 7
ENDMDL
MODEL 3
REMARK VINA RESULT:      -9.7      1.754      2.292
REMARK SMILES CNc1ccc2ccc(OCc3cc(Br)cc(-n4cc(Cl)c5c(N)ncnc54)c3)cc2n1
REMARK SMILES IDX 11 1 10 4 9 5 3 6 4 7 32 8 5 9 31 11 6 12 30 14 7 15 8 17
REMARK SMILES IDX 2 20 1 22 12 26 13 27 29 28 14 29 17 31 15 33 16 34 18 36
REMARK SMILES IDX 19 37 28 38 20 39 22 41 27 42 21 43 23 44 26 45 25 46 24 48
REMARK H PARENT 11 2 11 3 4 10 5 13 30 16 7 18 8 19 2 21 1 23 1 24 1 25 13 30
REMARK H PARENT 29 32 16 35 19 40 26 47 24 49 24 50
REMARK Flexibility Score: inf
ROOT
ATOM      1  C   UNL     1     -46.782  34.266  26.702  1.00  0.00     0.113 C 
ATOM      2  H   UNL     1     -46.120  34.339  25.832  1.00  0.00     0.076 H 
ATOM      3  H   UNL     1     -46.195  33.781  27.493  1.00  0.00     0.076 H 
ENDROOT
BRANCH   1   4
ATOM      4  O   UNL     1     -47.882  33.443  26.306  1.00  0.00    -0.489 OA
BRANCH   4   5
ATOM      5  C   UNL     1     -47.643  32.381  25.478  1.00  0.00     0.122 A 
ATOM      6  C   UNL     1     -49.079  27.944  24.490  1.00  0.00     0.126 A 
ATOM      7  C   UNL     1     -48.131  27.814  23.480  1.00  0.00    -0.019 A 
ATOM      8  N   UNL     1     -49.196  29.080  25.206  1.00  0.00    -0.231 NA
ATOM      9  C   UNL     1     -47.267  28.872  23.214  1.00  0.00    -0.049 A 
ATOM     10  H   UNL     1     -48.072  26.902  22.897  1.00  0.00     0.066 H 
ATOM     11  C   UNL     1     -48.364  30.108  24.953  1.00  0.00     0.076 A 
ATOM     12  C   UNL     1     -47.373  30.049  23.958  1.00  0.00     0.001 A 
ATOM     13  H   UNL     1     -46.527  28.770  22.426  1.00  0.00     0.063 H 
ATOM     14  C   UNL     1     -48.476  31.277  25.695  1.00  0.00     0.007 A 
ATOM     15  C   UNL     1     -46.527  31.147  23.734  1.00  0.00    -0.049 A 
ATOM     16  H   UNL     1     -49.240  31.329  26.466  1.00  0.00     0.069 H 
ATOM     17  C   UNL     1     -46.662  32.310  24.494  1.00  0.00    -0.019 A 
ATOM     18  H   UNL     1     -45.755  31.101  22.969  1.00  0.00     0.063 H 
ATOM     19  H   UNL     1     -45.976  33.128  24.300  1.00  0.00     0.066 H 
BRANCH   6  20
ATOM     20  N   UNL     1     -49.952  26.863  24.713  1.00  0.00    -0.373 N 
ATOM     21  H   UNL     1     -49.775  26.486  25.639  1.00  0.00     0.161 HD
BRANCH  20  22
ATOM     22  C   UNL     1     -51.357  27.185  24.521  1.00  0.00     0.005 C 
ATOM     23  H   UNL     1     -52.008  26.363  24.839  1.00  0.00     0.045 H 
ATOM     24  H   UNL     1     -51.538  27.354  23.455  1.00  0.00     0.045 H 
ATOM     25  H   UNL     1     -51.636  28.104  25.048  1.00  0.00     0.045 H 
ENDBRANCH  20  22
ENDBRANCH   6  20
ENDBRANCH   4   5
ENDBRANCH   1   4
BRANCH   1  26
ATOM     26  C   UNL     1     -47.191  35.675  27.077  1.00  0.00    -0.008 A 
ATOM     27  C   UNL     1     -48.517  35.936  27.434  1.00  0.00    -0.041 A 
ATOM     28  C   UNL     1     -46.253  36.725  27.121  1.00  0.00    -0.031 A 
ATOM     29  C   UNL     1     -48.896  37.226  27.798  1.00  0.00     0.020 A 
ATOM     30  H   UNL     1     -49.255  35.137  27.429  1.00  0.00     0.064 H 
ATOM     31  C   UNL     1     -46.627  38.033  27.482  1.00  0.00     0.049 A 
ATOM     32  H   UNL     1     -45.233  36.484  26.836  1.00  0.00     0.065 H 
ATOM     33  Br  UNL     1     -50.695  37.567  28.274  1.00  0.00    -0.051 Br
ATOM     34  C   UNL     1     -47.966  38.269  27.821  1.00  0.00    -0.024 A 
ATOM     35  H   UNL     1     -48.318  39.247  28.130  1.00  0.00     0.066 H 
BRANCH  31  36
ATOM     36  N   UNL     1     -45.648  39.089  27.502  1.00  0.00    -0.300 N 
ATOM     37  C   UNL     1     -45.542  40.090  26.549  1.00  0.00     0.030 A 
ATOM     38  C   UNL     1     -44.639  39.315  28.445  1.00  0.00     0.151 A 
ATOM     39  C   UNL     1     -44.499  40.921  26.874  1.00  0.00     0.072 A 
ATOM     40  H   UNL     1     -46.196  40.138  25.692  1.00  0.00     0.084 H 
ATOM     41  C   UNL     1     -43.920  40.451  28.072  1.00  0.00     0.080 A 
ATOM     42  N   UNL     1     -44.391  38.586  29.553  1.00  0.00    -0.218 NA
ATOM     43  Cl  UNL     1     -43.994  42.274  25.976  1.00  0.00    -0.082 Cl
ATOM     44  C   UNL     1     -42.862  40.843  28.908  1.00  0.00     0.137 A 
ATOM     45  C   UNL     1     -43.360  39.053  30.270  1.00  0.00     0.120 A 
ATOM     46  N   UNL     1     -42.590  40.118  30.006  1.00  0.00    -0.219 NA
ATOM     47  H   UNL     1     -43.117  38.501  31.173  1.00  0.00     0.106 H 
BRANCH  44  48
ATOM     48  N   UNL     1     -42.058  41.946  28.674  1.00  0.00    -0.383 N 
ATOM     49  H   UNL     1     -42.489  42.718  28.182  1.00  0.00     0.158 HD
ATOM     50  H   UNL     1     -41.121  41.681  28.397  1.00  0.00     0.158 HD
ENDBRANCH  44  48
ENDBRANCH  31  36
ENDBRANCH   1  26
TORSDOF 7
ENDMDL
MODEL 4
REMARK VINA RESULT:      -9.3      1.934      2.886
REMARK SMILES CNc1ccc2ccc(OCc3cc(Br)cc(-n4cc(Cl)c5c(N)ncnc54)c3)cc2n1
REMARK SMILES IDX 11 1 10 4 9 5 3 6 4 7 32 8 5 9 31 11 6 12 30 14 7 15 8 17
REMARK SMILES IDX 2 20 1 22 12 26 13 27 29 28 14 29 17 31 15 33 16 34 18 36
REMARK SMILES IDX 19 37 28 38 20 39 22 41 27 42 21 43 23 44 26 45 25 46 24 48
REMARK H PARENT 11 2 11 3 4 10 5 13 30 16 7 18 8 19 2 21 1 23 1 24 1 25 13 30
REMARK H PARENT 29 32 16 35 19 40 26 47 24 49 24 50
REMARK Flexibility Score: inf
ROOT
ATOM      1  C   UNL     1     -46.105  34.311  27.621  1.00  0.00     0.113 C 
ATOM      2  H   UNL     1     -45.441  34.253  26.750  1.00  0.00     0.076 H 
ATOM      3  H   UNL     1     -45.520  33.949  28.476  1.00  0.00     0.076 H 
ENDROOT
BRANCH   1   4
ATOM      4  O   UNL     1     -47.205  33.439  27.351  1.00  0.00    -0.489 OA
BRANCH   4   5
ATOM      5  C   UNL     1     -47.242  32.779  26.152  1.00  0.00     0.122 A 
ATOM      6  C   UNL     1     -50.117  30.282  23.286  1.00  0.00     0.126 A 
ATOM      7  C   UNL     1     -49.100  30.094  22.356  1.00  0.00    -0.019 A 
ATOM      8  N   UNL     1     -49.916  30.983  24.420  1.00  0.00    -0.231 NA
ATOM      9  C   UNL     1     -47.838  30.623  22.606  1.00  0.00    -0.049 A 
ATOM     10  H   UNL     1     -49.291  29.550  21.436  1.00  0.00     0.066 H 
ATOM     11  C   UNL     1     -48.698  31.500  24.668  1.00  0.00     0.076 A 
ATOM     12  C   UNL     1     -47.617  31.343  23.783  1.00  0.00     0.001 A 
ATOM     13  H   UNL     1     -47.045  30.477  21.880  1.00  0.00     0.063 H 
ATOM     14  C   UNL     1     -48.485  32.216  25.838  1.00  0.00     0.007 A 
ATOM     15  C   UNL     1     -46.364  31.898  24.088  1.00  0.00    -0.049 A 
ATOM     16  H   UNL     1     -49.316  32.340  26.528  1.00  0.00     0.069 H 
ATOM     17  C   UNL     1     -46.178  32.613  25.272  1.00  0.00    -0.019 A 
ATOM     18  H   UNL     1     -45.524  31.772  23.408  1.00  0.00     0.063 H 
ATOM     19  H   UNL     1     -45.189  33.010  25.477  1.00  0.00     0.066 H 
BRANCH   6  20
ATOM     20  N   UNL     1     -51.387  29.753  22.986  1.00  0.00    -0.373 N 
ATOM     21  H   UNL     1     -52.060  30.513  22.959  1.00  0.00     0.161 HD
BRANCH  20  22
ATOM     22  C   UNL     1     -51.426  28.954  21.772  1.00  0.00     0.005 C 
ATOM     23  H   UNL     1     -50.418  28.701  21.423  1.00  0.00     0.045 H 
ATOM     24  H   UNL     1     -51.913  29.535  20.982  1.00  0.00     0.045 H 
ATOM     25  H   UNL     1     -52.011  28.039  21.911  1.00  0.00     0.045 H 
ENDBRANCH  20  22
ENDBRANCH   6  20
ENDBRANCH   4   5
ENDBRANCH   1   4
BRANCH   1  26
ATOM     26  C   UNL     1     -46.513  35.761  27.781  1.00  0.00    -0.008 A 
ATOM     27  C   UNL     1     -47.870  36.092  27.844  1.00  0.00    -0.041 A 
ATOM     28  C   UNL     1     -45.553  36.783  27.916  1.00  0.00    -0.031 A 
ATOM     29  C   UNL     1     -48.251  37.421  28.010  1.00  0.00     0.020 A 
ATOM     30  H   UNL     1     -48.628  35.317  27.764  1.00  0.00     0.064 H 
ATOM     31  C   UNL     1     -45.929  38.129  28.079  1.00  0.00     0.049 A 
ATOM     32  H   UNL     1     -44.509  36.487  27.861  1.00  0.00     0.065 H 
ATOM     33  Br  UNL     1     -50.091  37.856  28.089  1.00  0.00    -0.051 Br
ATOM     34  C   UNL     1     -47.295  38.435  28.124  1.00  0.00    -0.024 A 
ATOM     35  H   UNL     1     -47.655  39.447  28.269  1.00  0.00     0.066 H 
BRANCH  31  36
ATOM     36  N   UNL     1     -44.924  39.154  28.198  1.00  0.00    -0.300 N 
ATOM     37  C   UNL     1     -43.983  39.228  29.213  1.00  0.00     0.030 A 
ATOM     38  C   UNL     1     -44.699  40.247  27.353  1.00  0.00     0.151 A 
ATOM     39  C   UNL     1     -43.190  40.331  29.021  1.00  0.00     0.072 A 
ATOM     40  H   UNL     1     -43.949  38.508  30.017  1.00  0.00     0.084 H 
ATOM     41  C   UNL     1     -43.623  40.985  27.848  1.00  0.00     0.080 A 
ATOM     42  N   UNL     1     -45.378  40.551  26.228  1.00  0.00    -0.218 NA
ATOM     43  Cl  UNL     1     -41.916  40.823  30.035  1.00  0.00    -0.082 Cl
ATOM     44  C   UNL     1     -43.240  42.125  27.124  1.00  0.00     0.137 A 
ATOM     45  C   UNL     1     -44.926  41.658  25.624  1.00  0.00     0.120 A 
ATOM     46  N   UNL     1     -43.917  42.452  26.010  1.00  0.00    -0.219 NA
ATOM     47  H   UNL     1     -45.439  41.949  24.712  1.00  0.00     0.106 H 
BRANCH  44  48
ATOM     48  N   UNL     1     -42.193  42.957  27.484  1.00  0.00    -0.383 N 
ATOM     49  H   UNL     1     -42.443  43.791  27.999  1.00  0.00     0.158 HD
ATOM     50  H   UNL     1     -41.512  43.053  26.741  1.00  0.00     0.158 HD
ENDBRANCH  44  48
ENDBRANCH  31  36
ENDBRANCH   1  26
TORSDOF 7
ENDMDL
MODEL 5
REMARK VINA RESULT:      -9.2      3.735      5.439
REMARK SMILES CNc1ccc2ccc(OCc3cc(Br)cc(-n4cc(Cl)c5c(N)ncnc54)c3)cc2n1
REMARK SMILES IDX 11 1 10 4 9 5 3 6 4 7 32 8 5 9 31 11 6 12 30 14 7 15 8 17
REMARK SMILES IDX 2 20 1 22 12 26 13 27 29 28 14 29 17 31 15 33 16 34 18 36
REMARK SMILES IDX 19 37 28 38 20 39 22 41 27 42 21 43 23 44 26 45 25 46 24 48
REMARK H PARENT 11 2 11 3 4 10 5 13 30 16 7 18 8 19 2 21 1 23 1 24 1 25 13 30
REMARK H PARENT 29 32 16 35 19 40 26 47 24 49 24 50
REMARK Flexibility Score: inf
ROOT
ATOM      1  C   UNL     1     -46.568  39.080  27.304  1.00  0.00     0.113 C 
ATOM      2  H   UNL     1     -47.175  39.294  28.191  1.00  0.00     0.076 H 
ATOM      3  H   UNL     1     -47.260  39.090  26.451  1.00  0.00     0.076 H 
ENDROOT
BRANCH   1   4
ATOM      4  O   UNL     1     -46.016  37.775  27.496  1.00  0.00    -0.489 OA
BRANCH   4   5
ATOM      5  C   UNL     1     -46.789  36.685  27.202  1.00  0.00     0.122 A 
ATOM      6  C   UNL     1     -46.681  32.427  25.062  1.00  0.00     0.126 A 
ATOM      7  C   UNL     1     -48.021  32.196  25.354  1.00  0.00    -0.019 A 
ATOM      8  N   UNL     1     -46.059  33.560  25.447  1.00  0.00    -0.231 NA
ATOM      9  C   UNL     1     -48.747  33.164  26.041  1.00  0.00    -0.049 A 
ATOM     10  H   UNL     1     -48.495  31.266  25.060  1.00  0.00     0.066 H 
ATOM     11  C   UNL     1     -46.755  34.500  26.113  1.00  0.00     0.076 A 
ATOM     12  C   UNL     1     -48.115  34.345  26.435  1.00  0.00     0.001 A 
ATOM     13  H   UNL     1     -49.793  32.984  26.269  1.00  0.00     0.063 H 
ATOM     14  C   UNL     1     -46.121  35.671  26.504  1.00  0.00     0.007 A 
ATOM     15  C   UNL     1     -48.799  35.356  27.130  1.00  0.00    -0.049 A 
ATOM     16  H   UNL     1     -45.070  35.798  26.258  1.00  0.00     0.069 H 
ATOM     17  C   UNL     1     -48.136  36.524  27.510  1.00  0.00    -0.019 A 
ATOM     18  H   UNL     1     -49.852  35.243  27.373  1.00  0.00     0.063 H 
ATOM     19  H   UNL     1     -48.706  37.287  28.030  1.00  0.00     0.066 H 
BRANCH   6  20
ATOM     20  N   UNL     1     -45.972  31.415  24.387  1.00  0.00    -0.373 N 
ATOM     21  H   UNL     1     -46.059  30.550  24.912  1.00  0.00     0.161 HD
BRANCH  20  22
ATOM     22  C   UNL     1     -46.360  31.245  22.996  1.00  0.00     0.005 C 
ATOM     23  H   UNL     1     -45.760  31.875  22.330  1.00  0.00     0.045 H 
ATOM     24  H   UNL     1     -47.406  31.547  22.881  1.00  0.00     0.045 H 
ATOM     25  H   UNL     1     -46.288  30.198  22.683  1.00  0.00     0.045 H 
ENDBRANCH  20  22
ENDBRANCH   6  20
ENDBRANCH   4   5
ENDBRANCH   1   4
BRANCH   1  26
ATOM     26  C   UNL     1     -45.519  40.167  27.201  1.00  0.00    -0.008 A 
ATOM     27  C   UNL     1     -44.406  40.133  28.047  1.00  0.00    -0.041 A 
ATOM     28  C   UNL     1     -45.613  41.190  26.238  1.00  0.00    -0.031 A 
ATOM     29  C   UNL     1     -43.428  41.119  27.945  1.00  0.00     0.020 A 
ATOM     30  H   UNL     1     -44.301  39.340  28.783  1.00  0.00     0.064 H 
ATOM     31  C   UNL     1     -44.633  42.195  26.132  1.00  0.00     0.049 A 
ATOM     32  H   UNL     1     -46.493  41.185  25.600  1.00  0.00     0.065 H 
ATOM     33  Br  UNL     1     -41.930  41.064  29.099  1.00  0.00    -0.051 Br
ATOM     34  C   UNL     1     -43.537  42.144  27.001  1.00  0.00    -0.024 A 
ATOM     35  H   UNL     1     -42.734  42.872  26.960  1.00  0.00     0.066 H 
BRANCH  31  36
ATOM     36  N   UNL     1     -44.766  43.238  25.147  1.00  0.00    -0.300 N 
ATOM     37  C   UNL     1     -45.883  44.044  24.991  1.00  0.00     0.030 A 
ATOM     38  C   UNL     1     -43.837  43.637  24.179  1.00  0.00     0.151 A 
ATOM     39  C   UNL     1     -45.672  44.922  23.958  1.00  0.00     0.072 A 
ATOM     40  H   UNL     1     -46.763  43.930  25.606  1.00  0.00     0.084 H 
ATOM     41  C   UNL     1     -44.382  44.684  23.437  1.00  0.00     0.080 A 
ATOM     42  N   UNL     1     -42.602  43.128  23.987  1.00  0.00    -0.218 NA
ATOM     43  Cl  UNL     1     -46.783  46.084  23.404  1.00  0.00    -0.082 Cl
ATOM     44  C   UNL     1     -43.587  45.227  22.415  1.00  0.00     0.137 A 
ATOM     45  C   UNL     1     -41.939  43.722  22.986  1.00  0.00     0.120 A 
ATOM     46  N   UNL     1     -42.362  44.720  22.197  1.00  0.00    -0.219 NA
ATOM     47  H   UNL     1     -40.939  43.348  22.787  1.00  0.00     0.106 H 
BRANCH  44  48
ATOM     48  N   UNL     1     -43.985  46.269  21.593  1.00  0.00    -0.383 N 
ATOM     49  H   UNL     1     -43.640  46.245  20.643  1.00  0.00     0.158 HD
ATOM     50  H   UNL     1     -43.967  47.159  22.074  1.00  0.00     0.158 HD
ENDBRANCH  44  48
ENDBRANCH  31  36
ENDBRANCH   1  26
TORSDOF 7
ENDMDL
MODEL 6
REMARK VINA RESULT:      -8.9      3.238     10.122
REMARK SMILES CNc1ccc2ccc(OCc3cc(Br)cc(-n4cc(Cl)c5c(N)ncnc54)c3)cc2n1
REMARK SMILES IDX 11 1 10 4 9 5 3 6 4 7 32 8 5 9 31 11 6 12 30 14 7 15 8 17
REMARK SMILES IDX 2 20 1 22 12 26 13 27 29 28 14 29 17 31 15 33 16 34 18 36
REMARK SMILES IDX 19 37 28 38 20 39 22 41 27 42 21 43 23 44 26 45 25 46 24 48
REMARK H PARENT 11 2 11 3 4 10 5 13 30 16 7 18 8 19 2 21 1 23 1 24 1 25 13 30
REMARK H PARENT 29 32 16 35 19 40 26 47 24 49 24 50
REMARK Flexibility Score: inf
ROOT
ATOM      1  C   UNL     1     -45.495  36.218  27.890  1.00  0.00     0.113 C 
ATOM      2  H   UNL     1     -44.853  35.429  28.299  1.00  0.00     0.076 H 
ATOM      3  H   UNL     1     -44.948  36.649  27.042  1.00  0.00     0.076 H 
ENDROOT
BRANCH   1   4
ATOM      4  O   UNL     1     -45.664  37.183  28.931  1.00  0.00    -0.489 OA
BRANCH   4   5
ATOM      5  C   UNL     1     -44.820  38.259  28.972  1.00  0.00     0.122 A 
ATOM      6  C   UNL     1     -43.361  42.030  26.447  1.00  0.00     0.126 A 
ATOM      7  C   UNL     1     -42.480  42.418  27.451  1.00  0.00    -0.019 A 
ATOM      8  N   UNL     1     -44.145  40.941  26.577  1.00  0.00    -0.231 NA
ATOM      9  C   UNL     1     -42.386  41.654  28.610  1.00  0.00    -0.049 A 
ATOM     10  H   UNL     1     -41.879  43.313  27.338  1.00  0.00     0.066 H 
ATOM     11  C   UNL     1     -44.061  40.198  27.697  1.00  0.00     0.076 A 
ATOM     12  C   UNL     1     -43.186  40.518  28.751  1.00  0.00     0.001 A 
ATOM     13  H   UNL     1     -41.698  41.957  29.394  1.00  0.00     0.063 H 
ATOM     14  C   UNL     1     -44.860  39.071  27.831  1.00  0.00     0.007 A 
ATOM     15  C   UNL     1     -43.132  39.710  29.898  1.00  0.00    -0.049 A 
ATOM     16  H   UNL     1     -45.538  38.817  27.020  1.00  0.00     0.069 H 
ATOM     17  C   UNL     1     -43.947  38.582  30.006  1.00  0.00    -0.019 A 
ATOM     18  H   UNL     1     -42.452  39.951  30.711  1.00  0.00     0.063 H 
ATOM     19  H   UNL     1     -43.862  37.975  30.902  1.00  0.00     0.066 H 
BRANCH   6  20
ATOM     20  N   UNL     1     -43.447  42.841  25.300  1.00  0.00    -0.373 N 
ATOM     21  H   UNL     1     -44.403  42.824  24.958  1.00  0.00     0.161 HD
BRANCH  20  22
ATOM     22  C   UNL     1     -42.967  44.200  25.496  1.00  0.00     0.005 C 
ATOM     23  H   UNL     1     -42.417  44.564  24.621  1.00  0.00     0.045 H 
ATOM     24  H   UNL     1     -42.278  44.212  26.347  1.00  0.00     0.045 H 
ATOM     25  H   UNL     1     -43.787  44.886  25.732  1.00  0.00     0.045 H 
ENDBRANCH  20  22
ENDBRANCH   6  20
ENDBRANCH   4   5
ENDBRANCH   1   4
BRANCH   1  26
ATOM     26  C   UNL     1     -46.793  35.565  27.460  1.00  0.00    -0.008 A 
ATOM     27  C   UNL     1     -48.004  36.230  27.677  1.00  0.00    -0.041 A 
ATOM     28  C   UNL     1     -46.806  34.321  26.800  1.00  0.00    -0.031 A 
ATOM     29  C   UNL     1     -49.198  35.644  27.267  1.00  0.00     0.020 A 
ATOM     30  H   UNL     1     -48.016  37.202  28.165  1.00  0.00     0.064 H 
ATOM     31  C   UNL     1     -48.008  33.719  26.387  1.00  0.00     0.049 A 
ATOM     32  H   UNL     1     -45.845  33.835  26.650  1.00  0.00     0.065 H 
ATOM     33  Br  UNL     1     -50.830  36.552  27.572  1.00  0.00    -0.051 Br
ATOM     34  C   UNL     1     -49.208  34.400  26.631  1.00  0.00    -0.024 A 
ATOM     35  H   UNL     1     -50.168  34.005  26.319  1.00  0.00     0.066 H 
BRANCH  31  36
ATOM     36  N   UNL     1     -47.991  32.438  25.729  1.00  0.00    -0.300 N 
ATOM     37  C   UNL     1     -48.752  31.342  26.105  1.00  0.00     0.030 A 
ATOM     38  C   UNL     1     -47.230  32.045  24.621  1.00  0.00     0.151 A 
ATOM     39  C   UNL     1     -48.483  30.289  25.267  1.00  0.00     0.072 A 
ATOM     40  H   UNL     1     -49.419  31.372  26.953  1.00  0.00     0.084 H 
ATOM     41  C   UNL     1     -47.527  30.716  24.319  1.00  0.00     0.080 A 
ATOM     42  N   UNL     1     -46.363  32.808  23.926  1.00  0.00    -0.218 NA
ATOM     43  Cl  UNL     1     -49.176  28.740  25.369  1.00  0.00    -0.082 Cl
ATOM     44  C   UNL     1     -46.863  30.142  23.224  1.00  0.00     0.137 A 
ATOM     45  C   UNL     1     -45.788  32.156  22.907  1.00  0.00     0.120 A 
ATOM     46  N   UNL     1     -45.981  30.883  22.531  1.00  0.00    -0.219 NA
ATOM     47  H   UNL     1     -45.078  32.725  22.313  1.00  0.00     0.106 H 
BRANCH  44  48
ATOM     48  N   UNL     1     -47.050  28.837  22.799  1.00  0.00    -0.383 N 
ATOM     49  H   UNL     1     -47.324  28.717  21.833  1.00  0.00     0.158 HD
ATOM     50  H   UNL     1     -47.530  28.278  23.493  1.00  0.00     0.158 HD
ENDBRANCH  44  48
ENDBRANCH  31  36
ENDBRANCH   1  26
TORSDOF 7
ENDMDL
MODEL 7
REMARK VINA RESULT:      -8.9      3.437      5.062
REMARK SMILES CNc1ccc2ccc(OCc3cc(Br)cc(-n4cc(Cl)c5c(N)ncnc54)c3)cc2n1
REMARK SMILES IDX 11 1 10 4 9 5 3 6 4 7 32 8 5 9 31 11 6 12 30 14 7 15 8 17
REMARK SMILES IDX 2 20 1 22 12 26 13 27 29 28 14 29 17 31 15 33 16 34 18 36
REMARK SMILES IDX 19 37 28 38 20 39 22 41 27 42 21 43 23 44 26 45 25 46 24 48
REMARK H PARENT 11 2 11 3 4 10 5 13 30 16 7 18 8 19 2 21 1 23 1 24 1 25 13 30
REMARK H PARENT 29 32 16 35 19 40 26 47 24 49 24 50
REMARK Flexibility Score: inf
ROOT
ATOM      1  C   UNL     1     -45.976  38.381  28.061  1.00  0.00     0.113 C 
ATOM      2  H   UNL     1     -45.421  37.580  28.564  1.00  0.00     0.076 H 
ATOM      3  H   UNL     1     -46.859  38.578  28.683  1.00  0.00     0.076 H 
ENDROOT
BRANCH   1   4
ATOM      4  O   UNL     1     -46.358  37.868  26.783  1.00  0.00    -0.489 OA
BRANCH   4   5
ATOM      5  C   UNL     1     -47.078  36.706  26.729  1.00  0.00     0.122 A 
ATOM      6  C   UNL     1     -47.004  32.278  24.966  1.00  0.00     0.126 A 
ATOM      7  C   UNL     1     -48.247  31.989  25.520  1.00  0.00    -0.019 A 
ATOM      8  N   UNL     1     -46.419  33.481  25.133  1.00  0.00    -0.231 NA
ATOM      9  C   UNL     1     -48.915  32.968  26.247  1.00  0.00    -0.049 A 
ATOM     10  H   UNL     1     -48.687  31.005  25.397  1.00  0.00     0.066 H 
ATOM     11  C   UNL     1     -47.059  34.433  25.838  1.00  0.00     0.076 A 
ATOM     12  C   UNL     1     -48.323  34.221  26.418  1.00  0.00     0.001 A 
ATOM     13  H   UNL     1     -49.885  32.742  26.680  1.00  0.00     0.063 H 
ATOM     14  C   UNL     1     -46.464  35.676  26.006  1.00  0.00     0.007 A 
ATOM     15  C   UNL     1     -48.952  35.247  27.141  1.00  0.00    -0.049 A 
ATOM     16  H   UNL     1     -45.488  35.847  25.559  1.00  0.00     0.069 H 
ATOM     17  C   UNL     1     -48.330  36.488  27.294  1.00  0.00    -0.019 A 
ATOM     18  H   UNL     1     -49.932  35.088  27.585  1.00  0.00     0.063 H 
ATOM     19  H   UNL     1     -48.859  37.258  27.845  1.00  0.00     0.066 H 
BRANCH   6  20
ATOM     20  N   UNL     1     -46.346  31.254  24.258  1.00  0.00    -0.373 N 
ATOM     21  H   UNL     1     -45.589  30.895  24.831  1.00  0.00     0.161 HD
BRANCH  20  22
ATOM     22  C   UNL     1     -47.226  30.192  23.797  1.00  0.00     0.005 C 
ATOM     23  H   UNL     1     -46.931  29.218  24.203  1.00  0.00     0.045 H 
ATOM     24  H   UNL     1     -47.160  30.128  22.706  1.00  0.00     0.045 H 
ATOM     25  H   UNL     1     -48.272  30.398  24.048  1.00  0.00     0.045 H 
ENDBRANCH  20  22
ENDBRANCH   6  20
ENDBRANCH   4   5
ENDBRANCH   1   4
BRANCH   1  26
ATOM     26  C   UNL     1     -45.058  39.583  27.977  1.00  0.00    -0.008 A 
ATOM     27  C   UNL     1     -43.949  39.664  28.826  1.00  0.00    -0.041 A 
ATOM     28  C   UNL     1     -45.267  40.602  27.029  1.00  0.00    -0.031 A 
ATOM     29  C   UNL     1     -43.091  40.757  28.741  1.00  0.00     0.020 A 
ATOM     30  H   UNL     1     -43.755  38.877  29.551  1.00  0.00     0.064 H 
ATOM     31  C   UNL     1     -44.408  41.713  26.939  1.00  0.00     0.049 A 
ATOM     32  H   UNL     1     -46.140  40.505  26.388  1.00  0.00     0.065 H 
ATOM     33  Br  UNL     1     -41.597  40.856  29.898  1.00  0.00    -0.051 Br
ATOM     34  C   UNL     1     -43.314  41.776  27.811  1.00  0.00    -0.024 A 
ATOM     35  H   UNL     1     -42.600  42.591  27.782  1.00  0.00     0.066 H 
BRANCH  31  36
ATOM     36  N   UNL     1     -44.658  42.748  25.969  1.00  0.00    -0.300 N 
ATOM     37  C   UNL     1     -44.542  42.593  24.596  1.00  0.00     0.030 A 
ATOM     38  C   UNL     1     -45.049  44.072  26.198  1.00  0.00     0.151 A 
ATOM     39  C   UNL     1     -44.846  43.778  23.975  1.00  0.00     0.072 A 
ATOM     40  H   UNL     1     -44.231  41.661  24.149  1.00  0.00     0.084 H 
ATOM     41  C   UNL     1     -45.175  44.724  24.971  1.00  0.00     0.080 A 
ATOM     42  N   UNL     1     -45.295  44.646  27.394  1.00  0.00    -0.218 NA
ATOM     43  Cl  UNL     1     -44.816  44.053  22.297  1.00  0.00    -0.082 Cl
ATOM     44  C   UNL     1     -45.570  46.070  24.996  1.00  0.00     0.137 A 
ATOM     45  C   UNL     1     -45.662  45.930  27.295  1.00  0.00     0.120 A 
ATOM     46  N   UNL     1     -45.801  46.663  26.181  1.00  0.00    -0.219 NA
ATOM     47  H   UNL     1     -45.871  46.442  28.230  1.00  0.00     0.106 H 
BRANCH  44  48
ATOM     48  N   UNL     1     -45.740  46.851  23.865  1.00  0.00    -0.383 N 
ATOM     49  H   UNL     1     -46.114  46.382  23.050  1.00  0.00     0.158 HD
ATOM     50  H   UNL     1     -44.964  47.485  23.723  1.00  0.00     0.158 HD
ENDBRANCH  44  48
ENDBRANCH  31  36
ENDBRANCH   1  26
TORSDOF 7
ENDMDL
