MODEL 1
REMARK VINA RESULT:      -9.4      0.000      0.000
REMARK SMILES O=C(NCc1cc2ccccn2c1)c1cc(=O)n2ccccc2n1
REMARK SMILES IDX 1 1 2 2 3 3 14 5 15 6 24 7 16 8 23 10 17 11 18 12 22 13
REMARK SMILES IDX 19 14 21 15 20 17 4 21 5 24 6 25 13 26 7 27 12 29 8 31 11 32
REMARK SMILES IDX 9 33 10 35
REMARK H PARENT 3 4 15 9 22 16 19 18 21 19 20 20 4 22 4 23 6 28 13 30 8 34
REMARK H PARENT 11 36 9 37 10 38
REMARK Flexibility Score: inf
ROOT
ATOM      1  O   UNL     1     -46.284  36.850  29.563  1.00  0.00    -0.268 OA
ATOM      2  C   UNL     1     -46.347  37.542  28.554  1.00  0.00     0.270 C 
ATOM      3  N   UNL     1     -47.272  37.383  27.554  1.00  0.00    -0.347 N 
ATOM      4  H   UNL     1     -47.272  38.091  26.826  1.00  0.00     0.164 HD
ENDROOT
BRANCH   2   5
ATOM      5  C   UNL     1     -45.399  38.687  28.280  1.00  0.00     0.136 A 
ATOM      6  C   UNL     1     -45.592  39.359  27.143  1.00  0.00     0.035 A 
ATOM      7  N   UNL     1     -44.407  38.960  29.195  1.00  0.00    -0.225 NA
ATOM      8  C   UNL     1     -44.691  40.474  26.832  1.00  0.00     0.258 A 
ATOM      9  H   UNL     1     -46.375  39.132  26.431  1.00  0.00     0.071 H 
ATOM     10  C   UNL     1     -43.610  39.944  28.915  1.00  0.00     0.140 A 
ATOM     11  O   UNL     1     -44.863  41.102  25.789  1.00  0.00    -0.269 OA
ATOM     12  N   UNL     1     -43.698  40.727  27.769  1.00  0.00    -0.268 N 
ATOM     13  C   UNL     1     -42.519  40.275  29.875  1.00  0.00    -0.019 A 
ATOM     14  C   UNL     1     -42.804  41.768  27.542  1.00  0.00     0.014 A 
ATOM     15  C   UNL     1     -41.681  41.287  29.614  1.00  0.00    -0.057 A 
ATOM     16  H   UNL     1     -42.440  39.670  30.770  1.00  0.00     0.066 H 
ATOM     17  C   UNL     1     -41.827  42.060  28.411  1.00  0.00    -0.045 A 
ATOM     18  H   UNL     1     -42.932  42.339  26.627  1.00  0.00     0.082 H 
ATOM     19  H   UNL     1     -40.881  41.542  30.300  1.00  0.00     0.062 H 
ATOM     20  H   UNL     1     -41.134  42.875  28.223  1.00  0.00     0.064 H 
ENDBRANCH   2   5
BRANCH   3  21
ATOM     21  C   UNL     1     -48.393  36.489  27.662  1.00  0.00     0.045 C 
ATOM     22  H   UNL     1     -49.313  36.966  27.309  1.00  0.00     0.054 H 
ATOM     23  H   UNL     1     -48.514  36.239  28.721  1.00  0.00     0.054 H 
BRANCH  21  24
ATOM     24  C   UNL     1     -48.085  35.269  26.863  1.00  0.00    -0.010 A 
ATOM     25  C   UNL     1     -46.877  34.991  26.156  1.00  0.00    -0.032 A 
ATOM     26  C   UNL     1     -48.919  34.181  26.657  1.00  0.00     0.014 A 
ATOM     27  C   UNL     1     -47.017  33.761  25.550  1.00  0.00     0.045 A 
ATOM     28  H   UNL     1     -46.003  35.625  26.098  1.00  0.00     0.065 H 
ATOM     29  N   UNL     1     -48.277  33.264  25.860  1.00  0.00    -0.324 N 
ATOM     30  H   UNL     1     -49.922  33.994  27.013  1.00  0.00     0.083 H 
ATOM     31  C   UNL     1     -46.178  32.957  24.726  1.00  0.00    -0.038 A 
ATOM     32  C   UNL     1     -48.744  32.034  25.402  1.00  0.00     0.009 A 
ATOM     33  C   UNL     1     -46.627  31.766  24.282  1.00  0.00    -0.059 A 
ATOM     34  H   UNL     1     -45.186  33.310  24.464  1.00  0.00     0.064 H 
ATOM     35  C   UNL     1     -47.953  31.276  24.624  1.00  0.00    -0.045 A 
ATOM     36  H   UNL     1     -49.742  31.737  25.700  1.00  0.00     0.082 H 
ATOM     37  H   UNL     1     -46.002  31.138  23.654  1.00  0.00     0.062 H 
ATOM     38  H   UNL     1     -48.273  30.312  24.246  1.00  0.00     0.064 H 
ENDBRANCH  21  24
ENDBRANCH   3  21
TORSDOF 3
ENDMDL
MODEL 2
REMARK VINA RESULT:      -9.3      4.167      6.911
REMARK SMILES O=C(NCc1cc2ccccn2c1)c1cc(=O)n2ccccc2n1
REMARK SMILES IDX 1 1 2 2 3 3 14 5 15 6 24 7 16 8 23 10 17 11 18 12 22 13
REMARK SMILES IDX 19 14 21 15 20 17 4 21 5 24 6 25 13 26 7 27 12 29 8 31 11 32
REMARK SMILES IDX 9 33 10 35
REMARK H PARENT 3 4 15 9 22 16 19 18 21 19 20 20 4 22 4 23 6 28 13 30 8 34
REMARK H PARENT 11 36 9 37 10 38
REMARK Flexibility Score: inf
ROOT
ATOM      1  O   UNL     1     -45.894  31.553  24.062  1.00  0.00    -0.268 OA
ATOM      2  C   UNL     1     -47.020  31.924  24.370  1.00  0.00     0.270 C 
ATOM      3  N   UNL     1     -48.181  31.425  23.838  1.00  0.00    -0.347 N 
ATOM      4  H   UNL     1     -49.045  31.751  24.259  1.00  0.00     0.164 HD
ENDROOT
BRANCH   2   5
ATOM      5  C   UNL     1     -47.279  32.996  25.404  1.00  0.00     0.136 A 
ATOM      6  C   UNL     1     -48.559  33.274  25.663  1.00  0.00     0.035 A 
ATOM      7  N   UNL     1     -46.205  33.616  26.000  1.00  0.00    -0.225 NA
ATOM      8  C   UNL     1     -48.858  34.313  26.654  1.00  0.00     0.258 A 
ATOM      9  H   UNL     1     -49.395  32.780  25.184  1.00  0.00     0.071 H 
ATOM     10  C   UNL     1     -46.473  34.537  26.874  1.00  0.00     0.140 A 
ATOM     11  O   UNL     1     -50.035  34.575  26.902  1.00  0.00    -0.269 OA
ATOM     12  N   UNL     1     -47.758  34.924  27.239  1.00  0.00    -0.268 N 
ATOM     13  C   UNL     1     -45.342  35.237  27.544  1.00  0.00    -0.019 A 
ATOM     14  C   UNL     1     -47.962  35.921  28.187  1.00  0.00     0.014 A 
ATOM     15  C   UNL     1     -45.587  36.191  28.451  1.00  0.00    -0.057 A 
ATOM     16  H   UNL     1     -44.337  34.944  27.265  1.00  0.00     0.066 H 
ATOM     17  C   UNL     1     -46.940  36.546  28.786  1.00  0.00    -0.045 A 
ATOM     18  H   UNL     1     -48.992  36.173  28.425  1.00  0.00     0.082 H 
ATOM     19  H   UNL     1     -44.777  36.713  28.949  1.00  0.00     0.062 H 
ATOM     20  H   UNL     1     -47.112  37.323  29.524  1.00  0.00     0.064 H 
ENDBRANCH   2   5
BRANCH   3  21
ATOM     21  C   UNL     1     -48.213  30.274  22.975  1.00  0.00     0.045 C 
ATOM     22  H   UNL     1     -47.420  30.325  22.221  1.00  0.00     0.054 H 
ATOM     23  H   UNL     1     -49.180  30.273  22.462  1.00  0.00     0.054 H 
BRANCH  21  24
ATOM     24  C   UNL     1     -48.063  29.059  23.825  1.00  0.00    -0.010 A 
ATOM     25  C   UNL     1     -46.963  28.150  23.834  1.00  0.00    -0.032 A 
ATOM     26  C   UNL     1     -48.969  28.585  24.761  1.00  0.00     0.014 A 
ATOM     27  C   UNL     1     -47.235  27.168  24.761  1.00  0.00     0.045 A 
ATOM     28  H   UNL     1     -46.070  28.212  23.225  1.00  0.00     0.065 H 
ATOM     29  N   UNL     1     -48.473  27.438  25.330  1.00  0.00    -0.324 N 
ATOM     30  H   UNL     1     -49.932  28.976  25.060  1.00  0.00     0.083 H 
ATOM     31  C   UNL     1     -46.540  26.010  25.216  1.00  0.00    -0.038 A 
ATOM     32  C   UNL     1     -49.052  26.634  26.310  1.00  0.00     0.009 A 
ATOM     33  C   UNL     1     -47.098  25.231  26.164  1.00  0.00    -0.059 A 
ATOM     34  H   UNL     1     -45.570  25.767  24.796  1.00  0.00     0.064 H 
ATOM     35  C   UNL     1     -48.397  25.541  26.739  1.00  0.00    -0.045 A 
ATOM     36  H   UNL     1     -50.021  26.931  26.689  1.00  0.00     0.082 H 
ATOM     37  H   UNL     1     -46.584  24.345  26.525  1.00  0.00     0.062 H 
ATOM     38  H   UNL     1     -48.809  24.887  27.499  1.00  0.00     0.064 H 
ENDBRANCH  21  24
ENDBRANCH   3  21
TORSDOF 3
ENDMDL
MODEL 3
REMARK VINA RESULT:      -9.1      1.278      2.150
REMARK SMILES O=C(NCc1cc2ccccn2c1)c1cc(=O)n2ccccc2n1
REMARK SMILES IDX 1 1 2 2 3 3 14 5 15 6 24 7 16 8 23 10 17 11 18 12 22 13
REMARK SMILES IDX 19 14 21 15 20 17 4 21 5 24 6 25 13 26 7 27 12 29 8 31 11 32
REMARK SMILES IDX 9 33 10 35
REMARK H PARENT 3 4 15 9 22 16 19 18 21 19 20 20 4 22 4 23 6 28 13 30 8 34
REMARK H PARENT 11 36 9 37 10 38
REMARK Flexibility Score: inf
ROOT
ATOM      1  O   UNL     1     -47.297  39.285  26.498  1.00  0.00    -0.268 OA
ATOM      2  C   UNL     1     -46.930  38.817  27.570  1.00  0.00     0.270 C 
ATOM      3  N   UNL     1     -47.631  37.892  28.300  1.00  0.00    -0.347 N 
ATOM      4  H   UNL     1     -47.161  37.515  29.117  1.00  0.00     0.164 HD
ENDROOT
BRANCH   2   5
ATOM      5  C   UNL     1     -45.628  39.203  28.234  1.00  0.00     0.136 A 
ATOM      6  C   UNL     1     -45.287  38.507  29.321  1.00  0.00     0.035 A 
ATOM      7  N   UNL     1     -44.889  40.232  27.696  1.00  0.00    -0.225 NA
ATOM      8  C   UNL     1     -44.035  38.852  30.003  1.00  0.00     0.258 A 
ATOM      9  H   UNL     1     -45.880  37.701  29.735  1.00  0.00     0.071 H 
ATOM     10  C   UNL     1     -43.784  40.536  28.304  1.00  0.00     0.140 A 
ATOM     11  O   UNL     1     -43.710  38.215  31.004  1.00  0.00    -0.269 OA
ATOM     12  N   UNL     1     -43.309  39.894  29.442  1.00  0.00    -0.268 N 
ATOM     13  C   UNL     1     -42.951  41.646  27.759  1.00  0.00    -0.019 A 
ATOM     14  C   UNL     1     -42.111  40.279  30.035  1.00  0.00     0.014 A 
ATOM     15  C   UNL     1     -41.805  41.982  28.364  1.00  0.00    -0.057 A 
ATOM     16  H   UNL     1     -43.313  42.153  26.873  1.00  0.00     0.066 H 
ATOM     17  C   UNL     1     -41.368  41.277  29.539  1.00  0.00    -0.045 A 
ATOM     18  H   UNL     1     -41.801  39.734  30.922  1.00  0.00     0.082 H 
ATOM     19  H   UNL     1     -41.186  42.787  27.982  1.00  0.00     0.062 H 
ATOM     20  H   UNL     1     -40.435  41.569  30.010  1.00  0.00     0.064 H 
ENDBRANCH   2   5
BRANCH   3  21
ATOM     21  C   UNL     1     -48.805  37.228  27.799  1.00  0.00     0.045 C 
ATOM     22  H   UNL     1     -49.362  37.877  27.114  1.00  0.00     0.054 H 
ATOM     23  H   UNL     1     -49.445  36.998  28.656  1.00  0.00     0.054 H 
BRANCH  21  24
ATOM     24  C   UNL     1     -48.369  35.979  27.114  1.00  0.00    -0.010 A 
ATOM     25  C   UNL     1     -47.110  35.742  26.485  1.00  0.00    -0.032 A 
ATOM     26  C   UNL     1     -49.109  34.818  26.956  1.00  0.00     0.014 A 
ATOM     27  C   UNL     1     -47.128  34.463  25.973  1.00  0.00     0.045 A 
ATOM     28  H   UNL     1     -46.282  36.436  26.417  1.00  0.00     0.065 H 
ATOM     29  N   UNL     1     -48.362  33.896  26.264  1.00  0.00    -0.324 N 
ATOM     30  H   UNL     1     -50.113  34.581  27.281  1.00  0.00     0.083 H 
ATOM     31  C   UNL     1     -46.191  33.666  25.253  1.00  0.00    -0.038 A 
ATOM     32  C   UNL     1     -48.714  32.602  25.885  1.00  0.00     0.009 A 
ATOM     33  C   UNL     1     -46.529  32.414  24.886  1.00  0.00    -0.059 A 
ATOM     34  H   UNL     1     -45.216  34.074  25.009  1.00  0.00     0.064 H 
ATOM     35  C   UNL     1     -47.831  31.850  25.205  1.00  0.00    -0.045 A 
ATOM     36  H   UNL     1     -49.701  32.253  26.160  1.00  0.00     0.082 H 
ATOM     37  H   UNL     1     -45.829  31.791  24.338  1.00  0.00     0.062 H 
ATOM     38  H   UNL     1     -48.060  30.839  24.890  1.00  0.00     0.064 H 
ENDBRANCH  21  24
ENDBRANCH   3  21
TORSDOF 3
ENDMDL
MODEL 4
REMARK VINA RESULT:      -9.0      3.949      6.750
REMARK SMILES O=C(NCc1cc2ccccn2c1)c1cc(=O)n2ccccc2n1
REMARK SMILES IDX 1 1 2 2 3 3 14 5 15 6 24 7 16 8 23 10 17 11 18 12 22 13
REMARK SMILES IDX 19 14 21 15 20 17 4 21 5 24 6 25 13 26 7 27 12 29 8 31 11 32
REMARK SMILES IDX 9 33 10 35
REMARK H PARENT 3 4 15 9 22 16 19 18 21 19 20 20 4 22 4 23 6 28 13 30 8 34
REMARK H PARENT 11 36 9 37 10 38
REMARK Flexibility Score: inf
ROOT
ATOM      1  O   UNL     1     -46.268  32.292  23.539  1.00  0.00    -0.268 OA
ATOM      2  C   UNL     1     -47.053  32.379  24.475  1.00  0.00     0.270 C 
ATOM      3  N   UNL     1     -48.248  31.711  24.559  1.00  0.00    -0.347 N 
ATOM      4  H   UNL     1     -48.750  31.796  25.437  1.00  0.00     0.164 HD
ENDROOT
BRANCH   2   5
ATOM      5  C   UNL     1     -46.797  33.246  25.686  1.00  0.00     0.136 A 
ATOM      6  C   UNL     1     -46.440  32.612  26.806  1.00  0.00     0.035 A 
ATOM      7  N   UNL     1     -46.949  34.609  25.571  1.00  0.00    -0.225 NA
ATOM      8  C   UNL     1     -46.189  33.412  28.009  1.00  0.00     0.258 A 
ATOM      9  H   UNL     1     -46.327  31.538  26.884  1.00  0.00     0.071 H 
ATOM     10  C   UNL     1     -46.729  35.314  26.638  1.00  0.00     0.140 A 
ATOM     11  O   UNL     1     -45.857  32.837  29.045  1.00  0.00    -0.269 OA
ATOM     12  N   UNL     1     -46.352  34.783  27.867  1.00  0.00    -0.268 N 
ATOM     13  C   UNL     1     -46.884  36.794  26.561  1.00  0.00    -0.019 A 
ATOM     14  C   UNL     1     -46.132  35.608  28.965  1.00  0.00     0.014 A 
ATOM     15  C   UNL     1     -46.663  37.547  27.646  1.00  0.00    -0.057 A 
ATOM     16  H   UNL     1     -47.180  37.217  25.609  1.00  0.00     0.066 H 
ATOM     17  C   UNL     1     -46.273  36.938  28.888  1.00  0.00    -0.045 A 
ATOM     18  H   UNL     1     -45.839  35.126  29.894  1.00  0.00     0.082 H 
ATOM     19  H   UNL     1     -46.771  38.626  27.609  1.00  0.00     0.062 H 
ATOM     20  H   UNL     1     -46.099  37.572  29.752  1.00  0.00     0.064 H 
ENDBRANCH   2   5
BRANCH   3  21
ATOM     21  C   UNL     1     -48.636  30.686  23.626  1.00  0.00     0.045 C 
ATOM     22  H   UNL     1     -48.085  30.781  22.685  1.00  0.00     0.054 H 
ATOM     23  H   UNL     1     -49.703  30.817  23.419  1.00  0.00     0.054 H 
BRANCH  21  24
ATOM     24  C   UNL     1     -48.379  29.364  24.264  1.00  0.00    -0.010 A 
ATOM     25  C   UNL     1     -49.225  28.680  25.187  1.00  0.00    -0.032 A 
ATOM     26  C   UNL     1     -47.266  28.558  24.081  1.00  0.00     0.014 A 
ATOM     27  C   UNL     1     -48.605  27.497  25.530  1.00  0.00     0.045 A 
ATOM     28  H   UNL     1     -50.183  29.019  25.558  1.00  0.00     0.065 H 
ATOM     29  N   UNL     1     -47.398  27.426  24.847  1.00  0.00    -0.324 N 
ATOM     30  H   UNL     1     -46.389  28.709  23.467  1.00  0.00     0.083 H 
ATOM     31  C   UNL     1     -48.941  26.411  26.389  1.00  0.00    -0.038 A 
ATOM     32  C   UNL     1     -46.516  26.353  24.970  1.00  0.00     0.009 A 
ATOM     33  C   UNL     1     -48.091  25.373  26.509  1.00  0.00    -0.059 A 
ATOM     34  H   UNL     1     -49.877  26.431  26.937  1.00  0.00     0.064 H 
ATOM     35  C   UNL     1     -46.833  25.329  25.781  1.00  0.00    -0.045 A 
ATOM     36  H   UNL     1     -45.600  26.393  24.395  1.00  0.00     0.082 H 
ATOM     37  H   UNL     1     -48.329  24.535  27.157  1.00  0.00     0.062 H 
ATOM     38  H   UNL     1     -46.179  24.474  25.907  1.00  0.00     0.064 H 
ENDBRANCH  21  24
ENDBRANCH   3  21
TORSDOF 3
ENDMDL
MODEL 5
REMARK VINA RESULT:      -8.9      1.498      2.439
REMARK SMILES O=C(NCc1cc2ccccn2c1)c1cc(=O)n2ccccc2n1
REMARK SMILES IDX 1 1 2 2 3 3 14 5 15 6 24 7 16 8 23 10 17 11 18 12 22 13
REMARK SMILES IDX 19 14 21 15 20 17 4 21 5 24 6 25 13 26 7 27 12 29 8 31 11 32
REMARK SMILES IDX 9 33 10 35
REMARK H PARENT 3 4 15 9 22 16 19 18 21 19 20 20 4 22 4 23 6 28 13 30 8 34
REMARK H PARENT 11 36 9 37 10 38
REMARK Flexibility Score: inf
ROOT
ATOM      1  O   UNL     1     -46.713  35.808  29.578  1.00  0.00    -0.268 OA
ATOM      2  C   UNL     1     -46.713  36.606  28.648  1.00  0.00     0.270 C 
ATOM      3  N   UNL     1     -47.576  36.565  27.582  1.00  0.00    -0.347 N 
ATOM      4  H   UNL     1     -47.530  37.348  26.938  1.00  0.00     0.164 HD
ENDROOT
BRANCH   2   5
ATOM      5  C   UNL     1     -45.748  37.766  28.558  1.00  0.00     0.136 A 
ATOM      6  C   UNL     1     -44.923  37.934  29.594  1.00  0.00     0.035 A 
ATOM      7  N   UNL     1     -45.780  38.570  27.442  1.00  0.00    -0.225 NA
ATOM      8  C   UNL     1     -43.974  39.052  29.554  1.00  0.00     0.258 A 
ATOM      9  H   UNL     1     -44.910  37.295  30.468  1.00  0.00     0.071 H 
ATOM     10  C   UNL     1     -44.942  39.560  27.411  1.00  0.00     0.140 A 
ATOM     11  O   UNL     1     -43.207  39.213  30.503  1.00  0.00    -0.269 OA
ATOM     12  N   UNL     1     -44.028  39.849  28.419  1.00  0.00    -0.268 N 
ATOM     13  C   UNL     1     -44.941  40.460  26.223  1.00  0.00    -0.019 A 
ATOM     14  C   UNL     1     -43.159  40.930  28.310  1.00  0.00     0.014 A 
ATOM     15  C   UNL     1     -44.087  41.489  26.162  1.00  0.00    -0.057 A 
ATOM     16  H   UNL     1     -45.651  40.244  25.433  1.00  0.00     0.066 H 
ATOM     17  C   UNL     1     -43.165  41.733  27.238  1.00  0.00    -0.045 A 
ATOM     18  H   UNL     1     -42.472  41.097  29.134  1.00  0.00     0.082 H 
ATOM     19  H   UNL     1     -44.072  42.154  25.306  1.00  0.00     0.062 H 
ATOM     20  H   UNL     1     -42.483  42.574  27.164  1.00  0.00     0.064 H 
ENDBRANCH   2   5
BRANCH   3  21
ATOM     21  C   UNL     1     -48.703  35.673  27.525  1.00  0.00     0.045 C 
ATOM     22  H   UNL     1     -49.595  36.189  27.155  1.00  0.00     0.054 H 
ATOM     23  H   UNL     1     -48.900  35.325  28.543  1.00  0.00     0.054 H 
BRANCH  21  24
ATOM     24  C   UNL     1     -48.340  34.533  26.636  1.00  0.00    -0.010 A 
ATOM     25  C   UNL     1     -49.186  33.455  26.239  1.00  0.00    -0.032 A 
ATOM     26  C   UNL     1     -47.111  34.307  26.037  1.00  0.00     0.014 A 
ATOM     27  C   UNL     1     -48.452  32.621  25.424  1.00  0.00     0.045 A 
ATOM     28  H   UNL     1     -50.220  33.308  26.522  1.00  0.00     0.065 H 
ATOM     29  N   UNL     1     -47.173  33.148  25.302  1.00  0.00    -0.324 N 
ATOM     30  H   UNL     1     -46.196  34.882  26.083  1.00  0.00     0.083 H 
ATOM     31  C   UNL     1     -48.732  31.407  24.731  1.00  0.00    -0.038 A 
ATOM     32  C   UNL     1     -46.170  32.547  24.544  1.00  0.00     0.009 A 
ATOM     33  C   UNL     1     -47.764  30.824  23.996  1.00  0.00    -0.059 A 
ATOM     34  H   UNL     1     -49.720  30.966  24.801  1.00  0.00     0.064 H 
ATOM     35  C   UNL     1     -46.434  31.402  23.890  1.00  0.00    -0.045 A 
ATOM     36  H   UNL     1     -45.206  33.038  24.513  1.00  0.00     0.082 H 
ATOM     37  H   UNL     1     -47.958  29.900  23.460  1.00  0.00     0.062 H 
ATOM     38  H   UNL     1     -45.686  30.899  23.289  1.00  0.00     0.064 H 
ENDBRANCH  21  24
ENDBRANCH   3  21
TORSDOF 3
ENDMDL
MODEL 6
REMARK VINA RESULT:      -8.8      2.039      8.228
REMARK SMILES O=C(NCc1cc2ccccn2c1)c1cc(=O)n2ccccc2n1
REMARK SMILES IDX 1 1 2 2 3 3 14 5 15 6 24 7 16 8 23 10 17 11 18 12 22 13
REMARK SMILES IDX 19 14 21 15 20 17 4 21 5 24 6 25 13 26 7 27 12 29 8 31 11 32
REMARK SMILES IDX 9 33 10 35
REMARK H PARENT 3 4 15 9 22 16 19 18 21 19 20 20 4 22 4 23 6 28 13 30 8 34
REMARK H PARENT 11 36 9 37 10 38
REMARK Flexibility Score: inf
ROOT
ATOM      1  O   UNL     1     -47.189  39.334  28.868  1.00  0.00    -0.268 OA
ATOM      2  C   UNL     1     -46.551  38.490  28.251  1.00  0.00     0.270 C 
ATOM      3  N   UNL     1     -45.208  38.566  27.983  1.00  0.00    -0.347 N 
ATOM      4  H   UNL     1     -44.789  37.748  27.553  1.00  0.00     0.164 HD
ENDROOT
BRANCH   2   5
ATOM      5  C   UNL     1     -47.172  37.226  27.704  1.00  0.00     0.136 A 
ATOM      6  C   UNL     1     -48.488  37.084  27.882  1.00  0.00     0.035 A 
ATOM      7  N   UNL     1     -46.363  36.309  27.072  1.00  0.00    -0.225 NA
ATOM      8  C   UNL     1     -49.133  35.869  27.374  1.00  0.00     0.258 A 
ATOM      9  H   UNL     1     -49.113  37.813  28.383  1.00  0.00     0.071 H 
ATOM     10  C   UNL     1     -46.936  35.233  26.627  1.00  0.00     0.140 A 
ATOM     11  O   UNL     1     -50.345  35.731  27.531  1.00  0.00    -0.269 OA
ATOM     12  N   UNL     1     -48.294  34.959  26.744  1.00  0.00    -0.268 N 
ATOM     13  C   UNL     1     -46.099  34.210  25.938  1.00  0.00    -0.019 A 
ATOM     14  C   UNL     1     -48.834  33.782  26.237  1.00  0.00     0.014 A 
ATOM     15  C   UNL     1     -46.663  33.091  25.467  1.00  0.00    -0.057 A 
ATOM     16  H   UNL     1     -45.039  34.413  25.844  1.00  0.00     0.066 H 
ATOM     17  C   UNL     1     -48.075  32.867  25.618  1.00  0.00    -0.045 A 
ATOM     18  H   UNL     1     -49.903  33.633  26.363  1.00  0.00     0.082 H 
ATOM     19  H   UNL     1     -46.069  32.335  24.963  1.00  0.00     0.062 H 
ATOM     20  H   UNL     1     -48.506  31.952  25.227  1.00  0.00     0.064 H 
ENDBRANCH   2   5
BRANCH   3  21
ATOM     21  C   UNL     1     -44.355  39.575  28.552  1.00  0.00     0.045 C 
ATOM     22  H   UNL     1     -43.447  39.130  28.975  1.00  0.00     0.054 H 
ATOM     23  H   UNL     1     -44.912  40.060  29.360  1.00  0.00     0.054 H 
BRANCH  21  24
ATOM     24  C   UNL     1     -44.020  40.552  27.479  1.00  0.00    -0.010 A 
ATOM     25  C   UNL     1     -44.769  40.812  26.293  1.00  0.00    -0.032 A 
ATOM     26  C   UNL     1     -42.914  41.386  27.433  1.00  0.00     0.014 A 
ATOM     27  C   UNL     1     -44.102  41.781  25.575  1.00  0.00     0.045 A 
ATOM     28  H   UNL     1     -45.697  40.338  25.999  1.00  0.00     0.065 H 
ATOM     29  N   UNL     1     -42.958  42.132  26.280  1.00  0.00    -0.324 N 
ATOM     30  H   UNL     1     -42.097  41.501  28.132  1.00  0.00     0.083 H 
ATOM     31  C   UNL     1     -44.342  42.444  24.337  1.00  0.00    -0.038 A 
ATOM     32  C   UNL     1     -42.051  43.090  25.830  1.00  0.00     0.009 A 
ATOM     33  C   UNL     1     -43.467  43.371  23.900  1.00  0.00    -0.059 A 
ATOM     34  H   UNL     1     -45.226  42.197  23.759  1.00  0.00     0.064 H 
ATOM     35  C   UNL     1     -42.277  43.716  24.662  1.00  0.00    -0.045 A 
ATOM     36  H   UNL     1     -41.189  43.292  26.454  1.00  0.00     0.082 H 
ATOM     37  H   UNL     1     -43.632  43.889  22.960  1.00  0.00     0.062 H 
ATOM     38  H   UNL     1     -41.600  44.467  24.273  1.00  0.00     0.064 H 
ENDBRANCH  21  24
ENDBRANCH   3  21
TORSDOF 3
ENDMDL
MODEL 7
REMARK VINA RESULT:      -8.6      2.045      3.331
REMARK SMILES O=C(NCc1cc2ccccn2c1)c1cc(=O)n2ccccc2n1
REMARK SMILES IDX 1 1 2 2 3 3 14 5 15 6 24 7 16 8 23 10 17 11 18 12 22 13
REMARK SMILES IDX 19 14 21 15 20 17 4 21 5 24 6 25 13 26 7 27 12 29 8 31 11 32
REMARK SMILES IDX 9 33 10 35
REMARK H PARENT 3 4 15 9 22 16 19 18 21 19 20 20 4 22 4 23 6 28 13 30 8 34
REMARK H PARENT 11 36 9 37 10 38
REMARK Flexibility Score: inf
ROOT
ATOM      1  O   UNL     1     -46.854  39.573  28.022  1.00  0.00    -0.268 OA
ATOM      2  C   UNL     1     -45.666  39.567  28.319  1.00  0.00     0.270 C 
ATOM      3  N   UNL     1     -45.105  38.766  29.281  1.00  0.00    -0.347 N 
ATOM      4  H   UNL     1     -44.092  38.790  29.352  1.00  0.00     0.164 HD
ENDROOT
BRANCH   2   5
ATOM      5  C   UNL     1     -44.643  40.452  27.645  1.00  0.00     0.136 A 
ATOM      6  C   UNL     1     -43.483  40.614  28.285  1.00  0.00     0.035 A 
ATOM      7  N   UNL     1     -44.962  41.035  26.440  1.00  0.00    -0.225 NA
ATOM      8  C   UNL     1     -42.463  41.472  27.672  1.00  0.00     0.258 A 
ATOM      9  H   UNL     1     -43.245  40.151  29.235  1.00  0.00     0.071 H 
ATOM     10  C   UNL     1     -44.059  41.796  25.902  1.00  0.00     0.140 A 
ATOM     11  O   UNL     1     -41.389  41.624  28.253  1.00  0.00    -0.269 OA
ATOM     12  N   UNL     1     -42.810  42.049  26.459  1.00  0.00    -0.268 N 
ATOM     13  C   UNL     1     -44.361  42.451  24.597  1.00  0.00    -0.019 A 
ATOM     14  C   UNL     1     -41.895  42.877  25.817  1.00  0.00     0.014 A 
ATOM     15  C   UNL     1     -43.449  43.240  24.017  1.00  0.00    -0.057 A 
ATOM     16  H   UNL     1     -45.332  42.261  24.156  1.00  0.00     0.066 H 
ATOM     17  C   UNL     1     -42.174  43.461  24.644  1.00  0.00    -0.045 A 
ATOM     18  H   UNL     1     -40.938  43.030  26.308  1.00  0.00     0.082 H 
ATOM     19  H   UNL     1     -43.651  43.726  23.068  1.00  0.00     0.062 H 
ATOM     20  H   UNL     1     -41.451  44.105  24.153  1.00  0.00     0.064 H 
ENDBRANCH   2   5
BRANCH   3  21
ATOM     21  C   UNL     1     -45.828  37.707  29.934  1.00  0.00     0.045 C 
ATOM     22  H   UNL     1     -46.707  38.096  30.459  1.00  0.00     0.054 H 
ATOM     23  H   UNL     1     -45.156  37.255  30.671  1.00  0.00     0.054 H 
BRANCH  21  24
ATOM     24  C   UNL     1     -46.222  36.713  28.897  1.00  0.00    -0.010 A 
ATOM     25  C   UNL     1     -45.351  35.999  28.020  1.00  0.00    -0.032 A 
ATOM     26  C   UNL     1     -47.510  36.303  28.589  1.00  0.00     0.014 A 
ATOM     27  C   UNL     1     -46.129  35.191  27.219  1.00  0.00     0.045 A 
ATOM     28  H   UNL     1     -44.273  36.072  27.983  1.00  0.00     0.065 H 
ATOM     29  N   UNL     1     -47.459  35.381  27.571  1.00  0.00    -0.324 N 
ATOM     30  H   UNL     1     -48.458  36.602  29.014  1.00  0.00     0.083 H 
ATOM     31  C   UNL     1     -45.851  34.264  26.173  1.00  0.00    -0.038 A 
ATOM     32  C   UNL     1     -48.514  34.714  26.951  1.00  0.00     0.009 A 
ATOM     33  C   UNL     1     -46.869  33.617  25.572  1.00  0.00    -0.059 A 
ATOM     34  H   UNL     1     -44.824  34.088  25.872  1.00  0.00     0.064 H 
ATOM     35  C   UNL     1     -48.252  33.840  25.963  1.00  0.00    -0.045 A 
ATOM     36  H   UNL     1     -49.515  34.933  27.298  1.00  0.00     0.082 H 
ATOM     37  H   UNL     1     -46.679  32.906  24.774  1.00  0.00     0.062 H 
ATOM     38  H   UNL     1     -49.040  33.298  25.453  1.00  0.00     0.064 H 
ENDBRANCH  21  24
ENDBRANCH   3  21
TORSDOF 3
ENDMDL
