MODEL 1
REMARK VINA RESULT:      -9.8      0.000      0.000
REMARK SMILES COc1cncc(-c2cn(Cc3ccc4cc(CNCC5CCC5)[nH]c4c3)nn2)c1
REMARK SMILES IDX 12 1 13 2 14 3 15 4 16 5 17 6 25 7 26 8 27 9 11 15 10 18
REMARK SMILES IDX 8 19 9 20 29 21 28 23 7 24 3 25 4 26 30 27 5 28 6 31 2 33
REMARK SMILES IDX 1 34 18 38 19 41 20 43 21 46 22 47 24 48 23 50
REMARK H PARENT 13 10 14 11 16 12 25 13 27 14 11 16 11 17 9 22 4 29 30 30 6 32
REMARK H PARENT 1 35 1 36 1 37 18 39 18 40 19 42 20 44 20 45 21 49 22 51 22 52
REMARK H PARENT 24 53 24 54 23 55 23 56
REMARK Flexibility Score: inf
ROOT
ATOM      1  C   UNL     1     -48.068  34.469  26.413  1.00  0.00    -0.024 A 
ATOM      2  C   UNL     1     -46.805  34.517  25.803  1.00  0.00    -0.056 A 
ATOM      3  C   UNL     1     -46.327  33.443  25.042  1.00  0.00    -0.052 A 
ATOM      4  C   UNL     1     -47.128  32.298  24.884  1.00  0.00    -0.000 A 
ATOM      5  C   UNL     1     -46.963  31.063  24.198  1.00  0.00    -0.032 A 
ATOM      6  C   UNL     1     -48.103  30.310  24.394  1.00  0.00     0.030 A 
ATOM      7  N   UNL     1     -48.950  31.055  25.181  1.00  0.00    -0.357 N 
ATOM      8  C   UNL     1     -48.381  32.268  25.493  1.00  0.00     0.046 A 
ATOM      9  C   UNL     1     -48.880  33.331  26.257  1.00  0.00    -0.033 A 
ATOM     10  H   UNL     1     -46.173  35.396  25.919  1.00  0.00     0.063 H 
ATOM     11  H   UNL     1     -45.345  33.496  24.579  1.00  0.00     0.063 H 
ATOM     12  H   UNL     1     -46.098  30.761  23.621  1.00  0.00     0.065 H 
ATOM     13  H   UNL     1     -49.875  30.748  25.453  1.00  0.00     0.166 HD
ATOM     14  H   UNL     1     -49.864  33.268  26.712  1.00  0.00     0.065 H 
ENDROOT
BRANCH   1  15
ATOM     15  C   UNL     1     -48.557  35.637  27.235  1.00  0.00     0.068 C 
ATOM     16  H   UNL     1     -49.302  35.328  27.977  1.00  0.00     0.057 H 
ATOM     17  H   UNL     1     -49.028  36.383  26.582  1.00  0.00     0.057 H 
BRANCH  15  18
ATOM     18  N   UNL     1     -47.480  36.277  27.970  1.00  0.00    -0.247 N 
ATOM     19  C   UNL     1     -45.865  37.539  28.661  1.00  0.00     0.114 A 
ATOM     20  C   UNL     1     -46.784  37.407  27.643  1.00  0.00     0.054 A 
ATOM     21  N   UNL     1     -46.015  36.489  29.533  1.00  0.00    -0.130 NA
ATOM     22  H   UNL     1     -47.012  37.988  26.762  1.00  0.00     0.086 H 
ATOM     23  N   UNL     1     -47.003  35.720  29.098  1.00  0.00    -0.066 NA
BRANCH  19  24
ATOM     24  C   UNL     1     -44.876  38.584  28.824  1.00  0.00     0.026 A 
ATOM     25  C   UNL     1     -43.714  40.580  28.091  1.00  0.00     0.137 A 
ATOM     26  C   UNL     1     -42.965  40.499  29.259  1.00  0.00     0.069 A 
ATOM     27  C   UNL     1     -44.684  39.600  27.877  1.00  0.00    -0.007 A 
ATOM     28  N   UNL     1     -43.116  39.540  30.201  1.00  0.00    -0.260 NA
ATOM     29  H   UNL     1     -42.195  41.236  29.475  1.00  0.00     0.088 H 
ATOM     30  H   UNL     1     -45.298  39.620  26.986  1.00  0.00     0.067 H 
ATOM     31  C   UNL     1     -44.070  38.609  29.960  1.00  0.00     0.037 A 
ATOM     32  H   UNL     1     -44.166  37.855  30.739  1.00  0.00     0.085 H 
BRANCH  25  33
ATOM     33  O   UNL     1     -43.418  41.625  27.263  1.00  0.00    -0.495 OA
BRANCH  33  34
ATOM     34  C   UNL     1     -44.036  41.628  25.982  1.00  0.00     0.078 C 
ATOM     35  H   UNL     1     -44.394  42.629  25.719  1.00  0.00     0.067 H 
ATOM     36  H   UNL     1     -44.846  40.893  25.934  1.00  0.00     0.067 H 
ATOM     37  H   UNL     1     -43.281  41.340  25.245  1.00  0.00     0.067 H 
ENDBRANCH  33  34
ENDBRANCH  25  33
ENDBRANCH  19  24
ENDBRANCH  15  18
ENDBRANCH   1  15
BRANCH   6  38
ATOM     38  C   UNL     1     -48.478  28.947  23.926  1.00  0.00     0.036 C 
ATOM     39  H   UNL     1     -47.558  28.403  23.686  1.00  0.00     0.049 H 
ATOM     40  H   UNL     1     -49.078  29.024  23.011  1.00  0.00     0.049 H 
BRANCH  38  41
ATOM     41  N   UNL     1     -49.234  28.273  24.980  1.00  0.00    -0.311 NA
ATOM     42  H   UNL     1     -50.221  28.486  24.821  1.00  0.00     0.123 HD
BRANCH  41  43
ATOM     43  C   UNL     1     -49.072  26.815  24.936  1.00  0.00    -0.002 C 
ATOM     44  H   UNL     1     -48.288  26.533  24.223  1.00  0.00     0.043 H 
ATOM     45  H   UNL     1     -50.006  26.392  24.548  1.00  0.00     0.043 H 
BRANCH  43  46
ATOM     46  C   UNL     1     -48.775  26.227  26.318  1.00  0.00    -0.029 C 
ATOM     47  C   UNL     1     -47.828  24.997  26.378  1.00  0.00    -0.049 C 
ATOM     48  C   UNL     1     -47.699  26.990  27.136  1.00  0.00    -0.049 C 
ATOM     49  H   UNL     1     -49.696  26.086  26.896  1.00  0.00     0.032 H 
ATOM     50  C   UNL     1     -46.661  25.970  26.630  1.00  0.00    -0.053 C 
ATOM     51  H   UNL     1     -48.032  24.332  27.225  1.00  0.00     0.027 H 
ATOM     52  H   UNL     1     -47.747  24.392  25.471  1.00  0.00     0.027 H 
ATOM     53  H   UNL     1     -47.862  26.944  28.220  1.00  0.00     0.027 H 
ATOM     54  H   UNL     1     -47.516  28.030  26.853  1.00  0.00     0.027 H 
ATOM     55  H   UNL     1     -45.920  25.643  27.364  1.00  0.00     0.027 H 
ATOM     56  H   UNL     1     -46.142  26.283  25.717  1.00  0.00     0.027 H 
ENDBRANCH  43  46
ENDBRANCH  41  43
ENDBRANCH  38  41
ENDBRANCH   6  38
TORSDOF 9
ENDMDL
MODEL 2
REMARK VINA RESULT:      -9.1      1.449      1.973
REMARK SMILES COc1cncc(-c2cn(Cc3ccc4cc(CNCC5CCC5)[nH]c4c3)nn2)c1
REMARK SMILES IDX 12 1 13 2 14 3 15 4 16 5 17 6 25 7 26 8 27 9 11 15 10 18
REMARK SMILES IDX 8 19 9 20 29 21 28 23 7 24 3 25 4 26 30 27 5 28 6 31 2 33
REMARK SMILES IDX 1 34 18 38 19 41 20 43 21 46 22 47 24 48 23 50
REMARK H PARENT 13 10 14 11 16 12 25 13 27 14 11 16 11 17 9 22 4 29 30 30 6 32
REMARK H PARENT 1 35 1 36 1 37 18 39 18 40 19 42 20 44 20 45 21 49 22 51 22 52
REMARK H PARENT 24 53 24 54 23 55 23 56
REMARK Flexibility Score: inf
ROOT
ATOM      1  C   UNL     1     -47.744  35.890  27.040  1.00  0.00    -0.024 A 
ATOM      2  C   UNL     1     -46.436  35.625  26.608  1.00  0.00    -0.056 A 
ATOM      3  C   UNL     1     -46.100  34.397  26.023  1.00  0.00    -0.052 A 
ATOM      4  C   UNL     1     -47.094  33.414  25.865  1.00  0.00    -0.000 A 
ATOM      5  C   UNL     1     -47.105  32.098  25.327  1.00  0.00    -0.032 A 
ATOM      6  C   UNL     1     -48.388  31.603  25.434  1.00  0.00     0.030 A 
ATOM      7  N   UNL     1     -49.151  32.582  26.025  1.00  0.00    -0.357 N 
ATOM      8  C   UNL     1     -48.389  33.694  26.296  1.00  0.00     0.046 A 
ATOM      9  C   UNL     1     -48.746  34.916  26.882  1.00  0.00    -0.033 A 
ATOM     10  H   UNL     1     -45.656  36.377  26.726  1.00  0.00     0.063 H 
ATOM     11  H   UNL     1     -45.081  34.208  25.696  1.00  0.00     0.063 H 
ATOM     12  H   UNL     1     -46.258  31.570  24.906  1.00  0.00     0.065 H 
ATOM     13  H   UNL     1     -50.145  32.491  26.195  1.00  0.00     0.166 HD
ATOM     14  H   UNL     1     -49.769  35.095  27.202  1.00  0.00     0.065 H 
ENDROOT
BRANCH   1  15
ATOM     15  C   UNL     1     -48.078  37.219  27.674  1.00  0.00     0.068 C 
ATOM     16  H   UNL     1     -48.681  37.096  28.580  1.00  0.00     0.057 H 
ATOM     17  H   UNL     1     -48.655  37.834  26.971  1.00  0.00     0.057 H 
BRANCH  15  18
ATOM     18  N   UNL     1     -46.886  37.953  28.064  1.00  0.00    -0.247 N 
ATOM     19  C   UNL     1     -45.179  39.273  28.195  1.00  0.00     0.114 A 
ATOM     20  C   UNL     1     -46.271  38.982  27.408  1.00  0.00     0.054 A 
ATOM     21  N   UNL     1     -45.156  38.410  29.262  1.00  0.00    -0.130 NA
ATOM     22  H   UNL     1     -46.663  39.395  26.490  1.00  0.00     0.086 H 
ATOM     23  N   UNL     1     -46.204  37.602  29.169  1.00  0.00    -0.066 NA
BRANCH  19  24
ATOM     24  C   UNL     1     -44.183  40.301  27.973  1.00  0.00     0.026 A 
ATOM     25  C   UNL     1     -43.180  42.079  26.668  1.00  0.00     0.137 A 
ATOM     26  C   UNL     1     -42.238  42.210  27.682  1.00  0.00     0.069 A 
ATOM     27  C   UNL     1     -44.166  41.104  26.824  1.00  0.00    -0.007 A 
ATOM     28  N   UNL     1     -42.216  41.461  28.808  1.00  0.00    -0.260 NA
ATOM     29  H   UNL     1     -41.447  42.952  27.610  1.00  0.00     0.088 H 
ATOM     30  H   UNL     1     -44.926  40.965  26.066  1.00  0.00     0.067 H 
ATOM     31  C   UNL     1     -43.193  40.528  28.926  1.00  0.00     0.037 A 
ATOM     32  H   UNL     1     -43.147  39.947  29.845  1.00  0.00     0.085 H 
BRANCH  25  33
ATOM     33  O   UNL     1     -43.039  42.930  25.609  1.00  0.00    -0.495 OA
BRANCH  33  34
ATOM     34  C   UNL     1     -41.716  43.335  25.279  1.00  0.00     0.078 C 
ATOM     35  H   UNL     1     -40.974  42.751  25.833  1.00  0.00     0.067 H 
ATOM     36  H   UNL     1     -41.580  44.409  25.446  1.00  0.00     0.067 H 
ATOM     37  H   UNL     1     -41.563  43.141  24.213  1.00  0.00     0.067 H 
ENDBRANCH  33  34
ENDBRANCH  25  33
ENDBRANCH  19  24
ENDBRANCH  15  18
ENDBRANCH   1  15
BRANCH   6  38
ATOM     38  C   UNL     1     -48.975  30.289  25.050  1.00  0.00     0.036 C 
ATOM     39  H   UNL     1     -49.617  30.444  24.176  1.00  0.00     0.049 H 
ATOM     40  H   UNL     1     -49.599  29.910  25.869  1.00  0.00     0.049 H 
BRANCH  38  41
ATOM     41  N   UNL     1     -47.893  29.352  24.754  1.00  0.00    -0.311 NA
ATOM     42  H   UNL     1     -47.208  29.441  25.507  1.00  0.00     0.123 HD
BRANCH  41  43
ATOM     43  C   UNL     1     -48.355  27.960  24.722  1.00  0.00    -0.002 C 
ATOM     44  H   UNL     1     -47.543  27.287  24.421  1.00  0.00     0.043 H 
ATOM     45  H   UNL     1     -49.120  27.885  23.940  1.00  0.00     0.043 H 
BRANCH  43  46
ATOM     46  C   UNL     1     -48.945  27.518  26.064  1.00  0.00    -0.029 C 
ATOM     47  C   UNL     1     -50.302  26.763  26.029  1.00  0.00    -0.049 C 
ATOM     48  C   UNL     1     -48.332  26.219  26.652  1.00  0.00    -0.049 C 
ATOM     49  H   UNL     1     -48.930  28.336  26.794  1.00  0.00     0.032 H 
ATOM     50  C   UNL     1     -49.510  25.442  26.033  1.00  0.00    -0.053 C 
ATOM     51  H   UNL     1     -50.906  26.912  26.931  1.00  0.00     0.027 H 
ATOM     52  H   UNL     1     -50.936  26.927  25.154  1.00  0.00     0.027 H 
ATOM     53  H   UNL     1     -48.325  26.197  27.748  1.00  0.00     0.027 H 
ATOM     54  H   UNL     1     -47.340  25.938  26.289  1.00  0.00     0.027 H 
ATOM     55  H   UNL     1     -49.927  24.641  26.650  1.00  0.00     0.027 H 
ATOM     56  H   UNL     1     -49.303  25.047  25.032  1.00  0.00     0.027 H 
ENDBRANCH  43  46
ENDBRANCH  41  43
ENDBRANCH  38  41
ENDBRANCH   6  38
TORSDOF 9
ENDMDL
MODEL 3
REMARK VINA RESULT:      -8.8      3.348     11.410
REMARK SMILES COc1cncc(-c2cn(Cc3ccc4cc(CNCC5CCC5)[nH]c4c3)nn2)c1
REMARK SMILES IDX 12 1 13 2 14 3 15 4 16 5 17 6 25 7 26 8 27 9 11 15 10 18
REMARK SMILES IDX 8 19 9 20 29 21 28 23 7 24 3 25 4 26 30 27 5 28 6 31 2 33
REMARK SMILES IDX 1 34 18 38 19 41 20 43 21 46 22 47 24 48 23 50
REMARK H PARENT 13 10 14 11 16 12 25 13 27 14 11 16 11 17 9 22 4 29 30 30 6 32
REMARK H PARENT 1 35 1 36 1 37 18 39 18 40 19 42 20 44 20 45 21 49 22 51 22 52
REMARK H PARENT 24 53 24 54 23 55 23 56
REMARK Flexibility Score: inf
ROOT
ATOM      1  C   UNL     1     -47.381  36.454  27.831  1.00  0.00    -0.024 A 
ATOM      2  C   UNL     1     -46.915  36.033  29.086  1.00  0.00    -0.056 A 
ATOM      3  C   UNL     1     -45.889  36.721  29.746  1.00  0.00    -0.052 A 
ATOM      4  C   UNL     1     -45.317  37.854  29.140  1.00  0.00    -0.000 A 
ATOM      5  C   UNL     1     -44.291  38.763  29.516  1.00  0.00    -0.032 A 
ATOM      6  C   UNL     1     -44.160  39.700  28.511  1.00  0.00     0.030 A 
ATOM      7  N   UNL     1     -45.076  39.379  27.537  1.00  0.00    -0.357 N 
ATOM      8  C   UNL     1     -45.793  38.261  27.895  1.00  0.00     0.046 A 
ATOM      9  C   UNL     1     -46.819  37.589  27.218  1.00  0.00    -0.033 A 
ATOM     10  H   UNL     1     -47.347  35.155  29.565  1.00  0.00     0.063 H 
ATOM     11  H   UNL     1     -45.538  36.379  30.716  1.00  0.00     0.063 H 
ATOM     12  H   UNL     1     -43.710  38.733  30.430  1.00  0.00     0.065 H 
ATOM     13  H   UNL     1     -45.213  39.925  26.696  1.00  0.00     0.166 HD
ATOM     14  H   UNL     1     -47.164  37.941  26.250  1.00  0.00     0.065 H 
ENDROOT
BRANCH   1  15
ATOM     15  C   UNL     1     -48.483  35.691  27.137  1.00  0.00     0.068 C 
ATOM     16  H   UNL     1     -49.033  36.324  26.431  1.00  0.00     0.057 H 
ATOM     17  H   UNL     1     -49.202  35.317  27.877  1.00  0.00     0.057 H 
BRANCH  15  18
ATOM     18  N   UNL     1     -47.972  34.565  26.374  1.00  0.00    -0.247 N 
ATOM     19  C   UNL     1     -47.608  32.646  25.445  1.00  0.00     0.114 A 
ATOM     20  C   UNL     1     -48.513  33.317  26.238  1.00  0.00     0.054 A 
ATOM     21  N   UNL     1     -46.560  33.486  25.159  1.00  0.00    -0.130 NA
ATOM     22  H   UNL     1     -49.455  33.046  26.691  1.00  0.00     0.086 H 
ATOM     23  N   UNL     1     -46.790  34.656  25.737  1.00  0.00    -0.066 NA
BRANCH  19  24
ATOM     24  C   UNL     1     -47.694  31.280  24.972  1.00  0.00     0.026 A 
ATOM     25  C   UNL     1     -48.658  29.057  24.983  1.00  0.00     0.137 A 
ATOM     26  C   UNL     1     -47.747  28.723  23.987  1.00  0.00     0.069 A 
ATOM     27  C   UNL     1     -48.623  30.360  25.479  1.00  0.00    -0.007 A 
ATOM     28  N   UNL     1     -46.836  29.576  23.465  1.00  0.00    -0.260 NA
ATOM     29  H   UNL     1     -47.730  27.721  23.566  1.00  0.00     0.088 H 
ATOM     30  H   UNL     1     -49.314  30.673  26.252  1.00  0.00     0.067 H 
ATOM     31  C   UNL     1     -46.836  30.835  23.970  1.00  0.00     0.037 A 
ATOM     32  H   UNL     1     -46.093  31.494  23.526  1.00  0.00     0.085 H 
BRANCH  25  33
ATOM     33  O   UNL     1     -49.502  28.059  25.378  1.00  0.00    -0.495 OA
BRANCH  33  34
ATOM     34  C   UNL     1     -48.945  27.018  26.171  1.00  0.00     0.078 C 
ATOM     35  H   UNL     1     -49.482  26.913  27.119  1.00  0.00     0.067 H 
ATOM     36  H   UNL     1     -47.875  27.180  26.338  1.00  0.00     0.067 H 
ATOM     37  H   UNL     1     -49.057  26.080  25.619  1.00  0.00     0.067 H 
ENDBRANCH  33  34
ENDBRANCH  25  33
ENDBRANCH  19  24
ENDBRANCH  15  18
ENDBRANCH   1  15
BRANCH   6  38
ATOM     38  C   UNL     1     -43.247  40.867  28.361  1.00  0.00     0.036 C 
ATOM     39  H   UNL     1     -42.342  40.529  27.845  1.00  0.00     0.049 H 
ATOM     40  H   UNL     1     -42.956  41.237  29.352  1.00  0.00     0.049 H 
BRANCH  38  41
ATOM     41  N   UNL     1     -43.931  41.914  27.604  1.00  0.00    -0.311 NA
ATOM     42  H   UNL     1     -43.763  42.794  28.095  1.00  0.00     0.123 HD
BRANCH  41  43
ATOM     43  C   UNL     1     -43.408  42.047  26.240  1.00  0.00    -0.002 C 
ATOM     44  H   UNL     1     -44.217  41.974  25.504  1.00  0.00     0.043 H 
ATOM     45  H   UNL     1     -42.749  41.190  26.056  1.00  0.00     0.043 H 
BRANCH  43  46
ATOM     46  C   UNL     1     -42.625  43.349  26.048  1.00  0.00    -0.029 C 
ATOM     47  C   UNL     1     -41.409  43.311  25.083  1.00  0.00    -0.049 C 
ATOM     48  C   UNL     1     -43.271  44.360  25.062  1.00  0.00    -0.049 C 
ATOM     49  H   UNL     1     -42.393  43.819  27.011  1.00  0.00     0.032 H 
ATOM     50  C   UNL     1     -42.346  43.802  23.963  1.00  0.00    -0.053 C 
ATOM     51  H   UNL     1     -40.626  44.032  25.342  1.00  0.00     0.027 H 
ATOM     52  H   UNL     1     -40.945  42.337  24.912  1.00  0.00     0.027 H 
ATOM     53  H   UNL     1     -43.064  45.407  25.314  1.00  0.00     0.027 H 
ATOM     54  H   UNL     1     -44.343  44.248  24.879  1.00  0.00     0.027 H 
ATOM     55  H   UNL     1     -41.922  44.542  23.279  1.00  0.00     0.027 H 
ATOM     56  H   UNL     1     -42.795  42.993  23.376  1.00  0.00     0.027 H 
ENDBRANCH  43  46
ENDBRANCH  41  43
ENDBRANCH  38  41
ENDBRANCH   6  38
TORSDOF 9
ENDMDL
MODEL 4
REMARK VINA RESULT:      -8.8      3.363     11.225
REMARK SMILES COc1cncc(-c2cn(Cc3ccc4cc(CNCC5CCC5)[nH]c4c3)nn2)c1
REMARK SMILES IDX 12 1 13 2 14 3 15 4 16 5 17 6 25 7 26 8 27 9 11 15 10 18
REMARK SMILES IDX 8 19 9 20 29 21 28 23 7 24 3 25 4 26 30 27 5 28 6 31 2 33
REMARK SMILES IDX 1 34 18 38 19 41 20 43 21 46 22 47 24 48 23 50
REMARK H PARENT 13 10 14 11 16 12 25 13 27 14 11 16 11 17 9 22 4 29 30 30 6 32
REMARK H PARENT 1 35 1 36 1 37 18 39 18 40 19 42 20 44 20 45 21 49 22 51 22 52
REMARK H PARENT 24 53 24 54 23 55 23 56
REMARK Flexibility Score: inf
ROOT
ATOM      1  C   UNL     1     -46.615  37.676  28.177  1.00  0.00    -0.024 A 
ATOM      2  C   UNL     1     -47.172  38.168  26.986  1.00  0.00    -0.056 A 
ATOM      3  C   UNL     1     -46.610  39.266  26.323  1.00  0.00    -0.052 A 
ATOM      4  C   UNL     1     -45.466  39.885  26.859  1.00  0.00    -0.000 A 
ATOM      5  C   UNL     1     -44.659  40.985  26.459  1.00  0.00    -0.032 A 
ATOM      6  C   UNL     1     -43.648  41.133  27.387  1.00  0.00     0.030 A 
ATOM      7  N   UNL     1     -43.826  40.155  28.337  1.00  0.00    -0.357 N 
ATOM      8  C   UNL     1     -44.923  39.382  28.039  1.00  0.00     0.046 A 
ATOM      9  C   UNL     1     -45.468  38.284  28.718  1.00  0.00    -0.033 A 
ATOM     10  H   UNL     1     -48.059  37.700  26.561  1.00  0.00     0.063 H 
ATOM     11  H   UNL     1     -47.056  39.635  25.403  1.00  0.00     0.063 H 
ATOM     12  H   UNL     1     -44.805  41.602  25.581  1.00  0.00     0.065 H 
ATOM     13  H   UNL     1     -43.201  40.018  29.121  1.00  0.00     0.166 HD
ATOM     14  H   UNL     1     -45.012  37.922  29.635  1.00  0.00     0.065 H 
ENDROOT
BRANCH   1  15
ATOM     15  C   UNL     1     -47.244  36.496  28.877  1.00  0.00     0.068 C 
ATOM     16  H   UNL     1     -48.327  36.622  28.992  1.00  0.00     0.057 H 
ATOM     17  H   UNL     1     -46.814  36.383  29.879  1.00  0.00     0.057 H 
BRANCH  15  18
ATOM     18  N   UNL     1     -47.047  35.257  28.143  1.00  0.00    -0.247 N 
ATOM     19  C   UNL     1     -47.119  33.603  26.753  1.00  0.00     0.114 A 
ATOM     20  C   UNL     1     -47.638  34.859  26.977  1.00  0.00     0.054 A 
ATOM     21  N   UNL     1     -46.272  33.281  27.784  1.00  0.00    -0.130 NA
ATOM     22  H   UNL     1     -48.331  35.488  26.439  1.00  0.00     0.086 H 
ATOM     23  N   UNL     1     -46.239  34.299  28.632  1.00  0.00    -0.066 NA
BRANCH  19  24
ATOM     24  C   UNL     1     -47.397  32.721  25.637  1.00  0.00     0.026 A 
ATOM     25  C   UNL     1     -46.735  31.447  23.686  1.00  0.00     0.137 A 
ATOM     26  C   UNL     1     -48.063  31.053  23.568  1.00  0.00     0.069 A 
ATOM     27  C   UNL     1     -46.405  32.298  24.741  1.00  0.00    -0.007 A 
ATOM     28  N   UNL     1     -49.052  31.433  24.408  1.00  0.00    -0.260 NA
ATOM     29  H   UNL     1     -48.374  30.392  22.762  1.00  0.00     0.088 H 
ATOM     30  H   UNL     1     -45.385  32.631  24.881  1.00  0.00     0.067 H 
ATOM     31  C   UNL     1     -48.692  32.255  25.424  1.00  0.00     0.037 A 
ATOM     32  H   UNL     1     -49.512  32.539  26.082  1.00  0.00     0.085 H 
BRANCH  25  33
ATOM     33  O   UNL     1     -45.880  30.955  22.741  1.00  0.00    -0.495 OA
BRANCH  33  34
ATOM     34  C   UNL     1     -45.858  29.544  22.564  1.00  0.00     0.078 C 
ATOM     35  H   UNL     1     -45.617  29.279  21.529  1.00  0.00     0.067 H 
ATOM     36  H   UNL     1     -46.805  29.093  22.877  1.00  0.00     0.067 H 
ATOM     37  H   UNL     1     -45.068  29.138  23.203  1.00  0.00     0.067 H 
ENDBRANCH  33  34
ENDBRANCH  25  33
ENDBRANCH  19  24
ENDBRANCH  15  18
ENDBRANCH   1  15
BRANCH   6  38
ATOM     38  C   UNL     1     -42.532  42.114  27.483  1.00  0.00     0.036 C 
ATOM     39  H   UNL     1     -41.623  41.636  27.103  1.00  0.00     0.049 H 
ATOM     40  H   UNL     1     -42.365  42.380  28.534  1.00  0.00     0.049 H 
BRANCH  38  41
ATOM     41  N   UNL     1     -42.874  43.302  26.702  1.00  0.00    -0.311 NA
ATOM     42  H   UNL     1     -42.730  44.110  27.311  1.00  0.00     0.123 HD
BRANCH  41  43
ATOM     43  C   UNL     1     -42.012  43.461  25.525  1.00  0.00    -0.002 C 
ATOM     44  H   UNL     1     -41.086  42.885  25.641  1.00  0.00     0.043 H 
ATOM     45  H   UNL     1     -41.713  44.515  25.477  1.00  0.00     0.043 H 
BRANCH  43  46
ATOM     46  C   UNL     1     -42.727  43.069  24.230  1.00  0.00    -0.029 C 
ATOM     47  C   UNL     1     -44.131  43.683  23.979  1.00  0.00    -0.049 C 
ATOM     48  C   UNL     1     -42.257  43.837  22.965  1.00  0.00    -0.049 C 
ATOM     49  H   UNL     1     -42.700  41.984  24.074  1.00  0.00     0.032 H 
ATOM     50  C   UNL     1     -43.444  44.798  23.168  1.00  0.00    -0.053 C 
ATOM     51  H   UNL     1     -44.784  43.043  23.375  1.00  0.00     0.027 H 
ATOM     52  H   UNL     1     -44.688  44.017  24.859  1.00  0.00     0.027 H 
ATOM     53  H   UNL     1     -42.329  43.246  22.044  1.00  0.00     0.027 H 
ATOM     54  H   UNL     1     -41.266  44.296  23.011  1.00  0.00     0.027 H 
ATOM     55  H   UNL     1     -43.963  45.111  22.258  1.00  0.00     0.027 H 
ATOM     56  H   UNL     1     -43.198  45.687  23.760  1.00  0.00     0.027 H 
ENDBRANCH  43  46
ENDBRANCH  41  43
ENDBRANCH  38  41
ENDBRANCH   6  38
TORSDOF 9
ENDMDL
MODEL 5
REMARK VINA RESULT:      -8.7      2.822      4.950
REMARK SMILES COc1cncc(-c2cn(Cc3ccc4cc(CNCC5CCC5)[nH]c4c3)nn2)c1
REMARK SMILES IDX 12 1 13 2 14 3 15 4 16 5 17 6 25 7 26 8 27 9 11 15 10 18
REMARK SMILES IDX 8 19 9 20 29 21 28 23 7 24 3 25 4 26 30 27 5 28 6 31 2 33
REMARK SMILES IDX 1 34 18 38 19 41 20 43 21 46 22 47 24 48 23 50
REMARK H PARENT 13 10 14 11 16 12 25 13 27 14 11 16 11 17 9 22 4 29 30 30 6 32
REMARK H PARENT 1 35 1 36 1 37 18 39 18 40 19 42 20 44 20 45 21 49 22 51 22 52
REMARK H PARENT 24 53 24 54 23 55 23 56
REMARK Flexibility Score: inf
ROOT
ATOM      1  C   UNL     1     -46.194  37.473  28.223  1.00  0.00    -0.024 A 
ATOM      2  C   UNL     1     -47.595  37.538  28.198  1.00  0.00    -0.056 A 
ATOM      3  C   UNL     1     -48.359  36.507  27.638  1.00  0.00    -0.052 A 
ATOM      4  C   UNL     1     -47.709  35.386  27.091  1.00  0.00    -0.000 A 
ATOM      5  C   UNL     1     -48.159  34.192  26.463  1.00  0.00    -0.032 A 
ATOM      6  C   UNL     1     -47.051  33.440  26.132  1.00  0.00     0.030 A 
ATOM      7  N   UNL     1     -45.945  34.148  26.540  1.00  0.00    -0.357 N 
ATOM      8  C   UNL     1     -46.317  35.334  27.127  1.00  0.00     0.046 A 
ATOM      9  C   UNL     1     -45.534  36.353  27.684  1.00  0.00    -0.033 A 
ATOM     10  H   UNL     1     -48.112  38.402  28.616  1.00  0.00     0.063 H 
ATOM     11  H   UNL     1     -49.444  36.576  27.625  1.00  0.00     0.063 H 
ATOM     12  H   UNL     1     -49.189  33.915  26.275  1.00  0.00     0.065 H 
ATOM     13  H   UNL     1     -44.997  33.807  26.444  1.00  0.00     0.166 HD
ATOM     14  H   UNL     1     -44.451  36.273  27.695  1.00  0.00     0.065 H 
ENDROOT
BRANCH   1  15
ATOM     15  C   UNL     1     -45.393  38.601  28.827  1.00  0.00     0.068 C 
ATOM     16  H   UNL     1     -44.371  38.288  29.071  1.00  0.00     0.057 H 
ATOM     17  H   UNL     1     -45.867  38.941  29.756  1.00  0.00     0.057 H 
BRANCH  15  18
ATOM     18  N   UNL     1     -45.277  39.733  27.923  1.00  0.00    -0.247 N 
ATOM     19  C   UNL     1     -44.607  41.305  26.598  1.00  0.00     0.114 A 
ATOM     20  C   UNL     1     -44.157  40.209  27.300  1.00  0.00     0.054 A 
ATOM     21  N   UNL     1     -45.949  41.467  26.839  1.00  0.00    -0.130 NA
ATOM     22  H   UNL     1     -43.194  39.732  27.406  1.00  0.00     0.086 H 
ATOM     23  N   UNL     1     -46.348  40.501  27.655  1.00  0.00    -0.066 NA
BRANCH  19  24
ATOM     24  C   UNL     1     -43.834  42.182  25.743  1.00  0.00     0.026 A 
ATOM     25  C   UNL     1     -43.510  43.483  23.725  1.00  0.00     0.137 A 
ATOM     26  C   UNL     1     -42.263  43.837  24.226  1.00  0.00     0.069 A 
ATOM     27  C   UNL     1     -44.303  42.639  24.503  1.00  0.00    -0.007 A 
ATOM     28  N   UNL     1     -41.770  43.425  25.416  1.00  0.00    -0.260 NA
ATOM     29  H   UNL     1     -41.605  44.491  23.659  1.00  0.00     0.088 H 
ATOM     30  H   UNL     1     -45.284  42.336  24.162  1.00  0.00     0.067 H 
ATOM     31  C   UNL     1     -42.570  42.610  26.146  1.00  0.00     0.037 A 
ATOM     32  H   UNL     1     -42.144  42.299  27.097  1.00  0.00     0.085 H 
BRANCH  25  33
ATOM     33  O   UNL     1     -43.834  44.004  22.505  1.00  0.00    -0.495 OA
BRANCH  33  34
ATOM     34  C   UNL     1     -43.122  45.163  22.089  1.00  0.00     0.078 C 
ATOM     35  H   UNL     1     -43.277  45.993  22.787  1.00  0.00     0.067 H 
ATOM     36  H   UNL     1     -43.396  45.449  21.069  1.00  0.00     0.067 H 
ATOM     37  H   UNL     1     -42.055  44.920  22.093  1.00  0.00     0.067 H 
ENDBRANCH  33  34
ENDBRANCH  25  33
ENDBRANCH  19  24
ENDBRANCH  15  18
ENDBRANCH   1  15
BRANCH   6  38
ATOM     38  C   UNL     1     -46.920  32.120  25.454  1.00  0.00     0.036 C 
ATOM     39  H   UNL     1     -47.910  31.820  25.095  1.00  0.00     0.049 H 
ATOM     40  H   UNL     1     -46.576  31.368  26.175  1.00  0.00     0.049 H 
BRANCH  38  41
ATOM     41  N   UNL     1     -45.969  32.244  24.350  1.00  0.00    -0.311 NA
ATOM     42  H   UNL     1     -45.046  32.020  24.726  1.00  0.00     0.123 HD
BRANCH  41  43
ATOM     43  C   UNL     1     -46.256  31.304  23.260  1.00  0.00    -0.002 C 
ATOM     44  H   UNL     1     -45.408  30.628  23.097  1.00  0.00     0.043 H 
ATOM     45  H   UNL     1     -46.363  31.890  22.340  1.00  0.00     0.043 H 
BRANCH  43  46
ATOM     46  C   UNL     1     -47.536  30.503  23.512  1.00  0.00    -0.029 C 
ATOM     47  C   UNL     1     -48.738  30.769  22.565  1.00  0.00    -0.049 C 
ATOM     48  C   UNL     1     -47.522  29.055  22.953  1.00  0.00    -0.049 C 
ATOM     49  H   UNL     1     -47.815  30.523  24.573  1.00  0.00     0.032 H 
ATOM     50  C   UNL     1     -48.260  29.582  21.707  1.00  0.00    -0.053 C 
ATOM     51  H   UNL     1     -49.712  30.599  23.040  1.00  0.00     0.027 H 
ATOM     52  H   UNL     1     -48.762  31.736  22.056  1.00  0.00     0.027 H 
ATOM     53  H   UNL     1     -48.119  28.353  23.547  1.00  0.00     0.027 H 
ATOM     54  H   UNL     1     -46.541  28.612  22.768  1.00  0.00     0.027 H 
ATOM     55  H   UNL     1     -49.047  28.934  21.312  1.00  0.00     0.027 H 
ATOM     56  H   UNL     1     -47.593  29.870  20.887  1.00  0.00     0.027 H 
ENDBRANCH  43  46
ENDBRANCH  41  43
ENDBRANCH  38  41
ENDBRANCH   6  38
TORSDOF 9
ENDMDL
MODEL 6
REMARK VINA RESULT:      -8.5      2.059      3.657
REMARK SMILES COc1cncc(-c2cn(Cc3ccc4cc(CNCC5CCC5)[nH]c4c3)nn2)c1
REMARK SMILES IDX 12 1 13 2 14 3 15 4 16 5 17 6 25 7 26 8 27 9 11 15 10 18
REMARK SMILES IDX 8 19 9 20 29 21 28 23 7 24 3 25 4 26 30 27 5 28 6 31 2 33
REMARK SMILES IDX 1 34 18 38 19 41 20 43 21 46 22 47 24 48 23 50
REMARK H PARENT 13 10 14 11 16 12 25 13 27 14 11 16 11 17 9 22 4 29 30 30 6 32
REMARK H PARENT 1 35 1 36 1 37 18 39 18 40 19 42 20 44 20 45 21 49 22 51 22 52
REMARK H PARENT 24 53 24 54 23 55 23 56
REMARK Flexibility Score: inf
ROOT
ATOM      1  C   UNL     1     -46.431  35.903  28.383  1.00  0.00    -0.024 A 
ATOM      2  C   UNL     1     -47.803  35.994  28.104  1.00  0.00    -0.056 A 
ATOM      3  C   UNL     1     -48.393  35.208  27.107  1.00  0.00    -0.052 A 
ATOM      4  C   UNL     1     -47.597  34.310  26.374  1.00  0.00    -0.000 A 
ATOM      5  C   UNL     1     -47.859  33.386  25.325  1.00  0.00    -0.032 A 
ATOM      6  C   UNL     1     -46.672  32.763  24.998  1.00  0.00     0.030 A 
ATOM      7  N   UNL     1     -45.700  33.286  25.819  1.00  0.00    -0.357 N 
ATOM      8  C   UNL     1     -46.237  34.228  26.665  1.00  0.00     0.046 A 
ATOM      9  C   UNL     1     -45.626  35.004  27.659  1.00  0.00    -0.033 A 
ATOM     10  H   UNL     1     -48.431  36.687  28.663  1.00  0.00     0.063 H 
ATOM     11  H   UNL     1     -49.457  35.293  26.903  1.00  0.00     0.063 H 
ATOM     12  H   UNL     1     -48.818  33.200  24.860  1.00  0.00     0.065 H 
ATOM     13  H   UNL     1     -44.736  32.980  25.810  1.00  0.00     0.166 HD
ATOM     14  H   UNL     1     -44.562  34.908  27.857  1.00  0.00     0.065 H 
ENDROOT
BRANCH   1  15
ATOM     15  C   UNL     1     -45.817  36.767  29.458  1.00  0.00     0.068 C 
ATOM     16  H   UNL     1     -44.956  36.278  29.929  1.00  0.00     0.057 H 
ATOM     17  H   UNL     1     -46.556  36.968  30.243  1.00  0.00     0.057 H 
BRANCH  15  18
ATOM     18  N   UNL     1     -45.339  38.034  28.933  1.00  0.00    -0.247 N 
ATOM     19  C   UNL     1     -44.980  39.837  27.794  1.00  0.00     0.114 A 
ATOM     20  C   UNL     1     -45.816  38.745  27.868  1.00  0.00     0.054 A 
ATOM     21  N   UNL     1     -44.030  39.737  28.780  1.00  0.00    -0.130 NA
ATOM     22  H   UNL     1     -46.674  38.420  27.299  1.00  0.00     0.086 H 
ATOM     23  N   UNL     1     -44.256  38.626  29.468  1.00  0.00    -0.066 NA
BRANCH  19  24
ATOM     24  C   UNL     1     -45.043  40.932  26.848  1.00  0.00     0.026 A 
ATOM     25  C   UNL     1     -44.022  42.564  25.376  1.00  0.00     0.137 A 
ATOM     26  C   UNL     1     -45.306  43.000  25.070  1.00  0.00     0.069 A 
ATOM     27  C   UNL     1     -43.897  41.511  26.283  1.00  0.00    -0.007 A 
ATOM     28  N   UNL     1     -46.439  42.471  25.586  1.00  0.00    -0.260 NA
ATOM     29  H   UNL     1     -45.460  43.818  24.370  1.00  0.00     0.088 H 
ATOM     30  H   UNL     1     -42.920  41.131  26.553  1.00  0.00     0.067 H 
ATOM     31  C   UNL     1     -46.277  41.447  26.460  1.00  0.00     0.037 A 
ATOM     32  H   UNL     1     -47.208  41.044  26.853  1.00  0.00     0.085 H 
BRANCH  25  33
ATOM     33  O   UNL     1     -43.003  43.222  24.749  1.00  0.00    -0.495 OA
BRANCH  33  34
ATOM     34  C   UNL     1     -41.757  43.282  25.433  1.00  0.00     0.078 C 
ATOM     35  H   UNL     1     -40.976  43.709  24.795  1.00  0.00     0.067 H 
ATOM     36  H   UNL     1     -41.466  42.295  25.808  1.00  0.00     0.067 H 
ATOM     37  H   UNL     1     -41.880  43.943  26.296  1.00  0.00     0.067 H 
ENDBRANCH  33  34
ENDBRANCH  25  33
ENDBRANCH  19  24
ENDBRANCH  15  18
ENDBRANCH   1  15
BRANCH   6  38
ATOM     38  C   UNL     1     -46.349  31.727  23.978  1.00  0.00     0.036 C 
ATOM     39  H   UNL     1     -45.976  30.838  24.498  1.00  0.00     0.049 H 
ATOM     40  H   UNL     1     -45.553  32.096  23.319  1.00  0.00     0.049 H 
BRANCH  38  41
ATOM     41  N   UNL     1     -47.554  31.425  23.207  1.00  0.00    -0.311 NA
ATOM     42  H   UNL     1     -47.250  31.190  22.261  1.00  0.00     0.123 HD
BRANCH  41  43
ATOM     43  C   UNL     1     -48.287  30.275  23.748  1.00  0.00    -0.002 C 
ATOM     44  H   UNL     1     -49.369  30.428  23.661  1.00  0.00     0.043 H 
ATOM     45  H   UNL     1     -48.071  30.223  24.822  1.00  0.00     0.043 H 
BRANCH  43  46
ATOM     46  C   UNL     1     -47.876  28.962  23.076  1.00  0.00    -0.029 C 
ATOM     47  C   UNL     1     -47.034  27.966  23.918  1.00  0.00    -0.049 C 
ATOM     48  C   UNL     1     -48.981  27.872  23.043  1.00  0.00    -0.049 C 
ATOM     49  H   UNL     1     -47.457  29.141  22.078  1.00  0.00     0.032 H 
ATOM     50  C   UNL     1     -48.347  27.262  24.308  1.00  0.00    -0.053 C 
ATOM     51  H   UNL     1     -46.368  27.340  23.313  1.00  0.00     0.027 H 
ATOM     52  H   UNL     1     -46.461  28.384  24.749  1.00  0.00     0.027 H 
ATOM     53  H   UNL     1     -48.919  27.215  22.167  1.00  0.00     0.027 H 
ATOM     54  H   UNL     1     -50.012  28.216  23.151  1.00  0.00     0.027 H 
ATOM     55  H   UNL     1     -48.309  26.170  24.342  1.00  0.00     0.027 H 
ATOM     56  H   UNL     1     -48.785  27.631  25.243  1.00  0.00     0.027 H 
ENDBRANCH  43  46
ENDBRANCH  41  43
ENDBRANCH  38  41
ENDBRANCH   6  38
TORSDOF 9
ENDMDL
MODEL 7
REMARK VINA RESULT:      -8.5      2.031      4.228
REMARK SMILES COc1cncc(-c2cn(Cc3ccc4cc(CNCC5CCC5)[nH]c4c3)nn2)c1
REMARK SMILES IDX 12 1 13 2 14 3 15 4 16 5 17 6 25 7 26 8 27 9 11 15 10 18
REMARK SMILES IDX 8 19 9 20 29 21 28 23 7 24 3 25 4 26 30 27 5 28 6 31 2 33
REMARK SMILES IDX 1 34 18 38 19 41 20 43 21 46 22 47 24 48 23 50
REMARK H PARENT 13 10 14 11 16 12 25 13 27 14 11 16 11 17 9 22 4 29 30 30 6 32
REMARK H PARENT 1 35 1 36 1 37 18 39 18 40 19 42 20 44 20 45 21 49 22 51 22 52
REMARK H PARENT 24 53 24 54 23 55 23 56
REMARK Flexibility Score: inf
ROOT
ATOM      1  C   UNL     1     -45.814  37.071  28.932  1.00  0.00    -0.024 A 
ATOM      2  C   UNL     1     -46.997  37.553  28.352  1.00  0.00    -0.056 A 
ATOM      3  C   UNL     1     -47.620  36.868  27.302  1.00  0.00    -0.052 A 
ATOM      4  C   UNL     1     -47.051  35.675  26.821  1.00  0.00    -0.000 A 
ATOM      5  C   UNL     1     -47.407  34.751  25.801  1.00  0.00    -0.032 A 
ATOM      6  C   UNL     1     -46.461  33.747  25.785  1.00  0.00     0.030 A 
ATOM      7  N   UNL     1     -45.542  34.041  26.765  1.00  0.00    -0.357 N 
ATOM      8  C   UNL     1     -45.878  35.208  27.410  1.00  0.00     0.046 A 
ATOM      9  C   UNL     1     -45.238  35.876  28.463  1.00  0.00    -0.033 A 
ATOM     10  H   UNL     1     -47.448  38.477  28.713  1.00  0.00     0.063 H 
ATOM     11  H   UNL     1     -48.535  37.258  26.863  1.00  0.00     0.063 H 
ATOM     12  H   UNL     1     -48.269  34.817  25.149  1.00  0.00     0.065 H 
ATOM     13  H   UNL     1     -44.754  33.447  26.987  1.00  0.00     0.166 HD
ATOM     14  H   UNL     1     -44.326  35.476  28.896  1.00  0.00     0.065 H 
ENDROOT
BRANCH   1  15
ATOM     15  C   UNL     1     -45.157  37.832  30.059  1.00  0.00     0.068 C 
ATOM     16  H   UNL     1     -44.488  37.191  30.646  1.00  0.00     0.057 H 
ATOM     17  H   UNL     1     -45.922  38.225  30.739  1.00  0.00     0.057 H 
BRANCH  15  18
ATOM     18  N   UNL     1     -44.351  38.939  29.573  1.00  0.00    -0.247 N 
ATOM     19  C   UNL     1     -43.443  40.538  28.435  1.00  0.00     0.114 A 
ATOM     20  C   UNL     1     -44.476  39.627  28.399  1.00  0.00     0.054 A 
ATOM     21  N   UNL     1     -42.728  40.353  29.593  1.00  0.00    -0.130 NA
ATOM     22  H   UNL     1     -45.262  39.415  27.689  1.00  0.00     0.086 H 
ATOM     23  N   UNL     1     -43.291  39.369  30.280  1.00  0.00    -0.066 NA
BRANCH  19  24
ATOM     24  C   UNL     1     -43.114  41.537  27.439  1.00  0.00     0.026 A 
ATOM     25  C   UNL     1     -43.691  43.352  25.942  1.00  0.00     0.137 A 
ATOM     26  C   UNL     1     -42.355  43.380  25.559  1.00  0.00     0.069 A 
ATOM     27  C   UNL     1     -44.069  42.410  26.899  1.00  0.00    -0.007 A 
ATOM     28  N   UNL     1     -41.399  42.561  26.055  1.00  0.00    -0.260 NA
ATOM     29  H   UNL     1     -42.007  44.093  24.817  1.00  0.00     0.088 H 
ATOM     30  H   UNL     1     -45.097  42.349  27.235  1.00  0.00     0.067 H 
ATOM     31  C   UNL     1     -41.804  41.662  26.985  1.00  0.00     0.037 A 
ATOM     32  H   UNL     1     -41.010  41.022  27.364  1.00  0.00     0.085 H 
BRANCH  25  33
ATOM     33  O   UNL     1     -44.506  44.263  25.331  1.00  0.00    -0.495 OA
BRANCH  33  34
ATOM     34  C   UNL     1     -45.733  43.777  24.802  1.00  0.00     0.078 C 
ATOM     35  H   UNL     1     -46.170  43.014  25.454  1.00  0.00     0.067 H 
ATOM     36  H   UNL     1     -45.600  43.397  23.784  1.00  0.00     0.067 H 
ATOM     37  H   UNL     1     -46.433  44.616  24.756  1.00  0.00     0.067 H 
ENDBRANCH  33  34
ENDBRANCH  25  33
ENDBRANCH  19  24
ENDBRANCH  15  18
ENDBRANCH   1  15
BRANCH   6  38
ATOM     38  C   UNL     1     -46.321  32.536  24.929  1.00  0.00     0.036 C 
ATOM     39  H   UNL     1     -45.293  32.170  25.020  1.00  0.00     0.049 H 
ATOM     40  H   UNL     1     -46.497  32.804  23.880  1.00  0.00     0.049 H 
BRANCH  38  41
ATOM     41  N   UNL     1     -47.285  31.528  25.369  1.00  0.00    -0.311 NA
ATOM     42  H   UNL     1     -48.106  32.030  25.711  1.00  0.00     0.123 HD
BRANCH  41  43
ATOM     43  C   UNL     1     -47.712  30.651  24.272  1.00  0.00    -0.002 C 
ATOM     44  H   UNL     1     -46.909  29.961  23.991  1.00  0.00     0.043 H 
ATOM     45  H   UNL     1     -47.892  31.286  23.396  1.00  0.00     0.043 H 
BRANCH  43  46
ATOM     46  C   UNL     1     -48.987  29.877  24.617  1.00  0.00    -0.029 C 
ATOM     47  C   UNL     1     -49.605  28.992  23.501  1.00  0.00    -0.049 C 
ATOM     48  C   UNL     1     -48.758  28.565  25.415  1.00  0.00    -0.049 C 
ATOM     49  H   UNL     1     -49.724  30.523  25.108  1.00  0.00     0.032 H 
ATOM     50  C   UNL     1     -48.819  27.800  24.079  1.00  0.00    -0.053 C 
ATOM     51  H   UNL     1     -50.692  28.880  23.586  1.00  0.00     0.027 H 
ATOM     52  H   UNL     1     -49.361  29.258  22.469  1.00  0.00     0.027 H 
ATOM     53  H   UNL     1     -49.583  28.319  26.095  1.00  0.00     0.027 H 
ATOM     54  H   UNL     1     -47.816  28.483  25.963  1.00  0.00     0.027 H 
ATOM     55  H   UNL     1     -49.353  26.846  24.102  1.00  0.00     0.027 H 
ATOM     56  H   UNL     1     -47.840  27.648  23.611  1.00  0.00     0.027 H 
ENDBRANCH  43  46
ENDBRANCH  41  43
ENDBRANCH  38  41
ENDBRANCH   6  38
TORSDOF 9
ENDMDL
