MODEL 1
REMARK VINA RESULT:      -9.1      0.000      0.000
REMARK SMILES CNc1ccc2ccc(OC[C@H]3O[C@@H](n4ccc5c(N)nc(C(=O)OC)nc54)[C@@H](F)[C@@H]3O)cc2n1
REMARK SMILES IDX 12 1 13 2 14 3 29 4 30 5 31 6 11 11 10 14 9 15 3 16 4 17
REMARK SMILES IDX 35 18 5 19 34 21 6 22 33 24 7 25 8 27 2 30 1 32 32 36 15 38
REMARK SMILES IDX 16 39 28 40 17 41 18 43 27 44 19 46 22 47 21 48 20 49 23 52
REMARK SMILES IDX 24 53 25 54 26 55
REMARK H PARENT 12 7 14 8 29 9 31 10 11 12 11 13 4 20 5 23 33 26 7 28 8 29
REMARK H PARENT 2 31 1 33 1 34 1 35 32 37 16 42 17 45 20 50 20 51 26 56 26 57
REMARK H PARENT 26 58
REMARK Flexibility Score: inf
ROOT
ATOM      1  C   UNL     1     -47.986  33.626  26.757  1.00  0.00     0.123 C 
ATOM      2  O   UNL     1     -48.957  32.560  26.702  1.00  0.00    -0.345 OA
ATOM      3  C   UNL     1     -48.324  31.422  26.063  1.00  0.00     0.169 C 
ATOM      4  C   UNL     1     -46.921  31.857  25.647  1.00  0.00     0.173 C 
ATOM      5  F   UNL     1     -46.535  31.397  24.434  1.00  0.00    -0.239 F 
ATOM      6  C   UNL     1     -47.045  33.365  25.593  1.00  0.00     0.119 C 
ATOM      7  H   UNL     1     -47.462  33.545  27.718  1.00  0.00     0.067 H 
ATOM      8  H   UNL     1     -48.291  30.610  26.798  1.00  0.00     0.088 H 
ATOM      9  H   UNL     1     -46.170  31.548  26.383  1.00  0.00     0.074 H 
ATOM     10  H   UNL     1     -47.484  33.676  24.637  1.00  0.00     0.066 H 
ENDROOT
BRANCH   1  11
ATOM     11  C   UNL     1     -48.667  34.992  26.665  1.00  0.00     0.117 C 
ATOM     12  H   UNL     1     -49.709  34.861  26.349  1.00  0.00     0.073 H 
ATOM     13  H   UNL     1     -48.125  35.625  25.952  1.00  0.00     0.073 H 
BRANCH  11  14
ATOM     14  O   UNL     1     -48.637  35.599  27.961  1.00  0.00    -0.491 OA
BRANCH  14  15
ATOM     15  C   UNL     1     -47.578  36.416  28.246  1.00  0.00     0.121 A 
ATOM     16  C   UNL     1     -45.118  40.156  26.628  1.00  0.00     0.126 A 
ATOM     17  C   UNL     1     -44.265  40.139  27.722  1.00  0.00    -0.019 A 
ATOM     18  N   UNL     1     -46.128  39.278  26.487  1.00  0.00    -0.231 NA
ATOM     19  C   UNL     1     -44.446  39.168  28.701  1.00  0.00    -0.049 A 
ATOM     20  H   UNL     1     -43.482  40.880  27.827  1.00  0.00     0.066 H 
ATOM     21  C   UNL     1     -46.309  38.336  27.432  1.00  0.00     0.076 A 
ATOM     22  C   UNL     1     -45.482  38.240  28.568  1.00  0.00     0.001 A 
ATOM     23  H   UNL     1     -43.785  39.149  29.562  1.00  0.00     0.063 H 
ATOM     24  C   UNL     1     -47.342  37.418  27.298  1.00  0.00     0.007 A 
ATOM     25  C   UNL     1     -45.710  37.240  29.528  1.00  0.00    -0.049 A 
ATOM     26  H   UNL     1     -47.987  37.485  26.423  1.00  0.00     0.069 H 
ATOM     27  C   UNL     1     -46.757  36.330  29.366  1.00  0.00    -0.019 A 
ATOM     28  H   UNL     1     -45.075  37.165  30.407  1.00  0.00     0.063 H 
ATOM     29  H   UNL     1     -46.902  35.575  30.130  1.00  0.00     0.066 H 
BRANCH  16  30
ATOM     30  N   UNL     1     -45.006  41.110  25.613  1.00  0.00    -0.373 N 
ATOM     31  H   UNL     1     -44.855  40.548  24.775  1.00  0.00     0.161 HD
BRANCH  30  32
ATOM     32  C   UNL     1     -43.923  42.057  25.813  1.00  0.00     0.005 C 
ATOM     33  H   UNL     1     -43.840  42.363  26.861  1.00  0.00     0.045 H 
ATOM     34  H   UNL     1     -44.127  42.959  25.228  1.00  0.00     0.045 H 
ATOM     35  H   UNL     1     -42.964  41.651  25.477  1.00  0.00     0.045 H 
ENDBRANCH  30  32
ENDBRANCH  16  30
ENDBRANCH  14  15
ENDBRANCH  11  14
ENDBRANCH   1  11
BRANCH   6  36
ATOM     36  O   UNL     1     -45.798  34.026  25.748  1.00  0.00    -0.387 OA
ATOM     37  H   UNL     1     -45.752  34.719  25.062  1.00  0.00     0.211 HD
ENDBRANCH   6  36
BRANCH   3  38
ATOM     38  N   UNL     1     -49.157  30.975  24.954  1.00  0.00    -0.303 N 
ATOM     39  C   UNL     1     -49.821  31.759  24.040  1.00  0.00     0.009 A 
ATOM     40  C   UNL     1     -49.380  29.650  24.665  1.00  0.00     0.148 A 
ATOM     41  C   UNL     1     -50.466  30.923  23.152  1.00  0.00    -0.031 A 
ATOM     42  H   UNL     1     -49.791  32.839  24.099  1.00  0.00     0.082 H 
ATOM     43  C   UNL     1     -50.192  29.583  23.542  1.00  0.00     0.061 A 
ATOM     44  N   UNL     1     -48.883  28.613  25.355  1.00  0.00    -0.204 NA
ATOM     45  H   UNL     1     -51.070  31.242  22.313  1.00  0.00     0.065 H 
ATOM     46  C   UNL     1     -50.529  28.303  23.085  1.00  0.00     0.137 A 
ATOM     47  C   UNL     1     -49.263  27.428  24.824  1.00  0.00     0.243 A 
ATOM     48  N   UNL     1     -50.057  27.229  23.742  1.00  0.00    -0.204 NA
BRANCH  46  49
ATOM     49  N   UNL     1     -51.341  28.070  21.986  1.00  0.00    -0.383 N 
ATOM     50  H   UNL     1     -50.995  27.296  21.430  1.00  0.00     0.158 HD
ATOM     51  H   UNL     1     -52.334  28.086  22.169  1.00  0.00     0.158 HD
ENDBRANCH  46  49
BRANCH  47  52
ATOM     52  C   UNL     1     -48.743  26.207  25.540  1.00  0.00     0.376 C 
ATOM     53  O   UNL     1     -49.437  25.426  26.178  1.00  0.00    -0.242 OA
BRANCH  52  54
ATOM     54  O   UNL     1     -47.394  26.095  25.378  1.00  0.00    -0.463 OA
BRANCH  54  55
ATOM     55  C   UNL     1     -46.659  26.064  26.600  1.00  0.00     0.081 C 
ATOM     56  H   UNL     1     -46.194  25.080  26.692  1.00  0.00     0.067 H 
ATOM     57  H   UNL     1     -47.327  26.214  27.453  1.00  0.00     0.067 H 
ATOM     58  H   UNL     1     -45.867  26.821  26.590  1.00  0.00     0.067 H 
ENDBRANCH  54  55
ENDBRANCH  52  54
ENDBRANCH  47  52
ENDBRANCH   3  38
TORSDOF 11
ENDMDL
MODEL 2
REMARK VINA RESULT:      -9.0      2.831     10.781
REMARK SMILES CNc1ccc2ccc(OC[C@H]3O[C@@H](n4ccc5c(N)nc(C(=O)OC)nc54)[C@@H](F)[C@@H]3O)cc2n1
REMARK SMILES IDX 12 1 13 2 14 3 29 4 30 5 31 6 11 11 10 14 9 15 3 16 4 17
REMARK SMILES IDX 35 18 5 19 34 21 6 22 33 24 7 25 8 27 2 30 1 32 32 36 15 38
REMARK SMILES IDX 16 39 28 40 17 41 18 43 27 44 19 46 22 47 21 48 20 49 23 52
REMARK SMILES IDX 24 53 25 54 26 55
REMARK H PARENT 12 7 14 8 29 9 31 10 11 12 11 13 4 20 5 23 33 26 7 28 8 29
REMARK H PARENT 2 31 1 33 1 34 1 35 32 37 16 42 17 45 20 50 20 51 26 56 26 57
REMARK H PARENT 26 58
REMARK Flexibility Score: inf
ROOT
ATOM      1  C   UNL     1     -47.146  33.327  25.728  1.00  0.00     0.123 C 
ATOM      2  O   UNL     1     -47.328  34.733  25.457  1.00  0.00    -0.345 OA
ATOM      3  C   UNL     1     -46.595  35.473  26.464  1.00  0.00     0.169 C 
ATOM      4  C   UNL     1     -46.001  34.455  27.434  1.00  0.00     0.173 C 
ATOM      5  F   UNL     1     -46.060  34.828  28.735  1.00  0.00    -0.239 F 
ATOM      6  C   UNL     1     -46.883  33.243  27.222  1.00  0.00     0.119 C 
ATOM      7  H   UNL     1     -46.275  32.991  25.151  1.00  0.00     0.067 H 
ATOM      8  H   UNL     1     -45.811  36.040  25.949  1.00  0.00     0.088 H 
ATOM      9  H   UNL     1     -44.956  34.231  27.192  1.00  0.00     0.074 H 
ATOM     10  H   UNL     1     -47.808  33.339  27.804  1.00  0.00     0.066 H 
ENDROOT
BRANCH   1  11
ATOM     11  C   UNL     1     -48.375  32.522  25.303  1.00  0.00     0.117 C 
ATOM     12  H   UNL     1     -49.256  33.174  25.302  1.00  0.00     0.073 H 
ATOM     13  H   UNL     1     -48.518  31.681  25.991  1.00  0.00     0.073 H 
BRANCH  11  14
ATOM     14  O   UNL     1     -48.153  32.025  23.979  1.00  0.00    -0.491 OA
BRANCH  14  15
ATOM     15  C   UNL     1     -47.521  30.818  23.861  1.00  0.00     0.121 A 
ATOM     16  C   UNL     1     -47.562  26.334  25.457  1.00  0.00     0.126 A 
ATOM     17  C   UNL     1     -46.491  25.978  24.651  1.00  0.00    -0.019 A 
ATOM     18  N   UNL     1     -48.081  27.575  25.461  1.00  0.00    -0.231 NA
ATOM     19  C   UNL     1     -45.918  26.942  23.828  1.00  0.00    -0.049 A 
ATOM     20  H   UNL     1     -46.116  24.961  24.642  1.00  0.00     0.066 H 
ATOM     21  C   UNL     1     -47.531  28.513  24.666  1.00  0.00     0.076 A 
ATOM     22  C   UNL     1     -46.435  28.241  23.826  1.00  0.00     0.001 A 
ATOM     23  H   UNL     1     -45.081  26.671  23.191  1.00  0.00     0.063 H 
ATOM     24  C   UNL     1     -48.051  29.801  24.664  1.00  0.00     0.007 A 
ATOM     25  C   UNL     1     -45.895  29.252  23.014  1.00  0.00    -0.049 A 
ATOM     26  H   UNL     1     -48.898  30.020  25.310  1.00  0.00     0.069 H 
ATOM     27  C   UNL     1     -46.438  30.538  23.033  1.00  0.00    -0.019 A 
ATOM     28  H   UNL     1     -45.051  29.043  22.362  1.00  0.00     0.063 H 
ATOM     29  H   UNL     1     -45.995  31.290  22.390  1.00  0.00     0.066 H 
BRANCH  16  30
ATOM     30  N   UNL     1     -48.197  25.415  26.297  1.00  0.00    -0.373 N 
ATOM     31  H   UNL     1     -48.723  26.007  26.941  1.00  0.00     0.161 HD
BRANCH  30  32
ATOM     32  C   UNL     1     -47.283  24.542  27.013  1.00  0.00     0.005 C 
ATOM     33  H   UNL     1     -47.808  23.712  27.494  1.00  0.00     0.045 H 
ATOM     34  H   UNL     1     -46.790  25.116  27.804  1.00  0.00     0.045 H 
ATOM     35  H   UNL     1     -46.503  24.146  26.354  1.00  0.00     0.045 H 
ENDBRANCH  30  32
ENDBRANCH  16  30
ENDBRANCH  14  15
ENDBRANCH  11  14
ENDBRANCH   1  11
BRANCH   6  36
ATOM     36  O   UNL     1     -46.248  32.027  27.591  1.00  0.00    -0.387 OA
ATOM     37  H   UNL     1     -46.190  32.017  28.566  1.00  0.00     0.211 HD
ENDBRANCH   6  36
BRANCH   3  38
ATOM     38  N   UNL     1     -47.490  36.436  27.093  1.00  0.00    -0.303 N 
ATOM     39  C   UNL     1     -48.786  36.226  27.504  1.00  0.00     0.009 A 
ATOM     40  C   UNL     1     -47.125  37.730  27.378  1.00  0.00     0.148 A 
ATOM     41  C   UNL     1     -49.247  37.399  28.066  1.00  0.00    -0.031 A 
ATOM     42  H   UNL     1     -49.275  35.273  27.356  1.00  0.00     0.082 H 
ATOM     43  C   UNL     1     -48.200  38.358  27.989  1.00  0.00     0.061 A 
ATOM     44  N   UNL     1     -45.928  38.274  27.111  1.00  0.00    -0.204 NA
ATOM     45  H   UNL     1     -50.233  37.549  28.487  1.00  0.00     0.065 H 
ATOM     46  C   UNL     1     -48.018  39.695  28.364  1.00  0.00     0.137 A 
ATOM     47  C   UNL     1     -45.859  39.561  27.520  1.00  0.00     0.243 A 
ATOM     48  N   UNL     1     -46.836  40.288  28.117  1.00  0.00    -0.204 NA
BRANCH  46  49
ATOM     49  N   UNL     1     -49.000  40.462  28.972  1.00  0.00    -0.383 N 
ATOM     50  H   UNL     1     -48.619  41.012  29.734  1.00  0.00     0.158 HD
ATOM     51  H   UNL     1     -49.630  40.939  28.342  1.00  0.00     0.158 HD
ENDBRANCH  46  49
BRANCH  47  52
ATOM     52  C   UNL     1     -44.542  40.248  27.260  1.00  0.00     0.376 C 
ATOM     53  O   UNL     1     -44.133  40.572  26.153  1.00  0.00    -0.242 OA
BRANCH  52  54
ATOM     54  O   UNL     1     -43.872  40.457  28.428  1.00  0.00    -0.463 OA
BRANCH  54  55
ATOM     55  C   UNL     1     -42.868  41.468  28.354  1.00  0.00     0.081 C 
ATOM     56  H   UNL     1     -43.306  42.408  28.699  1.00  0.00     0.067 H 
ATOM     57  H   UNL     1     -42.533  41.600  27.321  1.00  0.00     0.067 H 
ATOM     58  H   UNL     1     -42.024  41.220  29.006  1.00  0.00     0.067 H 
ENDBRANCH  54  55
ENDBRANCH  52  54
ENDBRANCH  47  52
ENDBRANCH   3  38
TORSDOF 11
ENDMDL
MODEL 3
REMARK VINA RESULT:      -8.6      3.676     11.111
REMARK SMILES CNc1ccc2ccc(OC[C@H]3O[C@@H](n4ccc5c(N)nc(C(=O)OC)nc54)[C@@H](F)[C@@H]3O)cc2n1
REMARK SMILES IDX 12 1 13 2 14 3 29 4 30 5 31 6 11 11 10 14 9 15 3 16 4 17
REMARK SMILES IDX 35 18 5 19 34 21 6 22 33 24 7 25 8 27 2 30 1 32 32 36 15 38
REMARK SMILES IDX 16 39 28 40 17 41 18 43 27 44 19 46 22 47 21 48 20 49 23 52
REMARK SMILES IDX 24 53 25 54 26 55
REMARK H PARENT 12 7 14 8 29 9 31 10 11 12 11 13 4 20 5 23 33 26 7 28 8 29
REMARK H PARENT 2 31 1 33 1 34 1 35 32 37 16 42 17 45 20 50 20 51 26 56 26 57
REMARK H PARENT 26 58
REMARK Flexibility Score: inf
ROOT
ATOM      1  C   UNL     1     -45.801  35.649  28.358  1.00  0.00     0.123 C 
ATOM      2  O   UNL     1     -45.613  36.698  27.385  1.00  0.00    -0.345 OA
ATOM      3  C   UNL     1     -45.349  37.926  28.110  1.00  0.00     0.169 C 
ATOM      4  C   UNL     1     -45.457  37.607  29.599  1.00  0.00     0.173 C 
ATOM      5  F   UNL     1     -46.075  38.567  30.328  1.00  0.00    -0.239 F 
ATOM      6  C   UNL     1     -46.304  36.352  29.607  1.00  0.00     0.119 C 
ATOM      7  H   UNL     1     -44.824  35.181  28.530  1.00  0.00     0.067 H 
ATOM      8  H   UNL     1     -44.337  38.253  27.843  1.00  0.00     0.088 H 
ATOM      9  H   UNL     1     -44.473  37.423  30.044  1.00  0.00     0.074 H 
ATOM     10  H   UNL     1     -47.367  36.610  29.529  1.00  0.00     0.066 H 
ENDROOT
BRANCH   1  11
ATOM     11  C   UNL     1     -46.783  34.595  27.843  1.00  0.00     0.117 C 
ATOM     12  H   UNL     1     -47.797  34.847  28.173  1.00  0.00     0.073 H 
ATOM     13  H   UNL     1     -46.490  33.607  28.219  1.00  0.00     0.073 H 
BRANCH  11  14
ATOM     14  O   UNL     1     -46.736  34.595  26.413  1.00  0.00    -0.491 OA
BRANCH  14  15
ATOM     15  C   UNL     1     -47.318  33.539  25.766  1.00  0.00     0.121 A 
ATOM     16  C   UNL     1     -46.482  30.113  22.570  1.00  0.00     0.126 A 
ATOM     17  C   UNL     1     -47.770  29.611  22.688  1.00  0.00    -0.019 A 
ATOM     18  N   UNL     1     -46.051  31.168  23.284  1.00  0.00    -0.231 NA
ATOM     19  C   UNL     1     -48.656  30.232  23.561  1.00  0.00    -0.049 A 
ATOM     20  H   UNL     1     -48.079  28.737  22.126  1.00  0.00     0.066 H 
ATOM     21  C   UNL     1     -46.904  31.774  24.132  1.00  0.00     0.076 A 
ATOM     22  C   UNL     1     -48.232  31.337  24.304  1.00  0.00     0.001 A 
ATOM     23  H   UNL     1     -49.666  29.844  23.662  1.00  0.00     0.063 H 
ATOM     24  C   UNL     1     -46.476  32.869  24.870  1.00  0.00     0.007 A 
ATOM     25  C   UNL     1     -49.085  32.001  25.201  1.00  0.00    -0.049 A 
ATOM     26  H   UNL     1     -45.452  33.213  24.744  1.00  0.00     0.069 H 
ATOM     27  C   UNL     1     -48.628  33.100  25.930  1.00  0.00    -0.019 A 
ATOM     28  H   UNL     1     -50.110  31.664  25.338  1.00  0.00     0.063 H 
ATOM     29  H   UNL     1     -49.316  33.583  26.614  1.00  0.00     0.066 H 
BRANCH  16  30
ATOM     30  N   UNL     1     -45.533  29.532  21.725  1.00  0.00    -0.373 N 
ATOM     31  H   UNL     1     -46.096  28.957  21.096  1.00  0.00     0.161 HD
BRANCH  30  32
ATOM     32  C   UNL     1     -44.539  28.732  22.418  1.00  0.00     0.005 C 
ATOM     33  H   UNL     1     -44.359  27.779  21.910  1.00  0.00     0.045 H 
ATOM     34  H   UNL     1     -44.907  28.499  23.422  1.00  0.00     0.045 H 
ATOM     35  H   UNL     1     -43.591  29.270  22.526  1.00  0.00     0.045 H 
ENDBRANCH  30  32
ENDBRANCH  16  30
ENDBRANCH  14  15
ENDBRANCH  11  14
ENDBRANCH   1  11
BRANCH   6  36
ATOM     36  O   UNL     1     -46.119  35.570  30.778  1.00  0.00    -0.387 OA
ATOM     37  H   UNL     1     -46.068  34.637  30.496  1.00  0.00     0.211 HD
ENDBRANCH   6  36
BRANCH   3  38
ATOM     38  N   UNL     1     -46.275  38.955  27.657  1.00  0.00    -0.303 N 
ATOM     39  C   UNL     1     -47.647  38.875  27.598  1.00  0.00     0.009 A 
ATOM     40  C   UNL     1     -45.872  40.196  27.225  1.00  0.00     0.148 A 
ATOM     41  C   UNL     1     -48.122  40.084  27.132  1.00  0.00    -0.031 A 
ATOM     42  H   UNL     1     -48.170  37.972  27.879  1.00  0.00     0.082 H 
ATOM     43  C   UNL     1     -47.002  40.927  26.892  1.00  0.00     0.061 A 
ATOM     44  N   UNL     1     -44.599  40.614  27.152  1.00  0.00    -0.204 NA
ATOM     45  H   UNL     1     -49.164  40.334  26.981  1.00  0.00     0.065 H 
ATOM     46  C   UNL     1     -46.794  42.233  26.431  1.00  0.00     0.137 A 
ATOM     47  C   UNL     1     -44.514  41.888  26.704  1.00  0.00     0.243 A 
ATOM     48  N   UNL     1     -45.537  42.700  26.339  1.00  0.00    -0.204 NA
BRANCH  46  49
ATOM     49  N   UNL     1     -47.820  43.083  26.048  1.00  0.00    -0.383 N 
ATOM     50  H   UNL     1     -47.913  43.116  25.039  1.00  0.00     0.158 HD
ATOM     51  H   UNL     1     -48.675  42.997  26.578  1.00  0.00     0.158 HD
ENDBRANCH  46  49
BRANCH  47  52
ATOM     52  C   UNL     1     -43.114  42.438  26.595  1.00  0.00     0.376 C 
ATOM     53  O   UNL     1     -42.327  42.527  27.529  1.00  0.00    -0.242 OA
BRANCH  52  54
ATOM     54  O   UNL     1     -42.848  42.820  25.314  1.00  0.00    -0.463 OA
BRANCH  54  55
ATOM     55  C   UNL     1     -42.622  44.220  25.158  1.00  0.00     0.081 C 
ATOM     56  H   UNL     1     -41.776  44.354  24.479  1.00  0.00     0.067 H 
ATOM     57  H   UNL     1     -42.370  44.678  26.119  1.00  0.00     0.067 H 
ATOM     58  H   UNL     1     -43.499  44.704  24.716  1.00  0.00     0.067 H 
ENDBRANCH  54  55
ENDBRANCH  52  54
ENDBRANCH  47  52
ENDBRANCH   3  38
TORSDOF 11
ENDMDL
MODEL 4
REMARK VINA RESULT:      -8.6      3.086     11.230
REMARK SMILES CNc1ccc2ccc(OC[C@H]3O[C@@H](n4ccc5c(N)nc(C(=O)OC)nc54)[C@@H](F)[C@@H]3O)cc2n1
REMARK SMILES IDX 12 1 13 2 14 3 29 4 30 5 31 6 11 11 10 14 9 15 3 16 4 17
REMARK SMILES IDX 35 18 5 19 34 21 6 22 33 24 7 25 8 27 2 30 1 32 32 36 15 38
REMARK SMILES IDX 16 39 28 40 17 41 18 43 27 44 19 46 22 47 21 48 20 49 23 52
REMARK SMILES IDX 24 53 25 54 26 55
REMARK H PARENT 12 7 14 8 29 9 31 10 11 12 11 13 4 20 5 23 33 26 7 28 8 29
REMARK H PARENT 2 31 1 33 1 34 1 35 32 37 16 42 17 45 20 50 20 51 26 56 26 57
REMARK H PARENT 26 58
REMARK Flexibility Score: inf
ROOT
ATOM      1  C   UNL     1     -46.797  35.241  27.034  1.00  0.00     0.123 C 
ATOM      2  O   UNL     1     -46.831  36.517  26.362  1.00  0.00    -0.345 OA
ATOM      3  C   UNL     1     -46.253  37.501  27.256  1.00  0.00     0.169 C 
ATOM      4  C   UNL     1     -45.921  36.786  28.564  1.00  0.00     0.173 C 
ATOM      5  F   UNL     1     -46.199  37.508  29.676  1.00  0.00    -0.239 F 
ATOM      6  C   UNL     1     -46.827  35.574  28.517  1.00  0.00     0.119 C 
ATOM      7  H   UNL     1     -45.857  34.747  26.756  1.00  0.00     0.067 H 
ATOM      8  H   UNL     1     -45.350  37.892  26.773  1.00  0.00     0.088 H 
ATOM      9  H   UNL     1     -44.866  36.491  28.605  1.00  0.00     0.074 H 
ATOM     10  H   UNL     1     -47.836  35.839  28.854  1.00  0.00     0.066 H 
ENDROOT
BRANCH   1  11
ATOM     11  C   UNL     1     -47.975  34.364  26.607  1.00  0.00     0.117 C 
ATOM     12  H   UNL     1     -48.135  34.467  25.527  1.00  0.00     0.073 H 
ATOM     13  H   UNL     1     -48.873  34.662  27.160  1.00  0.00     0.073 H 
BRANCH  11  14
ATOM     14  O   UNL     1     -47.657  33.002  26.910  1.00  0.00    -0.491 OA
BRANCH  14  15
ATOM     15  C   UNL     1     -47.560  32.132  25.860  1.00  0.00     0.121 A 
ATOM     16  C   UNL     1     -49.085  27.914  24.266  1.00  0.00     0.126 A 
ATOM     17  C   UNL     1     -48.361  28.034  23.089  1.00  0.00    -0.019 A 
ATOM     18  N   UNL     1     -49.083  28.868  25.215  1.00  0.00    -0.231 NA
ATOM     19  C   UNL     1     -47.587  29.172  22.888  1.00  0.00    -0.049 A 
ATOM     20  H   UNL     1     -48.409  27.266  22.326  1.00  0.00     0.066 H 
ATOM     21  C   UNL     1     -48.336  29.973  25.026  1.00  0.00     0.076 A 
ATOM     22  C   UNL     1     -47.562  30.170  23.867  1.00  0.00     0.001 A 
ATOM     23  H   UNL     1     -47.019  29.276  21.969  1.00  0.00     0.063 H 
ATOM     24  C   UNL     1     -48.318  30.963  26.000  1.00  0.00     0.007 A 
ATOM     25  C   UNL     1     -46.799  31.339  23.714  1.00  0.00    -0.049 A 
ATOM     26  H   UNL     1     -48.913  30.819  26.898  1.00  0.00     0.069 H 
ATOM     27  C   UNL     1     -46.799  32.318  24.710  1.00  0.00    -0.019 A 
ATOM     28  H   UNL     1     -46.202  31.495  22.819  1.00  0.00     0.063 H 
ATOM     29  H   UNL     1     -46.199  33.207  24.554  1.00  0.00     0.066 H 
BRANCH  16  30
ATOM     30  N   UNL     1     -49.896  26.807  24.529  1.00  0.00    -0.373 N 
ATOM     31  H   UNL     1     -50.591  26.839  23.783  1.00  0.00     0.161 HD
BRANCH  30  32
ATOM     32  C   UNL     1     -50.528  26.838  25.837  1.00  0.00     0.005 C 
ATOM     33  H   UNL     1     -50.216  25.993  26.458  1.00  0.00     0.045 H 
ATOM     34  H   UNL     1     -51.612  26.764  25.710  1.00  0.00     0.045 H 
ATOM     35  H   UNL     1     -50.317  27.774  26.365  1.00  0.00     0.045 H 
ENDBRANCH  30  32
ENDBRANCH  16  30
ENDBRANCH  14  15
ENDBRANCH  11  14
ENDBRANCH   1  11
BRANCH   6  36
ATOM     36  O   UNL     1     -46.355  34.502  29.320  1.00  0.00    -0.387 OA
ATOM     37  H   UNL     1     -47.040  34.322  29.992  1.00  0.00     0.211 HD
ENDBRANCH   6  36
BRANCH   3  38
ATOM     38  N   UNL     1     -47.184  38.611  27.409  1.00  0.00    -0.303 N 
ATOM     39  C   UNL     1     -48.436  38.578  27.976  1.00  0.00     0.009 A 
ATOM     40  C   UNL     1     -46.904  39.892  26.995  1.00  0.00     0.148 A 
ATOM     41  C   UNL     1     -48.955  39.856  27.933  1.00  0.00    -0.031 A 
ATOM     42  H   UNL     1     -48.859  37.656  28.353  1.00  0.00     0.082 H 
ATOM     43  C   UNL     1     -47.990  40.695  27.311  1.00  0.00     0.061 A 
ATOM     44  N   UNL     1     -45.769  40.282  26.399  1.00  0.00    -0.204 NA
ATOM     45  H   UNL     1     -49.926  40.153  28.309  1.00  0.00     0.065 H 
ATOM     46  C   UNL     1     -47.891  42.050  26.970  1.00  0.00     0.137 A 
ATOM     47  C   UNL     1     -45.776  41.606  26.121  1.00  0.00     0.243 A 
ATOM     48  N   UNL     1     -46.773  42.492  26.369  1.00  0.00    -0.204 NA
BRANCH  46  49
ATOM     49  N   UNL     1     -48.895  42.975  27.208  1.00  0.00    -0.383 N 
ATOM     50  H   UNL     1     -48.948  43.217  28.191  1.00  0.00     0.158 HD
ATOM     51  H   UNL     1     -48.943  43.742  26.552  1.00  0.00     0.158 HD
ENDBRANCH  46  49
BRANCH  47  52
ATOM     52  C   UNL     1     -44.531  42.129  25.451  1.00  0.00     0.376 C 
ATOM     53  O   UNL     1     -44.512  42.709  24.373  1.00  0.00    -0.242 OA
BRANCH  52  54
ATOM     54  O   UNL     1     -43.431  41.866  26.211  1.00  0.00    -0.463 OA
BRANCH  54  55
ATOM     55  C   UNL     1     -42.696  43.026  26.597  1.00  0.00     0.081 C 
ATOM     56  H   UNL     1     -42.150  42.793  27.514  1.00  0.00     0.067 H 
ATOM     57  H   UNL     1     -43.374  43.860  26.800  1.00  0.00     0.067 H 
ATOM     58  H   UNL     1     -41.971  43.297  25.822  1.00  0.00     0.067 H 
ENDBRANCH  54  55
ENDBRANCH  52  54
ENDBRANCH  47  52
ENDBRANCH   3  38
TORSDOF 11
ENDMDL
MODEL 5
REMARK VINA RESULT:      -8.4      3.762     11.120
REMARK SMILES CNc1ccc2ccc(OC[C@H]3O[C@@H](n4ccc5c(N)nc(C(=O)OC)nc54)[C@@H](F)[C@@H]3O)cc2n1
REMARK SMILES IDX 12 1 13 2 14 3 29 4 30 5 31 6 11 11 10 14 9 15 3 16 4 17
REMARK SMILES IDX 35 18 5 19 34 21 6 22 33 24 7 25 8 27 2 30 1 32 32 36 15 38
REMARK SMILES IDX 16 39 28 40 17 41 18 43 27 44 19 46 22 47 21 48 20 49 23 52
REMARK SMILES IDX 24 53 25 54 26 55
REMARK H PARENT 12 7 14 8 29 9 31 10 11 12 11 13 4 20 5 23 33 26 7 28 8 29
REMARK H PARENT 2 31 1 33 1 34 1 35 32 37 16 42 17 45 20 50 20 51 26 56 26 57
REMARK H PARENT 26 58
REMARK Flexibility Score: inf
ROOT
ATOM      1  C   UNL     1     -45.766  36.402  28.452  1.00  0.00     0.123 C 
ATOM      2  O   UNL     1     -44.902  37.534  28.220  1.00  0.00    -0.345 OA
ATOM      3  C   UNL     1     -45.591  38.718  28.696  1.00  0.00     0.169 C 
ATOM      4  C   UNL     1     -46.974  38.277  29.172  1.00  0.00     0.173 C 
ATOM      5  F   UNL     1     -47.971  39.132  28.844  1.00  0.00    -0.239 F 
ATOM      6  C   UNL     1     -47.176  36.970  28.437  1.00  0.00     0.119 C 
ATOM      7  H   UNL     1     -45.513  35.991  29.438  1.00  0.00     0.067 H 
ATOM      8  H   UNL     1     -44.998  39.134  29.518  1.00  0.00     0.088 H 
ATOM      9  H   UNL     1     -46.996  38.129  30.258  1.00  0.00     0.074 H 
ATOM     10  H   UNL     1     -47.527  37.158  27.416  1.00  0.00     0.066 H 
ENDROOT
BRANCH   1  11
ATOM     11  C   UNL     1     -45.557  35.325  27.387  1.00  0.00     0.117 C 
ATOM     12  H   UNL     1     -45.626  34.334  27.850  1.00  0.00     0.073 H 
ATOM     13  H   UNL     1     -44.577  35.462  26.915  1.00  0.00     0.073 H 
BRANCH  11  14
ATOM     14  O   UNL     1     -46.585  35.459  26.401  1.00  0.00    -0.491 OA
BRANCH  14  15
ATOM     15  C   UNL     1     -47.208  34.315  25.984  1.00  0.00     0.121 A 
ATOM     16  C   UNL     1     -46.819  30.665  22.954  1.00  0.00     0.126 A 
ATOM     17  C   UNL     1     -48.007  30.100  23.395  1.00  0.00    -0.019 A 
ATOM     18  N   UNL     1     -46.328  31.806  23.470  1.00  0.00    -0.231 NA
ATOM     19  C   UNL     1     -48.727  30.744  24.395  1.00  0.00    -0.049 A 
ATOM     20  H   UNL     1     -48.360  29.160  22.986  1.00  0.00     0.066 H 
ATOM     21  C   UNL     1     -47.021  32.434  24.438  1.00  0.00     0.076 A 
ATOM     22  C   UNL     1     -48.240  31.936  24.936  1.00  0.00     0.001 A 
ATOM     23  H   UNL     1     -49.656  30.306  24.748  1.00  0.00     0.063 H 
ATOM     24  C   UNL     1     -46.531  33.617  24.976  1.00  0.00     0.007 A 
ATOM     25  C   UNL     1     -48.928  32.627  25.948  1.00  0.00    -0.049 A 
ATOM     26  H   UNL     1     -45.589  34.009  24.598  1.00  0.00     0.069 H 
ATOM     27  C   UNL     1     -48.411  33.814  26.470  1.00  0.00    -0.019 A 
ATOM     28  H   UNL     1     -49.868  32.242  26.336  1.00  0.00     0.063 H 
ATOM     29  H   UNL     1     -48.970  34.316  27.252  1.00  0.00     0.066 H 
BRANCH  16  30
ATOM     30  N   UNL     1     -46.034  30.067  21.964  1.00  0.00    -0.373 N 
ATOM     31  H   UNL     1     -46.715  29.565  21.392  1.00  0.00     0.161 HD
BRANCH  30  32
ATOM     32  C   UNL     1     -45.019  29.166  22.482  1.00  0.00     0.005 C 
ATOM     33  H   UNL     1     -45.429  28.482  23.231  1.00  0.00     0.045 H 
ATOM     34  H   UNL     1     -44.239  29.755  22.975  1.00  0.00     0.045 H 
ATOM     35  H   UNL     1     -44.546  28.588  21.682  1.00  0.00     0.045 H 
ENDBRANCH  30  32
ENDBRANCH  16  30
ENDBRANCH  14  15
ENDBRANCH  11  14
ENDBRANCH   1  11
BRANCH   6  36
ATOM     36  O   UNL     1     -48.109  36.114  29.080  1.00  0.00    -0.387 OA
ATOM     37  H   UNL     1     -48.350  36.536  29.927  1.00  0.00     0.211 HD
ENDBRANCH   6  36
BRANCH   3  38
ATOM     38  N   UNL     1     -45.622  39.711  27.630  1.00  0.00    -0.303 N 
ATOM     39  C   UNL     1     -46.663  39.987  26.776  1.00  0.00     0.009 A 
ATOM     40  C   UNL     1     -44.565  40.543  27.345  1.00  0.00     0.148 A 
ATOM     41  C   UNL     1     -46.268  41.014  25.944  1.00  0.00    -0.031 A 
ATOM     42  H   UNL     1     -47.590  39.430  26.821  1.00  0.00     0.082 H 
ATOM     43  C   UNL     1     -44.938  41.372  26.298  1.00  0.00     0.061 A 
ATOM     44  N   UNL     1     -43.387  40.545  27.985  1.00  0.00    -0.204 NA
ATOM     45  H   UNL     1     -46.873  41.460  25.164  1.00  0.00     0.065 H 
ATOM     46  C   UNL     1     -43.987  42.303  25.863  1.00  0.00     0.137 A 
ATOM     47  C   UNL     1     -42.549  41.485  27.492  1.00  0.00     0.243 A 
ATOM     48  N   UNL     1     -42.789  42.345  26.471  1.00  0.00    -0.204 NA
BRANCH  46  49
ATOM     49  N   UNL     1     -44.204  43.191  24.820  1.00  0.00    -0.383 N 
ATOM     50  H   UNL     1     -44.146  44.152  25.137  1.00  0.00     0.158 HD
ATOM     51  H   UNL     1     -43.727  42.971  23.957  1.00  0.00     0.158 HD
ENDBRANCH  46  49
BRANCH  47  52
ATOM     52  C   UNL     1     -41.199  41.557  28.160  1.00  0.00     0.376 C 
ATOM     53  O   UNL     1     -40.131  41.364  27.593  1.00  0.00    -0.242 OA
BRANCH  52  54
ATOM     54  O   UNL     1     -41.334  41.867  29.480  1.00  0.00    -0.463 OA
BRANCH  54  55
ATOM     55  C   UNL     1     -41.570  40.741  30.324  1.00  0.00     0.081 C 
ATOM     56  H   UNL     1     -41.560  39.842  29.702  1.00  0.00     0.067 H 
ATOM     57  H   UNL     1     -42.550  40.820  30.803  1.00  0.00     0.067 H 
ATOM     58  H   UNL     1     -40.778  40.651  31.075  1.00  0.00     0.067 H 
ENDBRANCH  54  55
ENDBRANCH  52  54
ENDBRANCH  47  52
ENDBRANCH   3  38
TORSDOF 11
ENDMDL
MODEL 6
REMARK VINA RESULT:      -8.4      2.232      3.049
REMARK SMILES CNc1ccc2ccc(OC[C@H]3O[C@@H](n4ccc5c(N)nc(C(=O)OC)nc54)[C@@H](F)[C@@H]3O)cc2n1
REMARK SMILES IDX 12 1 13 2 14 3 29 4 30 5 31 6 11 11 10 14 9 15 3 16 4 17
REMARK SMILES IDX 35 18 5 19 34 21 6 22 33 24 7 25 8 27 2 30 1 32 32 36 15 38
REMARK SMILES IDX 16 39 28 40 17 41 18 43 27 44 19 46 22 47 21 48 20 49 23 52
REMARK SMILES IDX 24 53 25 54 26 55
REMARK H PARENT 12 7 14 8 29 9 31 10 11 12 11 13 4 20 5 23 33 26 7 28 8 29
REMARK H PARENT 2 31 1 33 1 34 1 35 32 37 16 42 17 45 20 50 20 51 26 56 26 57
REMARK H PARENT 26 58
REMARK Flexibility Score: inf
ROOT
ATOM      1  C   UNL     1     -47.325  35.379  27.332  1.00  0.00     0.123 C 
ATOM      2  O   UNL     1     -47.935  34.733  26.196  1.00  0.00    -0.345 OA
ATOM      3  C   UNL     1     -47.803  33.301  26.381  1.00  0.00     0.169 C 
ATOM      4  C   UNL     1     -47.004  33.082  27.664  1.00  0.00     0.173 C 
ATOM      5  F   UNL     1     -46.099  32.078  27.588  1.00  0.00    -0.239 F 
ATOM      6  C   UNL     1     -46.277  34.398  27.830  1.00  0.00     0.119 C 
ATOM      7  H   UNL     1     -48.110  35.538  28.082  1.00  0.00     0.067 H 
ATOM      8  H   UNL     1     -48.814  32.887  26.462  1.00  0.00     0.088 H 
ATOM      9  H   UNL     1     -47.663  32.882  28.518  1.00  0.00     0.074 H 
ATOM     10  H   UNL     1     -45.375  34.416  27.207  1.00  0.00     0.066 H 
ENDROOT
BRANCH   1  11
ATOM     11  C   UNL     1     -46.723  36.729  26.938  1.00  0.00     0.117 C 
ATOM     12  H   UNL     1     -47.232  37.109  26.044  1.00  0.00     0.073 H 
ATOM     13  H   UNL     1     -45.649  36.611  26.749  1.00  0.00     0.073 H 
BRANCH  11  14
ATOM     14  O   UNL     1     -46.920  37.645  28.020  1.00  0.00    -0.491 OA
BRANCH  14  15
ATOM     15  C   UNL     1     -45.805  38.207  28.577  1.00  0.00     0.121 A 
ATOM     16  C   UNL     1     -42.671  41.752  28.054  1.00  0.00     0.126 A 
ATOM     17  C   UNL     1     -41.975  41.379  29.194  1.00  0.00    -0.019 A 
ATOM     18  N   UNL     1     -43.765  41.094  27.629  1.00  0.00    -0.231 NA
ATOM     19  C   UNL     1     -42.410  40.273  29.917  1.00  0.00    -0.049 A 
ATOM     20  H   UNL     1     -41.117  41.949  29.533  1.00  0.00     0.066 H 
ATOM     21  C   UNL     1     -44.192  40.022  28.325  1.00  0.00     0.076 A 
ATOM     22  C   UNL     1     -43.538  39.569  29.486  1.00  0.00     0.001 A 
ATOM     23  H   UNL     1     -41.872  39.976  30.813  1.00  0.00     0.063 H 
ATOM     24  C   UNL     1     -45.315  39.329  27.896  1.00  0.00     0.007 A 
ATOM     25  C   UNL     1     -44.020  38.446  30.179  1.00  0.00    -0.049 A 
ATOM     26  H   UNL     1     -45.828  39.672  27.000  1.00  0.00     0.069 H 
ATOM     27  C   UNL     1     -45.152  37.768  29.724  1.00  0.00    -0.019 A 
ATOM     28  H   UNL     1     -43.518  38.096  31.078  1.00  0.00     0.063 H 
ATOM     29  H   UNL     1     -45.495  36.907  30.288  1.00  0.00     0.066 H 
BRANCH  16  30
ATOM     30  N   UNL     1     -42.302  42.860  27.287  1.00  0.00    -0.373 N 
ATOM     31  H   UNL     1     -41.728  43.411  27.927  1.00  0.00     0.161 HD
BRANCH  30  32
ATOM     32  C   UNL     1     -43.427  43.634  26.792  1.00  0.00     0.005 C 
ATOM     33  H   UNL     1     -43.111  44.611  26.413  1.00  0.00     0.045 H 
ATOM     34  H   UNL     1     -44.123  43.817  27.616  1.00  0.00     0.045 H 
ATOM     35  H   UNL     1     -43.971  43.099  26.007  1.00  0.00     0.045 H 
ENDBRANCH  30  32
ENDBRANCH  16  30
ENDBRANCH  14  15
ENDBRANCH  11  14
ENDBRANCH   1  11
BRANCH   6  36
ATOM     36  O   UNL     1     -45.896  34.652  29.175  1.00  0.00    -0.387 OA
ATOM     37  H   UNL     1     -45.028  34.226  29.314  1.00  0.00     0.211 HD
ENDBRANCH   6  36
BRANCH   3  38
ATOM     38  N   UNL     1     -47.186  32.723  25.195  1.00  0.00    -0.303 N 
ATOM     39  C   UNL     1     -46.164  33.253  24.442  1.00  0.00     0.009 A 
ATOM     40  C   UNL     1     -47.559  31.510  24.666  1.00  0.00     0.148 A 
ATOM     41  C   UNL     1     -45.878  32.363  23.428  1.00  0.00    -0.031 A 
ATOM     42  H   UNL     1     -45.734  34.217  24.679  1.00  0.00     0.082 H 
ATOM     43  C   UNL     1     -46.759  31.254  23.563  1.00  0.00     0.061 A 
ATOM     44  N   UNL     1     -48.528  30.719  25.151  1.00  0.00    -0.204 NA
ATOM     45  H   UNL     1     -45.116  32.495  22.671  1.00  0.00     0.065 H 
ATOM     46  C   UNL     1     -46.986  30.050  22.885  1.00  0.00     0.137 A 
ATOM     47  C   UNL     1     -48.657  29.583  24.429  1.00  0.00     0.243 A 
ATOM     48  N   UNL     1     -47.947  29.222  23.331  1.00  0.00    -0.204 NA
BRANCH  46  49
ATOM     49  N   UNL     1     -46.279  29.658  21.759  1.00  0.00    -0.383 N 
ATOM     50  H   UNL     1     -45.906  30.459  21.262  1.00  0.00     0.158 HD
ATOM     51  H   UNL     1     -45.653  28.877  21.891  1.00  0.00     0.158 HD
ENDBRANCH  46  49
BRANCH  47  52
ATOM     52  C   UNL     1     -49.725  28.634  24.911  1.00  0.00     0.376 C 
ATOM     53  O   UNL     1     -50.876  28.611  24.495  1.00  0.00    -0.242 OA
BRANCH  52  54
ATOM     54  O   UNL     1     -49.230  27.805  25.874  1.00  0.00    -0.463 OA
BRANCH  54  55
ATOM     55  C   UNL     1     -50.077  26.699  26.184  1.00  0.00     0.081 C 
ATOM     56  H   UNL     1     -49.746  25.841  25.593  1.00  0.00     0.067 H 
ATOM     57  H   UNL     1     -51.114  26.924  25.919  1.00  0.00     0.067 H 
ATOM     58  H   UNL     1     -49.996  26.440  27.245  1.00  0.00     0.067 H 
ENDBRANCH  54  55
ENDBRANCH  52  54
ENDBRANCH  47  52
ENDBRANCH   3  38
TORSDOF 11
ENDMDL
MODEL 7
REMARK VINA RESULT:      -8.4      3.312     11.144
REMARK SMILES CNc1ccc2ccc(OC[C@H]3O[C@@H](n4ccc5c(N)nc(C(=O)OC)nc54)[C@@H](F)[C@@H]3O)cc2n1
REMARK SMILES IDX 12 1 13 2 14 3 29 4 30 5 31 6 11 11 10 14 9 15 3 16 4 17
REMARK SMILES IDX 35 18 5 19 34 21 6 22 33 24 7 25 8 27 2 30 1 32 32 36 15 38
REMARK SMILES IDX 16 39 28 40 17 41 18 43 27 44 19 46 22 47 21 48 20 49 23 52
REMARK SMILES IDX 24 53 25 54 26 55
REMARK H PARENT 12 7 14 8 29 9 31 10 11 12 11 13 4 20 5 23 33 26 7 28 8 29
REMARK H PARENT 2 31 1 33 1 34 1 35 32 37 16 42 17 45 20 50 20 51 26 56 26 57
REMARK H PARENT 26 58
REMARK Flexibility Score: inf
ROOT
ATOM      1  C   UNL     1     -46.048  35.845  28.350  1.00  0.00     0.123 C 
ATOM      2  O   UNL     1     -45.799  36.702  27.217  1.00  0.00    -0.345 OA
ATOM      3  C   UNL     1     -45.155  37.905  27.708  1.00  0.00     0.169 C 
ATOM      4  C   UNL     1     -45.080  37.791  29.229  1.00  0.00     0.173 C 
ATOM      5  F   UNL     1     -45.341  38.947  29.884  1.00  0.00    -0.239 F 
ATOM      6  C   UNL     1     -46.168  36.785  29.539  1.00  0.00     0.119 C 
ATOM      7  H   UNL     1     -45.182  35.179  28.456  1.00  0.00     0.067 H 
ATOM      8  H   UNL     1     -44.155  37.947  27.260  1.00  0.00     0.088 H 
ATOM      9  H   UNL     1     -44.100  37.428  29.557  1.00  0.00     0.074 H 
ATOM     10  H   UNL     1     -47.146  37.280  29.569  1.00  0.00     0.066 H 
ENDROOT
BRANCH   1  11
ATOM     11  C   UNL     1     -47.309  35.006  28.137  1.00  0.00     0.117 C 
ATOM     12  H   UNL     1     -48.126  35.413  28.744  1.00  0.00     0.073 H 
ATOM     13  H   UNL     1     -47.106  33.964  28.412  1.00  0.00     0.073 H 
BRANCH  11  14
ATOM     14  O   UNL     1     -47.667  35.074  26.754  1.00  0.00    -0.491 OA
BRANCH  14  15
ATOM     15  C   UNL     1     -47.419  33.969  25.986  1.00  0.00     0.121 A 
ATOM     16  C   UNL     1     -49.467  30.096  24.126  1.00  0.00     0.126 A 
ATOM     17  C   UNL     1     -48.286  29.693  23.521  1.00  0.00    -0.019 A 
ATOM     18  N   UNL     1     -49.557  31.223  24.856  1.00  0.00    -0.231 NA
ATOM     19  C   UNL     1     -47.145  30.471  23.689  1.00  0.00    -0.049 A 
ATOM     20  H   UNL     1     -48.252  28.799  22.909  1.00  0.00     0.066 H 
ATOM     21  C   UNL     1     -48.455  31.980  25.022  1.00  0.00     0.076 A 
ATOM     22  C   UNL     1     -47.214  31.639  24.453  1.00  0.00     0.001 A 
ATOM     23  H   UNL     1     -46.217  30.165  23.216  1.00  0.00     0.063 H 
ATOM     24  C   UNL     1     -48.530  33.142  25.778  1.00  0.00     0.007 A 
ATOM     25  C   UNL     1     -46.093  32.461  24.653  1.00  0.00    -0.049 A 
ATOM     26  H   UNL     1     -49.486  33.414  26.221  1.00  0.00     0.069 H 
ATOM     27  C   UNL     1     -46.197  33.624  25.419  1.00  0.00    -0.019 A 
ATOM     28  H   UNL     1     -45.133  32.202  24.212  1.00  0.00     0.063 H 
ATOM     29  H   UNL     1     -45.309  34.233  25.548  1.00  0.00     0.066 H 
BRANCH  16  30
ATOM     30  N   UNL     1     -50.656  29.374  23.989  1.00  0.00    -0.373 N 
ATOM     31  H   UNL     1     -50.437  28.473  24.418  1.00  0.00     0.161 HD
BRANCH  30  32
ATOM     32  C   UNL     1     -51.089  29.209  22.613  1.00  0.00     0.005 C 
ATOM     33  H   UNL     1     -51.915  28.495  22.530  1.00  0.00     0.045 H 
ATOM     34  H   UNL     1     -50.257  28.811  22.023  1.00  0.00     0.045 H 
ATOM     35  H   UNL     1     -51.388  30.163  22.166  1.00  0.00     0.045 H 
ENDBRANCH  30  32
ENDBRANCH  16  30
ENDBRANCH  14  15
ENDBRANCH  11  14
ENDBRANCH   1  11
BRANCH   6  36
ATOM     36  O   UNL     1     -45.966  36.119  30.777  1.00  0.00    -0.387 OA
ATOM     37  H   UNL     1     -45.325  36.649  31.288  1.00  0.00     0.211 HD
ENDBRANCH   6  36
BRANCH   3  38
ATOM     38  N   UNL     1     -45.895  39.068  27.238  1.00  0.00    -0.303 N 
ATOM     39  C   UNL     1     -47.253  39.171  27.046  1.00  0.00     0.009 A 
ATOM     40  C   UNL     1     -45.299  40.266  26.926  1.00  0.00     0.148 A 
ATOM     41  C   UNL     1     -47.525  40.454  26.617  1.00  0.00    -0.031 A 
ATOM     42  H   UNL     1     -47.911  38.330  27.218  1.00  0.00     0.082 H 
ATOM     43  C   UNL     1     -46.290  41.155  26.537  1.00  0.00     0.061 A 
ATOM     44  N   UNL     1     -43.983  40.518  26.999  1.00  0.00    -0.204 NA
ATOM     45  H   UNL     1     -48.507  40.845  26.386  1.00  0.00     0.065 H 
ATOM     46  C   UNL     1     -45.875  42.445  26.183  1.00  0.00     0.137 A 
ATOM     47  C   UNL     1     -43.695  41.791  26.644  1.00  0.00     0.243 A 
ATOM     48  N   UNL     1     -44.566  42.748  26.238  1.00  0.00    -0.204 NA
BRANCH  46  49
ATOM     49  N   UNL     1     -46.743  43.440  25.762  1.00  0.00    -0.383 N 
ATOM     50  H   UNL     1     -47.471  43.065  25.164  1.00  0.00     0.158 HD
ATOM     51  H   UNL     1     -47.037  44.091  26.476  1.00  0.00     0.158 HD
ENDBRANCH  46  49
BRANCH  47  52
ATOM     52  C   UNL     1     -42.234  42.159  26.701  1.00  0.00     0.376 C 
ATOM     53  O   UNL     1     -41.660  42.861  25.879  1.00  0.00    -0.242 OA
BRANCH  52  54
ATOM     54  O   UNL     1     -41.643  41.602  27.796  1.00  0.00    -0.463 OA
BRANCH  54  55
ATOM     55  C   UNL     1     -41.999  42.221  29.031  1.00  0.00     0.081 C 
ATOM     56  H   UNL     1     -41.575  41.626  29.844  1.00  0.00     0.067 H 
ATOM     57  H   UNL     1     -43.087  42.243  29.149  1.00  0.00     0.067 H 
ATOM     58  H   UNL     1     -41.582  43.232  29.089  1.00  0.00     0.067 H 
ENDBRANCH  54  55
ENDBRANCH  52  54
ENDBRANCH  47  52
ENDBRANCH   3  38
TORSDOF 11
ENDMDL
