MODEL 1
REMARK VINA RESULT:     -10.4      0.000      0.000
REMARK SMILES Cn1ccc(-c2cn([C@@H]3O[C@H](CCc4ccc5cnc(N6CCC6)nc5c4)[C@@H](O)[C@@H]3F)c3ncnc(N)c23)n1
REMARK SMILES IDX 9 1 10 2 11 3 28 4 30 5 31 6 8 11 6 12 7 13 38 14 32 16
REMARK SMILES IDX 36 17 33 18 35 19 34 20 5 22 2 23 3 24 39 25 4 26 1 29 37 33
REMARK SMILES IDX 12 36 13 39 14 42 15 43 27 44 16 45 26 47 17 49 25 51 18 52
REMARK SMILES IDX 20 53 19 54 21 56 22 57 24 58 23 59 29 66
REMARK H PARENT 9 7 11 8 28 9 30 10 7 15 34 21 3 27 4 28 1 30 1 31 1 32 37 34
REMARK H PARENT 37 35 12 37 12 38 13 40 13 41 15 46 27 48 16 50 18 55 22 60
REMARK H PARENT 22 61 24 62 24 63 23 64 23 65 29 67
REMARK Flexibility Score: inf
ROOT
ATOM      1  C   UNL     1     -45.300  37.964  28.985  1.00  0.00     0.169 C 
ATOM      2  O   UNL     1     -45.165  36.889  28.030  1.00  0.00    -0.349 OA
ATOM      3  C   UNL     1     -46.437  36.227  27.944  1.00  0.00     0.090 C 
ATOM      4  C   UNL     1     -47.495  37.224  28.410  1.00  0.00     0.116 C 
ATOM      5  C   UNL     1     -46.744  38.004  29.468  1.00  0.00     0.173 C 
ATOM      6  F   UNL     1     -47.228  39.263  29.587  1.00  0.00    -0.239 F 
ATOM      7  H   UNL     1     -44.644  37.713  29.828  1.00  0.00     0.088 H 
ATOM      8  H   UNL     1     -46.412  35.372  28.632  1.00  0.00     0.063 H 
ATOM      9  H   UNL     1     -47.846  37.891  27.617  1.00  0.00     0.066 H 
ATOM     10  H   UNL     1     -46.840  37.523  30.447  1.00  0.00     0.074 H 
ENDROOT
BRANCH   1  11
ATOM     11  N   UNL     1     -44.781  39.191  28.400  1.00  0.00    -0.302 N 
ATOM     12  C   UNL     1     -44.608  40.960  27.046  1.00  0.00     0.033 A 
ATOM     13  C   UNL     1     -45.338  39.818  27.309  1.00  0.00     0.019 A 
ATOM     14  C   UNL     1     -43.545  41.022  28.002  1.00  0.00     0.071 A 
ATOM     15  H   UNL     1     -46.217  39.413  26.823  1.00  0.00     0.083 H 
ATOM     16  C   UNL     1     -43.697  39.916  28.836  1.00  0.00     0.148 A 
ATOM     17  C   UNL     1     -42.458  41.868  28.287  1.00  0.00     0.137 A 
ATOM     18  N   UNL     1     -42.920  39.600  29.885  1.00  0.00    -0.218 NA
ATOM     19  N   UNL     1     -41.674  41.596  29.348  1.00  0.00    -0.219 NA
ATOM     20  C   UNL     1     -41.939  40.495  30.070  1.00  0.00     0.120 A 
ATOM     21  H   UNL     1     -41.274  40.309  30.908  1.00  0.00     0.106 H 
BRANCH  12  22
ATOM     22  C   UNL     1     -44.886  41.937  25.987  1.00  0.00     0.095 A 
ATOM     23  N   UNL     1     -44.681  43.166  24.278  1.00  0.00    -0.275 N 
ATOM     24  C   UNL     1     -45.905  43.490  24.783  1.00  0.00     0.025 A 
ATOM     25  N   UNL     1     -44.033  42.230  24.995  1.00  0.00    -0.173 NA
ATOM     26  C   UNL     1     -46.068  42.707  25.902  1.00  0.00    -0.016 A 
ATOM     27  H   UNL     1     -46.544  44.228  24.318  1.00  0.00     0.084 H 
ATOM     28  H   UNL     1     -46.926  42.691  26.558  1.00  0.00     0.066 H 
BRANCH  23  29
ATOM     29  C   UNL     1     -44.057  43.714  23.098  1.00  0.00     0.030 C 
ATOM     30  H   UNL     1     -44.770  44.382  22.609  1.00  0.00     0.048 H 
ATOM     31  H   UNL     1     -43.163  44.263  23.405  1.00  0.00     0.048 H 
ATOM     32  H   UNL     1     -43.782  42.901  22.421  1.00  0.00     0.048 H 
ENDBRANCH  23  29
ENDBRANCH  12  22
BRANCH  17  33
ATOM     33  N   UNL     1     -42.131  42.994  27.544  1.00  0.00    -0.383 N 
ATOM     34  H   UNL     1     -41.339  43.480  27.938  1.00  0.00     0.158 HD
ATOM     35  H   UNL     1     -42.953  43.558  27.310  1.00  0.00     0.158 HD
ENDBRANCH  17  33
ENDBRANCH   1  11
BRANCH   3  36
ATOM     36  C   UNL     1     -46.686  35.725  26.519  1.00  0.00    -0.020 C 
ATOM     37  H   UNL     1     -45.792  35.197  26.164  1.00  0.00     0.030 H 
ATOM     38  H   UNL     1     -46.838  36.580  25.849  1.00  0.00     0.030 H 
BRANCH  36  39
ATOM     39  C   UNL     1     -47.860  34.745  26.407  1.00  0.00    -0.025 C 
ATOM     40  H   UNL     1     -48.740  35.255  25.997  1.00  0.00     0.032 H 
ATOM     41  H   UNL     1     -48.152  34.421  27.415  1.00  0.00     0.032 H 
BRANCH  39  42
ATOM     42  C   UNL     1     -47.543  33.515  25.593  1.00  0.00    -0.046 A 
ATOM     43  C   UNL     1     -46.252  33.301  25.103  1.00  0.00    -0.058 A 
ATOM     44  C   UNL     1     -48.540  32.559  25.327  1.00  0.00    -0.032 A 
ATOM     45  C   UNL     1     -45.972  32.157  24.362  1.00  0.00    -0.051 A 
ATOM     46  H   UNL     1     -45.462  34.024  25.296  1.00  0.00     0.063 H 
ATOM     47  C   UNL     1     -48.285  31.407  24.593  1.00  0.00     0.076 A 
ATOM     48  H   UNL     1     -49.551  32.716  25.699  1.00  0.00     0.065 H 
ATOM     49  C   UNL     1     -46.990  31.216  24.113  1.00  0.00     0.019 A 
ATOM     50  H   UNL     1     -44.965  31.999  23.981  1.00  0.00     0.063 H 
ATOM     51  N   UNL     1     -49.269  30.526  24.372  1.00  0.00    -0.213 NA
ATOM     52  C   UNL     1     -46.802  30.051  23.390  1.00  0.00     0.040 A 
ATOM     53  C   UNL     1     -48.990  29.420  23.656  1.00  0.00     0.225 A 
ATOM     54  N   UNL     1     -47.774  29.151  23.154  1.00  0.00    -0.221 NA
ATOM     55  H   UNL     1     -45.836  29.797  22.964  1.00  0.00     0.085 H 
BRANCH  53  56
ATOM     56  N   UNL     1     -50.024  28.510  23.413  1.00  0.00    -0.341 N 
ATOM     57  C   UNL     1     -50.830  28.481  22.231  1.00  0.00     0.022 C 
ATOM     58  C   UNL     1     -51.143  28.292  24.276  1.00  0.00     0.022 C 
ATOM     59  C   UNL     1     -51.848  27.686  23.057  1.00  0.00    -0.018 C 
ATOM     60  H   UNL     1     -50.367  27.944  21.399  1.00  0.00     0.049 H 
ATOM     61  H   UNL     1     -51.166  29.474  21.915  1.00  0.00     0.049 H 
ATOM     62  H   UNL     1     -51.586  29.221  24.651  1.00  0.00     0.049 H 
ATOM     63  H   UNL     1     -50.934  27.603  25.098  1.00  0.00     0.049 H 
ATOM     64  H   UNL     1     -52.896  27.969  22.923  1.00  0.00     0.030 H 
ATOM     65  H   UNL     1     -51.749  26.598  22.972  1.00  0.00     0.030 H 
ENDBRANCH  53  56
ENDBRANCH  39  42
ENDBRANCH  36  39
ENDBRANCH   3  36
BRANCH   4  66
ATOM     66  O   UNL     1     -48.631  36.558  28.960  1.00  0.00    -0.387 OA
ATOM     67  H   UNL     1     -48.423  36.341  29.886  1.00  0.00     0.211 HD
ENDBRANCH   4  66
TORSDOF 9
ENDMDL
MODEL 2
REMARK VINA RESULT:     -10.3      1.396      2.312
REMARK SMILES Cn1ccc(-c2cn([C@@H]3O[C@H](CCc4ccc5cnc(N6CCC6)nc5c4)[C@@H](O)[C@@H]3F)c3ncnc(N)c23)n1
REMARK SMILES IDX 9 1 10 2 11 3 28 4 30 5 31 6 8 11 6 12 7 13 38 14 32 16
REMARK SMILES IDX 36 17 33 18 35 19 34 20 5 22 2 23 3 24 39 25 4 26 1 29 37 33
REMARK SMILES IDX 12 36 13 39 14 42 15 43 27 44 16 45 26 47 17 49 25 51 18 52
REMARK SMILES IDX 20 53 19 54 21 56 22 57 24 58 23 59 29 66
REMARK H PARENT 9 7 11 8 28 9 30 10 7 15 34 21 3 27 4 28 1 30 1 31 1 32 37 34
REMARK H PARENT 37 35 12 37 12 38 13 40 13 41 15 46 27 48 16 50 18 55 22 60
REMARK H PARENT 22 61 24 62 24 63 23 64 23 65 29 67
REMARK Flexibility Score: inf
ROOT
ATOM      1  C   UNL     1     -45.224  38.390  29.382  1.00  0.00     0.169 C 
ATOM      2  O   UNL     1     -44.740  37.156  28.808  1.00  0.00    -0.349 OA
ATOM      3  C   UNL     1     -45.879  36.312  28.576  1.00  0.00     0.090 C 
ATOM      4  C   UNL     1     -47.101  37.224  28.477  1.00  0.00     0.116 C 
ATOM      5  C   UNL     1     -46.745  38.328  29.450  1.00  0.00     0.173 C 
ATOM      6  F   UNL     1     -47.338  39.496  29.107  1.00  0.00    -0.239 F 
ATOM      7  H   UNL     1     -44.819  38.439  30.400  1.00  0.00     0.088 H 
ATOM      8  H   UNL     1     -45.985  35.652  29.446  1.00  0.00     0.063 H 
ATOM      9  H   UNL     1     -47.261  37.631  27.475  1.00  0.00     0.066 H 
ATOM     10  H   UNL     1     -47.078  38.076  30.463  1.00  0.00     0.074 H 
ENDROOT
BRANCH   1  11
ATOM     11  N   UNL     1     -44.657  39.512  28.650  1.00  0.00    -0.302 N 
ATOM     12  C   UNL     1     -44.444  41.126  27.119  1.00  0.00     0.033 A 
ATOM     13  C   UNL     1     -45.236  40.074  27.535  1.00  0.00     0.019 A 
ATOM     14  C   UNL     1     -43.321  41.195  28.002  1.00  0.00     0.071 A 
ATOM     15  H   UNL     1     -46.171  39.694  27.142  1.00  0.00     0.083 H 
ATOM     16  C   UNL     1     -43.498  40.188  28.949  1.00  0.00     0.148 A 
ATOM     17  C   UNL     1     -42.160  41.978  28.140  1.00  0.00     0.137 A 
ATOM     18  N   UNL     1     -42.680  39.914  29.979  1.00  0.00    -0.218 NA
ATOM     19  N   UNL     1     -41.331  41.746  29.177  1.00  0.00    -0.219 NA
ATOM     20  C   UNL     1     -41.628  40.743  30.018  1.00  0.00     0.120 A 
ATOM     21  H   UNL     1     -40.926  40.586  30.831  1.00  0.00     0.106 H 
BRANCH  12  22
ATOM     22  C   UNL     1     -44.718  42.017  25.986  1.00  0.00     0.095 A 
ATOM     23  N   UNL     1     -45.579  43.513  24.763  1.00  0.00    -0.275 N 
ATOM     24  C   UNL     1     -44.608  42.958  23.985  1.00  0.00     0.025 A 
ATOM     25  N   UNL     1     -45.676  42.955  25.984  1.00  0.00    -0.173 NA
ATOM     26  C   UNL     1     -44.028  41.975  24.752  1.00  0.00    -0.016 A 
ATOM     27  H   UNL     1     -44.412  43.298  22.978  1.00  0.00     0.084 H 
ATOM     28  H   UNL     1     -43.215  41.327  24.462  1.00  0.00     0.066 H 
BRANCH  23  29
ATOM     29  C   UNL     1     -46.465  44.595  24.406  1.00  0.00     0.030 C 
ATOM     30  H   UNL     1     -47.435  44.416  24.877  1.00  0.00     0.048 H 
ATOM     31  H   UNL     1     -46.029  45.530  24.766  1.00  0.00     0.048 H 
ATOM     32  H   UNL     1     -46.578  44.629  23.319  1.00  0.00     0.048 H 
ENDBRANCH  23  29
ENDBRANCH  12  22
BRANCH  17  33
ATOM     33  N   UNL     1     -41.800  42.999  27.271  1.00  0.00    -0.383 N 
ATOM     34  H   UNL     1     -42.113  42.810  26.330  1.00  0.00     0.158 HD
ATOM     35  H   UNL     1     -40.823  43.282  27.388  1.00  0.00     0.158 HD
ENDBRANCH  17  33
ENDBRANCH   1  11
BRANCH   3  36
ATOM     36  C   UNL     1     -45.672  35.465  27.317  1.00  0.00    -0.020 C 
ATOM     37  H   UNL     1     -45.619  34.407  27.604  1.00  0.00     0.030 H 
ATOM     38  H   UNL     1     -44.710  35.719  26.857  1.00  0.00     0.030 H 
BRANCH  36  39
ATOM     39  C   UNL     1     -46.804  35.596  26.293  1.00  0.00    -0.025 C 
ATOM     40  H   UNL     1     -46.434  36.076  25.379  1.00  0.00     0.032 H 
ATOM     41  H   UNL     1     -47.570  36.276  26.691  1.00  0.00     0.032 H 
BRANCH  39  42
ATOM     42  C   UNL     1     -47.471  34.284  25.959  1.00  0.00    -0.046 A 
ATOM     43  C   UNL     1     -48.791  34.040  26.345  1.00  0.00    -0.058 A 
ATOM     44  C   UNL     1     -46.775  33.293  25.242  1.00  0.00    -0.032 A 
ATOM     45  C   UNL     1     -49.396  32.829  26.021  1.00  0.00    -0.051 A 
ATOM     46  H   UNL     1     -49.352  34.791  26.898  1.00  0.00     0.063 H 
ATOM     47  C   UNL     1     -47.358  32.077  24.903  1.00  0.00     0.076 A 
ATOM     48  H   UNL     1     -45.745  33.468  24.940  1.00  0.00     0.065 H 
ATOM     49  C   UNL     1     -48.676  31.856  25.301  1.00  0.00     0.019 A 
ATOM     50  H   UNL     1     -50.424  32.645  26.327  1.00  0.00     0.063 H 
ATOM     51  N   UNL     1     -46.654  31.169  24.216  1.00  0.00    -0.213 NA
ATOM     52  C   UNL     1     -49.197  30.628  24.934  1.00  0.00     0.040 A 
ATOM     53  C   UNL     1     -47.246  30.001  23.905  1.00  0.00     0.225 A 
ATOM     54  N   UNL     1     -48.510  29.698  24.243  1.00  0.00    -0.221 NA
ATOM     55  H   UNL     1     -50.212  30.342  25.190  1.00  0.00     0.085 H 
BRANCH  53  56
ATOM     56  N   UNL     1     -46.503  29.048  23.200  1.00  0.00    -0.341 N 
ATOM     57  C   UNL     1     -46.075  27.788  23.728  1.00  0.00     0.022 C 
ATOM     58  C   UNL     1     -45.248  29.297  22.563  1.00  0.00     0.022 C 
ATOM     59  C   UNL     1     -45.029  27.779  22.607  1.00  0.00    -0.018 C 
ATOM     60  H   UNL     1     -46.839  27.010  23.674  1.00  0.00     0.049 H 
ATOM     61  H   UNL     1     -45.665  27.863  24.741  1.00  0.00     0.049 H 
ATOM     62  H   UNL     1     -44.558  29.880  23.182  1.00  0.00     0.049 H 
ATOM     63  H   UNL     1     -45.342  29.736  21.567  1.00  0.00     0.049 H 
ATOM     64  H   UNL     1     -44.026  27.450  22.892  1.00  0.00     0.030 H 
ATOM     65  H   UNL     1     -45.344  27.251  21.699  1.00  0.00     0.030 H 
ENDBRANCH  53  56
ENDBRANCH  39  42
ENDBRANCH  36  39
ENDBRANCH   3  36
BRANCH   4  66
ATOM     66  O   UNL     1     -48.291  36.543  28.872  1.00  0.00    -0.387 OA
ATOM     67  H   UNL     1     -48.022  35.719  29.316  1.00  0.00     0.211 HD
ENDBRANCH   4  66
TORSDOF 9
ENDMDL
MODEL 3
REMARK VINA RESULT:      -9.8      2.396      3.235
REMARK SMILES Cn1ccc(-c2cn([C@@H]3O[C@H](CCc4ccc5cnc(N6CCC6)nc5c4)[C@@H](O)[C@@H]3F)c3ncnc(N)c23)n1
REMARK SMILES IDX 9 1 10 2 11 3 28 4 30 5 31 6 8 11 6 12 7 13 38 14 32 16
REMARK SMILES IDX 36 17 33 18 35 19 34 20 5 22 2 23 3 24 39 25 4 26 1 29 37 33
REMARK SMILES IDX 12 36 13 39 14 42 15 43 27 44 16 45 26 47 17 49 25 51 18 52
REMARK SMILES IDX 20 53 19 54 21 56 22 57 24 58 23 59 29 66
REMARK H PARENT 9 7 11 8 28 9 30 10 7 15 34 21 3 27 4 28 1 30 1 31 1 32 37 34
REMARK H PARENT 37 35 12 37 12 38 13 40 13 41 15 46 27 48 16 50 18 55 22 60
REMARK H PARENT 22 61 24 62 24 63 23 64 23 65 29 67
REMARK Flexibility Score: inf
ROOT
ATOM      1  C   UNL     1     -45.328  38.202  27.635  1.00  0.00     0.169 C 
ATOM      2  O   UNL     1     -46.116  37.066  27.214  1.00  0.00    -0.349 OA
ATOM      3  C   UNL     1     -46.250  36.191  28.345  1.00  0.00     0.090 C 
ATOM      4  C   UNL     1     -46.031  37.038  29.597  1.00  0.00     0.116 C 
ATOM      5  C   UNL     1     -45.010  38.047  29.117  1.00  0.00     0.173 C 
ATOM      6  F   UNL     1     -45.109  39.210  29.803  1.00  0.00    -0.239 F 
ATOM      7  H   UNL     1     -44.395  38.162  27.059  1.00  0.00     0.088 H 
ATOM      8  H   UNL     1     -45.457  35.435  28.273  1.00  0.00     0.063 H 
ATOM      9  H   UNL     1     -46.937  37.542  29.945  1.00  0.00     0.066 H 
ATOM     10  H   UNL     1     -43.993  37.668  29.258  1.00  0.00     0.074 H 
ENDROOT
BRANCH   1  11
ATOM     11  N   UNL     1     -46.010  39.427  27.246  1.00  0.00    -0.302 N 
ATOM     12  C   UNL     1     -47.657  40.907  26.946  1.00  0.00     0.033 A 
ATOM     13  C   UNL     1     -47.362  39.634  27.393  1.00  0.00     0.019 A 
ATOM     14  C   UNL     1     -46.437  41.494  26.484  1.00  0.00     0.071 A 
ATOM     15  H   UNL     1     -47.999  38.869  27.820  1.00  0.00     0.083 H 
ATOM     16  C   UNL     1     -45.435  40.551  26.703  1.00  0.00     0.148 A 
ATOM     17  C   UNL     1     -46.029  42.708  25.903  1.00  0.00     0.137 A 
ATOM     18  N   UNL     1     -44.128  40.703  26.430  1.00  0.00    -0.218 NA
ATOM     19  N   UNL     1     -44.722  42.904  25.639  1.00  0.00    -0.219 NA
ATOM     20  C   UNL     1     -43.863  41.908  25.906  1.00  0.00     0.120 A 
ATOM     21  H   UNL     1     -42.822  42.106  25.666  1.00  0.00     0.106 H 
BRANCH  12  22
ATOM     22  C   UNL     1     -48.980  41.542  26.960  1.00  0.00     0.095 A 
ATOM     23  N   UNL     1     -50.705  42.612  26.367  1.00  0.00    -0.275 N 
ATOM     24  C   UNL     1     -50.947  42.272  27.665  1.00  0.00     0.025 A 
ATOM     25  N   UNL     1     -49.511  42.189  25.913  1.00  0.00    -0.173 NA
ATOM     26  C   UNL     1     -49.838  41.575  28.082  1.00  0.00    -0.016 A 
ATOM     27  H   UNL     1     -51.863  42.543  28.171  1.00  0.00     0.084 H 
ATOM     28  H   UNL     1     -49.678  41.143  29.060  1.00  0.00     0.066 H 
BRANCH  23  29
ATOM     29  C   UNL     1     -51.579  43.349  25.486  1.00  0.00     0.030 C 
ATOM     30  H   UNL     1     -50.972  44.044  24.901  1.00  0.00     0.048 H 
ATOM     31  H   UNL     1     -52.088  42.636  24.831  1.00  0.00     0.048 H 
ATOM     32  H   UNL     1     -52.313  43.900  26.079  1.00  0.00     0.048 H 
ENDBRANCH  23  29
ENDBRANCH  12  22
BRANCH  17  33
ATOM     33  N   UNL     1     -46.891  43.747  25.579  1.00  0.00    -0.383 N 
ATOM     34  H   UNL     1     -46.901  44.457  26.297  1.00  0.00     0.158 HD
ATOM     35  H   UNL     1     -47.799  43.408  25.248  1.00  0.00     0.158 HD
ENDBRANCH  17  33
ENDBRANCH   1  11
BRANCH   3  36
ATOM     36  C   UNL     1     -47.615  35.498  28.331  1.00  0.00    -0.020 C 
ATOM     37  H   UNL     1     -48.305  36.055  28.978  1.00  0.00     0.030 H 
ATOM     38  H   UNL     1     -47.521  34.492  28.758  1.00  0.00     0.030 H 
BRANCH  36  39
ATOM     39  C   UNL     1     -48.258  35.430  26.942  1.00  0.00    -0.025 C 
ATOM     40  H   UNL     1     -48.041  36.346  26.379  1.00  0.00     0.032 H 
ATOM     41  H   UNL     1     -49.351  35.408  27.054  1.00  0.00     0.032 H 
BRANCH  39  42
ATOM     42  C   UNL     1     -47.844  34.218  26.145  1.00  0.00    -0.046 A 
ATOM     43  C   UNL     1     -46.630  34.204  25.453  1.00  0.00    -0.058 A 
ATOM     44  C   UNL     1     -48.668  33.079  26.098  1.00  0.00    -0.032 A 
ATOM     45  C   UNL     1     -46.256  33.074  24.730  1.00  0.00    -0.051 A 
ATOM     46  H   UNL     1     -45.973  35.071  25.475  1.00  0.00     0.063 H 
ATOM     47  C   UNL     1     -48.316  31.938  25.387  1.00  0.00     0.076 A 
ATOM     48  H   UNL     1     -49.618  33.078  26.629  1.00  0.00     0.065 H 
ATOM     49  C   UNL     1     -47.101  31.948  24.703  1.00  0.00     0.019 A 
ATOM     50  H   UNL     1     -45.311  33.072  24.192  1.00  0.00     0.063 H 
ATOM     51  N   UNL     1     -49.135  30.878  25.379  1.00  0.00    -0.213 NA
ATOM     52  C   UNL     1     -46.810  30.783  24.015  1.00  0.00     0.040 A 
ATOM     53  C   UNL     1     -48.766  29.788  24.679  1.00  0.00     0.225 A 
ATOM     54  N   UNL     1     -47.615  29.706  23.991  1.00  0.00    -0.221 NA
ATOM     55  H   UNL     1     -45.893  30.676  23.444  1.00  0.00     0.085 H 
BRANCH  53  56
ATOM     56  N   UNL     1     -49.630  28.690  24.660  1.00  0.00    -0.341 N 
ATOM     57  C   UNL     1     -49.225  27.331  24.460  1.00  0.00     0.022 C 
ATOM     58  C   UNL     1     -50.769  28.558  23.805  1.00  0.00     0.022 C 
ATOM     59  C   UNL     1     -50.683  27.051  24.075  1.00  0.00    -0.018 C 
ATOM     60  H   UNL     1     -48.869  26.843  25.369  1.00  0.00     0.049 H 
ATOM     61  H   UNL     1     -48.502  27.213  23.645  1.00  0.00     0.049 H 
ATOM     62  H   UNL     1     -50.568  28.854  22.770  1.00  0.00     0.049 H 
ATOM     63  H   UNL     1     -51.662  29.060  24.186  1.00  0.00     0.049 H 
ATOM     64  H   UNL     1     -50.831  26.402  23.207  1.00  0.00     0.030 H 
ATOM     65  H   UNL     1     -51.310  26.703  24.903  1.00  0.00     0.030 H 
ENDBRANCH  53  56
ENDBRANCH  39  42
ENDBRANCH  36  39
ENDBRANCH   3  36
BRANCH   4  66
ATOM     66  O   UNL     1     -45.523  36.252  30.674  1.00  0.00    -0.387 OA
ATOM     67  H   UNL     1     -46.025  35.417  30.689  1.00  0.00     0.211 HD
ENDBRANCH   4  66
TORSDOF 9
ENDMDL
MODEL 4
REMARK VINA RESULT:      -9.8      1.776      2.660
REMARK SMILES Cn1ccc(-c2cn([C@@H]3O[C@H](CCc4ccc5cnc(N6CCC6)nc5c4)[C@@H](O)[C@@H]3F)c3ncnc(N)c23)n1
REMARK SMILES IDX 9 1 10 2 11 3 28 4 30 5 31 6 8 11 6 12 7 13 38 14 32 16
REMARK SMILES IDX 36 17 33 18 35 19 34 20 5 22 2 23 3 24 39 25 4 26 1 29 37 33
REMARK SMILES IDX 12 36 13 39 14 42 15 43 27 44 16 45 26 47 17 49 25 51 18 52
REMARK SMILES IDX 20 53 19 54 21 56 22 57 24 58 23 59 29 66
REMARK H PARENT 9 7 11 8 28 9 30 10 7 15 34 21 3 27 4 28 1 30 1 31 1 32 37 34
REMARK H PARENT 37 35 12 37 12 38 13 40 13 41 15 46 27 48 16 50 18 55 22 60
REMARK H PARENT 22 61 24 62 24 63 23 64 23 65 29 67
REMARK Flexibility Score: inf
ROOT
ATOM      1  C   UNL     1     -44.833  37.635  28.153  1.00  0.00     0.169 C 
ATOM      2  O   UNL     1     -45.683  36.643  27.538  1.00  0.00    -0.349 OA
ATOM      3  C   UNL     1     -46.250  35.848  28.591  1.00  0.00     0.090 C 
ATOM      4  C   UNL     1     -46.201  36.689  29.865  1.00  0.00     0.116 C 
ATOM      5  C   UNL     1     -44.927  37.483  29.666  1.00  0.00     0.173 C 
ATOM      6  F   UNL     1     -44.981  38.669  30.315  1.00  0.00    -0.239 F 
ATOM      7  H   UNL     1     -43.809  37.409  27.831  1.00  0.00     0.088 H 
ATOM      8  H   UNL     1     -45.615  34.961  28.715  1.00  0.00     0.063 H 
ATOM      9  H   UNL     1     -47.058  37.359  29.978  1.00  0.00     0.066 H 
ATOM     10  H   UNL     1     -44.063  36.934  30.056  1.00  0.00     0.074 H 
ENDROOT
BRANCH   1  11
ATOM     11  N   UNL     1     -45.162  38.947  27.615  1.00  0.00    -0.302 N 
ATOM     12  C   UNL     1     -44.898  40.946  26.652  1.00  0.00     0.033 A 
ATOM     13  C   UNL     1     -44.234  39.816  27.089  1.00  0.00     0.019 A 
ATOM     14  C   UNL     1     -46.287  40.770  26.947  1.00  0.00     0.071 A 
ATOM     15  H   UNL     1     -43.184  39.553  27.049  1.00  0.00     0.083 H 
ATOM     16  C   UNL     1     -46.412  39.509  27.528  1.00  0.00     0.148 A 
ATOM     17  C   UNL     1     -47.476  41.507  26.803  1.00  0.00     0.137 A 
ATOM     18  N   UNL     1     -47.556  38.936  27.940  1.00  0.00    -0.218 NA
ATOM     19  N   UNL     1     -48.644  40.952  27.182  1.00  0.00    -0.219 NA
ATOM     20  C   UNL     1     -48.618  39.724  27.725  1.00  0.00     0.120 A 
ATOM     21  H   UNL     1     -49.580  39.321  28.027  1.00  0.00     0.106 H 
BRANCH  12  22
ATOM     22  C   UNL     1     -44.287  42.105  25.994  1.00  0.00     0.095 A 
ATOM     23  N   UNL     1     -43.842  43.615  24.580  1.00  0.00    -0.275 N 
ATOM     24  C   UNL     1     -42.950  43.822  25.589  1.00  0.00     0.025 A 
ATOM     25  N   UNL     1     -44.663  42.570  24.794  1.00  0.00    -0.173 NA
ATOM     26  C   UNL     1     -43.211  42.852  26.527  1.00  0.00    -0.016 A 
ATOM     27  H   UNL     1     -42.223  44.623  25.561  1.00  0.00     0.084 H 
ATOM     28  H   UNL     1     -42.701  42.711  27.469  1.00  0.00     0.066 H 
BRANCH  23  29
ATOM     29  C   UNL     1     -43.973  44.383  23.366  1.00  0.00     0.030 C 
ATOM     30  H   UNL     1     -44.184  45.421  23.636  1.00  0.00     0.048 H 
ATOM     31  H   UNL     1     -43.034  44.312  22.810  1.00  0.00     0.048 H 
ATOM     32  H   UNL     1     -44.793  43.979  22.766  1.00  0.00     0.048 H 
ENDBRANCH  23  29
ENDBRANCH  12  22
BRANCH  17  33
ATOM     33  N   UNL     1     -47.538  42.791  26.280  1.00  0.00    -0.383 N 
ATOM     34  H   UNL     1     -47.612  42.778  25.273  1.00  0.00     0.158 HD
ATOM     35  H   UNL     1     -46.831  43.410  26.686  1.00  0.00     0.158 HD
ENDBRANCH  17  33
ENDBRANCH   1  11
BRANCH   3  36
ATOM     36  C   UNL     1     -47.672  35.409  28.228  1.00  0.00    -0.020 C 
ATOM     37  H   UNL     1     -48.389  36.065  28.736  1.00  0.00     0.030 H 
ATOM     38  H   UNL     1     -47.849  34.393  28.602  1.00  0.00     0.030 H 
BRANCH  36  39
ATOM     39  C   UNL     1     -47.977  35.485  26.729  1.00  0.00    -0.025 C 
ATOM     40  H   UNL     1     -47.441  36.329  26.276  1.00  0.00     0.032 H 
ATOM     41  H   UNL     1     -49.043  35.709  26.592  1.00  0.00     0.032 H 
BRANCH  39  42
ATOM     42  C   UNL     1     -47.666  34.210  25.984  1.00  0.00    -0.046 A 
ATOM     43  C   UNL     1     -46.416  34.023  25.388  1.00  0.00    -0.058 A 
ATOM     44  C   UNL     1     -48.625  33.186  25.892  1.00  0.00    -0.032 A 
ATOM     45  C   UNL     1     -46.140  32.837  24.714  1.00  0.00    -0.051 A 
ATOM     46  H   UNL     1     -45.655  34.799  25.447  1.00  0.00     0.063 H 
ATOM     47  C   UNL     1     -48.372  31.992  25.227  1.00  0.00     0.076 A 
ATOM     48  H   UNL     1     -49.604  33.321  26.347  1.00  0.00     0.065 H 
ATOM     49  C   UNL     1     -47.119  31.829  24.639  1.00  0.00     0.019 A 
ATOM     50  H   UNL     1     -45.165  32.700  24.249  1.00  0.00     0.063 H 
ATOM     51  N   UNL     1     -49.320  31.046  25.172  1.00  0.00    -0.213 NA
ATOM     52  C   UNL     1     -46.932  30.619  23.993  1.00  0.00     0.040 A 
ATOM     53  C   UNL     1     -49.044  29.901  24.519  1.00  0.00     0.225 A 
ATOM     54  N   UNL     1     -47.866  29.654  23.923  1.00  0.00    -0.221 NA
ATOM     55  H   UNL     1     -45.996  30.380  23.495  1.00  0.00     0.085 H 
BRANCH  53  56
ATOM     56  N   UNL     1     -50.040  28.922  24.450  1.00  0.00    -0.341 N 
ATOM     57  C   UNL     1     -49.842  27.582  23.987  1.00  0.00     0.022 C 
ATOM     58  C   UNL     1     -51.281  29.063  23.753  1.00  0.00     0.022 C 
ATOM     59  C   UNL     1     -51.359  27.531  23.771  1.00  0.00    -0.018 C 
ATOM     60  H   UNL     1     -49.447  26.909  24.751  1.00  0.00     0.049 H 
ATOM     61  H   UNL     1     -49.244  27.527  23.072  1.00  0.00     0.049 H 
ATOM     62  H   UNL     1     -51.168  29.508  22.759  1.00  0.00     0.049 H 
ATOM     63  H   UNL     1     -52.048  29.586  24.328  1.00  0.00     0.049 H 
ATOM     64  H   UNL     1     -51.693  27.061  22.842  1.00  0.00     0.030 H 
ATOM     65  H   UNL     1     -51.923  27.118  24.614  1.00  0.00     0.030 H 
ENDBRANCH  53  56
ENDBRANCH  39  42
ENDBRANCH  36  39
ENDBRANCH   3  36
BRANCH   4  66
ATOM     66  O   UNL     1     -46.128  35.866  31.029  1.00  0.00    -0.387 OA
ATOM     67  H   UNL     1     -46.692  35.088  30.872  1.00  0.00     0.211 HD
ENDBRANCH   4  66
TORSDOF 9
ENDMDL
MODEL 5
REMARK VINA RESULT:      -9.2      2.155      3.468
REMARK SMILES Cn1ccc(-c2cn([C@@H]3O[C@H](CCc4ccc5cnc(N6CCC6)nc5c4)[C@@H](O)[C@@H]3F)c3ncnc(N)c23)n1
REMARK SMILES IDX 9 1 10 2 11 3 28 4 30 5 31 6 8 11 6 12 7 13 38 14 32 16
REMARK SMILES IDX 36 17 33 18 35 19 34 20 5 22 2 23 3 24 39 25 4 26 1 29 37 33
REMARK SMILES IDX 12 36 13 39 14 42 15 43 27 44 16 45 26 47 17 49 25 51 18 52
REMARK SMILES IDX 20 53 19 54 21 56 22 57 24 58 23 59 29 66
REMARK H PARENT 9 7 11 8 28 9 30 10 7 15 34 21 3 27 4 28 1 30 1 31 1 32 37 34
REMARK H PARENT 37 35 12 37 12 38 13 40 13 41 15 46 27 48 16 50 18 55 22 60
REMARK H PARENT 22 61 24 62 24 63 23 64 23 65 29 67
REMARK Flexibility Score: inf
ROOT
ATOM      1  C   UNL     1     -44.487  38.111  28.127  1.00  0.00     0.169 C 
ATOM      2  O   UNL     1     -45.449  37.137  27.668  1.00  0.00    -0.349 OA
ATOM      3  C   UNL     1     -46.011  36.506  28.829  1.00  0.00     0.090 C 
ATOM      4  C   UNL     1     -45.818  37.466  30.001  1.00  0.00     0.116 C 
ATOM      5  C   UNL     1     -44.500  38.124  29.650  1.00  0.00     0.173 C 
ATOM      6  F   UNL     1     -44.420  39.372  30.170  1.00  0.00    -0.239 F 
ATOM      7  H   UNL     1     -43.506  37.767  27.777  1.00  0.00     0.088 H 
ATOM      8  H   UNL     1     -45.442  35.585  29.014  1.00  0.00     0.063 H 
ATOM      9  H   UNL     1     -46.610  38.215  30.086  1.00  0.00     0.066 H 
ATOM     10  H   UNL     1     -43.659  37.547  30.051  1.00  0.00     0.074 H 
ENDROOT
BRANCH   1  11
ATOM     11  N   UNL     1     -44.744  39.383  27.469  1.00  0.00    -0.302 N 
ATOM     12  C   UNL     1     -44.368  41.279  26.346  1.00  0.00     0.033 A 
ATOM     13  C   UNL     1     -43.766  40.164  26.897  1.00  0.00     0.019 A 
ATOM     14  C   UNL     1     -45.770  41.187  26.613  1.00  0.00     0.071 A 
ATOM     15  H   UNL     1     -42.728  39.856  26.911  1.00  0.00     0.083 H 
ATOM     16  C   UNL     1     -45.966  39.988  27.296  1.00  0.00     0.148 A 
ATOM     17  C   UNL     1     -46.922  41.957  26.371  1.00  0.00     0.137 A 
ATOM     18  N   UNL     1     -47.144  39.500  27.722  1.00  0.00    -0.218 NA
ATOM     19  N   UNL     1     -48.123  41.486  26.762  1.00  0.00    -0.219 NA
ATOM     20  C   UNL     1     -48.165  40.310  27.408  1.00  0.00     0.120 A 
ATOM     21  H   UNL     1     -49.151  39.975  27.715  1.00  0.00     0.106 H 
BRANCH  12  22
ATOM     22  C   UNL     1     -43.690  42.350  25.608  1.00  0.00     0.095 A 
ATOM     23  N   UNL     1     -43.170  43.741  24.101  1.00  0.00    -0.275 N 
ATOM     24  C   UNL     1     -42.239  43.936  25.077  1.00  0.00     0.025 A 
ATOM     25  N   UNL     1     -44.061  42.775  24.392  1.00  0.00    -0.173 NA
ATOM     26  C   UNL     1     -42.548  43.041  26.075  1.00  0.00    -0.016 A 
ATOM     27  H   UNL     1     -41.457  44.676  24.987  1.00  0.00     0.084 H 
ATOM     28  H   UNL     1     -42.025  42.915  27.012  1.00  0.00     0.066 H 
BRANCH  23  29
ATOM     29  C   UNL     1     -43.275  44.448  22.847  1.00  0.00     0.030 C 
ATOM     30  H   UNL     1     -42.296  44.438  22.363  1.00  0.00     0.048 H 
ATOM     31  H   UNL     1     -44.018  43.940  22.227  1.00  0.00     0.048 H 
ATOM     32  H   UNL     1     -43.588  45.478  23.036  1.00  0.00     0.048 H 
ENDBRANCH  23  29
ENDBRANCH  12  22
BRANCH  17  33
ATOM     33  N   UNL     1     -46.914  43.192  25.738  1.00  0.00    -0.383 N 
ATOM     34  H   UNL     1     -47.849  43.560  25.633  1.00  0.00     0.158 HD
ATOM     35  H   UNL     1     -46.317  43.199  24.907  1.00  0.00     0.158 HD
ENDBRANCH  17  33
ENDBRANCH   1  11
BRANCH   3  36
ATOM     36  C   UNL     1     -47.482  36.154  28.591  1.00  0.00    -0.020 C 
ATOM     37  H   UNL     1     -48.113  36.864  29.139  1.00  0.00     0.030 H 
ATOM     38  H   UNL     1     -47.693  35.159  29.002  1.00  0.00     0.030 H 
BRANCH  36  39
ATOM     39  C   UNL     1     -47.902  36.222  27.119  1.00  0.00    -0.025 C 
ATOM     40  H   UNL     1     -47.112  36.693  26.521  1.00  0.00     0.032 H 
ATOM     41  H   UNL     1     -48.774  36.885  27.026  1.00  0.00     0.032 H 
BRANCH  39  42
ATOM     42  C   UNL     1     -48.270  34.881  26.534  1.00  0.00    -0.046 A 
ATOM     43  C   UNL     1     -49.564  34.375  26.676  1.00  0.00    -0.058 A 
ATOM     44  C   UNL     1     -47.317  34.127  25.825  1.00  0.00    -0.032 A 
ATOM     45  C   UNL     1     -49.891  33.140  26.122  1.00  0.00    -0.051 A 
ATOM     46  H   UNL     1     -50.320  34.939  27.218  1.00  0.00     0.063 H 
ATOM     47  C   UNL     1     -47.620  32.894  25.259  1.00  0.00     0.076 A 
ATOM     48  H   UNL     1     -46.304  34.507  25.711  1.00  0.00     0.065 H 
ATOM     49  C   UNL     1     -48.918  32.408  25.416  1.00  0.00     0.019 A 
ATOM     50  H   UNL     1     -50.901  32.751  26.240  1.00  0.00     0.063 H 
ATOM     51  N   UNL     1     -46.677  32.217  24.590  1.00  0.00    -0.213 NA
ATOM     52  C   UNL     1     -49.154  31.177  24.831  1.00  0.00     0.040 A 
ATOM     53  C   UNL     1     -47.002  31.025  24.055  1.00  0.00     0.225 A 
ATOM     54  N   UNL     1     -48.224  30.478  24.154  1.00  0.00    -0.221 NA
ATOM     55  H   UNL     1     -50.126  30.698  24.889  1.00  0.00     0.085 H 
BRANCH  53  56
ATOM     56  N   UNL     1     -46.011  30.315  23.370  1.00  0.00    -0.341 N 
ATOM     57  C   UNL     1     -45.602  30.571  22.023  1.00  0.00     0.022 C 
ATOM     58  C   UNL     1     -45.997  28.897  23.188  1.00  0.00     0.022 C 
ATOM     59  C   UNL     1     -45.031  29.148  22.024  1.00  0.00    -0.018 C 
ATOM     60  H   UNL     1     -44.872  31.378  21.933  1.00  0.00     0.049 H 
ATOM     61  H   UNL     1     -46.444  30.729  21.340  1.00  0.00     0.049 H 
ATOM     62  H   UNL     1     -46.972  28.490  22.899  1.00  0.00     0.049 H 
ATOM     63  H   UNL     1     -45.586  28.350  24.040  1.00  0.00     0.049 H 
ATOM     64  H   UNL     1     -45.212  28.560  21.120  1.00  0.00     0.030 H 
ATOM     65  H   UNL     1     -43.971  29.086  22.295  1.00  0.00     0.030 H 
ENDBRANCH  53  56
ENDBRANCH  39  42
ENDBRANCH  36  39
ENDBRANCH   3  36
BRANCH   4  66
ATOM     66  O   UNL     1     -45.739  36.765  31.241  1.00  0.00    -0.387 OA
ATOM     67  H   UNL     1     -45.326  37.363  31.889  1.00  0.00     0.211 HD
ENDBRANCH   4  66
TORSDOF 9
ENDMDL
MODEL 6
REMARK VINA RESULT:      -9.1      2.489     11.513
REMARK SMILES Cn1ccc(-c2cn([C@@H]3O[C@H](CCc4ccc5cnc(N6CCC6)nc5c4)[C@@H](O)[C@@H]3F)c3ncnc(N)c23)n1
REMARK SMILES IDX 9 1 10 2 11 3 28 4 30 5 31 6 8 11 6 12 7 13 38 14 32 16
REMARK SMILES IDX 36 17 33 18 35 19 34 20 5 22 2 23 3 24 39 25 4 26 1 29 37 33
REMARK SMILES IDX 12 36 13 39 14 42 15 43 27 44 16 45 26 47 17 49 25 51 18 52
REMARK SMILES IDX 20 53 19 54 21 56 22 57 24 58 23 59 29 66
REMARK H PARENT 9 7 11 8 28 9 30 10 7 15 34 21 3 27 4 28 1 30 1 31 1 32 37 34
REMARK H PARENT 37 35 12 37 12 38 13 40 13 41 15 46 27 48 16 50 18 55 22 60
REMARK H PARENT 22 61 24 62 24 63 23 64 23 65 29 67
REMARK Flexibility Score: inf
ROOT
ATOM      1  C   UNL     1     -47.738  31.739  26.323  1.00  0.00     0.169 C 
ATOM      2  O   UNL     1     -48.622  32.758  26.839  1.00  0.00    -0.349 OA
ATOM      3  C   UNL     1     -47.881  33.987  26.889  1.00  0.00     0.090 C 
ATOM      4  C   UNL     1     -46.733  33.860  25.888  1.00  0.00     0.116 C 
ATOM      5  C   UNL     1     -46.402  32.385  25.979  1.00  0.00     0.173 C 
ATOM      6  F   UNL     1     -45.876  31.928  24.819  1.00  0.00    -0.239 F 
ATOM      7  H   UNL     1     -47.591  31.015  27.135  1.00  0.00     0.088 H 
ATOM      8  H   UNL     1     -47.472  34.086  27.903  1.00  0.00     0.063 H 
ATOM      9  H   UNL     1     -47.014  34.129  24.867  1.00  0.00     0.066 H 
ATOM     10  H   UNL     1     -45.667  32.200  26.769  1.00  0.00     0.074 H 
ENDROOT
BRANCH   1  11
ATOM     11  N   UNL     1     -48.407  31.028  25.244  1.00  0.00    -0.302 N 
ATOM     12  C   UNL     1     -49.341  30.637  23.251  1.00  0.00     0.033 A 
ATOM     13  C   UNL     1     -48.750  31.603  24.041  1.00  0.00     0.019 A 
ATOM     14  C   UNL     1     -49.384  29.426  24.012  1.00  0.00     0.071 A 
ATOM     15  H   UNL     1     -48.527  32.644  23.838  1.00  0.00     0.083 H 
ATOM     16  C   UNL     1     -48.779  29.705  25.236  1.00  0.00     0.148 A 
ATOM     17  C   UNL     1     -49.855  28.112  23.839  1.00  0.00     0.137 A 
ATOM     18  N   UNL     1     -48.591  28.837  26.245  1.00  0.00    -0.218 NA
ATOM     19  N   UNL     1     -49.660  27.209  24.820  1.00  0.00    -0.219 NA
ATOM     20  C   UNL     1     -49.057  27.616  25.949  1.00  0.00     0.120 A 
ATOM     21  H   UNL     1     -48.932  26.858  26.716  1.00  0.00     0.106 H 
BRANCH  12  22
ATOM     22  C   UNL     1     -49.822  30.820  21.878  1.00  0.00     0.095 A 
ATOM     23  N   UNL     1     -51.095  31.029  20.201  1.00  0.00    -0.275 N 
ATOM     24  C   UNL     1     -49.837  31.083  19.680  1.00  0.00     0.025 A 
ATOM     25  N   UNL     1     -51.118  30.860  21.536  1.00  0.00    -0.173 NA
ATOM     26  C   UNL     1     -48.982  30.948  20.748  1.00  0.00    -0.016 A 
ATOM     27  H   UNL     1     -49.657  31.214  18.622  1.00  0.00     0.084 H 
ATOM     28  H   UNL     1     -47.902  30.949  20.714  1.00  0.00     0.066 H 
BRANCH  23  29
ATOM     29  C   UNL     1     -52.340  31.133  19.478  1.00  0.00     0.030 C 
ATOM     30  H   UNL     1     -53.051  30.426  19.913  1.00  0.00     0.048 H 
ATOM     31  H   UNL     1     -52.708  32.158  19.572  1.00  0.00     0.048 H 
ATOM     32  H   UNL     1     -52.170  30.892  18.425  1.00  0.00     0.048 H 
ENDBRANCH  23  29
ENDBRANCH  12  22
BRANCH  17  33
ATOM     33  N   UNL     1     -50.515  27.664  22.703  1.00  0.00    -0.383 N 
ATOM     34  H   UNL     1     -50.490  28.352  21.965  1.00  0.00     0.158 HD
ATOM     35  H   UNL     1     -51.426  27.250  22.921  1.00  0.00     0.158 HD
ENDBRANCH  17  33
ENDBRANCH   1  11
BRANCH   3  36
ATOM     36  C   UNL     1     -48.795  35.178  26.590  1.00  0.00    -0.020 C 
ATOM     37  H   UNL     1     -49.790  34.806  26.318  1.00  0.00     0.030 H 
ATOM     38  H   UNL     1     -48.411  35.727  25.721  1.00  0.00     0.030 H 
BRANCH  36  39
ATOM     39  C   UNL     1     -48.980  36.127  27.779  1.00  0.00    -0.025 C 
ATOM     40  H   UNL     1     -49.380  35.580  28.641  1.00  0.00     0.032 H 
ATOM     41  H   UNL     1     -49.745  36.874  27.526  1.00  0.00     0.032 H 
BRANCH  39  42
ATOM     42  C   UNL     1     -47.719  36.860  28.167  1.00  0.00    -0.046 A 
ATOM     43  C   UNL     1     -46.954  36.431  29.254  1.00  0.00    -0.058 A 
ATOM     44  C   UNL     1     -47.289  37.979  27.430  1.00  0.00    -0.032 A 
ATOM     45  C   UNL     1     -45.788  37.111  29.593  1.00  0.00    -0.051 A 
ATOM     46  H   UNL     1     -47.263  35.567  29.839  1.00  0.00     0.063 H 
ATOM     47  C   UNL     1     -46.127  38.673  27.746  1.00  0.00     0.076 A 
ATOM     48  H   UNL     1     -47.879  38.327  26.584  1.00  0.00     0.065 H 
ATOM     49  C   UNL     1     -45.381  38.227  28.837  1.00  0.00     0.019 A 
ATOM     50  H   UNL     1     -45.199  36.773  30.443  1.00  0.00     0.063 H 
ATOM     51  N   UNL     1     -45.760  39.730  27.010  1.00  0.00    -0.213 NA
ATOM     52  C   UNL     1     -44.238  38.960  29.099  1.00  0.00     0.040 A 
ATOM     53  C   UNL     1     -44.630  40.381  27.343  1.00  0.00     0.225 A 
ATOM     54  N   UNL     1     -43.847  40.025  28.375  1.00  0.00    -0.221 NA
ATOM     55  H   UNL     1     -43.579  38.709  29.925  1.00  0.00     0.085 H 
BRANCH  53  56
ATOM     56  N   UNL     1     -44.258  41.493  26.582  1.00  0.00    -0.341 N 
ATOM     57  C   UNL     1     -44.731  42.827  26.793  1.00  0.00     0.022 C 
ATOM     58  C   UNL     1     -44.380  41.591  25.160  1.00  0.00     0.022 C 
ATOM     59  C   UNL     1     -44.298  43.111  25.350  1.00  0.00    -0.018 C 
ATOM     60  H   UNL     1     -44.186  43.367  27.570  1.00  0.00     0.049 H 
ATOM     61  H   UNL     1     -45.812  42.878  26.968  1.00  0.00     0.049 H 
ATOM     62  H   UNL     1     -45.341  41.224  24.784  1.00  0.00     0.049 H 
ATOM     63  H   UNL     1     -43.550  41.133  24.618  1.00  0.00     0.049 H 
ATOM     64  H   UNL     1     -44.993  43.704  24.750  1.00  0.00     0.030 H 
ATOM     65  H   UNL     1     -43.287  43.524  25.254  1.00  0.00     0.030 H 
ENDBRANCH  53  56
ENDBRANCH  39  42
ENDBRANCH  36  39
ENDBRANCH   3  36
BRANCH   4  66
ATOM     66  O   UNL     1     -45.621  34.670  26.267  1.00  0.00    -0.387 OA
ATOM     67  H   UNL     1     -44.830  34.103  26.255  1.00  0.00     0.211 HD
ENDBRANCH   4  66
TORSDOF 9
ENDMDL
MODEL 7
REMARK VINA RESULT:      -8.8      2.561      4.889
REMARK SMILES Cn1ccc(-c2cn([C@@H]3O[C@H](CCc4ccc5cnc(N6CCC6)nc5c4)[C@@H](O)[C@@H]3F)c3ncnc(N)c23)n1
REMARK SMILES IDX 9 1 10 2 11 3 28 4 30 5 31 6 8 11 6 12 7 13 38 14 32 16
REMARK SMILES IDX 36 17 33 18 35 19 34 20 5 22 2 23 3 24 39 25 4 26 1 29 37 33
REMARK SMILES IDX 12 36 13 39 14 42 15 43 27 44 16 45 26 47 17 49 25 51 18 52
REMARK SMILES IDX 20 53 19 54 21 56 22 57 24 58 23 59 29 66
REMARK H PARENT 9 7 11 8 28 9 30 10 7 15 34 21 3 27 4 28 1 30 1 31 1 32 37 34
REMARK H PARENT 37 35 12 37 12 38 13 40 13 41 15 46 27 48 16 50 18 55 22 60
REMARK H PARENT 22 61 24 62 24 63 23 64 23 65 29 67
REMARK Flexibility Score: inf
ROOT
ATOM      1  C   UNL     1     -44.004  41.064  26.347  1.00  0.00     0.169 C 
ATOM      2  O   UNL     1     -44.663  39.780  26.419  1.00  0.00    -0.349 OA
ATOM      3  C   UNL     1     -44.294  39.175  27.668  1.00  0.00     0.090 C 
ATOM      4  C   UNL     1     -43.870  40.303  28.606  1.00  0.00     0.116 C 
ATOM      5  C   UNL     1     -43.238  41.288  27.644  1.00  0.00     0.173 C 
ATOM      6  F   UNL     1     -43.336  42.557  28.105  1.00  0.00    -0.239 F 
ATOM      7  H   UNL     1     -43.293  41.001  25.514  1.00  0.00     0.088 H 
ATOM      8  H   UNL     1     -43.435  38.518  27.476  1.00  0.00     0.063 H 
ATOM      9  H   UNL     1     -44.707  40.767  29.136  1.00  0.00     0.066 H 
ATOM     10  H   UNL     1     -42.173  41.069  27.509  1.00  0.00     0.074 H 
ENDROOT
BRANCH   1  11
ATOM     11  N   UNL     1     -44.980  42.082  25.990  1.00  0.00    -0.302 N 
ATOM     12  C   UNL     1     -46.931  43.164  25.859  1.00  0.00     0.033 A 
ATOM     13  C   UNL     1     -46.311  42.026  26.338  1.00  0.00     0.019 A 
ATOM     14  C   UNL     1     -45.944  43.936  25.170  1.00  0.00     0.071 A 
ATOM     15  H   UNL     1     -46.702  41.196  26.911  1.00  0.00     0.083 H 
ATOM     16  C   UNL     1     -44.742  43.240  25.289  1.00  0.00     0.148 A 
ATOM     17  C   UNL     1     -45.891  45.144  24.451  1.00  0.00     0.137 A 
ATOM     18  N   UNL     1     -43.551  43.624  24.801  1.00  0.00    -0.218 NA
ATOM     19  N   UNL     1     -44.708  45.572  23.970  1.00  0.00    -0.219 NA
ATOM     20  C   UNL     1     -43.626  44.800  24.162  1.00  0.00     0.120 A 
ATOM     21  H   UNL     1     -42.697  45.178  23.747  1.00  0.00     0.106 H 
BRANCH  12  22
ATOM     22  C   UNL     1     -48.343  43.518  26.042  1.00  0.00     0.095 A 
ATOM     23  N   UNL     1     -50.358  44.028  25.648  1.00  0.00    -0.275 N 
ATOM     24  C   UNL     1     -50.264  44.044  27.007  1.00  0.00     0.025 A 
ATOM     25  N   UNL     1     -49.202  43.720  25.032  1.00  0.00    -0.173 NA
ATOM     26  C   UNL     1     -48.961  43.718  27.297  1.00  0.00    -0.016 A 
ATOM     27  H   UNL     1     -51.109  44.277  27.640  1.00  0.00     0.084 H 
ATOM     28  H   UNL     1     -48.522  43.629  28.281  1.00  0.00     0.066 H 
BRANCH  23  29
ATOM     29  C   UNL     1     -51.534  44.299  24.855  1.00  0.00     0.030 C 
ATOM     30  H   UNL     1     -52.352  43.679  25.230  1.00  0.00     0.048 H 
ATOM     31  H   UNL     1     -51.778  45.360  24.953  1.00  0.00     0.048 H 
ATOM     32  H   UNL     1     -51.330  44.057  23.809  1.00  0.00     0.048 H 
ENDBRANCH  23  29
ENDBRANCH  12  22
BRANCH  17  33
ATOM     33  N   UNL     1     -46.993  45.950  24.201  1.00  0.00    -0.383 N 
ATOM     34  H   UNL     1     -47.298  46.430  25.036  1.00  0.00     0.158 HD
ATOM     35  H   UNL     1     -47.712  45.467  23.655  1.00  0.00     0.158 HD
ENDBRANCH  17  33
ENDBRANCH   1  11
BRANCH   3  36
ATOM     36  C   UNL     1     -45.453  38.346  28.228  1.00  0.00    -0.020 C 
ATOM     37  H   UNL     1     -46.326  38.465  27.575  1.00  0.00     0.030 H 
ATOM     38  H   UNL     1     -45.738  38.732  29.214  1.00  0.00     0.030 H 
BRANCH  36  39
ATOM     39  C   UNL     1     -45.155  36.845  28.309  1.00  0.00    -0.025 C 
ATOM     40  H   UNL     1     -44.953  36.555  29.347  1.00  0.00     0.032 H 
ATOM     41  H   UNL     1     -44.226  36.635  27.761  1.00  0.00     0.032 H 
BRANCH  39  42
ATOM     42  C   UNL     1     -46.247  35.981  27.729  1.00  0.00    -0.046 A 
ATOM     43  C   UNL     1     -47.589  36.337  27.881  1.00  0.00    -0.058 A 
ATOM     44  C   UNL     1     -45.929  34.812  27.015  1.00  0.00    -0.032 A 
ATOM     45  C   UNL     1     -48.587  35.536  27.332  1.00  0.00    -0.051 A 
ATOM     46  H   UNL     1     -47.863  37.238  28.427  1.00  0.00     0.063 H 
ATOM     47  C   UNL     1     -46.905  33.997  26.454  1.00  0.00     0.076 A 
ATOM     48  H   UNL     1     -44.888  34.520  26.893  1.00  0.00     0.065 H 
ATOM     49  C   UNL     1     -48.238  34.371  26.621  1.00  0.00     0.019 A 
ATOM     50  H   UNL     1     -49.630  35.818  27.457  1.00  0.00     0.063 H 
ATOM     51  N   UNL     1     -46.548  32.896  25.779  1.00  0.00    -0.213 NA
ATOM     52  C   UNL     1     -49.160  33.519  26.039  1.00  0.00     0.040 A 
ATOM     53  C   UNL     1     -47.518  32.127  25.249  1.00  0.00     0.225 A 
ATOM     54  N   UNL     1     -48.827  32.407  25.357  1.00  0.00    -0.221 NA
ATOM     55  H   UNL     1     -50.227  33.706  26.105  1.00  0.00     0.085 H 
BRANCH  53  56
ATOM     56  N   UNL     1     -47.143  30.970  24.559  1.00  0.00    -0.341 N 
ATOM     57  C   UNL     1     -46.286  30.941  23.413  1.00  0.00     0.022 C 
ATOM     58  C   UNL     1     -48.052  30.018  24.001  1.00  0.00     0.022 C 
ATOM     59  C   UNL     1     -46.886  29.562  23.114  1.00  0.00    -0.018 C 
ATOM     60  H   UNL     1     -45.223  30.955  23.661  1.00  0.00     0.049 H 
ATOM     61  H   UNL     1     -46.525  31.717  22.678  1.00  0.00     0.049 H 
ATOM     62  H   UNL     1     -48.886  30.481  23.465  1.00  0.00     0.049 H 
ATOM     63  H   UNL     1     -48.415  29.284  24.725  1.00  0.00     0.049 H 
ATOM     64  H   UNL     1     -47.133  29.366  22.068  1.00  0.00     0.030 H 
ATOM     65  H   UNL     1     -46.312  28.721  23.520  1.00  0.00     0.030 H 
ENDBRANCH  53  56
ENDBRANCH  39  42
ENDBRANCH  36  39
ENDBRANCH   3  36
BRANCH   4  66
ATOM     66  O   UNL     1     -42.931  39.846  29.579  1.00  0.00    -0.387 OA
ATOM     67  H   UNL     1     -42.314  39.243  29.128  1.00  0.00     0.211 HD
ENDBRANCH   4  66
TORSDOF 9
ENDMDL
