MODEL 1
REMARK VINA RESULT:     -10.8      0.000      0.000
REMARK SMILES CCc1cc(N2CCNCC2)c2ccc(OCc3cncc(-n4cc([C@@H]5CCCO5)c5c(N)ncnc54)c3)cc2n1
REMARK SMILES IDX 17 1 16 4 15 5 3 6 4 7 41 8 5 9 40 11 12 12 39 13 13 14
REMARK SMILES IDX 14 16 2 19 1 22 6 26 7 27 11 28 8 29 10 32 9 35 18 41 19 42
REMARK SMILES IDX 38 43 20 44 22 46 21 48 23 50 24 51 37 52 25 53 31 55 36 56
REMARK SMILES IDX 32 57 35 58 34 59 26 61 27 62 30 63 28 65 29 68 33 73
REMARK H PARENT 17 2 17 3 4 10 39 15 13 17 14 18 2 20 2 21 1 23 1 24 1 25 7 30
REMARK H PARENT 7 31 11 33 11 34 8 36 8 37 10 38 10 39 9 40 19 45 38 47 21 49
REMARK H PARENT 24 54 35 60 26 64 27 66 27 67 28 69 28 70 29 71 29 72 33 74
REMARK H PARENT 33 75
REMARK Flexibility Score: inf
ROOT
ATOM      1  C   UNL     1     -46.271  34.620  26.698  1.00  0.00     0.115 C 
ATOM      2  H   UNL     1     -45.332  34.421  27.227  1.00  0.00     0.076 H 
ATOM      3  H   UNL     1     -46.042  34.549  25.626  1.00  0.00     0.076 H 
ENDROOT
BRANCH   1   4
ATOM      4  O   UNL     1     -47.179  33.588  27.093  1.00  0.00    -0.489 OA
BRANCH   4   5
ATOM      5  C   UNL     1     -47.452  32.581  26.211  1.00  0.00     0.122 A 
ATOM      6  C   UNL     1     -46.450  31.084  21.808  1.00  0.00     0.043 A 
ATOM      7  C   UNL     1     -47.221  29.940  21.935  1.00  0.00    -0.016 A 
ATOM      8  N   UNL     1     -46.321  31.983  22.807  1.00  0.00    -0.253 NA
ATOM      9  C   UNL     1     -47.906  29.694  23.129  1.00  0.00     0.048 A 
ATOM     10  H   UNL     1     -47.295  29.233  21.116  1.00  0.00     0.066 H 
ATOM     11  C   UNL     1     -46.971  31.764  23.960  1.00  0.00     0.076 A 
ATOM     12  C   UNL     1     -47.786  30.634  24.187  1.00  0.00     0.024 A 
ATOM     13  C   UNL     1     -46.820  32.704  24.972  1.00  0.00     0.007 A 
ATOM     14  C   UNL     1     -48.417  30.513  25.449  1.00  0.00    -0.047 A 
ATOM     15  H   UNL     1     -46.185  33.567  24.783  1.00  0.00     0.069 H 
ATOM     16  C   UNL     1     -48.253  31.475  26.450  1.00  0.00    -0.019 A 
ATOM     17  H   UNL     1     -49.045  29.656  25.667  1.00  0.00     0.063 H 
ATOM     18  H   UNL     1     -48.752  31.310  27.399  1.00  0.00     0.066 H 
BRANCH   6  19
ATOM     19  C   UNL     1     -45.686  31.357  20.540  1.00  0.00    -0.013 C 
ATOM     20  H   UNL     1     -44.832  32.011  20.751  1.00  0.00     0.033 H 
ATOM     21  H   UNL     1     -45.271  30.415  20.160  1.00  0.00     0.033 H 
BRANCH  19  22
ATOM     22  C   UNL     1     -46.574  31.982  19.477  1.00  0.00    -0.060 C 
ATOM     23  H   UNL     1     -46.516  31.429  18.533  1.00  0.00     0.023 H 
ATOM     24  H   UNL     1     -46.282  33.019  19.277  1.00  0.00     0.023 H 
ATOM     25  H   UNL     1     -47.618  31.981  19.806  1.00  0.00     0.023 H 
ENDBRANCH  19  22
ENDBRANCH   6  19
BRANCH   9  26
ATOM     26  N   UNL     1     -48.665  28.517  23.173  1.00  0.00    -0.368 N 
ATOM     27  C   UNL     1     -50.114  28.674  22.977  1.00  0.00     0.030 C 
ATOM     28  C   UNL     1     -48.236  27.485  24.133  1.00  0.00     0.030 C 
ATOM     29  C   UNL     1     -50.760  27.279  22.813  1.00  0.00     0.013 C 
ATOM     30  H   UNL     1     -50.311  29.261  22.071  1.00  0.00     0.051 H 
ATOM     31  H   UNL     1     -50.579  29.198  23.820  1.00  0.00     0.051 H 
ATOM     32  C   UNL     1     -49.440  26.787  24.811  1.00  0.00     0.013 C 
ATOM     33  H   UNL     1     -47.656  26.736  23.581  1.00  0.00     0.051 H 
ATOM     34  H   UNL     1     -47.577  27.889  24.911  1.00  0.00     0.051 H 
ATOM     35  N   UNL     1     -50.494  26.309  23.897  1.00  0.00    -0.313 NA
ATOM     36  H   UNL     1     -50.396  26.841  21.874  1.00  0.00     0.045 H 
ATOM     37  H   UNL     1     -51.845  27.391  22.708  1.00  0.00     0.045 H 
ATOM     38  H   UNL     1     -49.903  27.479  25.524  1.00  0.00     0.045 H 
ATOM     39  H   UNL     1     -49.078  25.941  25.405  1.00  0.00     0.045 H 
ATOM     40  H   UNL     1     -50.182  25.439  23.465  1.00  0.00     0.122 HD
ENDBRANCH   9  26
ENDBRANCH   4   5
ENDBRANCH   1   4
BRANCH   1  41
ATOM     41  C   UNL     1     -46.720  36.006  27.086  1.00  0.00     0.010 A 
ATOM     42  C   UNL     1     -48.057  36.242  27.370  1.00  0.00     0.034 A 
ATOM     43  C   UNL     1     -45.849  37.106  27.126  1.00  0.00    -0.028 A 
ATOM     44  N   UNL     1     -48.555  37.450  27.703  1.00  0.00    -0.262 NA
ATOM     45  H   UNL     1     -48.795  35.445  27.339  1.00  0.00     0.084 H 
ATOM     46  C   UNL     1     -46.324  38.380  27.469  1.00  0.00     0.066 A 
ATOM     47  H   UNL     1     -44.807  36.936  26.868  1.00  0.00     0.065 H 
ATOM     48  C   UNL     1     -47.682  38.490  27.745  1.00  0.00     0.051 A 
ATOM     49  H   UNL     1     -48.156  39.418  28.041  1.00  0.00     0.086 H 
BRANCH  46  50
ATOM     50  N   UNL     1     -45.441  39.504  27.537  1.00  0.00    -0.299 N 
ATOM     51  C   UNL     1     -45.505  40.615  26.714  1.00  0.00     0.018 A 
ATOM     52  C   UNL     1     -44.375  39.707  28.413  1.00  0.00     0.150 A 
ATOM     53  C   UNL     1     -44.504  41.515  27.035  1.00  0.00     0.012 A 
ATOM     54  H   UNL     1     -46.243  40.697  25.928  1.00  0.00     0.083 H 
ATOM     55  C   UNL     1     -43.772  40.928  28.112  1.00  0.00     0.067 A 
ATOM     56  N   UNL     1     -43.993  38.885  29.411  1.00  0.00    -0.218 NA
ATOM     57  C   UNL     1     -42.668  41.299  28.899  1.00  0.00     0.136 A 
ATOM     58  C   UNL     1     -42.949  39.356  30.104  1.00  0.00     0.120 A 
ATOM     59  N   UNL     1     -42.272  40.497  29.901  1.00  0.00    -0.219 NA
ATOM     60  H   UNL     1     -42.604  38.738  30.927  1.00  0.00     0.106 H 
BRANCH  53  61
ATOM     61  C   UNL     1     -44.257  42.849  26.388  1.00  0.00     0.085 C 
ATOM     62  C   UNL     1     -45.038  43.039  25.092  1.00  0.00    -0.020 C 
ATOM     63  O   UNL     1     -42.863  43.012  26.044  1.00  0.00    -0.373 OA
ATOM     64  H   UNL     1     -44.496  43.642  27.104  1.00  0.00     0.066 H 
ATOM     65  C   UNL     1     -44.052  42.594  24.041  1.00  0.00    -0.027 C 
ATOM     66  H   UNL     1     -45.254  44.105  24.951  1.00  0.00     0.030 H 
ATOM     67  H   UNL     1     -45.987  42.496  25.048  1.00  0.00     0.030 H 
ATOM     68  C   UNL     1     -42.743  43.082  24.617  1.00  0.00     0.048 C 
ATOM     69  H   UNL     1     -44.258  43.000  23.047  1.00  0.00     0.029 H 
ATOM     70  H   UNL     1     -44.049  41.500  23.970  1.00  0.00     0.029 H 
ATOM     71  H   UNL     1     -42.557  44.127  24.348  1.00  0.00     0.057 H 
ATOM     72  H   UNL     1     -41.889  42.481  24.289  1.00  0.00     0.057 H 
ENDBRANCH  53  61
BRANCH  57  73
ATOM     73  N   UNL     1     -41.923  42.459  28.712  1.00  0.00    -0.383 N 
ATOM     74  H   UNL     1     -41.220  42.506  29.446  1.00  0.00     0.158 HD
ATOM     75  H   UNL     1     -41.536  42.535  27.780  1.00  0.00     0.158 HD
ENDBRANCH  57  73
ENDBRANCH  46  50
ENDBRANCH   1  41
TORSDOF 9
ENDMDL
MODEL 2
REMARK VINA RESULT:     -10.4      2.240     12.291
REMARK SMILES CCc1cc(N2CCNCC2)c2ccc(OCc3cncc(-n4cc([C@@H]5CCCO5)c5c(N)ncnc54)c3)cc2n1
REMARK SMILES IDX 17 1 16 4 15 5 3 6 4 7 41 8 5 9 40 11 12 12 39 13 13 14
REMARK SMILES IDX 14 16 2 19 1 22 6 26 7 27 11 28 8 29 10 32 9 35 18 41 19 42
REMARK SMILES IDX 38 43 20 44 22 46 21 48 23 50 24 51 37 52 25 53 31 55 36 56
REMARK SMILES IDX 32 57 35 58 34 59 26 61 27 62 30 63 28 65 29 68 33 73
REMARK H PARENT 17 2 17 3 4 10 39 15 13 17 14 18 2 20 2 21 1 23 1 24 1 25 7 30
REMARK H PARENT 7 31 11 33 11 34 8 36 8 37 10 38 10 39 9 40 19 45 38 47 21 49
REMARK H PARENT 24 54 35 60 26 64 27 66 27 67 28 69 28 70 29 71 29 72 33 74
REMARK H PARENT 33 75
REMARK Flexibility Score: inf
ROOT
ATOM      1  C   UNL     1     -46.088  35.551  27.363  1.00  0.00     0.115 C 
ATOM      2  H   UNL     1     -45.552  35.912  26.477  1.00  0.00     0.076 H 
ATOM      3  H   UNL     1     -45.364  34.961  27.941  1.00  0.00     0.076 H 
ENDROOT
BRANCH   1   4
ATOM      4  O   UNL     1     -46.490  36.715  28.089  1.00  0.00    -0.489 OA
BRANCH   4   5
ATOM      5  C   UNL     1     -46.153  37.945  27.598  1.00  0.00     0.122 A 
ATOM      6  C   UNL     1     -43.023  41.480  28.179  1.00  0.00     0.043 A 
ATOM      7  C   UNL     1     -43.554  42.228  27.141  1.00  0.00    -0.016 A 
ATOM      8  N   UNL     1     -43.520  40.274  28.529  1.00  0.00    -0.253 NA
ATOM      9  C   UNL     1     -44.649  41.739  26.423  1.00  0.00     0.048 A 
ATOM     10  H   UNL     1     -43.124  43.189  26.880  1.00  0.00     0.066 H 
ATOM     11  C   UNL     1     -44.571  39.789  27.851  1.00  0.00     0.076 A 
ATOM     12  C   UNL     1     -45.188  40.475  26.782  1.00  0.00     0.024 A 
ATOM     13  C   UNL     1     -45.062  38.546  28.230  1.00  0.00     0.007 A 
ATOM     14  C   UNL     1     -46.289  39.856  26.143  1.00  0.00    -0.047 A 
ATOM     15  H   UNL     1     -44.573  38.027  29.052  1.00  0.00     0.069 H 
ATOM     16  C   UNL     1     -46.768  38.606  26.545  1.00  0.00    -0.019 A 
ATOM     17  H   UNL     1     -46.787  40.346  25.312  1.00  0.00     0.063 H 
ATOM     18  H   UNL     1     -47.604  38.182  26.000  1.00  0.00     0.066 H 
BRANCH   6  19
ATOM     19  C   UNL     1     -41.829  41.977  28.950  1.00  0.00    -0.013 C 
ATOM     20  H   UNL     1     -40.971  42.091  28.278  1.00  0.00     0.033 H 
ATOM     21  H   UNL     1     -42.048  42.975  29.348  1.00  0.00     0.033 H 
BRANCH  19  22
ATOM     22  C   UNL     1     -41.477  41.043  30.096  1.00  0.00    -0.060 C 
ATOM     23  H   UNL     1     -42.106  40.146  30.088  1.00  0.00     0.023 H 
ATOM     24  H   UNL     1     -41.608  41.537  31.065  1.00  0.00     0.023 H 
ATOM     25  H   UNL     1     -40.432  40.723  30.017  1.00  0.00     0.023 H 
ENDBRANCH  19  22
ENDBRANCH   6  19
BRANCH   9  26
ATOM     26  N   UNL     1     -45.126  42.559  25.392  1.00  0.00    -0.368 N 
ATOM     27  C   UNL     1     -44.110  43.113  24.483  1.00  0.00     0.030 C 
ATOM     28  C   UNL     1     -46.270  43.430  25.711  1.00  0.00     0.030 C 
ATOM     29  C   UNL     1     -44.813  43.783  23.280  1.00  0.00     0.013 C 
ATOM     30  H   UNL     1     -43.462  42.310  24.109  1.00  0.00     0.051 H 
ATOM     31  H   UNL     1     -43.472  43.845  24.991  1.00  0.00     0.051 H 
ATOM     32  C   UNL     1     -46.142  44.823  25.048  1.00  0.00     0.013 C 
ATOM     33  H   UNL     1     -47.177  42.941  25.335  1.00  0.00     0.051 H 
ATOM     34  H   UNL     1     -46.404  43.564  26.791  1.00  0.00     0.051 H 
ATOM     35  N   UNL     1     -45.819  44.816  23.610  1.00  0.00    -0.313 NA
ATOM     36  H   UNL     1     -45.314  43.000  22.697  1.00  0.00     0.045 H 
ATOM     37  H   UNL     1     -44.060  44.231  22.623  1.00  0.00     0.045 H 
ATOM     38  H   UNL     1     -45.364  45.397  25.564  1.00  0.00     0.045 H 
ATOM     39  H   UNL     1     -47.074  45.380  25.196  1.00  0.00     0.045 H 
ATOM     40  H   UNL     1     -46.667  44.600  23.085  1.00  0.00     0.122 HD
ENDBRANCH   9  26
ENDBRANCH   4   5
ENDBRANCH   1   4
BRANCH   1  41
ATOM     41  C   UNL     1     -47.239  34.708  26.877  1.00  0.00     0.010 A 
ATOM     42  C   UNL     1     -48.542  35.148  27.068  1.00  0.00     0.034 A 
ATOM     43  C   UNL     1     -47.065  33.452  26.276  1.00  0.00    -0.028 A 
ATOM     44  N   UNL     1     -49.634  34.454  26.690  1.00  0.00    -0.262 NA
ATOM     45  H   UNL     1     -48.757  36.100  27.545  1.00  0.00     0.084 H 
ATOM     46  C   UNL     1     -48.173  32.698  25.866  1.00  0.00     0.066 A 
ATOM     47  H   UNL     1     -46.049  33.084  26.158  1.00  0.00     0.065 H 
ATOM     48  C   UNL     1     -49.428  33.248  26.099  1.00  0.00     0.051 A 
ATOM     49  H   UNL     1     -50.354  32.766  25.806  1.00  0.00     0.086 H 
BRANCH  46  50
ATOM     50  N   UNL     1     -48.007  31.426  25.230  1.00  0.00    -0.299 N 
ATOM     51  C   UNL     1     -48.578  30.241  25.663  1.00  0.00     0.018 A 
ATOM     52  C   UNL     1     -47.266  31.128  24.087  1.00  0.00     0.150 A 
ATOM     53  C   UNL     1     -48.213  29.197  24.832  1.00  0.00     0.012 A 
ATOM     54  H   UNL     1     -49.193  30.199  26.551  1.00  0.00     0.083 H 
ATOM     55  C   UNL     1     -47.362  29.761  23.833  1.00  0.00     0.067 A 
ATOM     56  N   UNL     1     -46.587  32.007  23.323  1.00  0.00    -0.218 NA
ATOM     57  C   UNL     1     -46.669  29.276  22.710  1.00  0.00     0.136 A 
ATOM     58  C   UNL     1     -45.990  31.433  22.272  1.00  0.00     0.120 A 
ATOM     59  N   UNL     1     -45.989  30.135  21.932  1.00  0.00    -0.219 NA
ATOM     60  H   UNL     1     -45.436  32.097  21.615  1.00  0.00     0.106 H 
BRANCH  53  61
ATOM     61  C   UNL     1     -48.646  27.762  24.954  1.00  0.00     0.085 C 
ATOM     62  C   UNL     1     -49.216  27.424  26.327  1.00  0.00    -0.020 C 
ATOM     63  O   UNL     1     -47.534  26.862  24.748  1.00  0.00    -0.373 OA
ATOM     64  H   UNL     1     -49.375  27.542  24.168  1.00  0.00     0.066 H 
ATOM     65  C   UNL     1     -48.012  26.893  27.065  1.00  0.00    -0.027 C 
ATOM     66  H   UNL     1     -49.955  26.620  26.227  1.00  0.00     0.030 H 
ATOM     67  H   UNL     1     -49.698  28.261  26.840  1.00  0.00     0.030 H 
ATOM     68  C   UNL     1     -47.275  26.158  25.970  1.00  0.00     0.048 C 
ATOM     69  H   UNL     1     -48.265  26.251  27.913  1.00  0.00     0.029 H 
ATOM     70  H   UNL     1     -47.403  27.726  27.437  1.00  0.00     0.029 H 
ATOM     71  H   UNL     1     -47.654  25.137  25.854  1.00  0.00     0.057 H 
ATOM     72  H   UNL     1     -46.196  26.111  26.146  1.00  0.00     0.057 H 
ENDBRANCH  53  61
BRANCH  57  73
ATOM     73  N   UNL     1     -46.621  27.937  22.332  1.00  0.00    -0.383 N 
ATOM     74  H   UNL     1     -46.028  27.861  21.510  1.00  0.00     0.158 HD
ATOM     75  H   UNL     1     -46.342  27.323  23.087  1.00  0.00     0.158 HD
ENDBRANCH  57  73
ENDBRANCH  46  50
ENDBRANCH   1  41
TORSDOF 9
ENDMDL
MODEL 3
REMARK VINA RESULT:     -10.1      1.436      1.922
REMARK SMILES CCc1cc(N2CCNCC2)c2ccc(OCc3cncc(-n4cc([C@@H]5CCCO5)c5c(N)ncnc54)c3)cc2n1
REMARK SMILES IDX 17 1 16 4 15 5 3 6 4 7 41 8 5 9 40 11 12 12 39 13 13 14
REMARK SMILES IDX 14 16 2 19 1 22 6 26 7 27 11 28 8 29 10 32 9 35 18 41 19 42
REMARK SMILES IDX 38 43 20 44 22 46 21 48 23 50 24 51 37 52 25 53 31 55 36 56
REMARK SMILES IDX 32 57 35 58 34 59 26 61 27 62 30 63 28 65 29 68 33 73
REMARK H PARENT 17 2 17 3 4 10 39 15 13 17 14 18 2 20 2 21 1 23 1 24 1 25 7 30
REMARK H PARENT 7 31 11 33 11 34 8 36 8 37 10 38 10 39 9 40 19 45 38 47 21 49
REMARK H PARENT 24 54 35 60 26 64 27 66 27 67 28 69 28 70 29 71 29 72 33 74
REMARK H PARENT 33 75
REMARK Flexibility Score: inf
ROOT
ATOM      1  C   UNL     1     -46.878  34.666  26.898  1.00  0.00     0.115 C 
ATOM      2  H   UNL     1     -46.135  34.287  27.610  1.00  0.00     0.076 H 
ATOM      3  H   UNL     1     -46.429  34.564  25.901  1.00  0.00     0.076 H 
ENDROOT
BRANCH   1   4
ATOM      4  O   UNL     1     -48.024  33.820  27.028  1.00  0.00    -0.489 OA
BRANCH   4   5
ATOM      5  C   UNL     1     -48.356  32.999  25.986  1.00  0.00     0.122 A 
ATOM      6  C   UNL     1     -46.420  30.307  22.575  1.00  0.00     0.043 A 
ATOM      7  C   UNL     1     -47.651  29.884  22.100  1.00  0.00    -0.016 A 
ATOM      8  N   UNL     1     -46.301  31.151  23.623  1.00  0.00    -0.253 NA
ATOM      9  C   UNL     1     -48.824  30.341  22.707  1.00  0.00     0.048 A 
ATOM     10  H   UNL     1     -47.710  29.197  21.262  1.00  0.00     0.066 H 
ATOM     11  C   UNL     1     -47.416  31.601  24.218  1.00  0.00     0.076 A 
ATOM     12  C   UNL     1     -48.716  31.234  23.806  1.00  0.00     0.024 A 
ATOM     13  C   UNL     1     -47.267  32.466  25.294  1.00  0.00     0.007 A 
ATOM     14  C   UNL     1     -49.815  31.774  24.518  1.00  0.00    -0.047 A 
ATOM     15  H   UNL     1     -46.258  32.735  25.603  1.00  0.00     0.069 H 
ATOM     16  C   UNL     1     -49.639  32.647  25.595  1.00  0.00    -0.019 A 
ATOM     17  H   UNL     1     -50.831  31.512  24.239  1.00  0.00     0.063 H 
ATOM     18  H   UNL     1     -50.524  33.008  26.106  1.00  0.00     0.066 H 
BRANCH   6  19
ATOM     19  C   UNL     1     -45.144  29.808  21.951  1.00  0.00    -0.013 C 
ATOM     20  H   UNL     1     -45.298  29.622  20.882  1.00  0.00     0.033 H 
ATOM     21  H   UNL     1     -44.378  30.590  22.024  1.00  0.00     0.033 H 
BRANCH  19  22
ATOM     22  C   UNL     1     -44.644  28.546  22.636  1.00  0.00    -0.060 C 
ATOM     23  H   UNL     1     -45.127  27.652  22.227  1.00  0.00     0.023 H 
ATOM     24  H   UNL     1     -44.844  28.574  23.713  1.00  0.00     0.023 H 
ATOM     25  H   UNL     1     -43.563  28.442  22.494  1.00  0.00     0.023 H 
ENDBRANCH  19  22
ENDBRANCH   6  19
BRANCH   9  26
ATOM     26  N   UNL     1     -50.025  29.867  22.163  1.00  0.00    -0.368 N 
ATOM     27  C   UNL     1     -50.491  28.564  22.662  1.00  0.00     0.030 C 
ATOM     28  C   UNL     1     -50.268  30.153  20.738  1.00  0.00     0.030 C 
ATOM     29  C   UNL     1     -51.927  28.306  22.150  1.00  0.00     0.013 C 
ATOM     30  H   UNL     1     -50.504  28.564  23.759  1.00  0.00     0.051 H 
ATOM     31  H   UNL     1     -49.833  27.750  22.338  1.00  0.00     0.051 H 
ATOM     32  C   UNL     1     -50.937  28.961  20.013  1.00  0.00     0.013 C 
ATOM     33  H   UNL     1     -50.933  31.022  20.681  1.00  0.00     0.051 H 
ATOM     34  H   UNL     1     -49.348  30.420  20.204  1.00  0.00     0.051 H 
ATOM     35  N   UNL     1     -52.118  28.389  20.686  1.00  0.00    -0.313 NA
ATOM     36  H   UNL     1     -52.595  29.042  22.618  1.00  0.00     0.045 H 
ATOM     37  H   UNL     1     -52.261  27.319  22.487  1.00  0.00     0.045 H 
ATOM     38  H   UNL     1     -50.202  28.157  19.885  1.00  0.00     0.045 H 
ATOM     39  H   UNL     1     -51.224  29.269  19.001  1.00  0.00     0.045 H 
ATOM     40  H   UNL     1     -52.919  28.996  20.512  1.00  0.00     0.122 HD
ENDBRANCH   9  26
ENDBRANCH   4   5
ENDBRANCH   1   4
BRANCH   1  41
ATOM     41  C   UNL     1     -47.143  36.107  27.251  1.00  0.00     0.010 A 
ATOM     42  C   UNL     1     -48.429  36.508  27.589  1.00  0.00     0.034 A 
ATOM     43  C   UNL     1     -46.151  37.098  27.205  1.00  0.00    -0.028 A 
ATOM     44  N   UNL     1     -48.766  37.776  27.896  1.00  0.00    -0.262 NA
ATOM     45  H   UNL     1     -49.254  35.801  27.625  1.00  0.00     0.084 H 
ATOM     46  C   UNL     1     -46.458  38.430  27.518  1.00  0.00     0.066 A 
ATOM     47  H   UNL     1     -45.151  36.799  26.904  1.00  0.00     0.065 H 
ATOM     48  C   UNL     1     -47.778  38.707  27.854  1.00  0.00     0.051 A 
ATOM     49  H   UNL     1     -48.126  39.694  28.135  1.00  0.00     0.086 H 
BRANCH  46  50
ATOM     50  N   UNL     1     -45.449  39.445  27.499  1.00  0.00    -0.299 N 
ATOM     51  C   UNL     1     -45.336  40.433  26.536  1.00  0.00     0.018 A 
ATOM     52  C   UNL     1     -44.412  39.643  28.410  1.00  0.00     0.150 A 
ATOM     53  C   UNL     1     -44.250  41.248  26.804  1.00  0.00     0.012 A 
ATOM     54  H   UNL     1     -46.017  40.491  25.699  1.00  0.00     0.083 H 
ATOM     55  C   UNL     1     -43.651  40.734  27.994  1.00  0.00     0.067 A 
ATOM     56  N   UNL     1     -44.185  38.927  29.529  1.00  0.00    -0.218 NA
ATOM     57  C   UNL     1     -42.551  41.081  28.799  1.00  0.00     0.136 A 
ATOM     58  C   UNL     1     -43.127  39.366  30.224  1.00  0.00     0.120 A 
ATOM     59  N   UNL     1     -42.308  40.384  29.921  1.00  0.00    -0.219 NA
ATOM     60  H   UNL     1     -42.903  38.831  31.141  1.00  0.00     0.106 H 
BRANCH  53  61
ATOM     61  C   UNL     1     -43.809  42.444  26.008  1.00  0.00     0.085 C 
ATOM     62  C   UNL     1     -44.106  43.769  26.704  1.00  0.00    -0.020 C 
ATOM     63  O   UNL     1     -44.486  42.502  24.733  1.00  0.00    -0.373 OA
ATOM     64  H   UNL     1     -42.741  42.354  25.790  1.00  0.00     0.066 H 
ATOM     65  C   UNL     1     -45.445  44.154  26.127  1.00  0.00    -0.027 C 
ATOM     66  H   UNL     1     -43.360  44.514  26.402  1.00  0.00     0.030 H 
ATOM     67  H   UNL     1     -44.108  43.719  27.797  1.00  0.00     0.030 H 
ATOM     68  C   UNL     1     -45.323  43.665  24.703  1.00  0.00     0.048 C 
ATOM     69  H   UNL     1     -45.659  45.224  26.193  1.00  0.00     0.029 H 
ATOM     70  H   UNL     1     -46.246  43.613  26.645  1.00  0.00     0.029 H 
ATOM     71  H   UNL     1     -44.835  44.412  24.068  1.00  0.00     0.057 H 
ATOM     72  H   UNL     1     -46.291  43.411  24.260  1.00  0.00     0.057 H 
ENDBRANCH  53  61
BRANCH  57  73
ATOM     73  N   UNL     1     -41.661  42.112  28.513  1.00  0.00    -0.383 N 
ATOM     74  H   UNL     1     -41.918  42.512  27.614  1.00  0.00     0.158 HD
ATOM     75  H   UNL     1     -41.600  42.798  29.254  1.00  0.00     0.158 HD
ENDBRANCH  57  73
ENDBRANCH  46  50
ENDBRANCH   1  41
TORSDOF 9
ENDMDL
MODEL 4
REMARK VINA RESULT:     -10.0      2.502     12.505
REMARK SMILES CCc1cc(N2CCNCC2)c2ccc(OCc3cncc(-n4cc([C@@H]5CCCO5)c5c(N)ncnc54)c3)cc2n1
REMARK SMILES IDX 17 1 16 4 15 5 3 6 4 7 41 8 5 9 40 11 12 12 39 13 13 14
REMARK SMILES IDX 14 16 2 19 1 22 6 26 7 27 11 28 8 29 10 32 9 35 18 41 19 42
REMARK SMILES IDX 38 43 20 44 22 46 21 48 23 50 24 51 37 52 25 53 31 55 36 56
REMARK SMILES IDX 32 57 35 58 34 59 26 61 27 62 30 63 28 65 29 68 33 73
REMARK H PARENT 17 2 17 3 4 10 39 15 13 17 14 18 2 20 2 21 1 23 1 24 1 25 7 30
REMARK H PARENT 7 31 11 33 11 34 8 36 8 37 10 38 10 39 9 40 19 45 38 47 21 49
REMARK H PARENT 24 54 35 60 26 64 27 66 27 67 28 69 28 70 29 71 29 72 33 74
REMARK H PARENT 33 75
REMARK Flexibility Score: inf
ROOT
ATOM      1  C   UNL     1     -48.576  35.117  26.986  1.00  0.00     0.115 C 
ATOM      2  H   UNL     1     -49.517  34.729  27.394  1.00  0.00     0.076 H 
ATOM      3  H   UNL     1     -48.841  35.993  26.379  1.00  0.00     0.076 H 
ENDROOT
BRANCH   1   4
ATOM      4  O   UNL     1     -47.780  35.500  28.110  1.00  0.00    -0.489 OA
BRANCH   4   5
ATOM      5  C   UNL     1     -46.949  36.579  27.990  1.00  0.00     0.122 A 
ATOM      6  C   UNL     1     -46.932  41.172  26.752  1.00  0.00     0.043 A 
ATOM      7  C   UNL     1     -45.584  41.324  27.033  1.00  0.00    -0.016 A 
ATOM      8  N   UNL     1     -47.577  39.997  26.921  1.00  0.00    -0.253 NA
ATOM      9  C   UNL     1     -44.844  40.234  27.499  1.00  0.00     0.048 A 
ATOM     10  H   UNL     1     -45.099  42.286  26.895  1.00  0.00     0.066 H 
ATOM     11  C   UNL     1     -46.883  38.940  27.369  1.00  0.00     0.076 A 
ATOM     12  C   UNL     1     -45.506  38.990  27.676  1.00  0.00     0.024 A 
ATOM     13  C   UNL     1     -47.570  37.744  27.535  1.00  0.00     0.007 A 
ATOM     14  C   UNL     1     -44.886  37.806  28.144  1.00  0.00    -0.047 A 
ATOM     15  H   UNL     1     -48.632  37.722  27.298  1.00  0.00     0.069 H 
ATOM     16  C   UNL     1     -45.598  36.613  28.300  1.00  0.00    -0.019 A 
ATOM     17  H   UNL     1     -43.831  37.804  28.400  1.00  0.00     0.063 H 
ATOM     18  H   UNL     1     -45.065  35.749  28.680  1.00  0.00     0.066 H 
BRANCH   6  19
ATOM     19  C   UNL     1     -47.752  42.338  26.271  1.00  0.00    -0.013 C 
ATOM     20  H   UNL     1     -48.270  42.074  25.342  1.00  0.00     0.033 H 
ATOM     21  H   UNL     1     -48.531  42.560  27.010  1.00  0.00     0.033 H 
BRANCH  19  22
ATOM     22  C   UNL     1     -46.893  43.575  26.057  1.00  0.00    -0.060 C 
ATOM     23  H   UNL     1     -45.833  43.358  26.226  1.00  0.00     0.023 H 
ATOM     24  H   UNL     1     -47.184  44.382  26.737  1.00  0.00     0.023 H 
ATOM     25  H   UNL     1     -47.004  43.939  25.030  1.00  0.00     0.023 H 
ENDBRANCH  19  22
ENDBRANCH   6  19
BRANCH   9  26
ATOM     26  N   UNL     1     -43.487  40.474  27.755  1.00  0.00    -0.368 N 
ATOM     27  C   UNL     1     -43.137  40.787  29.149  1.00  0.00     0.030 C 
ATOM     28  C   UNL     1     -42.729  41.183  26.710  1.00  0.00     0.030 C 
ATOM     29  C   UNL     1     -41.599  40.783  29.302  1.00  0.00     0.013 C 
ATOM     30  H   UNL     1     -43.559  40.029  29.822  1.00  0.00     0.051 H 
ATOM     31  H   UNL     1     -43.534  41.761  29.455  1.00  0.00     0.051 H 
ATOM     32  C   UNL     1     -41.720  42.192  27.308  1.00  0.00     0.013 C 
ATOM     33  H   UNL     1     -42.179  40.432  26.129  1.00  0.00     0.051 H 
ATOM     34  H   UNL     1     -43.384  41.712  26.007  1.00  0.00     0.051 H 
ATOM     35  N   UNL     1     -40.853  41.666  28.379  1.00  0.00    -0.313 NA
ATOM     36  H   UNL     1     -41.242  39.756  29.146  1.00  0.00     0.045 H 
ATOM     37  H   UNL     1     -41.335  41.055  30.329  1.00  0.00     0.045 H 
ATOM     38  H   UNL     1     -42.266  43.052  27.711  1.00  0.00     0.045 H 
ATOM     39  H   UNL     1     -41.087  42.587  26.505  1.00  0.00     0.045 H 
ATOM     40  H   UNL     1     -40.109  41.112  27.954  1.00  0.00     0.122 HD
ENDBRANCH   9  26
ENDBRANCH   4   5
ENDBRANCH   1   4
BRANCH   1  41
ATOM     41  C   UNL     1     -47.964  34.020  26.152  1.00  0.00     0.010 A 
ATOM     42  C   UNL     1     -46.709  34.204  25.588  1.00  0.00     0.034 A 
ATOM     43  C   UNL     1     -48.628  32.818  25.866  1.00  0.00    -0.028 A 
ATOM     44  N   UNL     1     -46.092  33.292  24.811  1.00  0.00    -0.262 NA
ATOM     45  H   UNL     1     -46.142  35.118  25.746  1.00  0.00     0.084 H 
ATOM     46  C   UNL     1     -48.022  31.842  25.063  1.00  0.00     0.066 A 
ATOM     47  H   UNL     1     -49.627  32.683  26.273  1.00  0.00     0.065 H 
ATOM     48  C   UNL     1     -46.758  32.134  24.565  1.00  0.00     0.051 A 
ATOM     49  H   UNL     1     -46.185  31.448  23.953  1.00  0.00     0.086 H 
BRANCH  46  50
ATOM     50  N   UNL     1     -48.680  30.601  24.785  1.00  0.00    -0.299 N 
ATOM     51  C   UNL     1     -48.126  29.348  24.977  1.00  0.00     0.018 A 
ATOM     52  C   UNL     1     -49.966  30.405  24.282  1.00  0.00     0.150 A 
ATOM     53  C   UNL     1     -49.019  28.360  24.602  1.00  0.00     0.012 A 
ATOM     54  H   UNL     1     -47.118  29.224  25.348  1.00  0.00     0.083 H 
ATOM     55  C   UNL     1     -50.191  29.036  24.143  1.00  0.00     0.067 A 
ATOM     56  N   UNL     1     -50.868  31.366  23.998  1.00  0.00    -0.218 NA
ATOM     57  C   UNL     1     -51.446  28.648  23.642  1.00  0.00     0.136 A 
ATOM     58  C   UNL     1     -52.031  30.874  23.552  1.00  0.00     0.120 A 
ATOM     59  N   UNL     1     -52.362  29.589  23.357  1.00  0.00    -0.219 NA
ATOM     60  H   UNL     1     -52.800  31.605  23.317  1.00  0.00     0.106 H 
BRANCH  53  61
ATOM     61  C   UNL     1     -48.800  26.875  24.683  1.00  0.00     0.085 C 
ATOM     62  C   UNL     1     -49.370  26.255  25.954  1.00  0.00    -0.020 C 
ATOM     63  O   UNL     1     -47.391  26.554  24.678  1.00  0.00    -0.373 OA
ATOM     64  H   UNL     1     -49.231  26.402  23.795  1.00  0.00     0.066 H 
ATOM     65  C   UNL     1     -48.185  26.259  26.887  1.00  0.00    -0.027 C 
ATOM     66  H   UNL     1     -49.663  25.217  25.753  1.00  0.00     0.030 H 
ATOM     67  H   UNL     1     -50.241  26.775  26.365  1.00  0.00     0.030 H 
ATOM     68  C   UNL     1     -47.044  25.970  25.940  1.00  0.00     0.048 C 
ATOM     69  H   UNL     1     -48.262  25.528  27.697  1.00  0.00     0.029 H 
ATOM     70  H   UNL     1     -48.063  27.253  27.334  1.00  0.00     0.029 H 
ATOM     71  H   UNL     1     -46.919  24.893  25.787  1.00  0.00     0.057 H 
ATOM     72  H   UNL     1     -46.092  26.384  26.288  1.00  0.00     0.057 H 
ENDBRANCH  53  61
BRANCH  57  73
ATOM     73  N   UNL     1     -51.825  27.331  23.402  1.00  0.00    -0.383 N 
ATOM     74  H   UNL     1     -51.429  26.749  24.135  1.00  0.00     0.158 HD
ATOM     75  H   UNL     1     -52.825  27.220  23.296  1.00  0.00     0.158 HD
ENDBRANCH  57  73
ENDBRANCH  46  50
ENDBRANCH   1  41
TORSDOF 9
ENDMDL
MODEL 5
REMARK VINA RESULT:      -9.9      1.796      2.833
REMARK SMILES CCc1cc(N2CCNCC2)c2ccc(OCc3cncc(-n4cc([C@@H]5CCCO5)c5c(N)ncnc54)c3)cc2n1
REMARK SMILES IDX 17 1 16 4 15 5 3 6 4 7 41 8 5 9 40 11 12 12 39 13 13 14
REMARK SMILES IDX 14 16 2 19 1 22 6 26 7 27 11 28 8 29 10 32 9 35 18 41 19 42
REMARK SMILES IDX 38 43 20 44 22 46 21 48 23 50 24 51 37 52 25 53 31 55 36 56
REMARK SMILES IDX 32 57 35 58 34 59 26 61 27 62 30 63 28 65 29 68 33 73
REMARK H PARENT 17 2 17 3 4 10 39 15 13 17 14 18 2 20 2 21 1 23 1 24 1 25 7 30
REMARK H PARENT 7 31 11 33 11 34 8 36 8 37 10 38 10 39 9 40 19 45 38 47 21 49
REMARK H PARENT 24 54 35 60 26 64 27 66 27 67 28 69 28 70 29 71 29 72 33 74
REMARK H PARENT 33 75
REMARK Flexibility Score: inf
ROOT
ATOM      1  C   UNL     1     -46.228  34.519  26.752  1.00  0.00     0.115 C 
ATOM      2  H   UNL     1     -45.326  33.952  27.013  1.00  0.00     0.076 H 
ATOM      3  H   UNL     1     -46.147  34.750  25.682  1.00  0.00     0.076 H 
ENDROOT
BRANCH   1   4
ATOM      4  O   UNL     1     -47.334  33.647  27.002  1.00  0.00    -0.489 OA
BRANCH   4   5
ATOM      5  C   UNL     1     -47.558  32.608  26.142  1.00  0.00     0.122 A 
ATOM      6  C   UNL     1     -46.402  31.015  21.811  1.00  0.00     0.043 A 
ATOM      7  C   UNL     1     -47.148  29.856  21.951  1.00  0.00    -0.016 A 
ATOM      8  N   UNL     1     -46.322  31.945  22.787  1.00  0.00    -0.253 NA
ATOM      9  C   UNL     1     -47.857  29.626  23.133  1.00  0.00     0.048 A 
ATOM     10  H   UNL     1     -47.182  29.125  21.150  1.00  0.00     0.066 H 
ATOM     11  C   UNL     1     -46.997  31.742  23.928  1.00  0.00     0.076 A 
ATOM     12  C   UNL     1     -47.789  30.597  24.166  1.00  0.00     0.024 A 
ATOM     13  C   UNL     1     -46.897  32.713  24.916  1.00  0.00     0.007 A 
ATOM     14  C   UNL     1     -48.450  30.496  25.414  1.00  0.00    -0.047 A 
ATOM     15  H   UNL     1     -46.278  33.587  24.720  1.00  0.00     0.069 H 
ATOM     16  C   UNL     1     -48.337  31.489  26.392  1.00  0.00    -0.019 A 
ATOM     17  H   UNL     1     -49.062  29.629  25.641  1.00  0.00     0.063 H 
ATOM     18  H   UNL     1     -48.857  31.338  27.332  1.00  0.00     0.066 H 
BRANCH   6  19
ATOM     19  C   UNL     1     -45.612  31.272  20.556  1.00  0.00    -0.013 C 
ATOM     20  H   UNL     1     -44.672  31.779  20.803  1.00  0.00     0.033 H 
ATOM     21  H   UNL     1     -45.338  30.313  20.100  1.00  0.00     0.033 H 
BRANCH  19  22
ATOM     22  C   UNL     1     -46.405  32.098  19.556  1.00  0.00    -0.060 C 
ATOM     23  H   UNL     1     -47.061  32.815  20.062  1.00  0.00     0.023 H 
ATOM     24  H   UNL     1     -47.030  31.460  18.921  1.00  0.00     0.023 H 
ATOM     25  H   UNL     1     -45.725  32.661  18.906  1.00  0.00     0.023 H 
ENDBRANCH  19  22
ENDBRANCH   6  19
BRANCH   9  26
ATOM     26  N   UNL     1     -48.587  28.431  23.190  1.00  0.00    -0.368 N 
ATOM     27  C   UNL     1     -50.032  28.543  22.938  1.00  0.00     0.030 C 
ATOM     28  C   UNL     1     -48.169  27.445  24.201  1.00  0.00     0.030 C 
ATOM     29  C   UNL     1     -50.636  27.127  22.800  1.00  0.00     0.013 C 
ATOM     30  H   UNL     1     -50.210  29.093  22.005  1.00  0.00     0.051 H 
ATOM     31  H   UNL     1     -50.541  29.083  23.744  1.00  0.00     0.051 H 
ATOM     32  C   UNL     1     -49.378  26.739  24.859  1.00  0.00     0.013 C 
ATOM     33  H   UNL     1     -47.549  26.693  23.697  1.00  0.00     0.051 H 
ATOM     34  H   UNL     1     -47.549  27.892  24.988  1.00  0.00     0.051 H 
ATOM     35  N   UNL     1     -50.386  26.202  23.926  1.00  0.00    -0.313 NA
ATOM     36  H   UNL     1     -50.227  26.667  21.890  1.00  0.00     0.045 H 
ATOM     37  H   UNL     1     -51.719  27.207  22.652  1.00  0.00     0.045 H 
ATOM     38  H   UNL     1     -49.884  27.442  25.531  1.00  0.00     0.045 H 
ATOM     39  H   UNL     1     -49.017  25.923  25.495  1.00  0.00     0.045 H 
ATOM     40  H   UNL     1     -50.036  25.326  23.536  1.00  0.00     0.122 HD
ENDBRANCH   9  26
ENDBRANCH   4   5
ENDBRANCH   1   4
BRANCH   1  41
ATOM     41  C   UNL     1     -46.234  35.766  27.598  1.00  0.00     0.010 A 
ATOM     42  C   UNL     1     -46.090  35.665  28.975  1.00  0.00     0.034 A 
ATOM     43  C   UNL     1     -46.433  37.048  27.064  1.00  0.00    -0.028 A 
ATOM     44  N   UNL     1     -46.106  36.720  29.813  1.00  0.00    -0.262 NA
ATOM     45  H   UNL     1     -45.953  34.704  29.464  1.00  0.00     0.084 H 
ATOM     46  C   UNL     1     -46.456  38.174  27.900  1.00  0.00     0.066 A 
ATOM     47  H   UNL     1     -46.585  37.132  25.991  1.00  0.00     0.065 H 
ATOM     48  C   UNL     1     -46.288  37.948  29.261  1.00  0.00     0.051 A 
ATOM     49  H   UNL     1     -46.266  38.742  29.999  1.00  0.00     0.086 H 
BRANCH  46  50
ATOM     50  N   UNL     1     -46.634  39.489  27.365  1.00  0.00    -0.299 N 
ATOM     51  C   UNL     1     -45.646  40.235  26.746  1.00  0.00     0.018 A 
ATOM     52  C   UNL     1     -47.795  40.262  27.354  1.00  0.00     0.150 A 
ATOM     53  C   UNL     1     -46.143  41.465  26.351  1.00  0.00     0.012 A 
ATOM     54  H   UNL     1     -44.636  39.863  26.642  1.00  0.00     0.083 H 
ATOM     55  C   UNL     1     -47.514  41.488  26.753  1.00  0.00     0.067 A 
ATOM     56  N   UNL     1     -49.006  39.892  27.816  1.00  0.00    -0.218 NA
ATOM     57  C   UNL     1     -48.576  42.404  26.656  1.00  0.00     0.136 A 
ATOM     58  C   UNL     1     -49.940  40.835  27.648  1.00  0.00     0.120 A 
ATOM     59  N   UNL     1     -49.792  42.054  27.107  1.00  0.00    -0.219 NA
ATOM     60  H   UNL     1     -50.939  40.587  27.994  1.00  0.00     0.106 H 
BRANCH  53  61
ATOM     61  C   UNL     1     -45.390  42.545  25.627  1.00  0.00     0.085 C 
ATOM     62  C   UNL     1     -43.911  42.222  25.442  1.00  0.00    -0.020 C 
ATOM     63  O   UNL     1     -45.439  43.793  26.354  1.00  0.00    -0.373 OA
ATOM     64  H   UNL     1     -45.869  42.728  24.661  1.00  0.00     0.066 H 
ATOM     65  C   UNL     1     -43.273  42.884  26.638  1.00  0.00    -0.027 C 
ATOM     66  H   UNL     1     -43.544  42.706  24.529  1.00  0.00     0.030 H 
ATOM     67  H   UNL     1     -43.683  41.154  25.371  1.00  0.00     0.030 H 
ATOM     68  C   UNL     1     -44.115  44.129  26.790  1.00  0.00     0.048 C 
ATOM     69  H   UNL     1     -42.210  43.101  26.504  1.00  0.00     0.029 H 
ATOM     70  H   UNL     1     -43.382  42.245  27.523  1.00  0.00     0.029 H 
ATOM     71  H   UNL     1     -43.747  44.936  26.147  1.00  0.00     0.057 H 
ATOM     72  H   UNL     1     -44.147  44.494  27.821  1.00  0.00     0.057 H 
ENDBRANCH  53  61
BRANCH  57  73
ATOM     73  N   UNL     1     -48.464  43.685  26.125  1.00  0.00    -0.383 N 
ATOM     74  H   UNL     1     -47.480  43.872  25.953  1.00  0.00     0.158 HD
ATOM     75  H   UNL     1     -49.049  43.829  25.312  1.00  0.00     0.158 HD
ENDBRANCH  57  73
ENDBRANCH  46  50
ENDBRANCH   1  41
TORSDOF 9
ENDMDL
MODEL 6
REMARK VINA RESULT:      -9.9      2.474      3.387
REMARK SMILES CCc1cc(N2CCNCC2)c2ccc(OCc3cncc(-n4cc([C@@H]5CCCO5)c5c(N)ncnc54)c3)cc2n1
REMARK SMILES IDX 17 1 16 4 15 5 3 6 4 7 41 8 5 9 40 11 12 12 39 13 13 14
REMARK SMILES IDX 14 16 2 19 1 22 6 26 7 27 11 28 8 29 10 32 9 35 18 41 19 42
REMARK SMILES IDX 38 43 20 44 22 46 21 48 23 50 24 51 37 52 25 53 31 55 36 56
REMARK SMILES IDX 32 57 35 58 34 59 26 61 27 62 30 63 28 65 29 68 33 73
REMARK H PARENT 17 2 17 3 4 10 39 15 13 17 14 18 2 20 2 21 1 23 1 24 1 25 7 30
REMARK H PARENT 7 31 11 33 11 34 8 36 8 37 10 38 10 39 9 40 19 45 38 47 21 49
REMARK H PARENT 24 54 35 60 26 64 27 66 27 67 28 69 28 70 29 71 29 72 33 74
REMARK H PARENT 33 75
REMARK Flexibility Score: inf
ROOT
ATOM      1  C   UNL     1     -46.453  35.117  26.266  1.00  0.00     0.115 C 
ATOM      2  H   UNL     1     -45.406  34.908  26.017  1.00  0.00     0.076 H 
ATOM      3  H   UNL     1     -46.961  35.323  25.315  1.00  0.00     0.076 H 
ENDROOT
BRANCH   1   4
ATOM      4  O   UNL     1     -46.966  33.925  26.868  1.00  0.00    -0.489 OA
BRANCH   4   5
ATOM      5  C   UNL     1     -47.401  32.915  26.057  1.00  0.00     0.122 A 
ATOM      6  C   UNL     1     -46.594  30.901  21.823  1.00  0.00     0.043 A 
ATOM      7  C   UNL     1     -47.567  29.932  22.009  1.00  0.00    -0.016 A 
ATOM      8  N   UNL     1     -46.324  31.841  22.753  1.00  0.00    -0.253 NA
ATOM      9  C   UNL     1     -48.312  29.914  23.192  1.00  0.00     0.048 A 
ATOM     10  H   UNL     1     -47.752  29.184  21.244  1.00  0.00     0.066 H 
ATOM     11  C   UNL     1     -47.029  31.840  23.895  1.00  0.00     0.076 A 
ATOM     12  C   UNL     1     -48.044  30.901  24.178  1.00  0.00     0.024 A 
ATOM     13  C   UNL     1     -46.730  32.817  24.836  1.00  0.00     0.007 A 
ATOM     14  C   UNL     1     -48.715  31.003  25.420  1.00  0.00    -0.047 A 
ATOM     15  H   UNL     1     -45.941  33.531  24.605  1.00  0.00     0.069 H 
ATOM     16  C   UNL     1     -48.399  31.997  26.350  1.00  0.00    -0.019 A 
ATOM     17  H   UNL     1     -49.496  30.295  25.681  1.00  0.00     0.063 H 
ATOM     18  H   UNL     1     -48.941  32.006  27.289  1.00  0.00     0.066 H 
BRANCH   6  19
ATOM     19  C   UNL     1     -45.765  30.923  20.567  1.00  0.00    -0.013 C 
ATOM     20  H   UNL     1     -44.718  31.134  20.814  1.00  0.00     0.033 H 
ATOM     21  H   UNL     1     -45.782  29.928  20.106  1.00  0.00     0.033 H 
BRANCH  19  22
ATOM     22  C   UNL     1     -46.284  31.949  19.573  1.00  0.00    -0.060 C 
ATOM     23  H   UNL     1     -45.894  31.762  18.566  1.00  0.00     0.023 H 
ATOM     24  H   UNL     1     -45.994  32.965  19.863  1.00  0.00     0.023 H 
ATOM     25  H   UNL     1     -47.378  31.909  19.524  1.00  0.00     0.023 H 
ENDBRANCH  19  22
ENDBRANCH   6  19
BRANCH   9  26
ATOM     26  N   UNL     1     -49.276  28.904  23.298  1.00  0.00    -0.368 N 
ATOM     27  C   UNL     1     -48.827  27.642  23.906  1.00  0.00     0.030 C 
ATOM     28  C   UNL     1     -50.250  28.796  22.197  1.00  0.00     0.030 C 
ATOM     29  C   UNL     1     -50.053  26.737  24.166  1.00  0.00     0.013 C 
ATOM     30  H   UNL     1     -48.329  27.842  24.863  1.00  0.00     0.051 H 
ATOM     31  H   UNL     1     -48.113  27.117  23.262  1.00  0.00     0.051 H 
ATOM     32  C   UNL     1     -50.573  27.322  21.850  1.00  0.00     0.013 C 
ATOM     33  H   UNL     1     -51.172  29.296  22.516  1.00  0.00     0.051 H 
ATOM     34  H   UNL     1     -49.909  29.306  21.288  1.00  0.00     0.051 H 
ATOM     35  N   UNL     1     -50.915  26.460  22.996  1.00  0.00    -0.313 NA
ATOM     36  H   UNL     1     -50.674  27.214  24.935  1.00  0.00     0.045 H 
ATOM     37  H   UNL     1     -49.717  25.781  24.581  1.00  0.00     0.045 H 
ATOM     38  H   UNL     1     -49.713  26.875  21.339  1.00  0.00     0.045 H 
ATOM     39  H   UNL     1     -51.398  27.294  21.130  1.00  0.00     0.045 H 
ATOM     40  H   UNL     1     -51.880  26.649  23.271  1.00  0.00     0.122 HD
ENDBRANCH   9  26
ENDBRANCH   4   5
ENDBRANCH   1   4
BRANCH   1  41
ATOM     41  C   UNL     1     -46.467  36.314  27.182  1.00  0.00     0.010 A 
ATOM     42  C   UNL     1     -46.242  36.145  28.541  1.00  0.00     0.034 A 
ATOM     43  C   UNL     1     -46.751  37.613  26.733  1.00  0.00    -0.028 A 
ATOM     44  N   UNL     1     -46.257  37.150  29.438  1.00  0.00    -0.262 NA
ATOM     45  H   UNL     1     -46.037  35.165  28.966  1.00  0.00     0.084 H 
ATOM     46  C   UNL     1     -46.775  38.689  27.633  1.00  0.00     0.066 A 
ATOM     47  H   UNL     1     -46.965  37.749  25.677  1.00  0.00     0.065 H 
ATOM     48  C   UNL     1     -46.522  38.397  28.968  1.00  0.00     0.051 A 
ATOM     49  H   UNL     1     -46.494  39.149  29.748  1.00  0.00     0.086 H 
BRANCH  46  50
ATOM     50  N   UNL     1     -47.040  40.022  27.184  1.00  0.00    -0.299 N 
ATOM     51  C   UNL     1     -48.242  40.690  27.344  1.00  0.00     0.018 A 
ATOM     52  C   UNL     1     -46.176  40.892  26.519  1.00  0.00     0.150 A 
ATOM     53  C   UNL     1     -48.169  41.956  26.791  1.00  0.00     0.012 A 
ATOM     54  H   UNL     1     -49.092  40.222  27.820  1.00  0.00     0.083 H 
ATOM     55  C   UNL     1     -46.853  42.080  26.250  1.00  0.00     0.067 A 
ATOM     56  N   UNL     1     -44.887  40.653  26.206  1.00  0.00    -0.218 NA
ATOM     57  C   UNL     1     -46.131  43.081  25.576  1.00  0.00     0.136 A 
ATOM     58  C   UNL     1     -44.299  41.685  25.589  1.00  0.00     0.120 A 
ATOM     59  N   UNL     1     -44.844  42.865  25.257  1.00  0.00    -0.219 NA
ATOM     60  H   UNL     1     -43.255  41.551  25.321  1.00  0.00     0.106 H 
BRANCH  53  61
ATOM     61  C   UNL     1     -49.257  42.994  26.782  1.00  0.00     0.085 C 
ATOM     62  C   UNL     1     -50.527  42.534  27.490  1.00  0.00    -0.020 C 
ATOM     63  O   UNL     1     -49.648  43.330  25.433  1.00  0.00    -0.373 OA
ATOM     64  H   UNL     1     -48.874  43.914  27.234  1.00  0.00     0.066 H 
ATOM     65  C   UNL     1     -51.355  41.977  26.358  1.00  0.00    -0.027 C 
ATOM     66  H   UNL     1     -51.043  43.404  27.914  1.00  0.00     0.030 H 
ATOM     67  H   UNL     1     -50.365  41.814  28.298  1.00  0.00     0.030 H 
ATOM     68  C   UNL     1     -51.005  42.914  25.226  1.00  0.00     0.048 C 
ATOM     69  H   UNL     1     -52.426  41.947  26.572  1.00  0.00     0.029 H 
ATOM     70  H   UNL     1     -51.025  40.958  26.120  1.00  0.00     0.029 H 
ATOM     71  H   UNL     1     -51.635  43.810  25.245  1.00  0.00     0.057 H 
ATOM     72  H   UNL     1     -51.100  42.443  24.244  1.00  0.00     0.057 H 
ENDBRANCH  53  61
BRANCH  57  73
ATOM     73  N   UNL     1     -46.661  44.309  25.192  1.00  0.00    -0.383 N 
ATOM     74  H   UNL     1     -47.582  44.402  25.611  1.00  0.00     0.158 HD
ATOM     75  H   UNL     1     -46.046  45.086  25.397  1.00  0.00     0.158 HD
ENDBRANCH  57  73
ENDBRANCH  46  50
ENDBRANCH   1  41
TORSDOF 9
ENDMDL
MODEL 7
REMARK VINA RESULT:      -9.6      2.686      4.130
REMARK SMILES CCc1cc(N2CCNCC2)c2ccc(OCc3cncc(-n4cc([C@@H]5CCCO5)c5c(N)ncnc54)c3)cc2n1
REMARK SMILES IDX 17 1 16 4 15 5 3 6 4 7 41 8 5 9 40 11 12 12 39 13 13 14
REMARK SMILES IDX 14 16 2 19 1 22 6 26 7 27 11 28 8 29 10 32 9 35 18 41 19 42
REMARK SMILES IDX 38 43 20 44 22 46 21 48 23 50 24 51 37 52 25 53 31 55 36 56
REMARK SMILES IDX 32 57 35 58 34 59 26 61 27 62 30 63 28 65 29 68 33 73
REMARK H PARENT 17 2 17 3 4 10 39 15 13 17 14 18 2 20 2 21 1 23 1 24 1 25 7 30
REMARK H PARENT 7 31 11 33 11 34 8 36 8 37 10 38 10 39 9 40 19 45 38 47 21 49
REMARK H PARENT 24 54 35 60 26 64 27 66 27 67 28 69 28 70 29 71 29 72 33 74
REMARK H PARENT 33 75
REMARK Flexibility Score: inf
ROOT
ATOM      1  C   UNL     1     -47.206  33.752  26.077  1.00  0.00     0.115 C 
ATOM      2  H   UNL     1     -46.225  33.368  25.772  1.00  0.00     0.076 H 
ATOM      3  H   UNL     1     -47.693  34.113  25.162  1.00  0.00     0.076 H 
ENDROOT
BRANCH   1   4
ATOM      4  O   UNL     1     -47.917  32.639  26.626  1.00  0.00    -0.489 OA
BRANCH   4   5
ATOM      5  C   UNL     1     -48.408  31.688  25.775  1.00  0.00     0.122 A 
ATOM      6  C   UNL     1     -49.091  26.995  25.395  1.00  0.00     0.043 A 
ATOM      7  C   UNL     1     -49.690  27.103  24.151  1.00  0.00    -0.016 A 
ATOM      8  N   UNL     1     -48.647  28.072  26.079  1.00  0.00    -0.253 NA
ATOM      9  C   UNL     1     -49.843  28.361  23.560  1.00  0.00     0.048 A 
ATOM     10  H   UNL     1     -50.045  26.218  23.633  1.00  0.00     0.066 H 
ATOM     11  C   UNL     1     -48.784  29.288  25.527  1.00  0.00     0.076 A 
ATOM     12  C   UNL     1     -49.375  29.503  24.263  1.00  0.00     0.024 A 
ATOM     13  C   UNL     1     -48.321  30.378  26.252  1.00  0.00     0.007 A 
ATOM     14  C   UNL     1     -49.466  30.834  23.791  1.00  0.00    -0.047 A 
ATOM     15  H   UNL     1     -47.872  30.197  27.227  1.00  0.00     0.069 H 
ATOM     16  C   UNL     1     -48.988  31.916  24.536  1.00  0.00    -0.019 A 
ATOM     17  H   UNL     1     -49.920  31.044  22.827  1.00  0.00     0.063 H 
ATOM     18  H   UNL     1     -49.106  32.911  24.122  1.00  0.00     0.066 H 
BRANCH   6  19
ATOM     19  C   UNL     1     -48.938  25.654  26.060  1.00  0.00    -0.013 C 
ATOM     20  H   UNL     1     -49.643  25.567  26.894  1.00  0.00     0.033 H 
ATOM     21  H   UNL     1     -49.203  24.866  25.345  1.00  0.00     0.033 H 
BRANCH  19  22
ATOM     22  C   UNL     1     -47.516  25.433  26.551  1.00  0.00    -0.060 C 
ATOM     23  H   UNL     1     -47.092  26.351  26.971  1.00  0.00     0.023 H 
ATOM     24  H   UNL     1     -46.862  25.102  25.736  1.00  0.00     0.023 H 
ATOM     25  H   UNL     1     -47.500  24.665  27.332  1.00  0.00     0.023 H 
ENDBRANCH  19  22
ENDBRANCH   6  19
BRANCH   9  26
ATOM     26  N   UNL     1     -50.456  28.379  22.300  1.00  0.00    -0.368 N 
ATOM     27  C   UNL     1     -51.924  28.462  22.297  1.00  0.00     0.030 C 
ATOM     28  C   UNL     1     -49.839  27.553  21.249  1.00  0.00     0.030 C 
ATOM     29  C   UNL     1     -52.418  28.715  20.854  1.00  0.00     0.013 C 
ATOM     30  H   UNL     1     -52.257  29.293  22.932  1.00  0.00     0.051 H 
ATOM     31  H   UNL     1     -52.380  27.544  22.685  1.00  0.00     0.051 H 
ATOM     32  C   UNL     1     -50.899  26.866  20.353  1.00  0.00     0.013 C 
ATOM     33  H   UNL     1     -49.221  28.211  20.626  1.00  0.00     0.051 H 
ATOM     34  H   UNL     1     -49.173  26.785  21.660  1.00  0.00     0.051 H 
ATOM     35  N   UNL     1     -51.959  27.749  19.833  1.00  0.00    -0.313 NA
ATOM     36  H   UNL     1     -52.080  29.714  20.547  1.00  0.00     0.045 H 
ATOM     37  H   UNL     1     -53.513  28.737  20.843  1.00  0.00     0.045 H 
ATOM     38  H   UNL     1     -51.381  26.061  20.919  1.00  0.00     0.045 H 
ATOM     39  H   UNL     1     -50.398  26.382  19.508  1.00  0.00     0.045 H 
ATOM     40  H   UNL     1     -51.584  28.282  19.048  1.00  0.00     0.122 HD
ENDBRANCH   9  26
ENDBRANCH   4   5
ENDBRANCH   1   4
BRANCH   1  41
ATOM     41  C   UNL     1     -46.965  34.866  27.063  1.00  0.00     0.010 A 
ATOM     42  C   UNL     1     -46.661  34.563  28.383  1.00  0.00     0.034 A 
ATOM     43  C   UNL     1     -47.085  36.222  26.725  1.00  0.00    -0.028 A 
ATOM     44  N   UNL     1     -46.453  35.490  29.340  1.00  0.00    -0.262 NA
ATOM     45  H   UNL     1     -46.572  33.535  28.726  1.00  0.00     0.084 H 
ATOM     46  C   UNL     1     -46.876  37.219  27.689  1.00  0.00     0.066 A 
ATOM     47  H   UNL     1     -47.360  36.467  25.703  1.00  0.00     0.065 H 
ATOM     48  C   UNL     1     -46.564  36.793  28.975  1.00  0.00     0.051 A 
ATOM     49  H   UNL     1     -46.360  37.472  29.794  1.00  0.00     0.086 H 
BRANCH  46  50
ATOM     50  N   UNL     1     -46.971  38.606  27.350  1.00  0.00    -0.299 N 
ATOM     51  C   UNL     1     -45.978  39.342  26.728  1.00  0.00     0.018 A 
ATOM     52  C   UNL     1     -48.043  39.472  27.568  1.00  0.00     0.150 A 
ATOM     53  C   UNL     1     -46.384  40.653  26.552  1.00  0.00     0.012 A 
ATOM     54  H   UNL     1     -45.026  38.902  26.465  1.00  0.00     0.083 H 
ATOM     55  C   UNL     1     -47.699  40.740  27.102  1.00  0.00     0.067 A 
ATOM     56  N   UNL     1     -49.234  39.148  28.109  1.00  0.00    -0.218 NA
ATOM     57  C   UNL     1     -48.667  41.750  27.243  1.00  0.00     0.136 A 
ATOM     58  C   UNL     1     -50.080  40.184  28.168  1.00  0.00     0.120 A 
ATOM     59  N   UNL     1     -49.862  41.448  27.776  1.00  0.00    -0.219 NA
ATOM     60  H   UNL     1     -51.060  39.978  28.588  1.00  0.00     0.106 H 
BRANCH  53  61
ATOM     61  C   UNL     1     -45.599  41.754  25.895  1.00  0.00     0.085 C 
ATOM     62  C   UNL     1     -44.232  41.297  25.395  1.00  0.00    -0.020 C 
ATOM     63  O   UNL     1     -45.347  42.838  26.816  1.00  0.00    -0.373 OA
ATOM     64  H   UNL     1     -46.190  42.173  25.075  1.00  0.00     0.066 H 
ATOM     65  C   UNL     1     -43.324  41.639  26.550  1.00  0.00    -0.027 C 
ATOM     66  H   UNL     1     -43.943  41.898  24.524  1.00  0.00     0.030 H 
ATOM     67  H   UNL     1     -44.181  40.243  25.106  1.00  0.00     0.030 H 
ATOM     68  C   UNL     1     -43.936  42.925  27.056  1.00  0.00     0.048 C 
ATOM     69  H   UNL     1     -42.274  41.750  26.264  1.00  0.00     0.029 H 
ATOM     70  H   UNL     1     -43.389  40.862  27.320  1.00  0.00     0.029 H 
ATOM     71  H   UNL     1     -43.555  43.789  26.501  1.00  0.00     0.057 H 
ATOM     72  H   UNL     1     -43.752  43.088  28.122  1.00  0.00     0.057 H 
ENDBRANCH  53  61
BRANCH  57  73
ATOM     73  N   UNL     1     -48.478  43.078  26.872  1.00  0.00    -0.383 N 
ATOM     74  H   UNL     1     -47.816  43.100  26.101  1.00  0.00     0.158 HD
ATOM     75  H   UNL     1     -49.345  43.559  26.671  1.00  0.00     0.158 HD
ENDBRANCH  57  73
ENDBRANCH  46  50
ENDBRANCH   1  41
TORSDOF 9
ENDMDL
