MODEL 1
REMARK VINA RESULT:      -9.6      0.000      0.000
REMARK SMILES Nc1ncnc2c1ccn2[C@@H]1C[C@H](CCc2cccc(=O)[nH]2)[C@@H](O)[C@H]1O
REMARK SMILES IDX 11 1 12 2 13 3 23 4 25 5 10 12 2 13 3 14 7 15 4 16 6 17 8 18
REMARK SMILES IDX 5 19 9 21 1 24 26 27 14 29 15 32 16 35 17 36 22 37 18 38
REMARK SMILES IDX 20 40 19 42 21 44 24 46
REMARK H PARENT 11 6 12 7 12 8 13 9 23 10 25 11 4 20 8 22 9 23 1 25 1 26 26 28
REMARK H PARENT 14 30 14 31 15 33 15 34 17 39 22 41 18 43 19 45 24 47
REMARK Flexibility Score: inf
ROOT
ATOM      1  C   UNL     1     -45.028  38.073  28.939  1.00  0.00     0.064 C 
ATOM      2  C   UNL     1     -45.010  36.723  28.183  1.00  0.00    -0.024 C 
ATOM      3  C   UNL     1     -46.481  36.298  27.984  1.00  0.00    -0.010 C 
ATOM      4  C   UNL     1     -47.288  37.555  28.344  1.00  0.00     0.085 C 
ATOM      5  C   UNL     1     -46.462  38.204  29.458  1.00  0.00     0.101 C 
ATOM      6  H   UNL     1     -44.309  38.009  29.766  1.00  0.00     0.056 H 
ATOM      7  H   UNL     1     -44.442  36.767  27.250  1.00  0.00     0.029 H 
ATOM      8  H   UNL     1     -44.515  35.973  28.813  1.00  0.00     0.029 H 
ATOM      9  H   UNL     1     -46.726  35.503  28.702  1.00  0.00     0.033 H 
ATOM     10  H   UNL     1     -47.391  38.221  27.480  1.00  0.00     0.063 H 
ATOM     11  H   UNL     1     -46.784  39.230  29.660  1.00  0.00     0.065 H 
ENDROOT
BRANCH   1  12
ATOM     12  N   UNL     1     -44.642  39.236  28.145  1.00  0.00    -0.327 N 
ATOM     13  C   UNL     1     -42.626  42.129  27.787  1.00  0.00     0.136 A 
ATOM     14  N   UNL     1     -41.887  42.096  28.913  1.00  0.00    -0.219 NA
ATOM     15  C   UNL     1     -43.572  41.119  27.566  1.00  0.00     0.061 A 
ATOM     16  C   UNL     1     -42.089  41.081  29.776  1.00  0.00     0.120 A 
ATOM     17  C   UNL     1     -43.675  40.135  28.539  1.00  0.00     0.145 A 
ATOM     18  C   UNL     1     -44.522  40.800  26.559  1.00  0.00    -0.031 A 
ATOM     19  N   UNL     1     -42.963  40.066  29.676  1.00  0.00    -0.218 NA
ATOM     20  H   UNL     1     -41.468  41.088  30.666  1.00  0.00     0.106 H 
ATOM     21  C   UNL     1     -45.175  39.648  26.947  1.00  0.00     0.007 A 
ATOM     22  H   UNL     1     -44.707  41.354  25.648  1.00  0.00     0.065 H 
ATOM     23  H   UNL     1     -45.962  39.098  26.449  1.00  0.00     0.082 H 
BRANCH  13  24
ATOM     24  N   UNL     1     -42.412  43.188  26.916  1.00  0.00    -0.383 N 
ATOM     25  H   UNL     1     -42.045  42.853  26.033  1.00  0.00     0.158 HD
ATOM     26  H   UNL     1     -41.950  43.988  27.323  1.00  0.00     0.158 HD
ENDBRANCH  13  24
ENDBRANCH   1  12
BRANCH   5  27
ATOM     27  O   UNL     1     -46.623  37.456  30.671  1.00  0.00    -0.388 OA
ATOM     28  H   UNL     1     -47.515  37.056  30.628  1.00  0.00     0.211 HD
ENDBRANCH   5  27
BRANCH   3  29
ATOM     29  C   UNL     1     -46.827  35.789  26.577  1.00  0.00    -0.042 C 
ATOM     30  H   UNL     1     -46.745  36.604  25.848  1.00  0.00     0.027 H 
ATOM     31  H   UNL     1     -47.882  35.481  26.570  1.00  0.00     0.027 H 
BRANCH  29  32
ATOM     32  C   UNL     1     -46.010  34.577  26.105  1.00  0.00    -0.012 C 
ATOM     33  H   UNL     1     -45.443  34.196  26.965  1.00  0.00     0.033 H 
ATOM     34  H   UNL     1     -45.251  34.903  25.382  1.00  0.00     0.033 H 
BRANCH  32  35
ATOM     35  C   UNL     1     -46.822  33.447  25.532  1.00  0.00     0.018 A 
ATOM     36  C   UNL     1     -48.112  33.235  25.843  1.00  0.00    -0.043 A 
ATOM     37  N   UNL     1     -46.187  32.575  24.675  1.00  0.00    -0.326 N 
ATOM     38  C   UNL     1     -48.829  32.123  25.263  1.00  0.00    -0.055 A 
ATOM     39  H   UNL     1     -48.648  33.886  26.526  1.00  0.00     0.064 H 
ATOM     40  C   UNL     1     -46.788  31.489  24.084  1.00  0.00     0.248 A 
ATOM     41  H   UNL     1     -45.210  32.706  24.440  1.00  0.00     0.169 HD
ATOM     42  C   UNL     1     -48.218  31.278  24.421  1.00  0.00     0.003 A 
ATOM     43  H   UNL     1     -49.873  31.989  25.526  1.00  0.00     0.063 H 
ATOM     44  O   UNL     1     -46.196  30.733  23.324  1.00  0.00    -0.270 OA
ATOM     45  H   UNL     1     -48.713  30.432  23.963  1.00  0.00     0.068 H 
ENDBRANCH  32  35
ENDBRANCH  29  32
ENDBRANCH   3  29
BRANCH   4  46
ATOM     46  O   UNL     1     -48.584  37.203  28.814  1.00  0.00    -0.390 OA
ATOM     47  H   UNL     1     -48.468  36.524  29.504  1.00  0.00     0.211 HD
ENDBRANCH   4  46
TORSDOF 7
ENDMDL
MODEL 2
REMARK VINA RESULT:      -8.8      2.425      8.769
REMARK SMILES Nc1ncnc2c1ccn2[C@@H]1C[C@H](CCc2cccc(=O)[nH]2)[C@@H](O)[C@H]1O
REMARK SMILES IDX 11 1 12 2 13 3 23 4 25 5 10 12 2 13 3 14 7 15 4 16 6 17 8 18
REMARK SMILES IDX 5 19 9 21 1 24 26 27 14 29 15 32 16 35 17 36 22 37 18 38
REMARK SMILES IDX 20 40 19 42 21 44 24 46
REMARK H PARENT 11 6 12 7 12 8 13 9 23 10 25 11 4 20 8 22 9 23 1 25 1 26 26 28
REMARK H PARENT 14 30 14 31 15 33 15 34 17 39 22 41 18 43 19 45 24 47
REMARK Flexibility Score: inf
ROOT
ATOM      1  C   UNL     1     -47.397  34.099  27.283  1.00  0.00     0.064 C 
ATOM      2  C   UNL     1     -48.068  35.480  27.093  1.00  0.00    -0.024 C 
ATOM      3  C   UNL     1     -47.035  36.546  27.518  1.00  0.00    -0.010 C 
ATOM      4  C   UNL     1     -45.716  35.767  27.633  1.00  0.00     0.085 C 
ATOM      5  C   UNL     1     -46.156  34.388  28.132  1.00  0.00     0.101 C 
ATOM      6  H   UNL     1     -48.103  33.448  27.816  1.00  0.00     0.056 H 
ATOM      7  H   UNL     1     -48.452  35.629  26.079  1.00  0.00     0.029 H 
ATOM      8  H   UNL     1     -48.932  35.547  27.765  1.00  0.00     0.029 H 
ATOM      9  H   UNL     1     -47.306  36.932  28.510  1.00  0.00     0.033 H 
ATOM     10  H   UNL     1     -45.208  35.700  26.664  1.00  0.00     0.063 H 
ATOM     11  H   UNL     1     -45.357  33.646  28.042  1.00  0.00     0.065 H 
ENDROOT
BRANCH   1  12
ATOM     12  N   UNL     1     -47.045  33.403  26.048  1.00  0.00    -0.327 N 
ATOM     13  C   UNL     1     -47.391  30.553  23.971  1.00  0.00     0.136 A 
ATOM     14  N   UNL     1     -48.261  29.799  24.672  1.00  0.00    -0.219 NA
ATOM     15  C   UNL     1     -46.994  31.792  24.490  1.00  0.00     0.061 A 
ATOM     16  C   UNL     1     -48.717  30.281  25.844  1.00  0.00     0.120 A 
ATOM     17  C   UNL     1     -47.544  32.164  25.709  1.00  0.00     0.145 A 
ATOM     18  C   UNL     1     -46.127  32.845  24.093  1.00  0.00    -0.031 A 
ATOM     19  N   UNL     1     -48.408  31.444  26.442  1.00  0.00    -0.218 NA
ATOM     20  H   UNL     1     -49.422  29.647  26.374  1.00  0.00     0.106 H 
ATOM     21  C   UNL     1     -46.165  33.813  25.075  1.00  0.00     0.007 A 
ATOM     22  H   UNL     1     -45.539  32.889  23.187  1.00  0.00     0.065 H 
ATOM     23  H   UNL     1     -45.642  34.758  25.136  1.00  0.00     0.082 H 
BRANCH  13  24
ATOM     24  N   UNL     1     -46.923  30.034  22.771  1.00  0.00    -0.383 N 
ATOM     25  H   UNL     1     -46.164  29.384  22.937  1.00  0.00     0.158 HD
ATOM     26  H   UNL     1     -46.783  30.715  22.038  1.00  0.00     0.158 HD
ENDBRANCH  13  24
ENDBRANCH   1  12
BRANCH   5  27
ATOM     27  O   UNL     1     -46.512  34.472  29.519  1.00  0.00    -0.388 OA
ATOM     28  H   UNL     1     -45.785  34.959  29.958  1.00  0.00     0.211 HD
ENDBRANCH   5  27
BRANCH   3  29
ATOM     29  C   UNL     1     -46.903  37.742  26.564  1.00  0.00    -0.042 C 
ATOM     30  H   UNL     1     -47.670  37.689  25.781  1.00  0.00     0.027 H 
ATOM     31  H   UNL     1     -45.937  37.667  26.046  1.00  0.00     0.027 H 
BRANCH  29  32
ATOM     32  C   UNL     1     -46.937  39.120  27.240  1.00  0.00    -0.012 C 
ATOM     33  H   UNL     1     -47.408  39.002  28.225  1.00  0.00     0.033 H 
ATOM     34  H   UNL     1     -47.605  39.789  26.681  1.00  0.00     0.033 H 
BRANCH  32  35
ATOM     35  C   UNL     1     -45.593  39.768  27.430  1.00  0.00     0.018 A 
ATOM     36  C   UNL     1     -45.002  40.529  26.493  1.00  0.00    -0.043 A 
ATOM     37  N   UNL     1     -44.931  39.532  28.616  1.00  0.00    -0.326 N 
ATOM     38  C   UNL     1     -43.704  41.113  26.738  1.00  0.00    -0.055 A 
ATOM     39  H   UNL     1     -45.478  40.729  25.538  1.00  0.00     0.064 H 
ATOM     40  C   UNL     1     -43.693  40.040  28.930  1.00  0.00     0.248 A 
ATOM     41  H   UNL     1     -45.350  38.948  29.329  1.00  0.00     0.169 HD
ATOM     42  C   UNL     1     -43.061  40.894  27.894  1.00  0.00     0.003 A 
ATOM     43  H   UNL     1     -43.262  41.732  25.964  1.00  0.00     0.063 H 
ATOM     44  O   UNL     1     -43.133  39.813  29.995  1.00  0.00    -0.270 OA
ATOM     45  H   UNL     1     -42.089  41.308  28.122  1.00  0.00     0.068 H 
ENDBRANCH  32  35
ENDBRANCH  29  32
ENDBRANCH   3  29
BRANCH   4  46
ATOM     46  O   UNL     1     -44.845  36.390  28.570  1.00  0.00    -0.390 OA
ATOM     47  H   UNL     1     -45.370  36.593  29.365  1.00  0.00     0.211 HD
ENDBRANCH   4  46
TORSDOF 7
ENDMDL
MODEL 3
REMARK VINA RESULT:      -8.8      2.186      8.740
REMARK SMILES Nc1ncnc2c1ccn2[C@@H]1C[C@H](CCc2cccc(=O)[nH]2)[C@@H](O)[C@H]1O
REMARK SMILES IDX 11 1 12 2 13 3 23 4 25 5 10 12 2 13 3 14 7 15 4 16 6 17 8 18
REMARK SMILES IDX 5 19 9 21 1 24 26 27 14 29 15 32 16 35 17 36 22 37 18 38
REMARK SMILES IDX 20 40 19 42 21 44 24 46
REMARK H PARENT 11 6 12 7 12 8 13 9 23 10 25 11 4 20 8 22 9 23 1 25 1 26 26 28
REMARK H PARENT 14 30 14 31 15 33 15 34 17 39 22 41 18 43 19 45 24 47
REMARK Flexibility Score: inf
ROOT
ATOM      1  C   UNL     1     -48.033  36.044  27.008  1.00  0.00     0.064 C 
ATOM      2  C   UNL     1     -47.309  37.387  26.750  1.00  0.00    -0.024 C 
ATOM      3  C   UNL     1     -46.634  37.796  28.077  1.00  0.00    -0.010 C 
ATOM      4  C   UNL     1     -46.725  36.536  28.951  1.00  0.00     0.085 C 
ATOM      5  C   UNL     1     -48.055  35.905  28.532  1.00  0.00     0.101 C 
ATOM      6  H   UNL     1     -49.050  36.123  26.600  1.00  0.00     0.056 H 
ATOM      7  H   UNL     1     -46.613  37.338  25.908  1.00  0.00     0.029 H 
ATOM      8  H   UNL     1     -48.056  38.147  26.493  1.00  0.00     0.029 H 
ATOM      9  H   UNL     1     -47.222  38.596  28.548  1.00  0.00     0.033 H 
ATOM     10  H   UNL     1     -45.882  35.860  28.762  1.00  0.00     0.063 H 
ATOM     11  H   UNL     1     -48.154  34.878  28.897  1.00  0.00     0.065 H 
ENDROOT
BRANCH   1  12
ATOM     12  N   UNL     1     -47.424  34.877  26.377  1.00  0.00    -0.327 N 
ATOM     13  C   UNL     1     -47.793  31.620  25.029  1.00  0.00     0.136 A 
ATOM     14  N   UNL     1     -49.115  31.405  25.176  1.00  0.00    -0.219 NA
ATOM     15  C   UNL     1     -47.251  32.836  25.465  1.00  0.00     0.061 A 
ATOM     16  C   UNL     1     -49.860  32.380  25.731  1.00  0.00     0.120 A 
ATOM     17  C   UNL     1     -48.134  33.752  26.019  1.00  0.00     0.145 A 
ATOM     18  C   UNL     1     -45.963  33.435  25.504  1.00  0.00    -0.031 A 
ATOM     19  N   UNL     1     -49.455  33.577  26.189  1.00  0.00    -0.218 NA
ATOM     20  H   UNL     1     -50.920  32.170  25.824  1.00  0.00     0.106 H 
ATOM     21  C   UNL     1     -46.095  34.680  26.082  1.00  0.00     0.007 A 
ATOM     22  H   UNL     1     -45.039  33.000  25.147  1.00  0.00     0.065 H 
ATOM     23  H   UNL     1     -45.344  35.431  26.287  1.00  0.00     0.082 H 
BRANCH  13  24
ATOM     24  N   UNL     1     -47.040  30.599  24.466  1.00  0.00    -0.383 N 
ATOM     25  H   UNL     1     -47.334  29.699  24.828  1.00  0.00     0.158 HD
ATOM     26  H   UNL     1     -46.045  30.770  24.434  1.00  0.00     0.158 HD
ENDBRANCH  13  24
ENDBRANCH   1  12
BRANCH   5  27
ATOM     27  O   UNL     1     -49.140  36.664  29.086  1.00  0.00    -0.388 OA
ATOM     28  H   UNL     1     -49.535  37.158  28.339  1.00  0.00     0.211 HD
ENDBRANCH   5  27
BRANCH   3  29
ATOM     29  C   UNL     1     -45.185  38.289  27.946  1.00  0.00    -0.042 C 
ATOM     30  H   UNL     1     -44.574  37.537  27.432  1.00  0.00     0.027 H 
ATOM     31  H   UNL     1     -44.759  38.386  28.954  1.00  0.00     0.027 H 
BRANCH  29  32
ATOM     32  C   UNL     1     -45.021  39.655  27.263  1.00  0.00    -0.012 C 
ATOM     33  H   UNL     1     -45.915  40.253  27.486  1.00  0.00     0.033 H 
ATOM     34  H   UNL     1     -45.028  39.525  26.173  1.00  0.00     0.033 H 
BRANCH  32  35
ATOM     35  C   UNL     1     -43.808  40.436  27.686  1.00  0.00     0.018 A 
ATOM     36  C   UNL     1     -43.174  41.307  26.882  1.00  0.00    -0.043 A 
ATOM     37  N   UNL     1     -43.311  40.211  28.952  1.00  0.00    -0.326 N 
ATOM     38  C   UNL     1     -42.007  42.017  27.350  1.00  0.00    -0.055 A 
ATOM     39  H   UNL     1     -43.520  41.505  25.872  1.00  0.00     0.064 H 
ATOM     40  C   UNL     1     -42.205  40.835  29.476  1.00  0.00     0.248 A 
ATOM     41  H   UNL     1     -43.762  39.546  29.569  1.00  0.00     0.169 HD
ATOM     42  C   UNL     1     -41.527  41.808  28.584  1.00  0.00     0.003 A 
ATOM     43  H   UNL     1     -41.529  42.722  26.679  1.00  0.00     0.063 H 
ATOM     44  O   UNL     1     -41.790  40.614  30.607  1.00  0.00    -0.270 OA
ATOM     45  H   UNL     1     -40.656  42.315  28.978  1.00  0.00     0.068 H 
ENDBRANCH  32  35
ENDBRANCH  29  32
ENDBRANCH   3  29
BRANCH   4  46
ATOM     46  O   UNL     1     -46.740  36.881  30.331  1.00  0.00    -0.390 OA
ATOM     47  H   UNL     1     -47.673  36.948  30.604  1.00  0.00     0.211 HD
ENDBRANCH   4  46
TORSDOF 7
ENDMDL
MODEL 4
REMARK VINA RESULT:      -8.3      7.714     10.542
REMARK SMILES Nc1ncnc2c1ccn2[C@@H]1C[C@H](CCc2cccc(=O)[nH]2)[C@@H](O)[C@H]1O
REMARK SMILES IDX 11 1 12 2 13 3 23 4 25 5 10 12 2 13 3 14 7 15 4 16 6 17 8 18
REMARK SMILES IDX 5 19 9 21 1 24 26 27 14 29 15 32 16 35 17 36 22 37 18 38
REMARK SMILES IDX 20 40 19 42 21 44 24 46
REMARK H PARENT 11 6 12 7 12 8 13 9 23 10 25 11 4 20 8 22 9 23 1 25 1 26 26 28
REMARK H PARENT 14 30 14 31 15 33 15 34 17 39 22 41 18 43 19 45 24 47
REMARK Flexibility Score: inf
ROOT
ATOM      1  C   UNL     1     -49.859  29.894  21.704  1.00  0.00     0.064 C 
ATOM      2  C   UNL     1     -50.890  29.211  22.634  1.00  0.00    -0.024 C 
ATOM      3  C   UNL     1     -50.955  27.725  22.221  1.00  0.00    -0.010 C 
ATOM      4  C   UNL     1     -49.745  27.539  21.293  1.00  0.00     0.085 C 
ATOM      5  C   UNL     1     -49.633  28.885  20.574  1.00  0.00     0.101 C 
ATOM      6  H   UNL     1     -50.306  30.823  21.326  1.00  0.00     0.056 H 
ATOM      7  H   UNL     1     -50.665  29.356  23.695  1.00  0.00     0.029 H 
ATOM      8  H   UNL     1     -51.875  29.663  22.460  1.00  0.00     0.029 H 
ATOM      9  H   UNL     1     -51.874  27.553  21.642  1.00  0.00     0.033 H 
ATOM     10  H   UNL     1     -48.838  27.312  21.865  1.00  0.00     0.063 H 
ATOM     11  H   UNL     1     -48.679  28.992  20.050  1.00  0.00     0.065 H 
ENDROOT
BRANCH   1  12
ATOM     12  N   UNL     1     -48.600  30.270  22.340  1.00  0.00    -0.327 N 
ATOM     13  C   UNL     1     -46.908  32.007  24.925  1.00  0.00     0.136 A 
ATOM     14  N   UNL     1     -47.932  32.539  25.620  1.00  0.00    -0.219 NA
ATOM     15  C   UNL     1     -47.188  31.231  23.792  1.00  0.00     0.061 A 
ATOM     16  C   UNL     1     -49.186  32.293  25.195  1.00  0.00     0.120 A 
ATOM     17  C   UNL     1     -48.526  31.059  23.467  1.00  0.00     0.145 A 
ATOM     18  C   UNL     1     -46.435  30.527  22.814  1.00  0.00    -0.031 A 
ATOM     19  N   UNL     1     -49.576  31.574  24.128  1.00  0.00    -0.218 NA
ATOM     20  H   UNL     1     -49.982  32.734  25.786  1.00  0.00     0.106 H 
ATOM     21  C   UNL     1     -47.326  29.959  21.927  1.00  0.00     0.007 A 
ATOM     22  H   UNL     1     -45.358  30.445  22.767  1.00  0.00     0.065 H 
ATOM     23  H   UNL     1     -47.138  29.353  21.051  1.00  0.00     0.082 H 
BRANCH  13  24
ATOM     24  N   UNL     1     -45.624  32.282  25.373  1.00  0.00    -0.383 N 
ATOM     25  H   UNL     1     -45.047  32.618  24.611  1.00  0.00     0.158 HD
ATOM     26  H   UNL     1     -45.219  31.574  25.968  1.00  0.00     0.158 HD
ENDBRANCH  13  24
ENDBRANCH   1  12
BRANCH   5  27
ATOM     27  O   UNL     1     -50.676  28.993  19.595  1.00  0.00    -0.388 OA
ATOM     28  H   UNL     1     -50.495  29.814  19.094  1.00  0.00     0.211 HD
ENDBRANCH   5  27
BRANCH   3  29
ATOM     29  C   UNL     1     -50.934  26.724  23.385  1.00  0.00    -0.042 C 
ATOM     30  H   UNL     1     -50.417  25.805  23.085  1.00  0.00     0.027 H 
ATOM     31  H   UNL     1     -51.969  26.430  23.607  1.00  0.00     0.027 H 
BRANCH  29  32
ATOM     32  C   UNL     1     -50.336  27.260  24.694  1.00  0.00    -0.012 C 
ATOM     33  H   UNL     1     -51.030  27.012  25.508  1.00  0.00     0.033 H 
ATOM     34  H   UNL     1     -50.309  28.358  24.664  1.00  0.00     0.033 H 
BRANCH  32  35
ATOM     35  C   UNL     1     -48.979  26.716  25.043  1.00  0.00     0.018 A 
ATOM     36  C   UNL     1     -48.774  25.818  26.022  1.00  0.00    -0.043 A 
ATOM     37  N   UNL     1     -47.896  27.197  24.340  1.00  0.00    -0.326 N 
ATOM     38  C   UNL     1     -47.441  25.344  26.312  1.00  0.00    -0.055 A 
ATOM     39  H   UNL     1     -49.595  25.422  26.613  1.00  0.00     0.064 H 
ATOM     40  C   UNL     1     -46.595  26.809  24.553  1.00  0.00     0.248 A 
ATOM     41  H   UNL     1     -48.025  27.887  23.610  1.00  0.00     0.169 HD
ATOM     42  C   UNL     1     -46.386  25.802  25.623  1.00  0.00     0.003 A 
ATOM     43  H   UNL     1     -47.315  24.609  27.100  1.00  0.00     0.063 H 
ATOM     44  O   UNL     1     -45.654  27.255  23.908  1.00  0.00    -0.270 OA
ATOM     45  H   UNL     1     -45.370  25.479  25.805  1.00  0.00     0.068 H 
ENDBRANCH  32  35
ENDBRANCH  29  32
ENDBRANCH   3  29
BRANCH   4  46
ATOM     46  O   UNL     1     -49.981  26.487  20.364  1.00  0.00    -0.390 OA
ATOM     47  H   UNL     1     -49.444  25.724  20.647  1.00  0.00     0.211 HD
ENDBRANCH   4  46
TORSDOF 7
ENDMDL
MODEL 5
REMARK VINA RESULT:      -8.2      3.689      4.895
REMARK SMILES Nc1ncnc2c1ccn2[C@@H]1C[C@H](CCc2cccc(=O)[nH]2)[C@@H](O)[C@H]1O
REMARK SMILES IDX 11 1 12 2 13 3 23 4 25 5 10 12 2 13 3 14 7 15 4 16 6 17 8 18
REMARK SMILES IDX 5 19 9 21 1 24 26 27 14 29 15 32 16 35 17 36 22 37 18 38
REMARK SMILES IDX 20 40 19 42 21 44 24 46
REMARK H PARENT 11 6 12 7 12 8 13 9 23 10 25 11 4 20 8 22 9 23 1 25 1 26 26 28
REMARK H PARENT 14 30 14 31 15 33 15 34 17 39 22 41 18 43 19 45 24 47
REMARK Flexibility Score: inf
ROOT
ATOM      1  C   UNL     1     -47.124  37.109  27.651  1.00  0.00     0.064 C 
ATOM      2  C   UNL     1     -46.797  36.337  26.350  1.00  0.00    -0.024 C 
ATOM      3  C   UNL     1     -46.409  34.901  26.763  1.00  0.00    -0.010 C 
ATOM      4  C   UNL     1     -46.828  34.807  28.238  1.00  0.00     0.085 C 
ATOM      5  C   UNL     1     -46.579  36.219  28.772  1.00  0.00     0.101 C 
ATOM      6  H   UNL     1     -46.599  38.072  27.616  1.00  0.00     0.056 H 
ATOM      7  H   UNL     1     -47.611  36.373  25.620  1.00  0.00     0.029 H 
ATOM      8  H   UNL     1     -45.929  36.806  25.871  1.00  0.00     0.029 H 
ATOM      9  H   UNL     1     -45.318  34.791  26.697  1.00  0.00     0.033 H 
ATOM     10  H   UNL     1     -47.882  34.521  28.334  1.00  0.00     0.063 H 
ATOM     11  H   UNL     1     -47.047  36.376  29.749  1.00  0.00     0.065 H 
ENDROOT
BRANCH   1  12
ATOM     12  N   UNL     1     -48.537  37.414  27.855  1.00  0.00    -0.327 N 
ATOM     13  C   UNL     1     -51.033  39.775  28.728  1.00  0.00     0.136 A 
ATOM     14  N   UNL     1     -50.302  40.883  28.956  1.00  0.00    -0.219 NA
ATOM     15  C   UNL     1     -50.377  38.594  28.353  1.00  0.00     0.061 A 
ATOM     16  C   UNL     1     -48.965  40.806  28.805  1.00  0.00     0.120 A 
ATOM     17  C   UNL     1     -48.996  38.657  28.235  1.00  0.00     0.145 A 
ATOM     18  C   UNL     1     -50.755  37.261  28.042  1.00  0.00    -0.031 A 
ATOM     19  N   UNL     1     -48.229  39.737  28.458  1.00  0.00    -0.218 NA
ATOM     20  H   UNL     1     -48.414  41.722  28.991  1.00  0.00     0.106 H 
ATOM     21  C   UNL     1     -49.605  36.554  27.756  1.00  0.00     0.007 A 
ATOM     22  H   UNL     1     -51.760  36.861  28.030  1.00  0.00     0.065 H 
ATOM     23  H   UNL     1     -49.482  35.516  27.479  1.00  0.00     0.082 H 
BRANCH  13  24
ATOM     24  N   UNL     1     -52.406  39.872  28.900  1.00  0.00    -0.383 N 
ATOM     25  H   UNL     1     -52.634  40.646  29.512  1.00  0.00     0.158 HD
ATOM     26  H   UNL     1     -52.876  38.997  29.085  1.00  0.00     0.158 HD
ENDBRANCH  13  24
ENDBRANCH   1  12
BRANCH   5  27
ATOM     27  O   UNL     1     -45.169  36.429  28.932  1.00  0.00    -0.388 OA
ATOM     28  H   UNL     1     -44.762  36.213  28.069  1.00  0.00     0.211 HD
ENDBRANCH   5  27
BRANCH   3  29
ATOM     29  C   UNL     1     -47.049  33.787  25.921  1.00  0.00    -0.042 C 
ATOM     30  H   UNL     1     -47.970  34.149  25.450  1.00  0.00     0.027 H 
ATOM     31  H   UNL     1     -47.354  32.975  26.596  1.00  0.00     0.027 H 
BRANCH  29  32
ATOM     32  C   UNL     1     -46.129  33.160  24.864  1.00  0.00    -0.012 C 
ATOM     33  H   UNL     1     -45.141  33.011  25.322  1.00  0.00     0.033 H 
ATOM     34  H   UNL     1     -45.962  33.876  24.048  1.00  0.00     0.033 H 
BRANCH  32  35
ATOM     35  C   UNL     1     -46.600  31.843  24.311  1.00  0.00     0.018 A 
ATOM     36  C   UNL     1     -47.741  31.247  24.697  1.00  0.00    -0.043 A 
ATOM     37  N   UNL     1     -45.793  31.210  23.390  1.00  0.00    -0.326 N 
ATOM     38  C   UNL     1     -48.128  29.976  24.132  1.00  0.00    -0.055 A 
ATOM     39  H   UNL     1     -48.400  31.700  25.432  1.00  0.00     0.064 H 
ATOM     40  C   UNL     1     -46.079  29.999  22.808  1.00  0.00     0.248 A 
ATOM     41  H   UNL     1     -44.920  31.633  23.098  1.00  0.00     0.169 HD
ATOM     42  C   UNL     1     -47.352  29.362  23.229  1.00  0.00     0.003 A 
ATOM     43  H   UNL     1     -49.062  29.530  24.458  1.00  0.00     0.063 H 
ATOM     44  O   UNL     1     -45.341  29.464  21.989  1.00  0.00    -0.270 OA
ATOM     45  H   UNL     1     -47.599  28.410  22.779  1.00  0.00     0.068 H 
ENDBRANCH  32  35
ENDBRANCH  29  32
ENDBRANCH   3  29
BRANCH   4  46
ATOM     46  O   UNL     1     -46.027  33.855  28.928  1.00  0.00    -0.390 OA
ATOM     47  H   UNL     1     -46.600  33.098  29.148  1.00  0.00     0.211 HD
ENDBRANCH   4  46
TORSDOF 7
ENDMDL
MODEL 6
REMARK VINA RESULT:      -8.2      3.035      8.378
REMARK SMILES Nc1ncnc2c1ccn2[C@@H]1C[C@H](CCc2cccc(=O)[nH]2)[C@@H](O)[C@H]1O
REMARK SMILES IDX 11 1 12 2 13 3 23 4 25 5 10 12 2 13 3 14 7 15 4 16 6 17 8 18
REMARK SMILES IDX 5 19 9 21 1 24 26 27 14 29 15 32 16 35 17 36 22 37 18 38
REMARK SMILES IDX 20 40 19 42 21 44 24 46
REMARK H PARENT 11 6 12 7 12 8 13 9 23 10 25 11 4 20 8 22 9 23 1 25 1 26 26 28
REMARK H PARENT 14 30 14 31 15 33 15 34 17 39 22 41 18 43 19 45 24 47
REMARK Flexibility Score: inf
ROOT
ATOM      1  C   UNL     1     -46.824  37.350  29.049  1.00  0.00     0.064 C 
ATOM      2  C   UNL     1     -46.642  38.689  28.295  1.00  0.00    -0.024 C 
ATOM      3  C   UNL     1     -45.256  39.243  28.687  1.00  0.00    -0.010 C 
ATOM      4  C   UNL     1     -44.566  38.066  29.393  1.00  0.00     0.085 C 
ATOM      5  C   UNL     1     -45.716  37.351  30.106  1.00  0.00     0.101 C 
ATOM      6  H   UNL     1     -47.818  37.353  29.513  1.00  0.00     0.056 H 
ATOM      7  H   UNL     1     -46.778  38.588  27.214  1.00  0.00     0.029 H 
ATOM      8  H   UNL     1     -47.408  39.394  28.640  1.00  0.00     0.029 H 
ATOM      9  H   UNL     1     -45.387  40.060  29.409  1.00  0.00     0.033 H 
ATOM     10  H   UNL     1     -44.068  37.407  28.672  1.00  0.00     0.063 H 
ATOM     11  H   UNL     1     -45.423  36.359  30.463  1.00  0.00     0.065 H 
ENDROOT
BRANCH   1  12
ATOM     12  N   UNL     1     -46.761  36.153  28.215  1.00  0.00    -0.327 N 
ATOM     13  C   UNL     1     -48.456  33.699  26.300  1.00  0.00     0.136 A 
ATOM     14  N   UNL     1     -49.739  34.097  26.408  1.00  0.00    -0.219 NA
ATOM     15  C   UNL     1     -47.459  34.440  26.948  1.00  0.00     0.061 A 
ATOM     16  C   UNL     1     -50.002  35.202  27.133  1.00  0.00     0.120 A 
ATOM     17  C   UNL     1     -47.872  35.556  27.661  1.00  0.00     0.145 A 
ATOM     18  C   UNL     1     -46.047  34.362  27.092  1.00  0.00    -0.031 A 
ATOM     19  N   UNL     1     -49.138  35.985  27.799  1.00  0.00    -0.218 NA
ATOM     20  H   UNL     1     -51.047  35.493  27.189  1.00  0.00     0.106 H 
ATOM     21  C   UNL     1     -45.647  35.416  27.887  1.00  0.00     0.007 A 
ATOM     22  H   UNL     1     -45.395  33.615  26.660  1.00  0.00     0.065 H 
ATOM     23  H   UNL     1     -44.657  35.692  28.223  1.00  0.00     0.082 H 
BRANCH  13  24
ATOM     24  N   UNL     1     -48.206  32.553  25.559  1.00  0.00    -0.383 N 
ATOM     25  H   UNL     1     -47.462  32.717  24.891  1.00  0.00     0.158 HD
ATOM     26  H   UNL     1     -49.028  32.080  25.213  1.00  0.00     0.158 HD
ENDBRANCH  13  24
ENDBRANCH   1  12
BRANCH   5  27
ATOM     27  O   UNL     1     -46.121  38.118  31.249  1.00  0.00    -0.388 OA
ATOM     28  H   UNL     1     -45.335  38.176  31.830  1.00  0.00     0.211 HD
ENDBRANCH   5  27
BRANCH   3  29
ATOM     29  C   UNL     1     -44.412  39.774  27.518  1.00  0.00    -0.042 C 
ATOM     30  H   UNL     1     -45.061  40.060  26.682  1.00  0.00     0.027 H 
ATOM     31  H   UNL     1     -43.782  38.955  27.146  1.00  0.00     0.027 H 
BRANCH  29  32
ATOM     32  C   UNL     1     -43.468  40.933  27.871  1.00  0.00    -0.012 C 
ATOM     33  H   UNL     1     -42.537  40.502  28.263  1.00  0.00     0.033 H 
ATOM     34  H   UNL     1     -43.889  41.511  28.704  1.00  0.00     0.033 H 
BRANCH  32  35
ATOM     35  C   UNL     1     -43.126  41.845  26.726  1.00  0.00     0.018 A 
ATOM     36  C   UNL     1     -41.903  42.373  26.544  1.00  0.00    -0.043 A 
ATOM     37  N   UNL     1     -44.135  42.175  25.847  1.00  0.00    -0.326 N 
ATOM     38  C   UNL     1     -41.646  43.251  25.427  1.00  0.00    -0.055 A 
ATOM     39  H   UNL     1     -41.082  42.154  27.219  1.00  0.00     0.064 H 
ATOM     40  C   UNL     1     -43.981  43.007  24.764  1.00  0.00     0.248 A 
ATOM     41  H   UNL     1     -45.068  41.803  25.975  1.00  0.00     0.169 HD
ATOM     42  C   UNL     1     -42.622  43.567  24.564  1.00  0.00     0.003 A 
ATOM     43  H   UNL     1     -40.644  43.649  25.304  1.00  0.00     0.063 H 
ATOM     44  O   UNL     1     -44.899  43.279  24.000  1.00  0.00    -0.270 OA
ATOM     45  H   UNL     1     -42.477  44.221  23.714  1.00  0.00     0.068 H 
ENDBRANCH  32  35
ENDBRANCH  29  32
ENDBRANCH   3  29
BRANCH   4  46
ATOM     46  O   UNL     1     -43.603  38.536  30.330  1.00  0.00    -0.390 OA
ATOM     47  H   UNL     1     -43.739  39.496  30.429  1.00  0.00     0.211 HD
ENDBRANCH   4  46
TORSDOF 7
ENDMDL
MODEL 7
REMARK VINA RESULT:      -8.2      4.410     11.023
REMARK SMILES Nc1ncnc2c1ccn2[C@@H]1C[C@H](CCc2cccc(=O)[nH]2)[C@@H](O)[C@H]1O
REMARK SMILES IDX 11 1 12 2 13 3 23 4 25 5 10 12 2 13 3 14 7 15 4 16 6 17 8 18
REMARK SMILES IDX 5 19 9 21 1 24 26 27 14 29 15 32 16 35 17 36 22 37 18 38
REMARK SMILES IDX 20 40 19 42 21 44 24 46
REMARK H PARENT 11 6 12 7 12 8 13 9 23 10 25 11 4 20 8 22 9 23 1 25 1 26 26 28
REMARK H PARENT 14 30 14 31 15 33 15 34 17 39 22 41 18 43 19 45 24 47
REMARK Flexibility Score: inf
ROOT
ATOM      1  C   UNL     1     -48.073  29.566  23.306  1.00  0.00     0.064 C 
ATOM      2  C   UNL     1     -47.055  30.715  23.113  1.00  0.00    -0.024 C 
ATOM      3  C   UNL     1     -47.435  31.826  24.117  1.00  0.00    -0.010 C 
ATOM      4  C   UNL     1     -48.447  31.154  25.057  1.00  0.00     0.085 C 
ATOM      5  C   UNL     1     -49.197  30.184  24.142  1.00  0.00     0.101 C 
ATOM      6  H   UNL     1     -48.434  29.262  22.315  1.00  0.00     0.056 H 
ATOM      7  H   UNL     1     -46.018  30.383  23.208  1.00  0.00     0.029 H 
ATOM      8  H   UNL     1     -47.163  31.115  22.098  1.00  0.00     0.029 H 
ATOM      9  H   UNL     1     -47.939  32.640  23.578  1.00  0.00     0.033 H 
ATOM     10  H   UNL     1     -47.940  30.627  25.874  1.00  0.00     0.063 H 
ATOM     11  H   UNL     1     -49.793  29.464  24.711  1.00  0.00     0.065 H 
ENDROOT
BRANCH   1  12
ATOM     12  N   UNL     1     -47.541  28.363  23.939  1.00  0.00    -0.327 N 
ATOM     13  C   UNL     1     -48.046  25.591  26.090  1.00  0.00     0.136 A 
ATOM     14  N   UNL     1     -49.331  25.756  26.461  1.00  0.00    -0.219 NA
ATOM     15  C   UNL     1     -47.467  26.523  25.218  1.00  0.00     0.061 A 
ATOM     16  C   UNL     1     -50.005  26.812  25.966  1.00  0.00     0.120 A 
ATOM     17  C   UNL     1     -48.277  27.563  24.786  1.00  0.00     0.145 A 
ATOM     18  C   UNL     1     -46.195  26.716  24.614  1.00  0.00    -0.031 A 
ATOM     19  N   UNL     1     -49.558  27.768  25.134  1.00  0.00    -0.218 NA
ATOM     20  H   UNL     1     -51.038  26.905  26.284  1.00  0.00     0.106 H 
ATOM     21  C   UNL     1     -46.264  27.860  23.847  1.00  0.00     0.007 A 
ATOM     22  H   UNL     1     -45.325  26.084  24.728  1.00  0.00     0.065 H 
ATOM     23  H   UNL     1     -45.503  28.334  23.240  1.00  0.00     0.082 H 
BRANCH  13  24
ATOM     24  N   UNL     1     -47.365  24.504  26.619  1.00  0.00    -0.383 N 
ATOM     25  H   UNL     1     -47.425  23.709  25.993  1.00  0.00     0.158 HD
ATOM     26  H   UNL     1     -47.542  24.324  27.596  1.00  0.00     0.158 HD
ENDBRANCH  13  24
ENDBRANCH   1  12
BRANCH   5  27
ATOM     27  O   UNL     1     -50.097  30.919  23.300  1.00  0.00    -0.388 OA
ATOM     28  H   UNL     1     -50.933  31.001  23.802  1.00  0.00     0.211 HD
ENDBRANCH   5  27
BRANCH   3  29
ATOM     29  C   UNL     1     -46.256  32.431  24.894  1.00  0.00    -0.042 C 
ATOM     30  H   UNL     1     -45.954  33.383  24.443  1.00  0.00     0.027 H 
ATOM     31  H   UNL     1     -45.393  31.760  24.791  1.00  0.00     0.027 H 
BRANCH  29  32
ATOM     32  C   UNL     1     -46.496  32.615  26.400  1.00  0.00    -0.012 C 
ATOM     33  H   UNL     1     -45.649  32.163  26.934  1.00  0.00     0.033 H 
ATOM     34  H   UNL     1     -47.374  32.032  26.708  1.00  0.00     0.033 H 
BRANCH  32  35
ATOM     35  C   UNL     1     -46.636  34.043  26.852  1.00  0.00     0.018 A 
ATOM     36  C   UNL     1     -46.849  35.066  26.007  1.00  0.00    -0.043 A 
ATOM     37  N   UNL     1     -46.501  34.304  28.198  1.00  0.00    -0.326 N 
ATOM     38  C   UNL     1     -46.963  36.415  26.508  1.00  0.00    -0.055 A 
ATOM     39  H   UNL     1     -46.946  34.910  24.937  1.00  0.00     0.064 H 
ATOM     40  C   UNL     1     -46.587  35.555  28.760  1.00  0.00     0.248 A 
ATOM     41  H   UNL     1     -46.322  33.550  28.851  1.00  0.00     0.169 HD
ATOM     42  C   UNL     1     -46.843  36.672  27.818  1.00  0.00     0.003 A 
ATOM     43  H   UNL     1     -47.148  37.215  25.799  1.00  0.00     0.063 H 
ATOM     44  O   UNL     1     -46.465  35.752  29.963  1.00  0.00    -0.270 OA
ATOM     45  H   UNL     1     -46.920  37.665  28.240  1.00  0.00     0.068 H 
ENDBRANCH  32  35
ENDBRANCH  29  32
ENDBRANCH   3  29
BRANCH   4  46
ATOM     46  O   UNL     1     -49.335  32.119  25.611  1.00  0.00    -0.390 OA
ATOM     47  H   UNL     1     -48.844  32.604  26.299  1.00  0.00     0.211 HD
ENDBRANCH   4  46
TORSDOF 7
ENDMDL
