MODEL 1
REMARK VINA RESULT:     -10.0      0.000      0.000
REMARK SMILES CNC(=O)Nc1cccc(CC[C@H]2C[C@@H](n3ccc4c(N)ncnc43)[C@H](O)[C@@H]2O)c1
REMARK SMILES IDX 11 1 10 4 6 5 7 6 30 7 8 8 9 11 5 14 2 15 3 16 4 18 1 20
REMARK SMILES IDX 12 24 13 27 14 28 28 29 15 31 26 34 29 38 16 40 17 41 25 42
REMARK SMILES IDX 18 43 19 45 24 46 20 48 23 49 22 50 21 52 27 55
REMARK H PARENT 11 2 11 3 7 9 30 10 8 12 9 13 2 17 5 19 1 21 1 22 1 23 12 25
REMARK H PARENT 12 26 13 30 14 32 14 33 28 35 15 36 26 37 29 39 17 44 18 47
REMARK H PARENT 23 51 21 53 21 54 27 56
REMARK Flexibility Score: inf
ROOT
ATOM      1  C   UNL     1     -46.426  36.026  26.816  1.00  0.00    -0.027 C 
ATOM      2  H   UNL     1     -47.082  36.890  26.986  1.00  0.00     0.032 H 
ATOM      3  H   UNL     1     -45.819  36.286  25.939  1.00  0.00     0.032 H 
ENDROOT
BRANCH   1   4
ATOM      4  C   UNL     1     -47.246  34.814  26.455  1.00  0.00    -0.046 A 
ATOM      5  C   UNL     1     -47.377  32.556  25.541  1.00  0.00     0.043 A 
ATOM      6  C   UNL     1     -48.751  32.547  25.797  1.00  0.00    -0.038 A 
ATOM      7  C   UNL     1     -46.636  33.697  25.855  1.00  0.00    -0.035 A 
ATOM      8  C   UNL     1     -49.373  33.657  26.374  1.00  0.00    -0.060 A 
ATOM      9  H   UNL     1     -49.359  31.679  25.555  1.00  0.00     0.064 H 
ATOM     10  H   UNL     1     -45.572  33.744  25.643  1.00  0.00     0.065 H 
ATOM     11  C   UNL     1     -48.624  34.785  26.702  1.00  0.00    -0.059 A 
ATOM     12  H   UNL     1     -50.442  33.641  26.570  1.00  0.00     0.062 H 
ATOM     13  H   UNL     1     -49.119  35.640  27.156  1.00  0.00     0.063 H 
BRANCH   5  14
ATOM     14  N   UNL     1     -46.818  31.401  24.958  1.00  0.00    -0.308 N 
ATOM     15  N   UNL     1     -45.968  29.943  23.444  1.00  0.00    -0.341 N 
ATOM     16  C   UNL     1     -46.360  31.251  23.668  1.00  0.00     0.318 C 
ATOM     17  H   UNL     1     -46.516  29.253  23.936  1.00  0.00     0.165 HD
ATOM     18  O   UNL     1     -46.276  32.120  22.809  1.00  0.00    -0.249 OA
ATOM     19  H   UNL     1     -46.557  30.658  25.588  1.00  0.00     0.171 HD
BRANCH  15  20
ATOM     20  C   UNL     1     -45.499  29.563  22.135  1.00  0.00     0.008 C 
ATOM     21  H   UNL     1     -44.416  29.710  22.087  1.00  0.00     0.046 H 
ATOM     22  H   UNL     1     -45.732  28.511  21.944  1.00  0.00     0.046 H 
ATOM     23  H   UNL     1     -45.992  30.194  21.392  1.00  0.00     0.046 H 
ENDBRANCH  15  20
ENDBRANCH   5  14
ENDBRANCH   1   4
BRANCH   1  24
ATOM     24  C   UNL     1     -45.495  35.852  28.027  1.00  0.00    -0.044 C 
ATOM     25  H   UNL     1     -45.860  35.062  28.695  1.00  0.00     0.027 H 
ATOM     26  H   UNL     1     -44.533  35.497  27.633  1.00  0.00     0.027 H 
BRANCH  24  27
ATOM     27  C   UNL     1     -45.232  37.143  28.823  1.00  0.00    -0.010 C 
ATOM     28  C   UNL     1     -44.596  38.265  27.980  1.00  0.00    -0.024 C 
ATOM     29  C   UNL     1     -46.537  37.754  29.355  1.00  0.00     0.085 C 
ATOM     30  H   UNL     1     -44.567  36.907  29.663  1.00  0.00     0.033 H 
ATOM     31  C   UNL     1     -45.342  39.566  28.332  1.00  0.00     0.064 C 
ATOM     32  H   UNL     1     -43.525  38.351  28.193  1.00  0.00     0.029 H 
ATOM     33  H   UNL     1     -44.706  38.061  26.908  1.00  0.00     0.029 H 
ATOM     34  C   UNL     1     -46.767  39.035  28.545  1.00  0.00     0.101 C 
ATOM     35  H   UNL     1     -47.400  37.083  29.314  1.00  0.00     0.063 H 
ATOM     36  H   UNL     1     -44.955  39.996  29.265  1.00  0.00     0.056 H 
ATOM     37  H   UNL     1     -47.265  38.797  27.597  1.00  0.00     0.065 H 
BRANCH  29  38
ATOM     38  O   UNL     1     -46.342  38.105  30.733  1.00  0.00    -0.390 OA
ATOM     39  H   UNL     1     -47.136  37.750  31.188  1.00  0.00     0.211 HD
ENDBRANCH  29  38
BRANCH  31  40
ATOM     40  N   UNL     1     -45.155  40.607  27.326  1.00  0.00    -0.327 N 
ATOM     41  C   UNL     1     -46.147  41.001  26.449  1.00  0.00     0.007 A 
ATOM     42  C   UNL     1     -43.999  41.294  27.024  1.00  0.00     0.145 A 
ATOM     43  C   UNL     1     -45.640  41.987  25.633  1.00  0.00    -0.031 A 
ATOM     44  H   UNL     1     -47.135  40.560  26.484  1.00  0.00     0.082 H 
ATOM     45  C   UNL     1     -44.278  42.175  25.985  1.00  0.00     0.061 A 
ATOM     46  N   UNL     1     -42.803  41.144  27.624  1.00  0.00    -0.218 NA
ATOM     47  H   UNL     1     -46.187  42.509  24.859  1.00  0.00     0.065 H 
ATOM     48  C   UNL     1     -43.227  42.989  25.538  1.00  0.00     0.136 A 
ATOM     49  C   UNL     1     -41.879  41.983  27.117  1.00  0.00     0.120 A 
ATOM     50  N   UNL     1     -42.021  42.877  26.123  1.00  0.00    -0.219 NA
ATOM     51  H   UNL     1     -40.892  41.931  27.565  1.00  0.00     0.106 H 
BRANCH  48  52
ATOM     52  N   UNL     1     -43.349  43.902  24.500  1.00  0.00    -0.383 N 
ATOM     53  H   UNL     1     -42.434  44.211  24.191  1.00  0.00     0.158 HD
ATOM     54  H   UNL     1     -44.001  43.634  23.776  1.00  0.00     0.158 HD
ENDBRANCH  48  52
ENDBRANCH  31  40
BRANCH  34  55
ATOM     55  O   UNL     1     -47.591  39.914  29.315  1.00  0.00    -0.388 OA
ATOM     56  H   UNL     1     -47.748  40.685  28.727  1.00  0.00     0.211 HD
ENDBRANCH  34  55
ENDBRANCH  24  27
ENDBRANCH   1  24
TORSDOF 9
ENDMDL
MODEL 2
REMARK VINA RESULT:      -9.6      2.110      2.971
REMARK SMILES CNC(=O)Nc1cccc(CC[C@H]2C[C@@H](n3ccc4c(N)ncnc43)[C@H](O)[C@@H]2O)c1
REMARK SMILES IDX 11 1 10 4 6 5 7 6 30 7 8 8 9 11 5 14 2 15 3 16 4 18 1 20
REMARK SMILES IDX 12 24 13 27 14 28 28 29 15 31 26 34 29 38 16 40 17 41 25 42
REMARK SMILES IDX 18 43 19 45 24 46 20 48 23 49 22 50 21 52 27 55
REMARK H PARENT 11 2 11 3 7 9 30 10 8 12 9 13 2 17 5 19 1 21 1 22 1 23 12 25
REMARK H PARENT 12 26 13 30 14 32 14 33 28 35 15 36 26 37 29 39 17 44 18 47
REMARK H PARENT 23 51 21 53 21 54 27 56
REMARK Flexibility Score: inf
ROOT
ATOM      1  C   UNL     1     -48.544  35.236  27.149  1.00  0.00    -0.027 C 
ATOM      2  H   UNL     1     -48.728  34.855  28.161  1.00  0.00     0.032 H 
ATOM      3  H   UNL     1     -49.527  35.539  26.765  1.00  0.00     0.032 H 
ENDROOT
BRANCH   1   4
ATOM      4  C   UNL     1     -48.034  34.130  26.260  1.00  0.00    -0.046 A 
ATOM      5  C   UNL     1     -48.421  32.036  25.070  1.00  0.00     0.043 A 
ATOM      6  C   UNL     1     -47.106  32.080  24.595  1.00  0.00    -0.038 A 
ATOM      7  C   UNL     1     -48.870  33.053  25.915  1.00  0.00    -0.035 A 
ATOM      8  C   UNL     1     -46.259  33.134  24.947  1.00  0.00    -0.060 A 
ATOM      9  H   UNL     1     -46.722  31.300  23.944  1.00  0.00     0.064 H 
ATOM     10  H   UNL     1     -49.877  33.033  26.321  1.00  0.00     0.065 H 
ATOM     11  C   UNL     1     -46.721  34.154  25.776  1.00  0.00    -0.059 A 
ATOM     12  H   UNL     1     -45.239  33.160  24.573  1.00  0.00     0.062 H 
ATOM     13  H   UNL     1     -46.053  34.971  26.037  1.00  0.00     0.063 H 
BRANCH   5  14
ATOM     14  N   UNL     1     -49.218  30.945  24.673  1.00  0.00    -0.308 N 
ATOM     15  N   UNL     1     -50.660  29.634  23.512  1.00  0.00    -0.341 N 
ATOM     16  C   UNL     1     -49.923  30.806  23.497  1.00  0.00     0.318 C 
ATOM     17  H   UNL     1     -51.015  29.377  24.421  1.00  0.00     0.165 HD
ATOM     18  O   UNL     1     -49.919  31.570  22.541  1.00  0.00    -0.249 OA
ATOM     19  H   UNL     1     -49.130  30.100  25.215  1.00  0.00     0.171 HD
BRANCH  15  20
ATOM     20  C   UNL     1     -51.508  29.322  22.389  1.00  0.00     0.008 C 
ATOM     21  H   UNL     1     -51.925  30.250  21.988  1.00  0.00     0.046 H 
ATOM     22  H   UNL     1     -50.927  28.817  21.611  1.00  0.00     0.046 H 
ATOM     23  H   UNL     1     -52.315  28.671  22.733  1.00  0.00     0.046 H 
ENDBRANCH  15  20
ENDBRANCH   5  14
ENDBRANCH   1   4
BRANCH   1  24
ATOM     24  C   UNL     1     -47.644  36.480  27.232  1.00  0.00    -0.044 C 
ATOM     25  H   UNL     1     -47.317  36.796  26.234  1.00  0.00     0.027 H 
ATOM     26  H   UNL     1     -48.271  37.294  27.619  1.00  0.00     0.027 H 
BRANCH  24  27
ATOM     27  C   UNL     1     -46.431  36.330  28.168  1.00  0.00    -0.010 C 
ATOM     28  C   UNL     1     -45.284  37.307  27.847  1.00  0.00    -0.024 C 
ATOM     29  C   UNL     1     -46.803  36.636  29.627  1.00  0.00     0.085 C 
ATOM     30  H   UNL     1     -46.056  35.301  28.093  1.00  0.00     0.033 H 
ATOM     31  C   UNL     1     -44.797  37.880  29.191  1.00  0.00     0.064 C 
ATOM     32  H   UNL     1     -44.475  36.794  27.317  1.00  0.00     0.029 H 
ATOM     33  H   UNL     1     -45.634  38.127  27.208  1.00  0.00     0.029 H 
ATOM     34  C   UNL     1     -46.119  37.966  29.968  1.00  0.00     0.101 C 
ATOM     35  H   UNL     1     -47.878  36.668  29.823  1.00  0.00     0.063 H 
ATOM     36  H   UNL     1     -44.112  37.179  29.687  1.00  0.00     0.056 H 
ATOM     37  H   UNL     1     -46.740  38.806  29.632  1.00  0.00     0.065 H 
BRANCH  29  38
ATOM     38  O   UNL     1     -46.252  35.605  30.459  1.00  0.00    -0.390 OA
ATOM     39  H   UNL     1     -45.903  34.942  29.826  1.00  0.00     0.211 HD
ENDBRANCH  29  38
BRANCH  31  40
ATOM     40  N   UNL     1     -44.031  39.112  29.029  1.00  0.00    -0.327 N 
ATOM     41  C   UNL     1     -43.047  39.515  29.911  1.00  0.00     0.007 A 
ATOM     42  C   UNL     1     -44.192  40.088  28.070  1.00  0.00     0.145 A 
ATOM     43  C   UNL     1     -42.536  40.716  29.475  1.00  0.00    -0.031 A 
ATOM     44  H   UNL     1     -42.779  38.910  30.768  1.00  0.00     0.082 H 
ATOM     45  C   UNL     1     -43.260  41.091  28.313  1.00  0.00     0.061 A 
ATOM     46  N   UNL     1     -45.093  40.083  27.070  1.00  0.00    -0.218 NA
ATOM     47  H   UNL     1     -41.736  41.271  29.947  1.00  0.00     0.065 H 
ATOM     48  C   UNL     1     -43.247  42.179  27.428  1.00  0.00     0.136 A 
ATOM     49  C   UNL     1     -44.977  41.170  26.284  1.00  0.00     0.120 A 
ATOM     50  N   UNL     1     -44.123  42.201  26.408  1.00  0.00    -0.219 NA
ATOM     51  H   UNL     1     -45.662  41.225  25.443  1.00  0.00     0.106 H 
BRANCH  48  52
ATOM     52  N   UNL     1     -42.387  43.261  27.551  1.00  0.00    -0.383 N 
ATOM     53  H   UNL     1     -42.879  44.064  27.926  1.00  0.00     0.158 HD
ATOM     54  H   UNL     1     -41.494  43.045  27.972  1.00  0.00     0.158 HD
ENDBRANCH  48  52
ENDBRANCH  31  40
BRANCH  34  55
ATOM     55  O   UNL     1     -45.942  38.032  31.385  1.00  0.00    -0.388 OA
ATOM     56  H   UNL     1     -46.604  38.693  31.686  1.00  0.00     0.211 HD
ENDBRANCH  34  55
ENDBRANCH  24  27
ENDBRANCH   1  24
TORSDOF 9
ENDMDL
MODEL 3
REMARK VINA RESULT:      -9.6      2.549      3.194
REMARK SMILES CNC(=O)Nc1cccc(CC[C@H]2C[C@@H](n3ccc4c(N)ncnc43)[C@H](O)[C@@H]2O)c1
REMARK SMILES IDX 11 1 10 4 6 5 7 6 30 7 8 8 9 11 5 14 2 15 3 16 4 18 1 20
REMARK SMILES IDX 12 24 13 27 14 28 28 29 15 31 26 34 29 38 16 40 17 41 25 42
REMARK SMILES IDX 18 43 19 45 24 46 20 48 23 49 22 50 21 52 27 55
REMARK H PARENT 11 2 11 3 7 9 30 10 8 12 9 13 2 17 5 19 1 21 1 22 1 23 12 25
REMARK H PARENT 12 26 13 30 14 32 14 33 28 35 15 36 26 37 29 39 17 44 18 47
REMARK H PARENT 23 51 21 53 21 54 27 56
REMARK Flexibility Score: inf
ROOT
ATOM      1  C   UNL     1     -47.605  33.999  26.388  1.00  0.00    -0.027 C 
ATOM      2  H   UNL     1     -48.238  33.799  27.261  1.00  0.00     0.032 H 
ATOM      3  H   UNL     1     -48.132  34.772  25.812  1.00  0.00     0.032 H 
ENDROOT
BRANCH   1   4
ATOM      4  C   UNL     1     -47.517  32.770  25.517  1.00  0.00    -0.046 A 
ATOM      5  C   UNL     1     -48.412  30.608  24.830  1.00  0.00     0.043 A 
ATOM      6  C   UNL     1     -47.378  30.494  23.895  1.00  0.00    -0.038 A 
ATOM      7  C   UNL     1     -48.463  31.738  25.648  1.00  0.00    -0.035 A 
ATOM      8  C   UNL     1     -46.420  31.503  23.769  1.00  0.00    -0.060 A 
ATOM      9  H   UNL     1     -47.303  29.623  23.249  1.00  0.00     0.064 H 
ATOM     10  H   UNL     1     -49.239  31.842  26.402  1.00  0.00     0.065 H 
ATOM     11  C   UNL     1     -46.490  32.637  24.576  1.00  0.00    -0.059 A 
ATOM     12  H   UNL     1     -45.621  31.406  23.039  1.00  0.00     0.062 H 
ATOM     13  H   UNL     1     -45.741  33.417  24.463  1.00  0.00     0.063 H 
BRANCH   5  14
ATOM     14  N   UNL     1     -49.342  29.552  24.900  1.00  0.00    -0.308 N 
ATOM     15  N   UNL     1     -50.271  27.514  25.250  1.00  0.00    -0.341 N 
ATOM     16  C   UNL     1     -49.155  28.307  25.457  1.00  0.00     0.318 C 
ATOM     17  H   UNL     1     -50.743  27.678  24.374  1.00  0.00     0.165 HD
ATOM     18  O   UNL     1     -48.172  27.913  26.071  1.00  0.00    -0.249 OA
ATOM     19  H   UNL     1     -50.301  29.779  24.684  1.00  0.00     0.171 HD
BRANCH  15  20
ATOM     20  C   UNL     1     -50.261  26.149  25.718  1.00  0.00     0.008 C 
ATOM     21  H   UNL     1     -50.714  25.509  24.957  1.00  0.00     0.046 H 
ATOM     22  H   UNL     1     -49.233  25.825  25.903  1.00  0.00     0.046 H 
ATOM     23  H   UNL     1     -50.841  26.095  26.642  1.00  0.00     0.046 H 
ENDBRANCH  15  20
ENDBRANCH   5  14
ENDBRANCH   1   4
BRANCH   1  24
ATOM     24  C   UNL     1     -46.257  34.568  26.859  1.00  0.00    -0.044 C 
ATOM     25  H   UNL     1     -45.558  33.763  27.117  1.00  0.00     0.027 H 
ATOM     26  H   UNL     1     -45.818  35.087  25.996  1.00  0.00     0.027 H 
BRANCH  24  27
ATOM     27  C   UNL     1     -46.358  35.576  28.017  1.00  0.00    -0.010 C 
ATOM     28  C   UNL     1     -45.304  36.697  27.950  1.00  0.00    -0.024 C 
ATOM     29  C   UNL     1     -47.706  36.314  28.008  1.00  0.00     0.085 C 
ATOM     30  H   UNL     1     -46.243  35.034  28.964  1.00  0.00     0.033 H 
ATOM     31  C   UNL     1     -46.034  38.017  28.259  1.00  0.00     0.064 C 
ATOM     32  H   UNL     1     -44.496  36.513  28.666  1.00  0.00     0.029 H 
ATOM     33  H   UNL     1     -44.855  36.754  26.950  1.00  0.00     0.029 H 
ATOM     34  C   UNL     1     -47.396  37.758  27.597  1.00  0.00     0.101 C 
ATOM     35  H   UNL     1     -48.466  35.860  27.364  1.00  0.00     0.063 H 
ATOM     36  H   UNL     1     -46.159  38.148  29.342  1.00  0.00     0.056 H 
ATOM     37  H   UNL     1     -47.345  37.836  26.504  1.00  0.00     0.065 H 
BRANCH  29  38
ATOM     38  O   UNL     1     -48.231  36.314  29.343  1.00  0.00    -0.390 OA
ATOM     39  H   UNL     1     -49.130  35.932  29.251  1.00  0.00     0.211 HD
ENDBRANCH  29  38
BRANCH  31  40
ATOM     40  N   UNL     1     -45.284  39.188  27.817  1.00  0.00    -0.327 N 
ATOM     41  C   UNL     1     -45.521  39.834  26.619  1.00  0.00     0.007 A 
ATOM     42  C   UNL     1     -44.206  39.785  28.435  1.00  0.00     0.145 A 
ATOM     43  C   UNL     1     -44.637  40.884  26.507  1.00  0.00    -0.031 A 
ATOM     44  H   UNL     1     -46.307  39.506  25.950  1.00  0.00     0.082 H 
ATOM     45  C   UNL     1     -43.795  40.856  27.650  1.00  0.00     0.061 A 
ATOM     46  N   UNL     1     -43.641  39.404  29.596  1.00  0.00    -0.218 NA
ATOM     47  H   UNL     1     -44.593  41.587  25.687  1.00  0.00     0.065 H 
ATOM     48  C   UNL     1     -42.712  41.614  28.118  1.00  0.00     0.136 A 
ATOM     49  C   UNL     1     -42.621  40.210  29.946  1.00  0.00     0.120 A 
ATOM     50  N   UNL     1     -42.131  41.271  29.282  1.00  0.00    -0.219 NA
ATOM     51  H   UNL     1     -42.127  39.973  30.884  1.00  0.00     0.106 H 
BRANCH  48  52
ATOM     52  N   UNL     1     -42.180  42.700  27.437  1.00  0.00    -0.383 N 
ATOM     53  H   UNL     1     -41.570  43.234  28.044  1.00  0.00     0.158 HD
ATOM     54  H   UNL     1     -41.823  42.486  26.516  1.00  0.00     0.158 HD
ENDBRANCH  48  52
ENDBRANCH  31  40
BRANCH  34  55
ATOM     55  O   UNL     1     -48.438  38.601  28.093  1.00  0.00    -0.388 OA
ATOM     56  H   UNL     1     -49.266  38.105  27.911  1.00  0.00     0.211 HD
ENDBRANCH  34  55
ENDBRANCH  24  27
ENDBRANCH   1  24
TORSDOF 9
ENDMDL
MODEL 4
REMARK VINA RESULT:      -9.5      1.918      2.542
REMARK SMILES CNC(=O)Nc1cccc(CC[C@H]2C[C@@H](n3ccc4c(N)ncnc43)[C@H](O)[C@@H]2O)c1
REMARK SMILES IDX 11 1 10 4 6 5 7 6 30 7 8 8 9 11 5 14 2 15 3 16 4 18 1 20
REMARK SMILES IDX 12 24 13 27 14 28 28 29 15 31 26 34 29 38 16 40 17 41 25 42
REMARK SMILES IDX 18 43 19 45 24 46 20 48 23 49 22 50 21 52 27 55
REMARK H PARENT 11 2 11 3 7 9 30 10 8 12 9 13 2 17 5 19 1 21 1 22 1 23 12 25
REMARK H PARENT 12 26 13 30 14 32 14 33 28 35 15 36 26 37 29 39 17 44 18 47
REMARK H PARENT 23 51 21 53 21 54 27 56
REMARK Flexibility Score: inf
ROOT
ATOM      1  C   UNL     1     -49.301  35.508  26.924  1.00  0.00    -0.027 C 
ATOM      2  H   UNL     1     -50.197  35.032  27.340  1.00  0.00     0.032 H 
ATOM      3  H   UNL     1     -49.644  36.060  26.039  1.00  0.00     0.032 H 
ENDROOT
BRANCH   1   4
ATOM      4  C   UNL     1     -48.326  34.459  26.452  1.00  0.00    -0.046 A 
ATOM      5  C   UNL     1     -47.728  32.110  26.178  1.00  0.00     0.043 A 
ATOM      6  C   UNL     1     -46.535  32.501  25.562  1.00  0.00    -0.038 A 
ATOM      7  C   UNL     1     -48.608  33.093  26.635  1.00  0.00    -0.035 A 
ATOM      8  C   UNL     1     -46.233  33.854  25.392  1.00  0.00    -0.060 A 
ATOM      9  H   UNL     1     -45.824  31.761  25.204  1.00  0.00     0.064 H 
ATOM     10  H   UNL     1     -49.529  32.821  27.141  1.00  0.00     0.065 H 
ATOM     11  C   UNL     1     -47.125  34.829  25.834  1.00  0.00    -0.059 A 
ATOM     12  H   UNL     1     -45.304  34.148  24.912  1.00  0.00     0.062 H 
ATOM     13  H   UNL     1     -46.881  35.878  25.690  1.00  0.00     0.063 H 
BRANCH   5  14
ATOM     14  N   UNL     1     -47.966  30.728  26.314  1.00  0.00    -0.308 N 
ATOM     15  N   UNL     1     -48.716  28.620  25.945  1.00  0.00    -0.341 N 
ATOM     16  C   UNL     1     -48.589  29.892  25.414  1.00  0.00     0.318 C 
ATOM     17  H   UNL     1     -48.872  28.598  26.942  1.00  0.00     0.165 HD
ATOM     18  O   UNL     1     -48.977  30.178  24.289  1.00  0.00    -0.249 OA
ATOM     19  H   UNL     1     -47.480  30.257  27.062  1.00  0.00     0.171 HD
BRANCH  15  20
ATOM     20  C   UNL     1     -49.386  27.601  25.177  1.00  0.00     0.008 C 
ATOM     21  H   UNL     1     -48.637  26.954  24.713  1.00  0.00     0.046 H 
ATOM     22  H   UNL     1     -50.031  27.003  25.829  1.00  0.00     0.046 H 
ATOM     23  H   UNL     1     -49.987  28.086  24.404  1.00  0.00     0.046 H 
ENDBRANCH  15  20
ENDBRANCH   5  14
ENDBRANCH   1   4
BRANCH   1  24
ATOM     24  C   UNL     1     -48.741  36.512  27.945  1.00  0.00    -0.044 C 
ATOM     25  H   UNL     1     -49.058  37.535  27.705  1.00  0.00     0.027 H 
ATOM     26  H   UNL     1     -49.204  36.268  28.910  1.00  0.00     0.027 H 
BRANCH  24  27
ATOM     27  C   UNL     1     -47.213  36.457  28.125  1.00  0.00    -0.010 C 
ATOM     28  C   UNL     1     -46.458  37.514  27.297  1.00  0.00    -0.024 C 
ATOM     29  C   UNL     1     -46.806  36.741  29.578  1.00  0.00     0.085 C 
ATOM     30  H   UNL     1     -46.863  35.458  27.834  1.00  0.00     0.033 H 
ATOM     31  C   UNL     1     -45.391  38.127  28.223  1.00  0.00     0.064 C 
ATOM     32  H   UNL     1     -46.003  37.060  26.411  1.00  0.00     0.029 H 
ATOM     33  H   UNL     1     -47.139  38.303  26.954  1.00  0.00     0.029 H 
ATOM     34  C   UNL     1     -46.133  38.118  29.568  1.00  0.00     0.101 C 
ATOM     35  H   UNL     1     -47.629  36.693  30.297  1.00  0.00     0.063 H 
ATOM     36  H   UNL     1     -44.505  37.481  28.276  1.00  0.00     0.056 H 
ATOM     37  H   UNL     1     -46.892  38.909  29.626  1.00  0.00     0.065 H 
BRANCH  29  38
ATOM     38  O   UNL     1     -45.841  35.756  29.978  1.00  0.00    -0.390 OA
ATOM     39  H   UNL     1     -45.544  36.053  30.865  1.00  0.00     0.211 HD
ENDBRANCH  29  38
BRANCH  31  40
ATOM     40  N   UNL     1     -44.898  39.411  27.735  1.00  0.00    -0.327 N 
ATOM     41  C   UNL     1     -45.348  40.004  26.571  1.00  0.00     0.007 A 
ATOM     42  C   UNL     1     -43.891  40.188  28.267  1.00  0.00     0.145 A 
ATOM     43  C   UNL     1     -44.673  41.192  26.399  1.00  0.00    -0.031 A 
ATOM     44  H   UNL     1     -46.119  39.542  25.968  1.00  0.00     0.082 H 
ATOM     45  C   UNL     1     -43.743  41.314  27.464  1.00  0.00     0.061 A 
ATOM     46  N   UNL     1     -43.169  39.913  29.369  1.00  0.00    -0.218 NA
ATOM     47  H   UNL     1     -44.824  41.892  25.588  1.00  0.00     0.065 H 
ATOM     48  C   UNL     1     -42.773  42.249  27.849  1.00  0.00     0.136 A 
ATOM     49  C   UNL     1     -42.279  40.885  29.642  1.00  0.00     0.120 A 
ATOM     50  N   UNL     1     -42.041  42.016  28.953  1.00  0.00    -0.219 NA
ATOM     51  H   UNL     1     -41.671  40.739  30.530  1.00  0.00     0.106 H 
BRANCH  48  52
ATOM     52  N   UNL     1     -42.499  43.411  27.140  1.00  0.00    -0.383 N 
ATOM     53  H   UNL     1     -41.641  43.309  26.610  1.00  0.00     0.158 HD
ATOM     54  H   UNL     1     -43.290  43.798  26.644  1.00  0.00     0.158 HD
ENDBRANCH  48  52
ENDBRANCH  31  40
BRANCH  34  55
ATOM     55  O   UNL     1     -45.261  38.203  30.698  1.00  0.00    -0.388 OA
ATOM     56  H   UNL     1     -45.562  39.003  31.183  1.00  0.00     0.211 HD
ENDBRANCH  34  55
ENDBRANCH  24  27
ENDBRANCH   1  24
TORSDOF 9
ENDMDL
MODEL 5
REMARK VINA RESULT:      -9.5      2.333      9.865
REMARK SMILES CNC(=O)Nc1cccc(CC[C@H]2C[C@@H](n3ccc4c(N)ncnc43)[C@H](O)[C@@H]2O)c1
REMARK SMILES IDX 11 1 10 4 6 5 7 6 30 7 8 8 9 11 5 14 2 15 3 16 4 18 1 20
REMARK SMILES IDX 12 24 13 27 14 28 28 29 15 31 26 34 29 38 16 40 17 41 25 42
REMARK SMILES IDX 18 43 19 45 24 46 20 48 23 49 22 50 21 52 27 55
REMARK H PARENT 11 2 11 3 7 9 30 10 8 12 9 13 2 17 5 19 1 21 1 22 1 23 12 25
REMARK H PARENT 12 26 13 30 14 32 14 33 28 35 15 36 26 37 29 39 17 44 18 47
REMARK H PARENT 23 51 21 53 21 54 27 56
REMARK Flexibility Score: inf
ROOT
ATOM      1  C   UNL     1     -46.755  36.367  26.699  1.00  0.00    -0.027 C 
ATOM      2  H   UNL     1     -46.018  35.745  26.176  1.00  0.00     0.032 H 
ATOM      3  H   UNL     1     -46.912  37.243  26.055  1.00  0.00     0.032 H 
ENDROOT
BRANCH   1   4
ATOM      4  C   UNL     1     -46.184  36.864  28.003  1.00  0.00    -0.046 A 
ATOM      5  C   UNL     1     -44.741  38.411  29.218  1.00  0.00     0.043 A 
ATOM      6  C   UNL     1     -45.132  37.809  30.419  1.00  0.00    -0.038 A 
ATOM      7  C   UNL     1     -45.257  37.921  28.016  1.00  0.00    -0.035 A 
ATOM      8  C   UNL     1     -46.036  36.745  30.418  1.00  0.00    -0.060 A 
ATOM      9  H   UNL     1     -44.742  38.159  31.370  1.00  0.00     0.064 H 
ATOM     10  H   UNL     1     -44.952  38.350  27.066  1.00  0.00     0.065 H 
ATOM     11  C   UNL     1     -46.561  36.275  29.216  1.00  0.00    -0.059 A 
ATOM     12  H   UNL     1     -46.334  36.284  31.356  1.00  0.00     0.062 H 
ATOM     13  H   UNL     1     -47.269  35.450  29.230  1.00  0.00     0.063 H 
BRANCH   5  14
ATOM     14  N   UNL     1     -43.826  39.480  29.295  1.00  0.00    -0.308 N 
ATOM     15  N   UNL     1     -42.672  41.372  28.814  1.00  0.00    -0.341 N 
ATOM     16  C   UNL     1     -43.766  40.591  28.482  1.00  0.00     0.318 C 
ATOM     17  H   UNL     1     -41.866  40.850  29.123  1.00  0.00     0.165 HD
ATOM     18  O   UNL     1     -44.550  40.898  27.594  1.00  0.00    -0.249 OA
ATOM     19  H   UNL     1     -43.268  39.538  30.132  1.00  0.00     0.171 HD
BRANCH  15  20
ATOM     20  C   UNL     1     -42.400  42.563  28.049  1.00  0.00     0.008 C 
ATOM     21  H   UNL     1     -43.040  43.373  28.411  1.00  0.00     0.046 H 
ATOM     22  H   UNL     1     -41.350  42.849  28.161  1.00  0.00     0.046 H 
ATOM     23  H   UNL     1     -42.620  42.359  26.998  1.00  0.00     0.046 H 
ENDBRANCH  15  20
ENDBRANCH   5  14
ENDBRANCH   1   4
BRANCH   1  24
ATOM     24  C   UNL     1     -48.079  35.596  26.813  1.00  0.00    -0.044 C 
ATOM     25  H   UNL     1     -48.695  35.989  27.632  1.00  0.00     0.027 H 
ATOM     26  H   UNL     1     -48.638  35.795  25.889  1.00  0.00     0.027 H 
BRANCH  24  27
ATOM     27  C   UNL     1     -47.921  34.071  26.952  1.00  0.00    -0.010 C 
ATOM     28  C   UNL     1     -48.887  33.270  26.058  1.00  0.00    -0.024 C 
ATOM     29  C   UNL     1     -46.522  33.607  26.520  1.00  0.00     0.085 C 
ATOM     30  H   UNL     1     -48.093  33.795  28.000  1.00  0.00     0.033 H 
ATOM     31  C   UNL     1     -48.064  32.140  25.411  1.00  0.00     0.064 C 
ATOM     32  H   UNL     1     -49.718  32.868  26.647  1.00  0.00     0.029 H 
ATOM     33  H   UNL     1     -49.313  33.905  25.272  1.00  0.00     0.029 H 
ATOM     34  C   UNL     1     -46.715  32.845  25.204  1.00  0.00     0.101 C 
ATOM     35  H   UNL     1     -45.788  34.413  26.422  1.00  0.00     0.063 H 
ATOM     36  H   UNL     1     -47.947  31.297  26.106  1.00  0.00     0.056 H 
ATOM     37  H   UNL     1     -46.742  33.548  24.362  1.00  0.00     0.065 H 
BRANCH  29  38
ATOM     38  O   UNL     1     -46.021  32.699  27.512  1.00  0.00    -0.390 OA
ATOM     39  H   UNL     1     -45.910  31.851  27.031  1.00  0.00     0.211 HD
ENDBRANCH  29  38
BRANCH  31  40
ATOM     40  N   UNL     1     -48.716  31.576  24.234  1.00  0.00    -0.327 N 
ATOM     41  C   UNL     1     -50.048  31.211  24.206  1.00  0.00     0.007 A 
ATOM     42  C   UNL     1     -48.141  31.244  23.026  1.00  0.00     0.145 A 
ATOM     43  C   UNL     1     -50.336  30.707  22.957  1.00  0.00    -0.031 A 
ATOM     44  H   UNL     1     -50.686  31.350  25.069  1.00  0.00     0.082 H 
ATOM     45  C   UNL     1     -49.132  30.718  22.205  1.00  0.00     0.061 A 
ATOM     46  N   UNL     1     -46.846  31.396  22.690  1.00  0.00    -0.218 NA
ATOM     47  H   UNL     1     -51.304  30.359  22.625  1.00  0.00     0.065 H 
ATOM     48  C   UNL     1     -48.752  30.332  20.911  1.00  0.00     0.136 A 
ATOM     49  C   UNL     1     -46.605  31.001  21.426  1.00  0.00     0.120 A 
ATOM     50  N   UNL     1     -47.470  30.482  20.535  1.00  0.00    -0.219 NA
ATOM     51  H   UNL     1     -45.582  31.111  21.079  1.00  0.00     0.106 H 
BRANCH  48  52
ATOM     52  N   UNL     1     -49.625  29.776  19.986  1.00  0.00    -0.383 N 
ATOM     53  H   UNL     1     -49.321  29.986  19.042  1.00  0.00     0.158 HD
ATOM     54  H   UNL     1     -49.883  28.817  20.173  1.00  0.00     0.158 HD
ENDBRANCH  48  52
ENDBRANCH  31  40
BRANCH  34  55
ATOM     55  O   UNL     1     -45.620  31.940  25.042  1.00  0.00    -0.388 OA
ATOM     56  H   UNL     1     -45.120  32.003  25.885  1.00  0.00     0.211 HD
ENDBRANCH  34  55
ENDBRANCH  24  27
ENDBRANCH   1  24
TORSDOF 9
ENDMDL
MODEL 6
REMARK VINA RESULT:      -9.0      1.836      2.144
REMARK SMILES CNC(=O)Nc1cccc(CC[C@H]2C[C@@H](n3ccc4c(N)ncnc43)[C@H](O)[C@@H]2O)c1
REMARK SMILES IDX 11 1 10 4 6 5 7 6 30 7 8 8 9 11 5 14 2 15 3 16 4 18 1 20
REMARK SMILES IDX 12 24 13 27 14 28 28 29 15 31 26 34 29 38 16 40 17 41 25 42
REMARK SMILES IDX 18 43 19 45 24 46 20 48 23 49 22 50 21 52 27 55
REMARK H PARENT 11 2 11 3 7 9 30 10 8 12 9 13 2 17 5 19 1 21 1 22 1 23 12 25
REMARK H PARENT 12 26 13 30 14 32 14 33 28 35 15 36 26 37 29 39 17 44 18 47
REMARK H PARENT 23 51 21 53 21 54 27 56
REMARK Flexibility Score: inf
ROOT
ATOM      1  C   UNL     1     -46.069  34.720  26.236  1.00  0.00    -0.027 C 
ATOM      2  H   UNL     1     -46.360  35.749  25.992  1.00  0.00     0.032 H 
ATOM      3  H   UNL     1     -45.188  34.507  25.617  1.00  0.00     0.032 H 
ENDROOT
BRANCH   1   4
ATOM      4  C   UNL     1     -47.155  33.759  25.821  1.00  0.00    -0.046 A 
ATOM      5  C   UNL     1     -47.927  31.947  24.382  1.00  0.00     0.043 A 
ATOM      6  C   UNL     1     -49.154  31.957  25.053  1.00  0.00    -0.038 A 
ATOM      7  C   UNL     1     -46.942  32.862  24.759  1.00  0.00    -0.035 A 
ATOM      8  C   UNL     1     -49.386  32.857  26.096  1.00  0.00    -0.060 A 
ATOM      9  H   UNL     1     -49.946  31.266  24.778  1.00  0.00     0.064 H 
ATOM     10  H   UNL     1     -45.988  32.896  24.240  1.00  0.00     0.065 H 
ATOM     11  C   UNL     1     -48.391  33.754  26.479  1.00  0.00    -0.059 A 
ATOM     12  H   UNL     1     -50.342  32.857  26.612  1.00  0.00     0.062 H 
ATOM     13  H   UNL     1     -48.582  34.444  27.296  1.00  0.00     0.063 H 
BRANCH   5  14
ATOM     14  N   UNL     1     -47.763  31.012  23.341  1.00  0.00    -0.308 N 
ATOM     15  N   UNL     1     -48.137  29.753  21.493  1.00  0.00    -0.341 N 
ATOM     16  C   UNL     1     -48.575  30.830  22.243  1.00  0.00     0.318 C 
ATOM     17  H   UNL     1     -47.739  29.000  22.036  1.00  0.00     0.165 HD
ATOM     18  O   UNL     1     -49.544  31.506  21.922  1.00  0.00    -0.249 OA
ATOM     19  H   UNL     1     -46.872  30.542  23.291  1.00  0.00     0.171 HD
BRANCH  15  20
ATOM     20  C   UNL     1     -48.879  29.364  20.320  1.00  0.00     0.008 C 
ATOM     21  H   UNL     1     -48.339  29.695  19.429  1.00  0.00     0.046 H 
ATOM     22  H   UNL     1     -48.994  28.276  20.293  1.00  0.00     0.046 H 
ATOM     23  H   UNL     1     -49.862  29.840  20.357  1.00  0.00     0.046 H 
ENDBRANCH  15  20
ENDBRANCH   5  14
ENDBRANCH   1   4
BRANCH   1  24
ATOM     24  C   UNL     1     -45.659  34.647  27.716  1.00  0.00    -0.044 C 
ATOM     25  H   UNL     1     -46.053  33.739  28.190  1.00  0.00     0.027 H 
ATOM     26  H   UNL     1     -44.565  34.549  27.734  1.00  0.00     0.027 H 
BRANCH  24  27
ATOM     27  C   UNL     1     -46.036  35.888  28.546  1.00  0.00    -0.010 C 
ATOM     28  C   UNL     1     -45.025  37.043  28.417  1.00  0.00    -0.024 C 
ATOM     29  C   UNL     1     -47.372  36.491  28.085  1.00  0.00     0.085 C 
ATOM     30  H   UNL     1     -46.111  35.594  29.601  1.00  0.00     0.033 H 
ATOM     31  C   UNL     1     -45.844  38.335  28.238  1.00  0.00     0.064 C 
ATOM     32  H   UNL     1     -44.385  37.098  29.304  1.00  0.00     0.029 H 
ATOM     33  H   UNL     1     -44.375  36.900  27.546  1.00  0.00     0.029 H 
ATOM     34  C   UNL     1     -47.024  37.818  27.401  1.00  0.00     0.101 C 
ATOM     35  H   UNL     1     -47.962  35.839  27.434  1.00  0.00     0.063 H 
ATOM     36  H   UNL     1     -46.202  38.706  29.208  1.00  0.00     0.056 H 
ATOM     37  H   UNL     1     -46.741  37.642  26.356  1.00  0.00     0.065 H 
BRANCH  29  38
ATOM     38  O   UNL     1     -48.170  36.762  29.246  1.00  0.00    -0.390 OA
ATOM     39  H   UNL     1     -48.194  37.742  29.300  1.00  0.00     0.211 HD
ENDBRANCH  29  38
BRANCH  31  40
ATOM     40  N   UNL     1     -45.051  39.427  27.681  1.00  0.00    -0.327 N 
ATOM     41  C   UNL     1     -45.252  39.941  26.415  1.00  0.00     0.007 A 
ATOM     42  C   UNL     1     -43.964  40.057  28.247  1.00  0.00     0.145 A 
ATOM     43  C   UNL     1     -44.333  40.944  26.202  1.00  0.00    -0.031 A 
ATOM     44  H   UNL     1     -46.038  39.563  25.774  1.00  0.00     0.082 H 
ATOM     45  C   UNL     1     -43.509  41.020  27.354  1.00  0.00     0.061 A 
ATOM     46  N   UNL     1     -43.427  39.791  29.453  1.00  0.00    -0.218 NA
ATOM     47  H   UNL     1     -44.257  41.550  25.309  1.00  0.00     0.065 H 
ATOM     48  C   UNL     1     -42.409  41.793  27.754  1.00  0.00     0.136 A 
ATOM     49  C   UNL     1     -42.387  40.601  29.728  1.00  0.00     0.120 A 
ATOM     50  N   UNL     1     -41.855  41.566  28.958  1.00  0.00    -0.219 NA
ATOM     51  H   UNL     1     -41.913  40.456  30.695  1.00  0.00     0.106 H 
BRANCH  48  52
ATOM     52  N   UNL     1     -41.834  42.779  26.964  1.00  0.00    -0.383 N 
ATOM     53  H   UNL     1     -41.611  43.595  27.523  1.00  0.00     0.158 HD
ATOM     54  H   UNL     1     -41.111  42.451  26.340  1.00  0.00     0.158 HD
ENDBRANCH  48  52
ENDBRANCH  31  40
BRANCH  34  55
ATOM     55  O   UNL     1     -48.172  38.668  27.454  1.00  0.00    -0.388 OA
ATOM     56  H   UNL     1     -48.790  38.211  28.068  1.00  0.00     0.211 HD
ENDBRANCH  34  55
ENDBRANCH  24  27
ENDBRANCH   1  24
TORSDOF 9
ENDMDL
MODEL 7
REMARK VINA RESULT:      -8.9      2.220      9.483
REMARK SMILES CNC(=O)Nc1cccc(CC[C@H]2C[C@@H](n3ccc4c(N)ncnc43)[C@H](O)[C@@H]2O)c1
REMARK SMILES IDX 11 1 10 4 6 5 7 6 30 7 8 8 9 11 5 14 2 15 3 16 4 18 1 20
REMARK SMILES IDX 12 24 13 27 14 28 28 29 15 31 26 34 29 38 16 40 17 41 25 42
REMARK SMILES IDX 18 43 19 45 24 46 20 48 23 49 22 50 21 52 27 55
REMARK H PARENT 11 2 11 3 7 9 30 10 8 12 9 13 2 17 5 19 1 21 1 22 1 23 12 25
REMARK H PARENT 12 26 13 30 14 32 14 33 28 35 15 36 26 37 29 39 17 44 18 47
REMARK H PARENT 23 51 21 53 21 54 27 56
REMARK Flexibility Score: inf
ROOT
ATOM      1  C   UNL     1     -45.018  38.916  28.261  1.00  0.00    -0.027 C 
ATOM      2  H   UNL     1     -45.607  39.164  29.152  1.00  0.00     0.032 H 
ATOM      3  H   UNL     1     -44.351  38.099  28.566  1.00  0.00     0.032 H 
ENDROOT
BRANCH   1   4
ATOM      4  C   UNL     1     -44.150  40.086  27.870  1.00  0.00    -0.046 A 
ATOM      5  C   UNL     1     -43.460  41.735  26.210  1.00  0.00     0.043 A 
ATOM      6  C   UNL     1     -42.559  42.269  27.137  1.00  0.00    -0.038 A 
ATOM      7  C   UNL     1     -44.236  40.634  26.577  1.00  0.00    -0.035 A 
ATOM      8  C   UNL     1     -42.449  41.722  28.417  1.00  0.00    -0.060 A 
ATOM      9  H   UNL     1     -41.933  43.119  26.880  1.00  0.00     0.064 H 
ATOM     10  H   UNL     1     -44.925  40.180  25.871  1.00  0.00     0.065 H 
ATOM     11  C   UNL     1     -43.241  40.635  28.783  1.00  0.00    -0.059 A 
ATOM     12  H   UNL     1     -41.747  42.144  29.131  1.00  0.00     0.062 H 
ATOM     13  H   UNL     1     -43.150  40.222  29.784  1.00  0.00     0.063 H 
BRANCH   5  14
ATOM     14  N   UNL     1     -43.518  42.339  24.938  1.00  0.00    -0.308 N 
ATOM     15  N   UNL     1     -44.254  43.481  23.123  1.00  0.00    -0.341 N 
ATOM     16  C   UNL     1     -44.508  43.161  24.446  1.00  0.00     0.318 C 
ATOM     17  H   UNL     1     -43.810  42.746  22.593  1.00  0.00     0.165 HD
ATOM     18  O   UNL     1     -45.481  43.588  25.052  1.00  0.00    -0.249 OA
ATOM     19  H   UNL     1     -42.672  42.320  24.390  1.00  0.00     0.171 HD
BRANCH  15  20
ATOM     20  C   UNL     1     -45.199  44.299  22.404  1.00  0.00     0.008 C 
ATOM     21  H   UNL     1     -45.473  43.793  21.475  1.00  0.00     0.046 H 
ATOM     22  H   UNL     1     -46.095  44.457  23.012  1.00  0.00     0.046 H 
ATOM     23  H   UNL     1     -44.728  45.259  22.179  1.00  0.00     0.046 H 
ENDBRANCH  15  20
ENDBRANCH   5  14
ENDBRANCH   1   4
BRANCH   1  24
ATOM     24  C   UNL     1     -45.958  38.400  27.159  1.00  0.00    -0.044 C 
ATOM     25  H   UNL     1     -46.490  39.228  26.675  1.00  0.00     0.027 H 
ATOM     26  H   UNL     1     -45.318  37.955  26.385  1.00  0.00     0.027 H 
BRANCH  24  27
ATOM     27  C   UNL     1     -46.956  37.324  27.623  1.00  0.00    -0.010 C 
ATOM     28  C   UNL     1     -47.291  36.286  26.535  1.00  0.00    -0.024 C 
ATOM     29  C   UNL     1     -46.392  36.494  28.787  1.00  0.00     0.085 C 
ATOM     30  H   UNL     1     -47.882  37.820  27.941  1.00  0.00     0.033 H 
ATOM     31  C   UNL     1     -47.253  34.903  27.210  1.00  0.00     0.064 C 
ATOM     32  H   UNL     1     -48.274  36.488  26.097  1.00  0.00     0.029 H 
ATOM     33  H   UNL     1     -46.554  36.316  25.724  1.00  0.00     0.029 H 
ATOM     34  C   UNL     1     -46.108  35.101  28.214  1.00  0.00     0.101 C 
ATOM     35  H   UNL     1     -45.509  36.928  29.265  1.00  0.00     0.063 H 
ATOM     36  H   UNL     1     -48.192  34.703  27.743  1.00  0.00     0.056 H 
ATOM     37  H   UNL     1     -45.125  35.087  27.727  1.00  0.00     0.065 H 
BRANCH  29  38
ATOM     38  O   UNL     1     -47.406  36.383  29.796  1.00  0.00    -0.390 OA
ATOM     39  H   UNL     1     -48.096  37.023  29.518  1.00  0.00     0.211 HD
ENDBRANCH  29  38
BRANCH  31  40
ATOM     40  N   UNL     1     -47.122  33.814  26.247  1.00  0.00    -0.327 N 
ATOM     41  C   UNL     1     -45.913  33.419  25.708  1.00  0.00     0.007 A 
ATOM     42  C   UNL     1     -48.129  33.074  25.665  1.00  0.00     0.145 A 
ATOM     43  C   UNL     1     -46.145  32.382  24.832  1.00  0.00    -0.031 A 
ATOM     44  H   UNL     1     -44.986  33.896  25.999  1.00  0.00     0.082 H 
ATOM     45  C   UNL     1     -47.547  32.161  24.793  1.00  0.00     0.061 A 
ATOM     46  N   UNL     1     -49.449  33.206  25.893  1.00  0.00    -0.218 NA
ATOM     47  H   UNL     1     -45.389  31.848  24.272  1.00  0.00     0.065 H 
ATOM     48  C   UNL     1     -48.408  31.292  24.109  1.00  0.00     0.136 A 
ATOM     49  C   UNL     1     -50.172  32.315  25.188  1.00  0.00     0.120 A 
ATOM     50  N   UNL     1     -49.733  31.385  24.321  1.00  0.00    -0.219 NA
ATOM     51  H   UNL     1     -51.247  32.351  25.335  1.00  0.00     0.106 H 
BRANCH  48  52
ATOM     52  N   UNL     1     -47.976  30.341  23.195  1.00  0.00    -0.383 N 
ATOM     53  H   UNL     1     -47.214  29.797  23.584  1.00  0.00     0.158 HD
ATOM     54  H   UNL     1     -48.716  29.820  22.746  1.00  0.00     0.158 HD
ENDBRANCH  48  52
ENDBRANCH  31  40
BRANCH  34  55
ATOM     55  O   UNL     1     -46.126  34.159  29.290  1.00  0.00    -0.388 OA
ATOM     56  H   UNL     1     -46.468  33.330  28.887  1.00  0.00     0.211 HD
ENDBRANCH  34  55
ENDBRANCH  24  27
ENDBRANCH   1  24
TORSDOF 9
ENDMDL
