MODEL 1
REMARK VINA RESULT:      -8.9      0.000      0.000
REMARK SMILES CN(C)CCNC(=O)c1ccc(OCc2cncc(-n3cc(Br)c4c(N)ncnc43)c2)cc1N
REMARK SMILES IDX 9 1 10 2 11 3 12 4 32 5 33 6 7 10 6 11 8 13 5 14 4 17 2 20
REMARK SMILES IDX 1 21 3 25 34 29 13 32 14 33 15 36 16 37 31 38 17 39 19 41
REMARK SMILES IDX 18 43 20 45 21 46 30 47 22 48 24 50 29 51 23 52 25 53 28 54
REMARK SMILES IDX 27 55 26 57
REMARK H PARENT 10 7 11 8 32 9 6 12 5 15 5 16 4 18 4 19 1 22 1 23 1 24 3 26
REMARK H PARENT 3 27 3 28 34 30 34 31 14 34 14 35 16 40 31 42 18 44 21 49
REMARK H PARENT 28 56 26 58 26 59
REMARK Flexibility Score: inf
ROOT
ATOM      1  C   UNL     1     -46.581  34.618  26.785  1.00  0.00     0.063 A 
ATOM      2  C   UNL     1     -47.059  35.761  26.124  1.00  0.00    -0.044 A 
ATOM      3  C   UNL     1     -46.791  37.041  26.622  1.00  0.00    -0.019 A 
ATOM      4  C   UNL     1     -46.039  37.193  27.785  1.00  0.00     0.121 A 
ATOM      5  C   UNL     1     -45.575  36.055  28.451  1.00  0.00     0.004 A 
ATOM      6  C   UNL     1     -45.877  34.763  27.997  1.00  0.00     0.048 A 
ATOM      7  H   UNL     1     -47.656  35.673  25.220  1.00  0.00     0.063 H 
ATOM      8  H   UNL     1     -47.170  37.890  26.064  1.00  0.00     0.066 H 
ATOM      9  H   UNL     1     -44.985  36.173  29.358  1.00  0.00     0.068 H 
ENDROOT
BRANCH   1  10
ATOM     10  C   UNL     1     -46.838  33.259  26.215  1.00  0.00     0.253 C 
ATOM     11  N   UNL     1     -46.503  33.076  24.887  1.00  0.00    -0.351 N 
ATOM     12  H   UNL     1     -45.812  33.705  24.496  1.00  0.00     0.163 HD
ATOM     13  O   UNL     1     -47.282  32.359  26.923  1.00  0.00    -0.269 OA
BRANCH  11  14
ATOM     14  C   UNL     1     -46.484  31.743  24.307  1.00  0.00     0.030 C 
ATOM     15  H   UNL     1     -46.285  31.039  25.121  1.00  0.00     0.050 H 
ATOM     16  H   UNL     1     -45.658  31.666  23.592  1.00  0.00     0.050 H 
BRANCH  14  17
ATOM     17  C   UNL     1     -47.815  31.420  23.602  1.00  0.00     0.015 C 
ATOM     18  H   UNL     1     -48.507  32.264  23.714  1.00  0.00     0.045 H 
ATOM     19  H   UNL     1     -48.262  30.567  24.129  1.00  0.00     0.045 H 
BRANCH  17  20
ATOM     20  N   UNL     1     -47.645  31.058  22.173  1.00  0.00    -0.308 NA
BRANCH  20  21
ATOM     21  C   UNL     1     -46.217  30.951  21.859  1.00  0.00    -0.014 C 
ATOM     22  H   UNL     1     -45.607  30.790  22.755  1.00  0.00     0.039 H 
ATOM     23  H   UNL     1     -46.036  30.123  21.164  1.00  0.00     0.039 H 
ATOM     24  H   UNL     1     -45.864  31.859  21.357  1.00  0.00     0.039 H 
ENDBRANCH  20  21
BRANCH  20  25
ATOM     25  C   UNL     1     -48.312  29.792  21.856  1.00  0.00    -0.014 C 
ATOM     26  H   UNL     1     -48.944  29.439  22.679  1.00  0.00     0.039 H 
ATOM     27  H   UNL     1     -48.931  29.885  20.958  1.00  0.00     0.039 H 
ATOM     28  H   UNL     1     -47.572  29.015  21.635  1.00  0.00     0.039 H 
ENDBRANCH  20  25
ENDBRANCH  17  20
ENDBRANCH  14  17
ENDBRANCH  11  14
ENDBRANCH   1  10
BRANCH   6  29
ATOM     29  N   UNL     1     -45.292  33.675  28.687  1.00  0.00    -0.398 N 
ATOM     30  H   UNL     1     -44.285  33.792  28.763  1.00  0.00     0.156 HD
ATOM     31  H   UNL     1     -45.472  32.804  28.166  1.00  0.00     0.156 HD
ENDBRANCH   6  29
BRANCH   4  32
ATOM     32  O   UNL     1     -45.669  38.378  28.359  1.00  0.00    -0.489 OA
BRANCH  32  33
ATOM     33  C   UNL     1     -44.601  38.378  29.310  1.00  0.00     0.115 C 
ATOM     34  H   UNL     1     -44.984  38.239  30.328  1.00  0.00     0.076 H 
ATOM     35  H   UNL     1     -43.990  37.493  29.090  1.00  0.00     0.076 H 
BRANCH  33  36
ATOM     36  C   UNL     1     -43.705  39.584  29.198  1.00  0.00     0.010 A 
ATOM     37  C   UNL     1     -42.658  39.756  30.092  1.00  0.00     0.034 A 
ATOM     38  C   UNL     1     -43.849  40.538  28.179  1.00  0.00    -0.028 A 
ATOM     39  N   UNL     1     -41.801  40.796  30.052  1.00  0.00    -0.262 NA
ATOM     40  H   UNL     1     -42.469  39.046  30.892  1.00  0.00     0.084 H 
ATOM     41  C   UNL     1     -42.980  41.637  28.101  1.00  0.00     0.066 A 
ATOM     42  H   UNL     1     -44.647  40.385  27.460  1.00  0.00     0.065 H 
ATOM     43  C   UNL     1     -41.980  41.711  29.063  1.00  0.00     0.051 A 
ATOM     44  H   UNL     1     -41.257  42.516  29.116  1.00  0.00     0.086 H 
BRANCH  41  45
ATOM     45  N   UNL     1     -43.131  42.631  27.078  1.00  0.00    -0.298 N 
ATOM     46  C   UNL     1     -42.735  42.477  25.758  1.00  0.00     0.026 A 
ATOM     47  C   UNL     1     -43.694  43.907  27.190  1.00  0.00     0.151 A 
ATOM     48  C   UNL     1     -43.036  43.622  25.068  1.00  0.00     0.049 A 
ATOM     49  H   UNL     1     -42.280  41.567  25.395  1.00  0.00     0.084 H 
ATOM     50  C   UNL     1     -43.639  44.541  25.948  1.00  0.00     0.076 A 
ATOM     51  N   UNL     1     -44.202  44.463  28.309  1.00  0.00    -0.218 NA
ATOM     52  Br  UNL     1     -42.702  43.902  23.242  1.00  0.00    -0.048 Br
ATOM     53  C   UNL     1     -44.155  45.845  25.872  1.00  0.00     0.137 A 
ATOM     54  C   UNL     1     -44.666  45.704  28.116  1.00  0.00     0.120 A 
ATOM     55  N   UNL     1     -44.677  46.408  26.975  1.00  0.00    -0.219 NA
ATOM     56  H   UNL     1     -45.085  46.200  28.986  1.00  0.00     0.106 H 
BRANCH  53  57
ATOM     57  N   UNL     1     -44.176  46.609  24.717  1.00  0.00    -0.383 N 
ATOM     58  H   UNL     1     -43.952  46.123  23.860  1.00  0.00     0.158 HD
ATOM     59  H   UNL     1     -44.970  47.237  24.699  1.00  0.00     0.158 HD
ENDBRANCH  53  57
ENDBRANCH  41  45
ENDBRANCH  33  36
ENDBRANCH  32  33
ENDBRANCH   4  32
TORSDOF 12
ENDMDL
MODEL 2
REMARK VINA RESULT:      -8.9      2.661      4.806
REMARK SMILES CN(C)CCNC(=O)c1ccc(OCc2cncc(-n3cc(Br)c4c(N)ncnc43)c2)cc1N
REMARK SMILES IDX 9 1 10 2 11 3 12 4 32 5 33 6 7 10 6 11 8 13 5 14 4 17 2 20
REMARK SMILES IDX 1 21 3 25 34 29 13 32 14 33 15 36 16 37 31 38 17 39 19 41
REMARK SMILES IDX 18 43 20 45 21 46 30 47 22 48 24 50 29 51 23 52 25 53 28 54
REMARK SMILES IDX 27 55 26 57
REMARK H PARENT 10 7 11 8 32 9 6 12 5 15 5 16 4 18 4 19 1 22 1 23 1 24 3 26
REMARK H PARENT 3 27 3 28 34 30 34 31 14 34 14 35 16 40 31 42 18 44 21 49
REMARK H PARENT 28 56 26 58 26 59
REMARK Flexibility Score: inf
ROOT
ATOM      1  C   UNL     1     -47.779  31.177  24.261  1.00  0.00     0.063 A 
ATOM      2  C   UNL     1     -48.720  31.789  25.104  1.00  0.00    -0.044 A 
ATOM      3  C   UNL     1     -48.390  32.942  25.826  1.00  0.00    -0.019 A 
ATOM      4  C   UNL     1     -47.118  33.497  25.712  1.00  0.00     0.121 A 
ATOM      5  C   UNL     1     -46.176  32.879  24.884  1.00  0.00     0.004 A 
ATOM      6  C   UNL     1     -46.471  31.695  24.192  1.00  0.00     0.048 A 
ATOM      7  H   UNL     1     -49.718  31.374  25.221  1.00  0.00     0.063 H 
ATOM      8  H   UNL     1     -49.159  33.384  26.450  1.00  0.00     0.066 H 
ATOM      9  H   UNL     1     -45.183  33.313  24.791  1.00  0.00     0.068 H 
ENDROOT
BRANCH   1  10
ATOM     10  C   UNL     1     -48.161  29.972  23.461  1.00  0.00     0.253 C 
ATOM     11  N   UNL     1     -48.235  28.777  24.150  1.00  0.00    -0.351 N 
ATOM     12  H   UNL     1     -48.379  28.830  25.150  1.00  0.00     0.163 HD
ATOM     13  O   UNL     1     -48.433  30.075  22.268  1.00  0.00    -0.269 OA
BRANCH  11  14
ATOM     14  C   UNL     1     -48.826  27.602  23.529  1.00  0.00     0.030 C 
ATOM     15  H   UNL     1     -48.412  26.725  24.036  1.00  0.00     0.050 H 
ATOM     16  H   UNL     1     -48.524  27.551  22.478  1.00  0.00     0.050 H 
BRANCH  14  17
ATOM     17  C   UNL     1     -50.364  27.630  23.628  1.00  0.00     0.015 C 
ATOM     18  H   UNL     1     -50.798  27.682  22.622  1.00  0.00     0.045 H 
ATOM     19  H   UNL     1     -50.637  28.560  24.142  1.00  0.00     0.045 H 
BRANCH  17  20
ATOM     20  N   UNL     1     -50.920  26.485  24.390  1.00  0.00    -0.308 NA
BRANCH  20  21
ATOM     21  C   UNL     1     -49.941  26.034  25.385  1.00  0.00    -0.014 C 
ATOM     22  H   UNL     1     -48.949  25.877  24.947  1.00  0.00     0.039 H 
ATOM     23  H   UNL     1     -49.851  26.765  26.195  1.00  0.00     0.039 H 
ATOM     24  H   UNL     1     -50.268  25.097  25.849  1.00  0.00     0.039 H 
ENDBRANCH  20  21
BRANCH  20  25
ATOM     25  C   UNL     1     -52.172  26.843  25.061  1.00  0.00    -0.014 C 
ATOM     26  H   UNL     1     -52.241  26.412  26.067  1.00  0.00     0.039 H 
ATOM     27  H   UNL     1     -52.282  27.929  25.140  1.00  0.00     0.039 H 
ATOM     28  H   UNL     1     -53.032  26.492  24.479  1.00  0.00     0.039 H 
ENDBRANCH  20  25
ENDBRANCH  17  20
ENDBRANCH  14  17
ENDBRANCH  11  14
ENDBRANCH   1  10
BRANCH   6  29
ATOM     29  N   UNL     1     -45.484  31.191  23.312  1.00  0.00    -0.398 N 
ATOM     30  H   UNL     1     -44.572  31.586  23.524  1.00  0.00     0.156 HD
ATOM     31  H   UNL     1     -45.726  31.451  22.344  1.00  0.00     0.156 HD
ENDBRANCH   6  29
BRANCH   4  32
ATOM     32  O   UNL     1     -46.675  34.636  26.325  1.00  0.00    -0.489 OA
BRANCH  32  33
ATOM     33  C   UNL     1     -47.487  35.232  27.340  1.00  0.00     0.115 C 
ATOM     34  H   UNL     1     -48.408  35.646  26.909  1.00  0.00     0.076 H 
ATOM     35  H   UNL     1     -47.800  34.417  28.005  1.00  0.00     0.076 H 
BRANCH  33  36
ATOM     36  C   UNL     1     -46.747  36.241  28.179  1.00  0.00     0.010 A 
ATOM     37  C   UNL     1     -46.599  36.034  29.543  1.00  0.00     0.034 A 
ATOM     38  C   UNL     1     -46.141  37.380  27.629  1.00  0.00    -0.028 A 
ATOM     39  N   UNL     1     -45.939  36.876  30.362  1.00  0.00    -0.262 NA
ATOM     40  H   UNL     1     -47.020  35.162  30.035  1.00  0.00     0.084 H 
ATOM     41  C   UNL     1     -45.445  38.285  28.445  1.00  0.00     0.066 A 
ATOM     42  H   UNL     1     -46.228  37.524  26.556  1.00  0.00     0.065 H 
ATOM     43  C   UNL     1     -45.379  37.979  29.799  1.00  0.00     0.051 A 
ATOM     44  H   UNL     1     -44.881  38.603  30.531  1.00  0.00     0.086 H 
BRANCH  41  45
ATOM     45  N   UNL     1     -44.841  39.464  27.898  1.00  0.00    -0.298 N 
ATOM     46  C   UNL     1     -45.227  40.078  26.715  1.00  0.00     0.026 A 
ATOM     47  C   UNL     1     -43.786  40.218  28.424  1.00  0.00     0.151 A 
ATOM     48  C   UNL     1     -44.435  41.176  26.507  1.00  0.00     0.049 A 
ATOM     49  H   UNL     1     -46.040  39.703  26.111  1.00  0.00     0.084 H 
ATOM     50  C   UNL     1     -43.517  41.287  27.567  1.00  0.00     0.076 A 
ATOM     51  N   UNL     1     -43.112  39.966  29.565  1.00  0.00    -0.218 NA
ATOM     52  Br  UNL     1     -44.573  42.344  25.043  1.00  0.00    -0.048 Br
ATOM     53  C   UNL     1     -42.473  42.153  27.933  1.00  0.00     0.137 A 
ATOM     54  C   UNL     1     -42.144  40.856  29.812  1.00  0.00     0.120 A 
ATOM     55  N   UNL     1     -41.801  41.923  29.075  1.00  0.00    -0.219 NA
ATOM     56  H   UNL     1     -41.568  40.700  30.719  1.00  0.00     0.106 H 
BRANCH  53  57
ATOM     57  N   UNL     1     -42.081  43.257  27.196  1.00  0.00    -0.383 N 
ATOM     58  H   UNL     1     -41.192  43.665  27.446  1.00  0.00     0.158 HD
ATOM     59  H   UNL     1     -42.272  43.134  26.209  1.00  0.00     0.158 HD
ENDBRANCH  53  57
ENDBRANCH  41  45
ENDBRANCH  33  36
ENDBRANCH  32  33
ENDBRANCH   4  32
TORSDOF 12
ENDMDL
MODEL 3
REMARK VINA RESULT:      -8.8      3.265      4.067
REMARK SMILES CN(C)CCNC(=O)c1ccc(OCc2cncc(-n3cc(Br)c4c(N)ncnc43)c2)cc1N
REMARK SMILES IDX 9 1 10 2 11 3 12 4 32 5 33 6 7 10 6 11 8 13 5 14 4 17 2 20
REMARK SMILES IDX 1 21 3 25 34 29 13 32 14 33 15 36 16 37 31 38 17 39 19 41
REMARK SMILES IDX 18 43 20 45 21 46 30 47 22 48 24 50 29 51 23 52 25 53 28 54
REMARK SMILES IDX 27 55 26 57
REMARK H PARENT 10 7 11 8 32 9 6 12 5 15 5 16 4 18 4 19 1 22 1 23 1 24 3 26
REMARK H PARENT 3 27 3 28 34 30 34 31 14 34 14 35 16 40 31 42 18 44 21 49
REMARK H PARENT 28 56 26 58 26 59
REMARK Flexibility Score: inf
ROOT
ATOM      1  C   UNL     1     -48.068  31.839  25.252  1.00  0.00     0.063 A 
ATOM      2  C   UNL     1     -48.845  32.707  26.036  1.00  0.00    -0.044 A 
ATOM      3  C   UNL     1     -48.395  33.999  26.331  1.00  0.00    -0.019 A 
ATOM      4  C   UNL     1     -47.167  34.439  25.844  1.00  0.00     0.121 A 
ATOM      5  C   UNL     1     -46.387  33.570  25.076  1.00  0.00     0.004 A 
ATOM      6  C   UNL     1     -46.795  32.254  24.813  1.00  0.00     0.048 A 
ATOM      7  H   UNL     1     -49.803  32.388  26.438  1.00  0.00     0.063 H 
ATOM      8  H   UNL     1     -49.041  34.634  26.927  1.00  0.00     0.066 H 
ATOM      9  H   UNL     1     -45.428  33.912  24.693  1.00  0.00     0.068 H 
ENDROOT
BRANCH   1  10
ATOM     10  C   UNL     1     -48.581  30.476  24.908  1.00  0.00     0.253 C 
ATOM     11  N   UNL     1     -48.194  29.446  25.743  1.00  0.00    -0.351 N 
ATOM     12  H   UNL     1     -47.909  29.696  26.682  1.00  0.00     0.163 HD
ATOM     13  O   UNL     1     -49.341  30.318  23.957  1.00  0.00    -0.269 OA
BRANCH  11  14
ATOM     14  C   UNL     1     -48.825  28.139  25.644  1.00  0.00     0.030 C 
ATOM     15  H   UNL     1     -48.468  27.677  24.719  1.00  0.00     0.050 H 
ATOM     16  H   UNL     1     -49.909  28.261  25.559  1.00  0.00     0.050 H 
BRANCH  14  17
ATOM     17  C   UNL     1     -48.494  27.263  26.869  1.00  0.00     0.015 C 
ATOM     18  H   UNL     1     -48.992  27.668  27.758  1.00  0.00     0.045 H 
ATOM     19  H   UNL     1     -47.413  27.345  27.042  1.00  0.00     0.045 H 
BRANCH  17  20
ATOM     20  N   UNL     1     -48.836  25.833  26.672  1.00  0.00    -0.308 NA
BRANCH  20  21
ATOM     21  C   UNL     1     -49.818  25.705  25.590  1.00  0.00    -0.014 C 
ATOM     22  H   UNL     1     -49.366  25.333  24.663  1.00  0.00     0.039 H 
ATOM     23  H   UNL     1     -50.624  25.024  25.880  1.00  0.00     0.039 H 
ATOM     24  H   UNL     1     -50.288  26.672  25.381  1.00  0.00     0.039 H 
ENDBRANCH  20  21
BRANCH  20  25
ATOM     25  C   UNL     1     -47.649  25.035  26.353  1.00  0.00    -0.014 C 
ATOM     26  H   UNL     1     -47.388  25.088  25.289  1.00  0.00     0.039 H 
ATOM     27  H   UNL     1     -46.784  25.361  26.939  1.00  0.00     0.039 H 
ATOM     28  H   UNL     1     -47.814  23.984  26.613  1.00  0.00     0.039 H 
ENDBRANCH  20  25
ENDBRANCH  17  20
ENDBRANCH  14  17
ENDBRANCH  11  14
ENDBRANCH   1  10
BRANCH   6  29
ATOM     29  N   UNL     1     -45.981  31.477  23.956  1.00  0.00    -0.398 N 
ATOM     30  H   UNL     1     -46.354  30.535  23.855  1.00  0.00     0.156 HD
ATOM     31  H   UNL     1     -45.035  31.402  24.358  1.00  0.00     0.156 HD
ENDBRANCH   6  29
BRANCH   4  32
ATOM     32  O   UNL     1     -46.625  35.682  26.020  1.00  0.00    -0.489 OA
BRANCH  32  33
ATOM     33  C   UNL     1     -47.256  36.584  26.934  1.00  0.00     0.115 C 
ATOM     34  H   UNL     1     -48.220  36.928  26.540  1.00  0.00     0.076 H 
ATOM     35  H   UNL     1     -47.484  36.002  27.836  1.00  0.00     0.076 H 
BRANCH  33  36
ATOM     36  C   UNL     1     -46.368  37.729  27.348  1.00  0.00     0.010 A 
ATOM     37  C   UNL     1     -45.580  37.620  28.484  1.00  0.00     0.034 A 
ATOM     38  C   UNL     1     -46.260  38.909  26.596  1.00  0.00    -0.028 A 
ATOM     39  N   UNL     1     -44.747  38.589  28.915  1.00  0.00    -0.262 NA
ATOM     40  H   UNL     1     -45.592  36.727  29.102  1.00  0.00     0.084 H 
ATOM     41  C   UNL     1     -45.406  39.943  27.008  1.00  0.00     0.066 A 
ATOM     42  H   UNL     1     -46.852  38.980  25.689  1.00  0.00     0.065 H 
ATOM     43  C   UNL     1     -44.679  39.725  28.173  1.00  0.00     0.051 A 
ATOM     44  H   UNL     1     -43.997  40.450  28.599  1.00  0.00     0.086 H 
BRANCH  41  45
ATOM     45  N   UNL     1     -45.304  41.162  26.261  1.00  0.00    -0.298 N 
ATOM     46  C   UNL     1     -44.202  41.541  25.508  1.00  0.00     0.026 A 
ATOM     47  C   UNL     1     -46.256  42.180  26.133  1.00  0.00     0.151 A 
ATOM     48  C   UNL     1     -44.455  42.758  24.932  1.00  0.00     0.049 A 
ATOM     49  H   UNL     1     -43.322  40.920  25.423  1.00  0.00     0.084 H 
ATOM     50  C   UNL     1     -45.742  43.185  25.311  1.00  0.00     0.076 A 
ATOM     51  N   UNL     1     -47.474  42.214  26.710  1.00  0.00    -0.218 NA
ATOM     52  Br  UNL     1     -43.272  43.689  23.810  1.00  0.00    -0.048 Br
ATOM     53  C   UNL     1     -46.563  44.300  25.075  1.00  0.00     0.137 A 
ATOM     54  C   UNL     1     -48.166  43.321  26.413  1.00  0.00     0.120 A 
ATOM     55  N   UNL     1     -47.786  44.343  25.633  1.00  0.00    -0.219 NA
ATOM     56  H   UNL     1     -49.155  43.401  26.853  1.00  0.00     0.106 H 
BRANCH  53  57
ATOM     57  N   UNL     1     -46.204  45.379  24.285  1.00  0.00    -0.383 N 
ATOM     58  H   UNL     1     -46.919  46.077  24.135  1.00  0.00     0.158 HD
ATOM     59  H   UNL     1     -45.273  45.710  24.506  1.00  0.00     0.158 HD
ENDBRANCH  53  57
ENDBRANCH  41  45
ENDBRANCH  33  36
ENDBRANCH  32  33
ENDBRANCH   4  32
TORSDOF 12
ENDMDL
MODEL 4
REMARK VINA RESULT:      -8.8      3.214      4.906
REMARK SMILES CN(C)CCNC(=O)c1ccc(OCc2cncc(-n3cc(Br)c4c(N)ncnc43)c2)cc1N
REMARK SMILES IDX 9 1 10 2 11 3 12 4 32 5 33 6 7 10 6 11 8 13 5 14 4 17 2 20
REMARK SMILES IDX 1 21 3 25 34 29 13 32 14 33 15 36 16 37 31 38 17 39 19 41
REMARK SMILES IDX 18 43 20 45 21 46 30 47 22 48 24 50 29 51 23 52 25 53 28 54
REMARK SMILES IDX 27 55 26 57
REMARK H PARENT 10 7 11 8 32 9 6 12 5 15 5 16 4 18 4 19 1 22 1 23 1 24 3 26
REMARK H PARENT 3 27 3 28 34 30 34 31 14 34 14 35 16 40 31 42 18 44 21 49
REMARK H PARENT 28 56 26 58 26 59
REMARK Flexibility Score: inf
ROOT
ATOM      1  C   UNL     1     -47.898  31.029  24.613  1.00  0.00     0.063 A 
ATOM      2  C   UNL     1     -49.042  31.355  25.359  1.00  0.00    -0.044 A 
ATOM      3  C   UNL     1     -49.151  32.597  25.995  1.00  0.00    -0.019 A 
ATOM      4  C   UNL     1     -48.121  33.528  25.889  1.00  0.00     0.121 A 
ATOM      5  C   UNL     1     -46.976  33.198  25.158  1.00  0.00     0.004 A 
ATOM      6  C   UNL     1     -46.825  31.939  24.558  1.00  0.00     0.048 A 
ATOM      7  H   UNL     1     -49.858  30.645  25.468  1.00  0.00     0.063 H 
ATOM      8  H   UNL     1     -50.062  32.804  26.545  1.00  0.00     0.066 H 
ATOM      9  H   UNL     1     -46.171  33.925  25.073  1.00  0.00     0.068 H 
ENDROOT
BRANCH   1  10
ATOM     10  C   UNL     1     -47.816  29.715  23.903  1.00  0.00     0.253 C 
ATOM     11  N   UNL     1     -46.976  28.769  24.459  1.00  0.00    -0.351 N 
ATOM     12  H   UNL     1     -46.761  28.867  25.443  1.00  0.00     0.163 HD
ATOM     13  O   UNL     1     -48.501  29.499  22.907  1.00  0.00    -0.269 OA
BRANCH  11  14
ATOM     14  C   UNL     1     -47.006  27.391  23.994  1.00  0.00     0.030 C 
ATOM     15  H   UNL     1     -46.299  27.315  23.162  1.00  0.00     0.050 H 
ATOM     16  H   UNL     1     -48.003  27.156  23.605  1.00  0.00     0.050 H 
BRANCH  14  17
ATOM     17  C   UNL     1     -46.645  26.410  25.125  1.00  0.00     0.015 C 
ATOM     18  H   UNL     1     -46.108  26.943  25.920  1.00  0.00     0.045 H 
ATOM     19  H   UNL     1     -45.946  25.675  24.705  1.00  0.00     0.045 H 
BRANCH  17  20
ATOM     20  N   UNL     1     -47.822  25.688  25.669  1.00  0.00    -0.308 NA
BRANCH  20  21
ATOM     21  C   UNL     1     -47.389  24.756  26.715  1.00  0.00    -0.014 C 
ATOM     22  H   UNL     1     -47.900  23.790  26.645  1.00  0.00     0.039 H 
ATOM     23  H   UNL     1     -46.309  24.582  26.653  1.00  0.00     0.039 H 
ATOM     24  H   UNL     1     -47.578  25.178  27.708  1.00  0.00     0.039 H 
ENDBRANCH  20  21
BRANCH  20  25
ATOM     25  C   UNL     1     -48.814  26.616  26.219  1.00  0.00    -0.014 C 
ATOM     26  H   UNL     1     -48.501  27.033  27.183  1.00  0.00     0.039 H 
ATOM     27  H   UNL     1     -49.009  27.442  25.528  1.00  0.00     0.039 H 
ATOM     28  H   UNL     1     -49.774  26.107  26.362  1.00  0.00     0.039 H 
ENDBRANCH  20  25
ENDBRANCH  17  20
ENDBRANCH  14  17
ENDBRANCH  11  14
ENDBRANCH   1  10
BRANCH   6  29
ATOM     29  N   UNL     1     -45.671  31.728  23.767  1.00  0.00    -0.398 N 
ATOM     30  H   UNL     1     -44.835  32.046  24.251  1.00  0.00     0.156 HD
ATOM     31  H   UNL     1     -45.754  32.265  22.891  1.00  0.00     0.156 HD
ENDBRANCH   6  29
BRANCH   4  32
ATOM     32  O   UNL     1     -48.111  34.787  26.422  1.00  0.00    -0.489 OA
BRANCH  32  33
ATOM     33  C   UNL     1     -46.855  35.382  26.760  1.00  0.00     0.115 C 
ATOM     34  H   UNL     1     -46.296  34.744  27.455  1.00  0.00     0.076 H 
ATOM     35  H   UNL     1     -46.268  35.413  25.834  1.00  0.00     0.076 H 
BRANCH  33  36
ATOM     36  C   UNL     1     -46.982  36.797  27.261  1.00  0.00     0.010 A 
ATOM     37  C   UNL     1     -48.183  37.237  27.799  1.00  0.00     0.034 A 
ATOM     38  C   UNL     1     -45.907  37.699  27.256  1.00  0.00    -0.028 A 
ATOM     39  N   UNL     1     -48.377  38.480  28.284  1.00  0.00    -0.262 NA
ATOM     40  H   UNL     1     -49.052  36.589  27.859  1.00  0.00     0.084 H 
ATOM     41  C   UNL     1     -46.064  39.002  27.749  1.00  0.00     0.066 A 
ATOM     42  H   UNL     1     -44.959  37.343  26.866  1.00  0.00     0.065 H 
ATOM     43  C   UNL     1     -47.319  39.333  28.248  1.00  0.00     0.051 A 
ATOM     44  H   UNL     1     -47.569  40.309  28.645  1.00  0.00     0.086 H 
BRANCH  41  45
ATOM     45  N   UNL     1     -44.980  39.939  27.729  1.00  0.00    -0.298 N 
ATOM     46  C   UNL     1     -43.928  39.955  28.634  1.00  0.00     0.026 A 
ATOM     47  C   UNL     1     -44.758  40.985  26.826  1.00  0.00     0.151 A 
ATOM     48  C   UNL     1     -43.080  40.981  28.309  1.00  0.00     0.049 A 
ATOM     49  H   UNL     1     -43.846  39.235  29.434  1.00  0.00     0.084 H 
ATOM     50  C   UNL     1     -43.581  41.648  27.175  1.00  0.00     0.076 A 
ATOM     51  N   UNL     1     -45.548  41.326  25.787  1.00  0.00    -0.218 NA
ATOM     52  Br  UNL     1     -41.501  41.409  29.231  1.00  0.00    -0.048 Br
ATOM     53  C   UNL     1     -43.201  42.741  26.378  1.00  0.00     0.137 A 
ATOM     54  C   UNL     1     -45.086  42.378  25.099  1.00  0.00     0.120 A 
ATOM     55  N   UNL     1     -43.970  43.085  25.330  1.00  0.00    -0.219 NA
ATOM     56  H   UNL     1     -45.685  42.697  24.251  1.00  0.00     0.106 H 
BRANCH  53  57
ATOM     57  N   UNL     1     -42.064  43.502  26.589  1.00  0.00    -0.383 N 
ATOM     58  H   UNL     1     -41.402  43.134  27.258  1.00  0.00     0.158 HD
ATOM     59  H   UNL     1     -41.691  43.865  25.720  1.00  0.00     0.158 HD
ENDBRANCH  53  57
ENDBRANCH  41  45
ENDBRANCH  33  36
ENDBRANCH  32  33
ENDBRANCH   4  32
TORSDOF 12
ENDMDL
MODEL 5
REMARK VINA RESULT:      -8.4      2.709      4.025
REMARK SMILES CN(C)CCNC(=O)c1ccc(OCc2cncc(-n3cc(Br)c4c(N)ncnc43)c2)cc1N
REMARK SMILES IDX 9 1 10 2 11 3 12 4 32 5 33 6 7 10 6 11 8 13 5 14 4 17 2 20
REMARK SMILES IDX 1 21 3 25 34 29 13 32 14 33 15 36 16 37 31 38 17 39 19 41
REMARK SMILES IDX 18 43 20 45 21 46 30 47 22 48 24 50 29 51 23 52 25 53 28 54
REMARK SMILES IDX 27 55 26 57
REMARK H PARENT 10 7 11 8 32 9 6 12 5 15 5 16 4 18 4 19 1 22 1 23 1 24 3 26
REMARK H PARENT 3 27 3 28 34 30 34 31 14 34 14 35 16 40 31 42 18 44 21 49
REMARK H PARENT 28 56 26 58 26 59
REMARK Flexibility Score: inf
ROOT
ATOM      1  C   UNL     1     -47.386  32.082  24.594  1.00  0.00     0.063 A 
ATOM      2  C   UNL     1     -46.205  32.760  24.937  1.00  0.00    -0.044 A 
ATOM      3  C   UNL     1     -46.224  33.798  25.876  1.00  0.00    -0.019 A 
ATOM      4  C   UNL     1     -47.421  34.169  26.484  1.00  0.00     0.121 A 
ATOM      5  C   UNL     1     -48.599  33.503  26.132  1.00  0.00     0.004 A 
ATOM      6  C   UNL     1     -48.610  32.496  25.155  1.00  0.00     0.048 A 
ATOM      7  H   UNL     1     -45.258  32.500  24.473  1.00  0.00     0.063 H 
ATOM      8  H   UNL     1     -45.281  34.278  26.117  1.00  0.00     0.066 H 
ATOM      9  H   UNL     1     -49.534  33.790  26.608  1.00  0.00     0.068 H 
ENDROOT
BRANCH   1  10
ATOM     10  C   UNL     1     -47.344  30.946  23.623  1.00  0.00     0.253 C 
ATOM     11  N   UNL     1     -46.747  29.781  24.067  1.00  0.00    -0.351 N 
ATOM     12  H   UNL     1     -46.704  29.639  25.069  1.00  0.00     0.163 HD
ATOM     13  O   UNL     1     -47.858  31.053  22.513  1.00  0.00    -0.269 OA
BRANCH  11  14
ATOM     14  C   UNL     1     -46.867  28.551  23.300  1.00  0.00     0.030 C 
ATOM     15  H   UNL     1     -45.888  28.064  23.315  1.00  0.00     0.050 H 
ATOM     16  H   UNL     1     -47.104  28.790  22.258  1.00  0.00     0.050 H 
BRANCH  14  17
ATOM     17  C   UNL     1     -47.958  27.631  23.883  1.00  0.00     0.015 C 
ATOM     18  H   UNL     1     -48.226  26.863  23.147  1.00  0.00     0.045 H 
ATOM     19  H   UNL     1     -48.851  28.249  24.041  1.00  0.00     0.045 H 
BRANCH  17  20
ATOM     20  N   UNL     1     -47.571  27.017  25.177  1.00  0.00    -0.308 NA
BRANCH  20  21
ATOM     21  C   UNL     1     -48.572  26.019  25.568  1.00  0.00    -0.014 C 
ATOM     22  H   UNL     1     -48.147  25.012  25.637  1.00  0.00     0.039 H 
ATOM     23  H   UNL     1     -49.013  26.276  26.537  1.00  0.00     0.039 H 
ATOM     24  H   UNL     1     -49.397  26.000  24.848  1.00  0.00     0.039 H 
ENDBRANCH  20  21
BRANCH  20  25
ATOM     25  C   UNL     1     -46.252  26.382  25.098  1.00  0.00    -0.014 C 
ATOM     26  H   UNL     1     -46.154  25.740  24.216  1.00  0.00     0.039 H 
ATOM     27  H   UNL     1     -45.454  27.130  25.075  1.00  0.00     0.039 H 
ATOM     28  H   UNL     1     -46.069  25.770  25.988  1.00  0.00     0.039 H 
ENDBRANCH  20  25
ENDBRANCH  17  20
ENDBRANCH  14  17
ENDBRANCH  11  14
ENDBRANCH   1  10
BRANCH   6  29
ATOM     29  N   UNL     1     -49.833  31.822  24.928  1.00  0.00    -0.398 N 
ATOM     30  H   UNL     1     -49.682  30.962  24.406  1.00  0.00     0.156 HD
ATOM     31  H   UNL     1     -50.458  32.425  24.373  1.00  0.00     0.156 HD
ENDBRANCH   6  29
BRANCH   4  32
ATOM     32  O   UNL     1     -47.577  35.132  27.441  1.00  0.00    -0.489 OA
BRANCH  32  33
ATOM     33  C   UNL     1     -47.828  36.478  27.028  1.00  0.00     0.115 C 
ATOM     34  H   UNL     1     -47.955  36.535  25.941  1.00  0.00     0.076 H 
ATOM     35  H   UNL     1     -48.794  36.762  27.465  1.00  0.00     0.076 H 
BRANCH  33  36
ATOM     36  C   UNL     1     -46.800  37.457  27.534  1.00  0.00     0.010 A 
ATOM     37  C   UNL     1     -45.981  37.114  28.600  1.00  0.00     0.034 A 
ATOM     38  C   UNL     1     -46.590  38.708  26.935  1.00  0.00    -0.028 A 
ATOM     39  N   UNL     1     -45.027  37.923  29.104  1.00  0.00    -0.262 NA
ATOM     40  H   UNL     1     -46.068  36.153  29.099  1.00  0.00     0.084 H 
ATOM     41  C   UNL     1     -45.609  39.582  27.427  1.00  0.00     0.066 A 
ATOM     42  H   UNL     1     -47.209  38.962  26.079  1.00  0.00     0.065 H 
ATOM     43  C   UNL     1     -44.862  39.134  28.510  1.00  0.00     0.051 A 
ATOM     44  H   UNL     1     -44.085  39.720  28.986  1.00  0.00     0.086 H 
BRANCH  41  45
ATOM     45  N   UNL     1     -45.402  40.872  26.837  1.00  0.00    -0.298 N 
ATOM     46  C   UNL     1     -46.407  41.689  26.342  1.00  0.00     0.026 A 
ATOM     47  C   UNL     1     -44.193  41.553  26.651  1.00  0.00     0.151 A 
ATOM     48  C   UNL     1     -45.844  42.841  25.859  1.00  0.00     0.049 A 
ATOM     49  H   UNL     1     -47.449  41.406  26.377  1.00  0.00     0.084 H 
ATOM     50  C   UNL     1     -44.450  42.780  26.039  1.00  0.00     0.076 A 
ATOM     51  N   UNL     1     -42.965  41.109  26.989  1.00  0.00    -0.218 NA
ATOM     52  Br  UNL     1     -46.795  44.269  25.093  1.00  0.00    -0.048 Br
ATOM     53  C   UNL     1     -43.344  43.602  25.765  1.00  0.00     0.137 A 
ATOM     54  C   UNL     1     -41.991  41.975  26.683  1.00  0.00     0.120 A 
ATOM     55  N   UNL     1     -42.114  43.181  26.108  1.00  0.00    -0.219 NA
ATOM     56  H   UNL     1     -40.980  41.668  26.932  1.00  0.00     0.106 H 
BRANCH  53  57
ATOM     57  N   UNL     1     -43.427  44.846  25.164  1.00  0.00    -0.383 N 
ATOM     58  H   UNL     1     -42.649  45.470  25.325  1.00  0.00     0.158 HD
ATOM     59  H   UNL     1     -43.780  44.781  24.217  1.00  0.00     0.158 HD
ENDBRANCH  53  57
ENDBRANCH  41  45
ENDBRANCH  33  36
ENDBRANCH  32  33
ENDBRANCH   4  32
TORSDOF 12
ENDMDL
MODEL 6
REMARK VINA RESULT:      -8.4      3.147      5.313
REMARK SMILES CN(C)CCNC(=O)c1ccc(OCc2cncc(-n3cc(Br)c4c(N)ncnc43)c2)cc1N
REMARK SMILES IDX 9 1 10 2 11 3 12 4 32 5 33 6 7 10 6 11 8 13 5 14 4 17 2 20
REMARK SMILES IDX 1 21 3 25 34 29 13 32 14 33 15 36 16 37 31 38 17 39 19 41
REMARK SMILES IDX 18 43 20 45 21 46 30 47 22 48 24 50 29 51 23 52 25 53 28 54
REMARK SMILES IDX 27 55 26 57
REMARK H PARENT 10 7 11 8 32 9 6 12 5 15 5 16 4 18 4 19 1 22 1 23 1 24 3 26
REMARK H PARENT 3 27 3 28 34 30 34 31 14 34 14 35 16 40 31 42 18 44 21 49
REMARK H PARENT 28 56 26 58 26 59
REMARK Flexibility Score: inf
ROOT
ATOM      1  C   UNL     1     -47.513  31.038  24.368  1.00  0.00     0.063 A 
ATOM      2  C   UNL     1     -46.234  31.616  24.330  1.00  0.00    -0.044 A 
ATOM      3  C   UNL     1     -46.019  32.909  24.822  1.00  0.00    -0.019 A 
ATOM      4  C   UNL     1     -47.079  33.637  25.358  1.00  0.00     0.121 A 
ATOM      5  C   UNL     1     -48.355  33.067  25.382  1.00  0.00     0.004 A 
ATOM      6  C   UNL     1     -48.601  31.794  24.847  1.00  0.00     0.048 A 
ATOM      7  H   UNL     1     -45.390  31.077  23.909  1.00  0.00     0.063 H 
ATOM      8  H   UNL     1     -45.009  33.302  24.785  1.00  0.00     0.066 H 
ATOM      9  H   UNL     1     -49.183  33.633  25.803  1.00  0.00     0.068 H 
ENDROOT
BRANCH   1  10
ATOM     10  C   UNL     1     -47.718  29.639  23.879  1.00  0.00     0.253 C 
ATOM     11  N   UNL     1     -46.702  28.741  24.144  1.00  0.00    -0.351 N 
ATOM     12  H   UNL     1     -46.084  28.960  24.916  1.00  0.00     0.163 HD
ATOM     13  O   UNL     1     -48.762  29.321  23.316  1.00  0.00    -0.269 OA
BRANCH  11  14
ATOM     14  C   UNL     1     -46.901  27.316  23.932  1.00  0.00     0.030 C 
ATOM     15  H   UNL     1     -46.232  27.013  23.122  1.00  0.00     0.050 H 
ATOM     16  H   UNL     1     -47.929  27.135  23.600  1.00  0.00     0.050 H 
BRANCH  14  17
ATOM     17  C   UNL     1     -46.621  26.514  25.218  1.00  0.00     0.015 C 
ATOM     18  H   UNL     1     -46.339  27.199  26.027  1.00  0.00     0.045 H 
ATOM     19  H   UNL     1     -45.748  25.879  25.018  1.00  0.00     0.045 H 
BRANCH  17  20
ATOM     20  N   UNL     1     -47.756  25.648  25.623  1.00  0.00    -0.308 NA
BRANCH  20  21
ATOM     21  C   UNL     1     -47.336  24.765  26.716  1.00  0.00    -0.014 C 
ATOM     22  H   UNL     1     -47.708  25.105  27.689  1.00  0.00     0.039 H 
ATOM     23  H   UNL     1     -47.695  23.744  26.545  1.00  0.00     0.039 H 
ATOM     24  H   UNL     1     -46.243  24.705  26.764  1.00  0.00     0.039 H 
ENDBRANCH  20  21
BRANCH  20  25
ATOM     25  C   UNL     1     -48.911  26.441  26.051  1.00  0.00    -0.014 C 
ATOM     26  H   UNL     1     -48.619  27.302  26.662  1.00  0.00     0.039 H 
ATOM     27  H   UNL     1     -49.483  26.803  25.191  1.00  0.00     0.039 H 
ATOM     28  H   UNL     1     -49.602  25.825  26.637  1.00  0.00     0.039 H 
ENDBRANCH  20  25
ENDBRANCH  17  20
ENDBRANCH  14  17
ENDBRANCH  11  14
ENDBRANCH   1  10
BRANCH   6  29
ATOM     29  N   UNL     1     -49.905  31.265  24.994  1.00  0.00    -0.398 N 
ATOM     30  H   UNL     1     -50.270  31.451  25.925  1.00  0.00     0.156 HD
ATOM     31  H   UNL     1     -49.876  30.243  24.862  1.00  0.00     0.156 HD
ENDBRANCH   6  29
BRANCH   4  32
ATOM     32  O   UNL     1     -47.005  34.887  25.907  1.00  0.00    -0.489 OA
BRANCH  32  33
ATOM     33  C   UNL     1     -47.838  35.197  27.028  1.00  0.00     0.115 C 
ATOM     34  H   UNL     1     -48.834  34.753  26.908  1.00  0.00     0.076 H 
ATOM     35  H   UNL     1     -47.386  34.702  27.897  1.00  0.00     0.076 H 
BRANCH  33  36
ATOM     36  C   UNL     1     -47.903  36.671  27.331  1.00  0.00     0.010 A 
ATOM     37  C   UNL     1     -49.073  37.227  27.827  1.00  0.00     0.034 A 
ATOM     38  C   UNL     1     -46.797  37.522  27.180  1.00  0.00    -0.028 A 
ATOM     39  N   UNL     1     -49.211  38.531  28.140  1.00  0.00    -0.262 NA
ATOM     40  H   UNL     1     -49.963  36.626  27.994  1.00  0.00     0.084 H 
ATOM     41  C   UNL     1     -46.896  38.886  27.492  1.00  0.00     0.066 A 
ATOM     42  H   UNL     1     -45.872  37.079  26.823  1.00  0.00     0.065 H 
ATOM     43  C   UNL     1     -48.125  39.330  27.966  1.00  0.00     0.051 A 
ATOM     44  H   UNL     1     -48.330  40.360  28.229  1.00  0.00     0.086 H 
BRANCH  41  45
ATOM     45  N   UNL     1     -45.780  39.769  27.320  1.00  0.00    -0.298 N 
ATOM     46  C   UNL     1     -45.638  40.676  26.281  1.00  0.00     0.026 A 
ATOM     47  C   UNL     1     -44.649  39.901  28.135  1.00  0.00     0.151 A 
ATOM     48  C   UNL     1     -44.456  41.351  26.439  1.00  0.00     0.049 A 
ATOM     49  H   UNL     1     -46.387  40.791  25.511  1.00  0.00     0.084 H 
ATOM     50  C   UNL     1     -43.812  40.880  27.598  1.00  0.00     0.076 A 
ATOM     51  N   UNL     1     -44.383  39.199  29.255  1.00  0.00    -0.218 NA
ATOM     52  Br  UNL     1     -43.817  42.692  25.291  1.00  0.00    -0.048 Br
ATOM     53  C   UNL     1     -42.615  41.144  28.284  1.00  0.00     0.137 A 
ATOM     54  C   UNL     1     -43.220  39.537  29.824  1.00  0.00     0.120 A 
ATOM     55  N   UNL     1     -42.341  40.462  29.410  1.00  0.00    -0.219 NA
ATOM     56  H   UNL     1     -42.955  39.000  30.730  1.00  0.00     0.106 H 
BRANCH  53  57
ATOM     57  N   UNL     1     -41.678  42.082  27.885  1.00  0.00    -0.383 N 
ATOM     58  H   UNL     1     -40.847  42.150  28.456  1.00  0.00     0.158 HD
ATOM     59  H   UNL     1     -41.551  42.079  26.880  1.00  0.00     0.158 HD
ENDBRANCH  53  57
ENDBRANCH  41  45
ENDBRANCH  33  36
ENDBRANCH  32  33
ENDBRANCH   4  32
TORSDOF 12
ENDMDL
MODEL 7
REMARK VINA RESULT:      -8.2      2.872      4.596
REMARK SMILES CN(C)CCNC(=O)c1ccc(OCc2cncc(-n3cc(Br)c4c(N)ncnc43)c2)cc1N
REMARK SMILES IDX 9 1 10 2 11 3 12 4 32 5 33 6 7 10 6 11 8 13 5 14 4 17 2 20
REMARK SMILES IDX 1 21 3 25 34 29 13 32 14 33 15 36 16 37 31 38 17 39 19 41
REMARK SMILES IDX 18 43 20 45 21 46 30 47 22 48 24 50 29 51 23 52 25 53 28 54
REMARK SMILES IDX 27 55 26 57
REMARK H PARENT 10 7 11 8 32 9 6 12 5 15 5 16 4 18 4 19 1 22 1 23 1 24 3 26
REMARK H PARENT 3 27 3 28 34 30 34 31 14 34 14 35 16 40 31 42 18 44 21 49
REMARK H PARENT 28 56 26 58 26 59
REMARK Flexibility Score: inf
ROOT
ATOM      1  C   UNL     1     -48.033  31.648  24.557  1.00  0.00     0.063 A 
ATOM      2  C   UNL     1     -48.876  32.376  25.411  1.00  0.00    -0.044 A 
ATOM      3  C   UNL     1     -48.388  33.470  26.135  1.00  0.00    -0.019 A 
ATOM      4  C   UNL     1     -47.054  33.850  26.012  1.00  0.00     0.121 A 
ATOM      5  C   UNL     1     -46.211  33.116  25.172  1.00  0.00     0.004 A 
ATOM      6  C   UNL     1     -46.668  31.985  24.478  1.00  0.00     0.048 A 
ATOM      7  H   UNL     1     -49.919  32.098  25.536  1.00  0.00     0.063 H 
ATOM      8  H   UNL     1     -49.085  34.008  26.769  1.00  0.00     0.066 H 
ATOM      9  H   UNL     1     -45.169  33.413  25.072  1.00  0.00     0.068 H 
ENDROOT
BRANCH   1  10
ATOM     10  C   UNL     1     -48.580  30.509  23.755  1.00  0.00     0.253 C 
ATOM     11  N   UNL     1     -49.030  29.416  24.470  1.00  0.00    -0.351 N 
ATOM     12  H   UNL     1     -49.291  29.573  25.436  1.00  0.00     0.163 HD
ATOM     13  O   UNL     1     -48.656  30.586  22.532  1.00  0.00    -0.269 OA
BRANCH  11  14
ATOM     14  C   UNL     1     -49.795  28.368  23.814  1.00  0.00     0.030 C 
ATOM     15  H   UNL     1     -49.579  27.433  24.338  1.00  0.00     0.050 H 
ATOM     16  H   UNL     1     -49.453  28.257  22.780  1.00  0.00     0.050 H 
BRANCH  14  17
ATOM     17  C   UNL     1     -51.304  28.682  23.831  1.00  0.00     0.015 C 
ATOM     18  H   UNL     1     -51.455  29.764  23.930  1.00  0.00     0.045 H 
ATOM     19  H   UNL     1     -51.720  28.217  24.734  1.00  0.00     0.045 H 
BRANCH  17  20
ATOM     20  N   UNL     1     -52.023  28.150  22.647  1.00  0.00    -0.308 NA
BRANCH  20  21
ATOM     21  C   UNL     1     -51.841  29.058  21.511  1.00  0.00    -0.014 C 
ATOM     22  H   UNL     1     -51.115  29.850  21.727  1.00  0.00     0.039 H 
ATOM     23  H   UNL     1     -51.500  28.506  20.628  1.00  0.00     0.039 H 
ATOM     24  H   UNL     1     -52.793  29.525  21.235  1.00  0.00     0.039 H 
ENDBRANCH  20  21
BRANCH  20  25
ATOM     25  C   UNL     1     -51.548  26.811  22.286  1.00  0.00    -0.014 C 
ATOM     26  H   UNL     1     -52.356  26.071  22.286  1.00  0.00     0.039 H 
ATOM     27  H   UNL     1     -51.076  26.812  21.298  1.00  0.00     0.039 H 
ATOM     28  H   UNL     1     -50.778  26.477  22.990  1.00  0.00     0.039 H 
ENDBRANCH  20  25
ENDBRANCH  17  20
ENDBRANCH  14  17
ENDBRANCH  11  14
ENDBRANCH   1  10
BRANCH   6  29
ATOM     29  N   UNL     1     -45.766  31.358  23.586  1.00  0.00    -0.398 N 
ATOM     30  H   UNL     1     -45.849  30.346  23.637  1.00  0.00     0.156 HD
ATOM     31  H   UNL     1     -44.800  31.611  23.844  1.00  0.00     0.156 HD
ENDBRANCH   6  29
BRANCH   4  32
ATOM     32  O   UNL     1     -46.456  34.916  26.625  1.00  0.00    -0.489 OA
BRANCH  32  33
ATOM     33  C   UNL     1     -47.028  35.423  27.834  1.00  0.00     0.115 C 
ATOM     34  H   UNL     1     -47.981  34.926  28.053  1.00  0.00     0.076 H 
ATOM     35  H   UNL     1     -46.342  35.140  28.643  1.00  0.00     0.076 H 
BRANCH  33  36
ATOM     36  C   UNL     1     -47.150  36.924  27.850  1.00  0.00     0.010 A 
ATOM     37  C   UNL     1     -48.398  37.518  27.970  1.00  0.00     0.034 A 
ATOM     38  C   UNL     1     -46.033  37.773  27.799  1.00  0.00    -0.028 A 
ATOM     39  N   UNL     1     -48.594  38.851  28.009  1.00  0.00    -0.262 NA
ATOM     40  H   UNL     1     -49.306  36.926  28.040  1.00  0.00     0.084 H 
ATOM     41  C   UNL     1     -46.191  39.166  27.835  1.00  0.00     0.066 A 
ATOM     42  H   UNL     1     -45.054  37.307  27.738  1.00  0.00     0.065 H 
ATOM     43  C   UNL     1     -47.492  39.644  27.940  1.00  0.00     0.051 A 
ATOM     44  H   UNL     1     -47.744  40.697  27.965  1.00  0.00     0.086 H 
BRANCH  41  45
ATOM     45  N   UNL     1     -45.059  40.043  27.760  1.00  0.00    -0.298 N 
ATOM     46  C   UNL     1     -43.960  39.993  28.604  1.00  0.00     0.026 A 
ATOM     47  C   UNL     1     -44.831  41.084  26.853  1.00  0.00     0.151 A 
ATOM     48  C   UNL     1     -43.076  40.975  28.239  1.00  0.00     0.049 A 
ATOM     49  H   UNL     1     -43.873  39.262  29.394  1.00  0.00     0.084 H 
ATOM     50  C   UNL     1     -43.602  41.679  27.140  1.00  0.00     0.076 A 
ATOM     51  N   UNL     1     -45.657  41.477  25.861  1.00  0.00    -0.218 NA
ATOM     52  Br  UNL     1     -41.427  41.308  29.074  1.00  0.00    -0.048 Br
ATOM     53  C   UNL     1     -43.208  42.757  26.330  1.00  0.00     0.137 A 
ATOM     54  C   UNL     1     -45.178  42.509  25.156  1.00  0.00     0.120 A 
ATOM     55  N   UNL     1     -44.014  43.153  25.329  1.00  0.00    -0.219 NA
ATOM     56  H   UNL     1     -45.804  42.868  24.345  1.00  0.00     0.106 H 
BRANCH  53  57
ATOM     57  N   UNL     1     -42.021  43.453  26.482  1.00  0.00    -0.383 N 
ATOM     58  H   UNL     1     -41.306  43.267  25.792  1.00  0.00     0.158 HD
ATOM     59  H   UNL     1     -42.185  44.421  26.730  1.00  0.00     0.158 HD
ENDBRANCH  53  57
ENDBRANCH  41  45
ENDBRANCH  33  36
ENDBRANCH  32  33
ENDBRANCH   4  32
TORSDOF 12
ENDMDL
