MODEL 1
REMARK VINA RESULT:     -10.1      0.000      0.000
REMARK SMILES CNc1ccc2ccc(OCc3cc(-n4cc(Cl)c5c(N)ncnc54)ccc3F)cc2n1
REMARK SMILES IDX 11 1 10 4 9 5 3 6 4 7 32 8 5 9 31 11 6 12 30 14 7 15 8 17
REMARK SMILES IDX 2 20 1 22 12 26 13 27 28 28 14 29 27 31 29 32 26 33 15 36
REMARK SMILES IDX 16 37 25 38 17 39 19 41 24 42 18 43 20 44 23 45 22 46 21 48
REMARK H PARENT 11 2 11 3 4 10 5 13 30 16 7 18 8 19 2 21 1 23 1 24 1 25 13 30
REMARK H PARENT 27 34 26 35 16 40 23 47 21 49 21 50
REMARK Flexibility Score: inf
ROOT
ATOM      1  C   UNL     1     -46.790  35.691  27.998  1.00  0.00     0.116 C 
ATOM      2  H   UNL     1     -46.095  35.402  28.795  1.00  0.00     0.076 H 
ATOM      3  H   UNL     1     -47.744  35.217  28.254  1.00  0.00     0.076 H 
ENDROOT
BRANCH   1   4
ATOM      4  O   UNL     1     -46.204  35.188  26.795  1.00  0.00    -0.489 OA
BRANCH   4   5
ATOM      5  C   UNL     1     -46.846  34.202  26.098  1.00  0.00     0.122 A 
ATOM      6  C   UNL     1     -47.117  30.673  22.915  1.00  0.00     0.126 A 
ATOM      7  C   UNL     1     -48.405  30.343  23.318  1.00  0.00    -0.019 A 
ATOM      8  N   UNL     1     -46.435  31.685  23.489  1.00  0.00    -0.231 NA
ATOM      9  C   UNL     1     -49.015  31.082  24.327  1.00  0.00    -0.049 A 
ATOM     10  H   UNL     1     -48.926  29.507  22.865  1.00  0.00     0.066 H 
ATOM     11  C   UNL     1     -47.017  32.406  24.464  1.00  0.00     0.076 A 
ATOM     12  C   UNL     1     -48.319  32.134  24.924  1.00  0.00     0.001 A 
ATOM     13  H   UNL     1     -50.019  30.820  24.647  1.00  0.00     0.063 H 
ATOM     14  C   UNL     1     -46.308  33.444  25.055  1.00  0.00     0.007 A 
ATOM     15  C   UNL     1     -48.876  32.896  25.962  1.00  0.00    -0.049 A 
ATOM     16  H   UNL     1     -45.297  33.608  24.697  1.00  0.00     0.069 H 
ATOM     17  C   UNL     1     -48.133  33.919  26.550  1.00  0.00    -0.019 A 
ATOM     18  H   UNL     1     -49.878  32.689  26.330  1.00  0.00     0.063 H 
ATOM     19  H   UNL     1     -48.558  34.493  27.370  1.00  0.00     0.066 H 
BRANCH   6  20
ATOM     20  N   UNL     1     -46.511  29.878  21.926  1.00  0.00    -0.373 N 
ATOM     21  H   UNL     1     -46.438  30.417  21.067  1.00  0.00     0.161 HD
BRANCH  20  22
ATOM     22  C   UNL     1     -45.230  29.310  22.314  1.00  0.00     0.005 C 
ATOM     23  H   UNL     1     -44.397  29.962  22.028  1.00  0.00     0.045 H 
ATOM     24  H   UNL     1     -45.202  29.208  23.404  1.00  0.00     0.045 H 
ATOM     25  H   UNL     1     -45.083  28.313  21.885  1.00  0.00     0.045 H 
ENDBRANCH  20  22
ENDBRANCH   6  20
ENDBRANCH   4   5
ENDBRANCH   1   4
BRANCH   1  26
ATOM     26  C   UNL     1     -46.927  37.195  27.983  1.00  0.00     0.027 A 
ATOM     27  C   UNL     1     -45.806  38.040  27.892  1.00  0.00    -0.028 A 
ATOM     28  C   UNL     1     -48.191  37.783  27.993  1.00  0.00     0.129 A 
ATOM     29  C   UNL     1     -45.939  39.435  27.804  1.00  0.00     0.048 A 
ATOM     30  H   UNL     1     -44.823  37.584  27.921  1.00  0.00     0.065 H 
ATOM     31  C   UNL     1     -48.346  39.166  27.942  1.00  0.00    -0.024 A 
ATOM     32  F   UNL     1     -49.288  37.017  28.048  1.00  0.00    -0.207 F 
ATOM     33  C   UNL     1     -47.224  39.994  27.850  1.00  0.00    -0.035 A 
ATOM     34  H   UNL     1     -49.345  39.589  27.956  1.00  0.00     0.065 H 
ATOM     35  H   UNL     1     -47.396  41.063  27.776  1.00  0.00     0.065 H 
BRANCH  29  36
ATOM     36  N   UNL     1     -44.781  40.271  27.661  1.00  0.00    -0.300 N 
ATOM     37  C   UNL     1     -43.694  40.276  28.517  1.00  0.00     0.030 A 
ATOM     38  C   UNL     1     -44.538  41.230  26.674  1.00  0.00     0.151 A 
ATOM     39  C   UNL     1     -42.767  41.183  28.060  1.00  0.00     0.072 A 
ATOM     40  H   UNL     1     -43.634  39.610  29.365  1.00  0.00     0.084 H 
ATOM     41  C   UNL     1     -43.287  41.797  26.899  1.00  0.00     0.080 A 
ATOM     42  N   UNL     1     -45.380  41.593  25.684  1.00  0.00    -0.218 NA
ATOM     43  Cl  UNL     1     -41.265  41.514  28.786  1.00  0.00    -0.082 Cl
ATOM     44  C   UNL     1     -42.863  42.783  25.994  1.00  0.00     0.137 A 
ATOM     45  C   UNL     1     -44.880  42.548  24.891  1.00  0.00     0.120 A 
ATOM     46  N   UNL     1     -43.684  43.152  24.993  1.00  0.00    -0.219 NA
ATOM     47  H   UNL     1     -45.515  42.875  24.072  1.00  0.00     0.106 H 
BRANCH  44  48
ATOM     48  N   UNL     1     -41.643  43.434  26.070  1.00  0.00    -0.383 N 
ATOM     49  H   UNL     1     -41.469  43.995  25.244  1.00  0.00     0.158 HD
ATOM     50  H   UNL     1     -41.414  43.843  26.965  1.00  0.00     0.158 HD
ENDBRANCH  44  48
ENDBRANCH  29  36
ENDBRANCH   1  26
TORSDOF 7
ENDMDL
MODEL 2
REMARK VINA RESULT:      -9.8      1.920      2.500
REMARK SMILES CNc1ccc2ccc(OCc3cc(-n4cc(Cl)c5c(N)ncnc54)ccc3F)cc2n1
REMARK SMILES IDX 11 1 10 4 9 5 3 6 4 7 32 8 5 9 31 11 6 12 30 14 7 15 8 17
REMARK SMILES IDX 2 20 1 22 12 26 13 27 28 28 14 29 27 31 29 32 26 33 15 36
REMARK SMILES IDX 16 37 25 38 17 39 19 41 24 42 18 43 20 44 23 45 22 46 21 48
REMARK H PARENT 11 2 11 3 4 10 5 13 30 16 7 18 8 19 2 21 1 23 1 24 1 25 13 30
REMARK H PARENT 27 34 26 35 16 40 23 47 21 49 21 50
REMARK Flexibility Score: inf
ROOT
ATOM      1  C   UNL     1     -46.892  34.902  25.833  1.00  0.00     0.116 C 
ATOM      2  H   UNL     1     -47.578  34.965  24.980  1.00  0.00     0.076 H 
ATOM      3  H   UNL     1     -45.885  34.920  25.403  1.00  0.00     0.076 H 
ENDROOT
BRANCH   1   4
ATOM      4  O   UNL     1     -47.218  33.667  26.478  1.00  0.00    -0.489 OA
BRANCH   4   5
ATOM      5  C   UNL     1     -47.312  32.526  25.731  1.00  0.00     0.122 A 
ATOM      6  C   UNL     1     -49.327  28.428  24.387  1.00  0.00     0.126 A 
ATOM      7  C   UNL     1     -48.455  28.295  23.313  1.00  0.00    -0.019 A 
ATOM      8  N   UNL     1     -49.257  29.481  25.227  1.00  0.00    -0.231 NA
ATOM      9  C   UNL     1     -47.474  29.260  23.106  1.00  0.00    -0.049 A 
ATOM     10  H   UNL     1     -48.545  27.457  22.630  1.00  0.00     0.066 H 
ATOM     11  C   UNL     1     -48.311  30.418  25.036  1.00  0.00     0.076 A 
ATOM     12  C   UNL     1     -47.390  30.351  23.974  1.00  0.00     0.001 A 
ATOM     13  H   UNL     1     -46.796  29.160  22.264  1.00  0.00     0.063 H 
ATOM     14  C   UNL     1     -48.246  31.502  25.902  1.00  0.00     0.007 A 
ATOM     15  C   UNL     1     -46.438  31.366  23.798  1.00  0.00    -0.049 A 
ATOM     16  H   UNL     1     -48.989  31.538  26.693  1.00  0.00     0.069 H 
ATOM     17  C   UNL     1     -46.410  32.452  24.671  1.00  0.00    -0.019 A 
ATOM     18  H   UNL     1     -45.728  31.327  22.976  1.00  0.00     0.063 H 
ATOM     19  H   UNL     1     -45.686  33.249  24.519  1.00  0.00     0.066 H 
BRANCH   6  20
ATOM     20  N   UNL     1     -50.336  27.460  24.541  1.00  0.00    -0.373 N 
ATOM     21  H   UNL     1     -50.771  27.292  23.638  1.00  0.00     0.161 HD
BRANCH  20  22
ATOM     22  C   UNL     1     -49.891  26.224  25.163  1.00  0.00     0.005 C 
ATOM     23  H   UNL     1     -49.099  26.406  25.898  1.00  0.00     0.045 H 
ATOM     24  H   UNL     1     -50.733  25.773  25.699  1.00  0.00     0.045 H 
ATOM     25  H   UNL     1     -49.545  25.498  24.419  1.00  0.00     0.045 H 
ENDBRANCH  20  22
ENDBRANCH   6  20
ENDBRANCH   4   5
ENDBRANCH   1   4
BRANCH   1  26
ATOM     26  C   UNL     1     -47.112  36.093  26.734  1.00  0.00     0.027 A 
ATOM     27  C   UNL     1     -46.086  37.016  27.006  1.00  0.00    -0.028 A 
ATOM     28  C   UNL     1     -48.376  36.342  27.270  1.00  0.00     0.129 A 
ATOM     29  C   UNL     1     -46.312  38.163  27.784  1.00  0.00     0.048 A 
ATOM     30  H   UNL     1     -45.096  36.802  26.619  1.00  0.00     0.065 H 
ATOM     31  C   UNL     1     -48.614  37.454  28.073  1.00  0.00    -0.024 A 
ATOM     32  F   UNL     1     -49.391  35.507  27.014  1.00  0.00    -0.207 F 
ATOM     33  C   UNL     1     -47.585  38.364  28.335  1.00  0.00    -0.035 A 
ATOM     34  H   UNL     1     -49.608  37.614  28.477  1.00  0.00     0.065 H 
ATOM     35  H   UNL     1     -47.828  39.235  28.935  1.00  0.00     0.065 H 
BRANCH  29  36
ATOM     36  N   UNL     1     -45.260  39.115  28.004  1.00  0.00    -0.300 N 
ATOM     37  C   UNL     1     -44.328  39.047  29.026  1.00  0.00     0.030 A 
ATOM     38  C   UNL     1     -44.990  40.272  27.270  1.00  0.00     0.151 A 
ATOM     39  C   UNL     1     -43.464  40.110  28.915  1.00  0.00     0.072 A 
ATOM     40  H   UNL     1     -44.318  38.231  29.733  1.00  0.00     0.084 H 
ATOM     41  C   UNL     1     -43.869  40.895  27.812  1.00  0.00     0.080 A 
ATOM     42  N   UNL     1     -45.707  40.747  26.231  1.00  0.00    -0.218 NA
ATOM     43  Cl  UNL     1     -42.146  40.425  29.943  1.00  0.00    -0.082 Cl
ATOM     44  C   UNL     1     -43.438  42.079  27.194  1.00  0.00     0.137 A 
ATOM     45  C   UNL     1     -45.213  41.886  25.727  1.00  0.00     0.120 A 
ATOM     46  N   UNL     1     -44.133  42.565  26.149  1.00  0.00    -0.219 NA
ATOM     47  H   UNL     1     -45.749  42.311  24.883  1.00  0.00     0.106 H 
BRANCH  44  48
ATOM     48  N   UNL     1     -42.335  42.812  27.603  1.00  0.00    -0.383 N 
ATOM     49  H   UNL     1     -42.195  43.629  27.020  1.00  0.00     0.158 HD
ATOM     50  H   UNL     1     -42.227  42.930  28.601  1.00  0.00     0.158 HD
ENDBRANCH  44  48
ENDBRANCH  29  36
ENDBRANCH   1  26
TORSDOF 7
ENDMDL
MODEL 3
REMARK VINA RESULT:      -9.7      3.230     10.368
REMARK SMILES CNc1ccc2ccc(OCc3cc(-n4cc(Cl)c5c(N)ncnc54)ccc3F)cc2n1
REMARK SMILES IDX 11 1 10 4 9 5 3 6 4 7 32 8 5 9 31 11 6 12 30 14 7 15 8 17
REMARK SMILES IDX 2 20 1 22 12 26 13 27 28 28 14 29 27 31 29 32 26 33 15 36
REMARK SMILES IDX 16 37 25 38 17 39 19 41 24 42 18 43 20 44 23 45 22 46 21 48
REMARK H PARENT 11 2 11 3 4 10 5 13 30 16 7 18 8 19 2 21 1 23 1 24 1 25 13 30
REMARK H PARENT 27 34 26 35 16 40 23 47 21 49 21 50
REMARK Flexibility Score: inf
ROOT
ATOM      1  C   UNL     1     -46.590  36.929  26.685  1.00  0.00     0.116 C 
ATOM      2  H   UNL     1     -45.661  37.226  26.183  1.00  0.00     0.076 H 
ATOM      3  H   UNL     1     -47.400  37.270  26.030  1.00  0.00     0.076 H 
ENDROOT
BRANCH   1   4
ATOM      4  O   UNL     1     -46.556  37.596  27.950  1.00  0.00    -0.489 OA
BRANCH   4   5
ATOM      5  C   UNL     1     -45.502  38.414  28.248  1.00  0.00     0.122 A 
ATOM      6  C   UNL     1     -42.698  42.208  27.615  1.00  0.00     0.126 A 
ATOM      7  C   UNL     1     -42.019  41.966  28.803  1.00  0.00    -0.019 A 
ATOM      8  N   UNL     1     -43.699  41.407  27.197  1.00  0.00    -0.231 NA
ATOM      9  C   UNL     1     -42.367  40.862  29.575  1.00  0.00    -0.049 A 
ATOM     10  H   UNL     1     -41.237  42.639  29.137  1.00  0.00     0.066 H 
ATOM     11  C   UNL     1     -44.041  40.336  27.937  1.00  0.00     0.076 A 
ATOM     12  C   UNL     1     -43.399  40.023  29.149  1.00  0.00     0.001 A 
ATOM     13  H   UNL     1     -41.842  40.676  30.507  1.00  0.00     0.063 H 
ATOM     14  C   UNL     1     -45.076  39.516  27.504  1.00  0.00     0.007 A 
ATOM     15  C   UNL     1     -43.808  38.911  29.900  1.00  0.00    -0.049 A 
ATOM     16  H   UNL     1     -45.569  39.802  26.580  1.00  0.00     0.069 H 
ATOM     17  C   UNL     1     -44.863  38.118  29.451  1.00  0.00    -0.019 A 
ATOM     18  H   UNL     1     -43.323  38.666  30.841  1.00  0.00     0.063 H 
ATOM     19  H   UNL     1     -45.193  37.271  30.046  1.00  0.00     0.066 H 
BRANCH   6  20
ATOM     20  N   UNL     1     -42.354  43.358  26.881  1.00  0.00    -0.373 N 
ATOM     21  H   UNL     1     -41.681  43.900  27.415  1.00  0.00     0.161 HD
BRANCH  20  22
ATOM     22  C   UNL     1     -41.882  43.090  25.532  1.00  0.00     0.005 C 
ATOM     23  H   UNL     1     -42.538  43.541  24.780  1.00  0.00     0.045 H 
ATOM     24  H   UNL     1     -40.890  43.536  25.408  1.00  0.00     0.045 H 
ATOM     25  H   UNL     1     -41.787  42.015  25.343  1.00  0.00     0.045 H 
ENDBRANCH  20  22
ENDBRANCH   6  20
ENDBRANCH   4   5
ENDBRANCH   1   4
BRANCH   1  26
ATOM     26  C   UNL     1     -46.615  35.427  26.830  1.00  0.00     0.027 A 
ATOM     27  C   UNL     1     -47.334  34.609  25.939  1.00  0.00    -0.028 A 
ATOM     28  C   UNL     1     -45.862  34.806  27.826  1.00  0.00     0.129 A 
ATOM     29  C   UNL     1     -47.298  33.208  26.031  1.00  0.00     0.048 A 
ATOM     30  H   UNL     1     -47.948  35.093  25.189  1.00  0.00     0.065 H 
ATOM     31  C   UNL     1     -45.839  33.421  27.957  1.00  0.00    -0.024 A 
ATOM     32  F   UNL     1     -45.138  35.544  28.678  1.00  0.00    -0.207 F 
ATOM     33  C   UNL     1     -46.557  32.619  27.065  1.00  0.00    -0.035 A 
ATOM     34  H   UNL     1     -45.245  32.972  28.747  1.00  0.00     0.065 H 
ATOM     35  H   UNL     1     -46.478  31.543  27.185  1.00  0.00     0.065 H 
BRANCH  29  36
ATOM     36  N   UNL     1     -48.000  32.395  25.079  1.00  0.00    -0.300 N 
ATOM     37  C   UNL     1     -49.371  32.209  25.051  1.00  0.00     0.030 A 
ATOM     38  C   UNL     1     -47.456  31.638  24.039  1.00  0.00     0.151 A 
ATOM     39  C   UNL     1     -49.691  31.390  23.994  1.00  0.00     0.072 A 
ATOM     40  H   UNL     1     -50.026  32.701  25.754  1.00  0.00     0.084 H 
ATOM     41  C   UNL     1     -48.492  31.018  23.346  1.00  0.00     0.080 A 
ATOM     42  N   UNL     1     -46.145  31.484  23.760  1.00  0.00    -0.218 NA
ATOM     43  Cl  UNL     1     -51.262  30.903  23.560  1.00  0.00    -0.082 Cl
ATOM     44  C   UNL     1     -48.135  30.215  22.251  1.00  0.00     0.137 A 
ATOM     45  C   UNL     1     -45.920  30.690  22.706  1.00  0.00     0.120 A 
ATOM     46  N   UNL     1     -46.833  30.058  21.950  1.00  0.00    -0.219 NA
ATOM     47  H   UNL     1     -44.880  30.535  22.432  1.00  0.00     0.106 H 
BRANCH  44  48
ATOM     48  N   UNL     1     -49.045  29.542  21.452  1.00  0.00    -0.383 N 
ATOM     49  H   UNL     1     -48.944  28.537  21.540  1.00  0.00     0.158 HD
ATOM     50  H   UNL     1     -49.985  29.913  21.441  1.00  0.00     0.158 HD
ENDBRANCH  44  48
ENDBRANCH  29  36
ENDBRANCH   1  26
TORSDOF 7
ENDMDL
MODEL 4
REMARK VINA RESULT:      -9.7      1.270      1.895
REMARK SMILES CNc1ccc2ccc(OCc3cc(-n4cc(Cl)c5c(N)ncnc54)ccc3F)cc2n1
REMARK SMILES IDX 11 1 10 4 9 5 3 6 4 7 32 8 5 9 31 11 6 12 30 14 7 15 8 17
REMARK SMILES IDX 2 20 1 22 12 26 13 27 28 28 14 29 27 31 29 32 26 33 15 36
REMARK SMILES IDX 16 37 25 38 17 39 19 41 24 42 18 43 20 44 23 45 22 46 21 48
REMARK H PARENT 11 2 11 3 4 10 5 13 30 16 7 18 8 19 2 21 1 23 1 24 1 25 13 30
REMARK H PARENT 27 34 26 35 16 40 23 47 21 49 21 50
REMARK Flexibility Score: inf
ROOT
ATOM      1  C   UNL     1     -46.723  35.472  28.007  1.00  0.00     0.116 C 
ATOM      2  H   UNL     1     -45.962  35.290  28.775  1.00  0.00     0.076 H 
ATOM      3  H   UNL     1     -47.605  34.907  28.327  1.00  0.00     0.076 H 
ENDROOT
BRANCH   1   4
ATOM      4  O   UNL     1     -46.143  34.991  26.791  1.00  0.00    -0.489 OA
BRANCH   4   5
ATOM      5  C   UNL     1     -46.796  34.028  26.073  1.00  0.00     0.122 A 
ATOM      6  C   UNL     1     -47.066  30.431  22.966  1.00  0.00     0.126 A 
ATOM      7  C   UNL     1     -48.399  30.195  23.280  1.00  0.00    -0.019 A 
ATOM      8  N   UNL     1     -46.363  31.414  23.565  1.00  0.00    -0.231 NA
ATOM      9  C   UNL     1     -49.031  31.001  24.223  1.00  0.00    -0.049 A 
ATOM     10  H   UNL     1     -48.940  29.381  22.811  1.00  0.00     0.066 H 
ATOM     11  C   UNL     1     -46.966  32.199  24.476  1.00  0.00     0.076 A 
ATOM     12  C   UNL     1     -48.313  32.024  24.844  1.00  0.00     0.001 A 
ATOM     13  H   UNL     1     -50.071  30.813  24.474  1.00  0.00     0.063 H 
ATOM     14  C   UNL     1     -46.235  33.207  25.092  1.00  0.00     0.007 A 
ATOM     15  C   UNL     1     -48.892  32.850  25.819  1.00  0.00    -0.049 A 
ATOM     16  H   UNL     1     -45.192  33.296  24.807  1.00  0.00     0.069 H 
ATOM     17  C   UNL     1     -48.129  33.840  26.435  1.00  0.00    -0.019 A 
ATOM     18  H   UNL     1     -49.930  32.718  26.116  1.00  0.00     0.063 H 
ATOM     19  H   UNL     1     -48.574  34.464  27.207  1.00  0.00     0.066 H 
BRANCH   6  20
ATOM     20  N   UNL     1     -46.443  29.570  22.045  1.00  0.00    -0.373 N 
ATOM     21  H   UNL     1     -46.561  29.948  21.109  1.00  0.00     0.161 HD
BRANCH  20  22
ATOM     22  C   UNL     1     -45.048  29.285  22.339  1.00  0.00     0.005 C 
ATOM     23  H   UNL     1     -44.504  28.972  21.441  1.00  0.00     0.045 H 
ATOM     24  H   UNL     1     -44.568  30.198  22.707  1.00  0.00     0.045 H 
ATOM     25  H   UNL     1     -44.947  28.522  23.118  1.00  0.00     0.045 H 
ENDBRANCH  20  22
ENDBRANCH   6  20
ENDBRANCH   4   5
ENDBRANCH   1   4
BRANCH   1  26
ATOM     26  C   UNL     1     -47.025  36.951  27.951  1.00  0.00     0.027 A 
ATOM     27  C   UNL     1     -46.066  37.887  27.526  1.00  0.00    -0.028 A 
ATOM     28  C   UNL     1     -48.303  37.417  28.262  1.00  0.00     0.129 A 
ATOM     29  C   UNL     1     -46.371  39.253  27.405  1.00  0.00     0.048 A 
ATOM     30  H   UNL     1     -45.064  37.529  27.320  1.00  0.00     0.065 H 
ATOM     31  C   UNL     1     -48.617  38.770  28.182  1.00  0.00    -0.024 A 
ATOM     32  F   UNL     1     -49.257  36.557  28.642  1.00  0.00    -0.207 F 
ATOM     33  C   UNL     1     -47.655  39.691  27.757  1.00  0.00    -0.035 A 
ATOM     34  H   UNL     1     -49.621  39.098  28.436  1.00  0.00     0.065 H 
ATOM     35  H   UNL     1     -47.958  40.730  27.675  1.00  0.00     0.065 H 
BRANCH  29  36
ATOM     36  N   UNL     1     -45.388  40.180  26.920  1.00  0.00    -0.300 N 
ATOM     37  C   UNL     1     -45.428  40.806  25.686  1.00  0.00     0.030 A 
ATOM     38  C   UNL     1     -44.225  40.605  27.566  1.00  0.00     0.151 A 
ATOM     39  C   UNL     1     -44.340  41.639  25.571  1.00  0.00     0.072 A 
ATOM     40  H   UNL     1     -46.242  40.650  24.995  1.00  0.00     0.084 H 
ATOM     41  C   UNL     1     -43.569  41.522  26.749  1.00  0.00     0.080 A 
ATOM     42  N   UNL     1     -43.771  40.180  28.763  1.00  0.00    -0.218 NA
ATOM     43  Cl  UNL     1     -43.987  42.625  24.231  1.00  0.00    -0.082 Cl
ATOM     44  C   UNL     1     -42.373  42.070  27.240  1.00  0.00     0.137 A 
ATOM     45  C   UNL     1     -42.619  40.758  29.125  1.00  0.00     0.120 A 
ATOM     46  N   UNL     1     -41.909  41.666  28.437  1.00  0.00    -0.219 NA
ATOM     47  H   UNL     1     -42.210  40.456  30.086  1.00  0.00     0.106 H 
BRANCH  44  48
ATOM     48  N   UNL     1     -41.608  43.002  26.557  1.00  0.00    -0.383 N 
ATOM     49  H   UNL     1     -40.707  42.622  26.294  1.00  0.00     0.158 HD
ATOM     50  H   UNL     1     -42.097  43.557  25.868  1.00  0.00     0.158 HD
ENDBRANCH  44  48
ENDBRANCH  29  36
ENDBRANCH   1  26
TORSDOF 7
ENDMDL
MODEL 5
REMARK VINA RESULT:      -9.7      2.410      3.812
REMARK SMILES CNc1ccc2ccc(OCc3cc(-n4cc(Cl)c5c(N)ncnc54)ccc3F)cc2n1
REMARK SMILES IDX 11 1 10 4 9 5 3 6 4 7 32 8 5 9 31 11 6 12 30 14 7 15 8 17
REMARK SMILES IDX 2 20 1 22 12 26 13 27 28 28 14 29 27 31 29 32 26 33 15 36
REMARK SMILES IDX 16 37 25 38 17 39 19 41 24 42 18 43 20 44 23 45 22 46 21 48
REMARK H PARENT 11 2 11 3 4 10 5 13 30 16 7 18 8 19 2 21 1 23 1 24 1 25 13 30
REMARK H PARENT 27 34 26 35 16 40 23 47 21 49 21 50
REMARK Flexibility Score: inf
ROOT
ATOM      1  C   UNL     1     -46.476  33.508  26.386  1.00  0.00     0.116 C 
ATOM      2  H   UNL     1     -45.402  33.478  26.602  1.00  0.00     0.076 H 
ATOM      3  H   UNL     1     -46.920  32.709  26.990  1.00  0.00     0.076 H 
ENDROOT
BRANCH   1   4
ATOM      4  O   UNL     1     -46.577  33.286  24.977  1.00  0.00    -0.489 OA
BRANCH   4   5
ATOM      5  C   UNL     1     -46.965  32.057  24.518  1.00  0.00     0.122 A 
ATOM      6  C   UNL     1     -49.744  28.193  24.420  1.00  0.00     0.126 A 
ATOM      7  C   UNL     1     -49.114  27.710  23.279  1.00  0.00    -0.019 A 
ATOM      8  N   UNL     1     -49.373  29.358  24.991  1.00  0.00    -0.231 NA
ATOM      9  C   UNL     1     -48.065  28.433  22.720  1.00  0.00    -0.049 A 
ATOM     10  H   UNL     1     -49.446  26.787  22.817  1.00  0.00     0.066 H 
ATOM     11  C   UNL     1     -48.359  30.062  24.458  1.00  0.00     0.076 A 
ATOM     12  C   UNL     1     -47.671  29.637  23.307  1.00  0.00     0.001 A 
ATOM     13  H   UNL     1     -47.577  28.059  21.825  1.00  0.00     0.063 H 
ATOM     14  C   UNL     1     -47.984  31.263  25.049  1.00  0.00     0.007 A 
ATOM     15  C   UNL     1     -46.636  30.419  22.771  1.00  0.00    -0.049 A 
ATOM     16  H   UNL     1     -48.554  31.576  25.918  1.00  0.00     0.069 H 
ATOM     17  C   UNL     1     -46.296  31.628  23.374  1.00  0.00    -0.019 A 
ATOM     18  H   UNL     1     -46.104  30.102  21.878  1.00  0.00     0.063 H 
ATOM     19  H   UNL     1     -45.510  32.244  22.943  1.00  0.00     0.066 H 
BRANCH   6  20
ATOM     20  N   UNL     1     -50.830  27.463  24.933  1.00  0.00    -0.373 N 
ATOM     21  H   UNL     1     -51.284  26.967  24.171  1.00  0.00     0.161 HD
BRANCH  20  22
ATOM     22  C   UNL     1     -50.489  26.571  26.030  1.00  0.00     0.005 C 
ATOM     23  H   UNL     1     -49.768  25.808  25.717  1.00  0.00     0.045 H 
ATOM     24  H   UNL     1     -50.020  27.153  26.829  1.00  0.00     0.045 H 
ATOM     25  H   UNL     1     -51.379  26.089  26.450  1.00  0.00     0.045 H 
ENDBRANCH  20  22
ENDBRANCH   6  20
ENDBRANCH   4   5
ENDBRANCH   1   4
BRANCH   1  26
ATOM     26  C   UNL     1     -47.025  34.855  26.793  1.00  0.00     0.027 A 
ATOM     27  C   UNL     1     -46.195  35.982  26.929  1.00  0.00    -0.028 A 
ATOM     28  C   UNL     1     -48.396  35.025  26.981  1.00  0.00     0.129 A 
ATOM     29  C   UNL     1     -46.715  37.249  27.237  1.00  0.00     0.048 A 
ATOM     30  H   UNL     1     -45.126  35.842  26.819  1.00  0.00     0.065 H 
ATOM     31  C   UNL     1     -48.931  36.264  27.320  1.00  0.00    -0.024 A 
ATOM     32  F   UNL     1     -49.228  33.986  26.832  1.00  0.00    -0.207 F 
ATOM     33  C   UNL     1     -48.095  37.377  27.452  1.00  0.00    -0.035 A 
ATOM     34  H   UNL     1     -50.003  36.359  27.464  1.00  0.00     0.065 H 
ATOM     35  H   UNL     1     -48.562  38.330  27.681  1.00  0.00     0.065 H 
BRANCH  29  36
ATOM     36  N   UNL     1     -45.853  38.393  27.321  1.00  0.00    -0.300 N 
ATOM     37  C   UNL     1     -45.745  39.379  26.354  1.00  0.00     0.030 A 
ATOM     38  C   UNL     1     -44.964  38.719  28.348  1.00  0.00     0.151 A 
ATOM     39  C   UNL     1     -44.843  40.326  26.779  1.00  0.00     0.072 A 
ATOM     40  H   UNL     1     -46.341  39.361  25.455  1.00  0.00     0.084 H 
ATOM     41  C   UNL     1     -44.339  39.923  28.035  1.00  0.00     0.080 A 
ATOM     42  N   UNL     1     -44.708  37.983  29.449  1.00  0.00    -0.218 NA
ATOM     43  Cl  UNL     1     -44.406  41.729  25.923  1.00  0.00    -0.082 Cl
ATOM     44  C   UNL     1     -43.410  40.418  28.965  1.00  0.00     0.137 A 
ATOM     45  C   UNL     1     -43.800  38.543  30.258  1.00  0.00     0.120 A 
ATOM     46  N   UNL     1     -43.148  39.703  30.075  1.00  0.00    -0.219 NA
ATOM     47  H   UNL     1     -43.558  37.994  31.164  1.00  0.00     0.106 H 
BRANCH  44  48
ATOM     48  N   UNL     1     -42.714  41.605  28.809  1.00  0.00    -0.383 N 
ATOM     49  H   UNL     1     -42.650  41.873  27.834  1.00  0.00     0.158 HD
ATOM     50  H   UNL     1     -42.924  42.333  29.477  1.00  0.00     0.158 HD
ENDBRANCH  44  48
ENDBRANCH  29  36
ENDBRANCH   1  26
TORSDOF 7
ENDMDL
MODEL 6
REMARK VINA RESULT:      -9.5      2.361      3.673
REMARK SMILES CNc1ccc2ccc(OCc3cc(-n4cc(Cl)c5c(N)ncnc54)ccc3F)cc2n1
REMARK SMILES IDX 11 1 10 4 9 5 3 6 4 7 32 8 5 9 31 11 6 12 30 14 7 15 8 17
REMARK SMILES IDX 2 20 1 22 12 26 13 27 28 28 14 29 27 31 29 32 26 33 15 36
REMARK SMILES IDX 16 37 25 38 17 39 19 41 24 42 18 43 20 44 23 45 22 46 21 48
REMARK H PARENT 11 2 11 3 4 10 5 13 30 16 7 18 8 19 2 21 1 23 1 24 1 25 13 30
REMARK H PARENT 27 34 26 35 16 40 23 47 21 49 21 50
REMARK Flexibility Score: inf
ROOT
ATOM      1  C   UNL     1     -45.891  38.143  28.809  1.00  0.00     0.116 C 
ATOM      2  H   UNL     1     -45.376  37.177  28.746  1.00  0.00     0.076 H 
ATOM      3  H   UNL     1     -46.293  38.196  29.828  1.00  0.00     0.076 H 
ENDROOT
BRANCH   1   4
ATOM      4  O   UNL     1     -46.900  38.092  27.796  1.00  0.00    -0.489 OA
BRANCH   4   5
ATOM      5  C   UNL     1     -47.285  36.880  27.295  1.00  0.00     0.122 A 
ATOM      6  C   UNL     1     -46.548  32.672  25.195  1.00  0.00     0.126 A 
ATOM      7  C   UNL     1     -47.852  32.263  25.446  1.00  0.00    -0.019 A 
ATOM      8  N   UNL     1     -46.101  33.885  25.580  1.00  0.00    -0.231 NA
ATOM      9  C   UNL     1     -48.726  33.129  26.096  1.00  0.00    -0.049 A 
ATOM     10  H   UNL     1     -48.184  31.272  25.156  1.00  0.00     0.066 H 
ATOM     11  C   UNL     1     -46.940  34.730  26.207  1.00  0.00     0.076 A 
ATOM     12  C   UNL     1     -48.275  34.389  26.494  1.00  0.00     0.001 A 
ATOM     13  H   UNL     1     -49.743  32.808  26.299  1.00  0.00     0.063 H 
ATOM     14  C   UNL     1     -46.473  35.976  26.606  1.00  0.00     0.007 A 
ATOM     15  C   UNL     1     -49.104  35.293  27.175  1.00  0.00    -0.049 A 
ATOM     16  H   UNL     1     -45.431  36.195  26.395  1.00  0.00     0.069 H 
ATOM     17  C   UNL     1     -48.603  36.528  27.580  1.00  0.00    -0.019 A 
ATOM     18  H   UNL     1     -50.134  35.035  27.408  1.00  0.00     0.063 H 
ATOM     19  H   UNL     1     -49.241  37.217  28.128  1.00  0.00     0.066 H 
BRANCH   6  20
ATOM     20  N   UNL     1     -45.677  31.756  24.578  1.00  0.00    -0.373 N 
ATOM     21  H   UNL     1     -45.456  31.015  25.238  1.00  0.00     0.161 HD
BRANCH  20  22
ATOM     22  C   UNL     1     -46.161  31.224  23.315  1.00  0.00     0.005 C 
ATOM     23  H   UNL     1     -46.977  30.508  23.467  1.00  0.00     0.045 H 
ATOM     24  H   UNL     1     -46.560  32.047  22.712  1.00  0.00     0.045 H 
ATOM     25  H   UNL     1     -45.357  30.753  22.739  1.00  0.00     0.045 H 
ENDBRANCH  20  22
ENDBRANCH   6  20
ENDBRANCH   4   5
ENDBRANCH   1   4
BRANCH   1  26
ATOM     26  C   UNL     1     -44.894  39.252  28.569  1.00  0.00     0.027 A 
ATOM     27  C   UNL     1     -45.082  40.210  27.557  1.00  0.00    -0.028 A 
ATOM     28  C   UNL     1     -43.784  39.388  29.402  1.00  0.00     0.129 A 
ATOM     29  C   UNL     1     -44.192  41.282  27.381  1.00  0.00     0.048 A 
ATOM     30  H   UNL     1     -45.925  40.083  26.887  1.00  0.00     0.065 H 
ATOM     31  C   UNL     1     -42.870  40.422  29.225  1.00  0.00    -0.024 A 
ATOM     32  F   UNL     1     -43.581  38.516  30.398  1.00  0.00    -0.207 F 
ATOM     33  C   UNL     1     -43.068  41.369  28.215  1.00  0.00    -0.035 A 
ATOM     34  H   UNL     1     -42.014  40.494  29.889  1.00  0.00     0.065 H 
ATOM     35  H   UNL     1     -42.349  42.178  28.140  1.00  0.00     0.065 H 
BRANCH  29  36
ATOM     36  N   UNL     1     -44.434  42.275  26.373  1.00  0.00    -0.300 N 
ATOM     37  C   UNL     1     -45.681  42.759  26.019  1.00  0.00     0.030 A 
ATOM     38  C   UNL     1     -43.493  42.913  25.561  1.00  0.00     0.151 A 
ATOM     39  C   UNL     1     -45.530  43.711  25.038  1.00  0.00     0.072 A 
ATOM     40  H   UNL     1     -46.582  42.427  26.513  1.00  0.00     0.084 H 
ATOM     41  C   UNL     1     -44.154  43.818  24.735  1.00  0.00     0.080 A 
ATOM     42  N   UNL     1     -42.165  42.676  25.534  1.00  0.00    -0.218 NA
ATOM     43  Cl  UNL     1     -46.791  44.590  24.311  1.00  0.00    -0.082 Cl
ATOM     44  C   UNL     1     -43.363  44.565  23.848  1.00  0.00     0.137 A 
ATOM     45  C   UNL     1     -41.513  43.434  24.645  1.00  0.00     0.120 A 
ATOM     46  N   UNL     1     -42.035  44.352  23.814  1.00  0.00    -0.219 NA
ATOM     47  H   UNL     1     -40.437  43.289  24.585  1.00  0.00     0.106 H 
BRANCH  44  48
ATOM     48  N   UNL     1     -43.865  45.514  22.972  1.00  0.00    -0.383 N 
ATOM     49  H   UNL     1     -44.829  45.742  23.183  1.00  0.00     0.158 HD
ATOM     50  H   UNL     1     -43.246  46.280  22.746  1.00  0.00     0.158 HD
ENDBRANCH  44  48
ENDBRANCH  29  36
ENDBRANCH   1  26
TORSDOF 7
ENDMDL
MODEL 7
REMARK VINA RESULT:      -9.3      3.808     10.885
REMARK SMILES CNc1ccc2ccc(OCc3cc(-n4cc(Cl)c5c(N)ncnc54)ccc3F)cc2n1
REMARK SMILES IDX 11 1 10 4 9 5 3 6 4 7 32 8 5 9 31 11 6 12 30 14 7 15 8 17
REMARK SMILES IDX 2 20 1 22 12 26 13 27 28 28 14 29 27 31 29 32 26 33 15 36
REMARK SMILES IDX 16 37 25 38 17 39 19 41 24 42 18 43 20 44 23 45 22 46 21 48
REMARK H PARENT 11 2 11 3 4 10 5 13 30 16 7 18 8 19 2 21 1 23 1 24 1 25 13 30
REMARK H PARENT 27 34 26 35 16 40 23 47 21 49 21 50
REMARK Flexibility Score: inf
ROOT
ATOM      1  C   UNL     1     -48.713  34.669  26.817  1.00  0.00     0.116 C 
ATOM      2  H   UNL     1     -48.717  35.596  26.231  1.00  0.00     0.076 H 
ATOM      3  H   UNL     1     -49.768  34.424  26.986  1.00  0.00     0.076 H 
ENDROOT
BRANCH   1   4
ATOM      4  O   UNL     1     -48.000  34.992  28.014  1.00  0.00    -0.489 OA
BRANCH   4   5
ATOM      5  C   UNL     1     -47.146  36.059  28.019  1.00  0.00     0.122 A 
ATOM      6  C   UNL     1     -45.631  40.351  26.625  1.00  0.00     0.126 A 
ATOM      7  C   UNL     1     -44.644  40.375  27.603  1.00  0.00    -0.019 A 
ATOM      8  N   UNL     1     -46.468  39.302  26.491  1.00  0.00    -0.231 NA
ATOM      9  C   UNL     1     -44.504  39.285  28.457  1.00  0.00    -0.049 A 
ATOM     10  H   UNL     1     -44.000  41.240  27.715  1.00  0.00     0.066 H 
ATOM     11  C   UNL     1     -46.339  38.244  27.312  1.00  0.00     0.076 A 
ATOM     12  C   UNL     1     -45.363  38.193  28.324  1.00  0.00     0.001 A 
ATOM     13  H   UNL     1     -43.737  39.306  29.227  1.00  0.00     0.063 H 
ATOM     14  C   UNL     1     -47.207  37.168  27.172  1.00  0.00     0.007 A 
ATOM     15  C   UNL     1     -45.283  37.079  29.173  1.00  0.00    -0.049 A 
ATOM     16  H   UNL     1     -47.966  37.253  26.401  1.00  0.00     0.069 H 
ATOM     17  C   UNL     1     -46.180  36.023  29.022  1.00  0.00    -0.019 A 
ATOM     18  H   UNL     1     -44.537  37.033  29.963  1.00  0.00     0.063 H 
ATOM     19  H   UNL     1     -46.131  35.172  29.697  1.00  0.00     0.066 H 
BRANCH   6  20
ATOM     20  N   UNL     1     -45.777  41.487  25.808  1.00  0.00    -0.373 N 
ATOM     21  H   UNL     1     -46.634  41.969  26.065  1.00  0.00     0.161 HD
BRANCH  20  22
ATOM     22  C   UNL     1     -44.632  42.384  25.817  1.00  0.00     0.005 C 
ATOM     23  H   UNL     1     -44.143  42.419  24.837  1.00  0.00     0.045 H 
ATOM     24  H   UNL     1     -44.977  43.397  26.045  1.00  0.00     0.045 H 
ATOM     25  H   UNL     1     -43.903  42.101  26.584  1.00  0.00     0.045 H 
ENDBRANCH  20  22
ENDBRANCH   6  20
ENDBRANCH   4   5
ENDBRANCH   1   4
BRANCH   1  26
ATOM     26  C   UNL     1     -48.031  33.583  26.020  1.00  0.00     0.027 A 
ATOM     27  C   UNL     1     -48.634  32.331  25.808  1.00  0.00    -0.028 A 
ATOM     28  C   UNL     1     -46.799  33.828  25.414  1.00  0.00     0.129 A 
ATOM     29  C   UNL     1     -48.032  31.347  25.006  1.00  0.00     0.048 A 
ATOM     30  H   UNL     1     -49.574  32.128  26.309  1.00  0.00     0.065 H 
ATOM     31  C   UNL     1     -46.168  32.856  24.643  1.00  0.00    -0.024 A 
ATOM     32  F   UNL     1     -46.201  35.017  25.563  1.00  0.00    -0.207 F 
ATOM     33  C   UNL     1     -46.778  31.615  24.439  1.00  0.00    -0.035 A 
ATOM     34  H   UNL     1     -45.207  33.080  24.190  1.00  0.00     0.065 H 
ATOM     35  H   UNL     1     -46.265  30.903  23.800  1.00  0.00     0.065 H 
BRANCH  29  36
ATOM     36  N   UNL     1     -48.693  30.096  24.764  1.00  0.00    -0.300 N 
ATOM     37  C   UNL     1     -48.793  29.061  25.679  1.00  0.00     0.030 A 
ATOM     38  C   UNL     1     -49.326  29.679  23.592  1.00  0.00     0.151 A 
ATOM     39  C   UNL     1     -49.508  28.032  25.114  1.00  0.00     0.072 A 
ATOM     40  H   UNL     1     -48.386  29.142  26.675  1.00  0.00     0.084 H 
ATOM     41  C   UNL     1     -49.850  28.405  23.795  1.00  0.00     0.080 A 
ATOM     42  N   UNL     1     -49.394  30.362  22.430  1.00  0.00    -0.218 NA
ATOM     43  Cl  UNL     1     -49.895  26.562  25.876  1.00  0.00    -0.082 Cl
ATOM     44  C   UNL     1     -50.537  27.821  22.719  1.00  0.00     0.137 A 
ATOM     45  C   UNL     1     -50.059  29.706  21.471  1.00  0.00     0.120 A 
ATOM     46  N   UNL     1     -50.625  28.490  21.555  1.00  0.00    -0.219 NA
ATOM     47  H   UNL     1     -50.150  30.213  20.515  1.00  0.00     0.106 H 
BRANCH  44  48
ATOM     48  N   UNL     1     -51.127  26.568  22.762  1.00  0.00    -0.383 N 
ATOM     49  H   UNL     1     -50.490  25.870  23.128  1.00  0.00     0.158 HD
ATOM     50  H   UNL     1     -52.083  26.539  23.090  1.00  0.00     0.158 HD
ENDBRANCH  44  48
ENDBRANCH  29  36
ENDBRANCH   1  26
TORSDOF 7
ENDMDL
