MODEL 1
REMARK VINA RESULT:     -11.6      0.000      0.000
REMARK SMILES O=C(NCc1ccc2cc(CN3CCCCC3)[nH]c2c1)c1cc(=O)n2ccccc2n1
REMARK SMILES IDX 5 1 6 2 7 3 8 4 9 5 10 6 18 7 19 8 20 9 4 15 3 18 1 19 2 20
REMARK SMILES IDX 21 22 22 23 31 24 23 25 30 27 24 28 25 29 29 30 26 31 28 32
REMARK SMILES IDX 27 34 11 38 12 41 13 42 17 43 14 44 16 47 15 50
REMARK H PARENT 6 10 7 11 9 12 18 13 20 14 4 16 4 17 3 21 22 26 29 33 26 35
REMARK H PARENT 28 36 27 37 11 39 11 40 13 45 13 46 17 48 17 49 14 51 14 52
REMARK H PARENT 16 53 16 54 15 55 15 56
REMARK Flexibility Score: inf
ROOT
ATOM      1  C   UNL     1     -48.106  34.620  26.475  1.00  0.00    -0.027 A 
ATOM      2  C   UNL     1     -46.846  34.644  25.865  1.00  0.00    -0.057 A 
ATOM      3  C   UNL     1     -46.386  33.558  25.107  1.00  0.00    -0.052 A 
ATOM      4  C   UNL     1     -47.203  32.421  24.966  1.00  0.00    -0.000 A 
ATOM      5  C   UNL     1     -47.057  31.176  24.294  1.00  0.00    -0.032 A 
ATOM      6  C   UNL     1     -48.201  30.435  24.515  1.00  0.00     0.030 A 
ATOM      7  N   UNL     1     -49.034  31.201  25.297  1.00  0.00    -0.357 N 
ATOM      8  C   UNL     1     -48.450  32.411  25.588  1.00  0.00     0.046 A 
ATOM      9  C   UNL     1     -48.926  33.484  26.350  1.00  0.00    -0.033 A 
ATOM     10  H   UNL     1     -46.203  35.515  25.975  1.00  0.00     0.063 H 
ATOM     11  H   UNL     1     -45.409  33.595  24.638  1.00  0.00     0.063 H 
ATOM     12  H   UNL     1     -46.204  30.858  23.710  1.00  0.00     0.065 H 
ATOM     13  H   UNL     1     -49.934  30.884  25.632  1.00  0.00     0.166 HD
ATOM     14  H   UNL     1     -49.899  33.440  26.830  1.00  0.00     0.065 H 
ENDROOT
BRANCH   1  15
ATOM     15  C   UNL     1     -48.564  35.785  27.312  1.00  0.00     0.043 C 
ATOM     16  H   UNL     1     -48.879  35.450  28.309  1.00  0.00     0.054 H 
ATOM     17  H   UNL     1     -49.432  36.277  26.857  1.00  0.00     0.054 H 
BRANCH  15  18
ATOM     18  N   UNL     1     -47.513  36.755  27.458  1.00  0.00    -0.347 N 
ATOM     19  O   UNL     1     -46.877  36.105  29.566  1.00  0.00    -0.268 OA
ATOM     20  C   UNL     1     -46.755  36.847  28.598  1.00  0.00     0.270 C 
ATOM     21  H   UNL     1     -47.345  37.443  26.730  1.00  0.00     0.164 HD
BRANCH  20  22
ATOM     22  C   UNL     1     -45.749  37.970  28.534  1.00  0.00     0.136 A 
ATOM     23  C   UNL     1     -44.914  38.080  29.568  1.00  0.00     0.035 A 
ATOM     24  N   UNL     1     -45.752  38.799  27.435  1.00  0.00    -0.225 NA
ATOM     25  C   UNL     1     -43.919  39.158  29.547  1.00  0.00     0.258 A 
ATOM     26  H   UNL     1     -44.921  37.420  30.426  1.00  0.00     0.071 H 
ATOM     27  C   UNL     1     -44.871  39.752  27.420  1.00  0.00     0.140 A 
ATOM     28  O   UNL     1     -43.143  39.267  30.496  1.00  0.00    -0.269 OA
ATOM     29  N   UNL     1     -43.942  39.979  28.429  1.00  0.00    -0.268 N 
ATOM     30  C   UNL     1     -44.838  40.674  26.250  1.00  0.00    -0.019 A 
ATOM     31  C   UNL     1     -43.029  41.024  28.337  1.00  0.00     0.014 A 
ATOM     32  C   UNL     1     -43.940  41.666  26.206  1.00  0.00    -0.057 A 
ATOM     33  H   UNL     1     -45.557  40.504  25.458  1.00  0.00     0.066 H 
ATOM     34  C   UNL     1     -43.004  41.849  27.283  1.00  0.00    -0.045 A 
ATOM     35  H   UNL     1     -42.331  41.145  29.163  1.00  0.00     0.082 H 
ATOM     36  H   UNL     1     -43.900  42.347  25.362  1.00  0.00     0.062 H 
ATOM     37  H   UNL     1     -42.287  42.662  27.221  1.00  0.00     0.064 H 
ENDBRANCH  20  22
ENDBRANCH  15  18
ENDBRANCH   1  15
BRANCH   6  38
ATOM     38  C   UNL     1     -48.603  29.076  24.049  1.00  0.00     0.038 C 
ATOM     39  H   UNL     1     -49.699  29.031  24.119  1.00  0.00     0.050 H 
ATOM     40  H   UNL     1     -48.344  28.937  22.992  1.00  0.00     0.050 H 
BRANCH  38  41
ATOM     41  N   UNL     1     -48.010  28.022  24.884  1.00  0.00    -0.298 NA
ATOM     42  C   UNL     1     -49.060  27.132  25.410  1.00  0.00    -0.001 C 
ATOM     43  C   UNL     1     -46.984  27.256  24.168  1.00  0.00    -0.001 C 
ATOM     44  C   UNL     1     -48.554  25.743  25.823  1.00  0.00    -0.040 C 
ATOM     45  H   UNL     1     -49.867  26.988  24.678  1.00  0.00     0.043 H 
ATOM     46  H   UNL     1     -49.508  27.621  26.283  1.00  0.00     0.043 H 
ATOM     47  C   UNL     1     -46.213  26.370  25.154  1.00  0.00    -0.040 C 
ATOM     48  H   UNL     1     -46.256  27.910  23.673  1.00  0.00     0.043 H 
ATOM     49  H   UNL     1     -47.438  26.642  23.379  1.00  0.00     0.043 H 
ATOM     50  C   UNL     1     -47.097  25.785  26.258  1.00  0.00    -0.051 C 
ATOM     51  H   UNL     1     -49.179  25.344  26.629  1.00  0.00     0.028 H 
ATOM     52  H   UNL     1     -48.652  25.052  24.974  1.00  0.00     0.028 H 
ATOM     53  H   UNL     1     -45.403  26.943  25.621  1.00  0.00     0.028 H 
ATOM     54  H   UNL     1     -45.736  25.557  24.594  1.00  0.00     0.028 H 
ATOM     55  H   UNL     1     -47.009  26.403  27.160  1.00  0.00     0.027 H 
ATOM     56  H   UNL     1     -46.745  24.784  26.530  1.00  0.00     0.027 H 
ENDBRANCH  38  41
ENDBRANCH   6  38
TORSDOF 5
ENDMDL
MODEL 2
REMARK VINA RESULT:     -11.3      1.526      2.020
REMARK SMILES O=C(NCc1ccc2cc(CN3CCCCC3)[nH]c2c1)c1cc(=O)n2ccccc2n1
REMARK SMILES IDX 5 1 6 2 7 3 8 4 9 5 10 6 18 7 19 8 20 9 4 15 3 18 1 19 2 20
REMARK SMILES IDX 21 22 22 23 31 24 23 25 30 27 24 28 25 29 29 30 26 31 28 32
REMARK SMILES IDX 27 34 11 38 12 41 13 42 17 43 14 44 16 47 15 50
REMARK H PARENT 6 10 7 11 9 12 18 13 20 14 4 16 4 17 3 21 22 26 29 33 26 35
REMARK H PARENT 28 36 27 37 11 39 11 40 13 45 13 46 17 48 17 49 14 51 14 52
REMARK H PARENT 16 53 16 54 15 55 15 56
REMARK Flexibility Score: inf
ROOT
ATOM      1  C   UNL     1     -47.787  34.968  26.637  1.00  0.00    -0.027 A 
ATOM      2  C   UNL     1     -46.547  34.910  25.989  1.00  0.00    -0.057 A 
ATOM      3  C   UNL     1     -46.184  33.801  25.213  1.00  0.00    -0.052 A 
ATOM      4  C   UNL     1     -47.080  32.722  25.092  1.00  0.00    -0.000 A 
ATOM      5  C   UNL     1     -47.039  31.474  24.411  1.00  0.00    -0.032 A 
ATOM      6  C   UNL     1     -48.223  30.811  24.663  1.00  0.00     0.030 A 
ATOM      7  N   UNL     1     -48.979  31.627  25.472  1.00  0.00    -0.357 N 
ATOM      8  C   UNL     1     -48.306  32.792  25.751  1.00  0.00     0.046 A 
ATOM      9  C   UNL     1     -48.685  33.891  26.531  1.00  0.00    -0.033 A 
ATOM     10  H   UNL     1     -45.844  35.735  26.083  1.00  0.00     0.063 H 
ATOM     11  H   UNL     1     -45.220  33.774  24.715  1.00  0.00     0.063 H 
ATOM     12  H   UNL     1     -46.226  31.103  23.801  1.00  0.00     0.065 H 
ATOM     13  H   UNL     1     -49.888  31.369  25.832  1.00  0.00     0.166 HD
ATOM     14  H   UNL     1     -49.644  33.910  27.040  1.00  0.00     0.065 H 
ENDROOT
BRANCH   1  15
ATOM     15  C   UNL     1     -48.141  36.156  27.492  1.00  0.00     0.043 C 
ATOM     16  H   UNL     1     -48.344  35.847  28.525  1.00  0.00     0.054 H 
ATOM     17  H   UNL     1     -49.051  36.645  27.125  1.00  0.00     0.054 H 
BRANCH  15  18
ATOM     18  N   UNL     1     -47.073  37.119  27.496  1.00  0.00    -0.347 N 
ATOM     19  O   UNL     1     -48.414  38.962  27.761  1.00  0.00    -0.268 OA
ATOM     20  C   UNL     1     -47.303  38.466  27.616  1.00  0.00     0.270 C 
ATOM     21  H   UNL     1     -46.113  36.822  27.349  1.00  0.00     0.164 HD
BRANCH  20  22
ATOM     22  C   UNL     1     -46.033  39.278  27.545  1.00  0.00     0.136 A 
ATOM     23  C   UNL     1     -45.841  39.986  26.431  1.00  0.00     0.035 A 
ATOM     24  N   UNL     1     -45.164  39.241  28.613  1.00  0.00    -0.225 NA
ATOM     25  C   UNL     1     -44.618  40.790  26.321  1.00  0.00     0.258 A 
ATOM     26  H   UNL     1     -46.532  40.007  25.599  1.00  0.00     0.071 H 
ATOM     27  C   UNL     1     -44.084  39.953  28.512  1.00  0.00     0.140 A 
ATOM     28  O   UNL     1     -44.432  41.448  25.298  1.00  0.00    -0.269 OA
ATOM     29  N   UNL     1     -43.760  40.737  27.410  1.00  0.00    -0.268 N 
ATOM     30  C   UNL     1     -43.115  39.944  29.643  1.00  0.00    -0.019 A 
ATOM     31  C   UNL     1     -42.580  41.473  27.379  1.00  0.00     0.014 A 
ATOM     32  C   UNL     1     -41.992  40.669  29.567  1.00  0.00    -0.057 A 
ATOM     33  H   UNL     1     -43.360  39.337  30.506  1.00  0.00     0.066 H 
ATOM     34  C   UNL     1     -41.713  41.460  28.399  1.00  0.00    -0.045 A 
ATOM     35  H   UNL     1     -42.389  42.064  26.485  1.00  0.00     0.082 H 
ATOM     36  H   UNL     1     -41.274  40.675  30.381  1.00  0.00     0.062 H 
ATOM     37  H   UNL     1     -40.796  42.039  28.364  1.00  0.00     0.064 H 
ENDBRANCH  20  22
ENDBRANCH  15  18
ENDBRANCH   1  15
BRANCH   6  38
ATOM     38  C   UNL     1     -48.730  29.485  24.203  1.00  0.00     0.038 C 
ATOM     39  H   UNL     1     -49.789  29.437  24.490  1.00  0.00     0.050 H 
ATOM     40  H   UNL     1     -48.691  29.414  23.109  1.00  0.00     0.050 H 
BRANCH  38  41
ATOM     41  N   UNL     1     -47.995  28.379  24.834  1.00  0.00    -0.298 NA
ATOM     42  C   UNL     1     -48.934  27.432  25.461  1.00  0.00    -0.001 C 
ATOM     43  C   UNL     1     -47.108  27.691  23.890  1.00  0.00    -0.001 C 
ATOM     44  C   UNL     1     -48.358  26.023  25.665  1.00  0.00    -0.040 C 
ATOM     45  H   UNL     1     -49.856  27.331  24.872  1.00  0.00     0.043 H 
ATOM     46  H   UNL     1     -49.223  27.841  26.435  1.00  0.00     0.043 H 
ATOM     47  C   UNL     1     -46.173  26.743  24.651  1.00  0.00    -0.040 C 
ATOM     48  H   UNL     1     -46.480  28.395  23.330  1.00  0.00     0.043 H 
ATOM     49  H   UNL     1     -47.691  27.133  23.145  1.00  0.00     0.043 H 
ATOM     50  C   UNL     1     -46.848  26.057  25.842  1.00  0.00    -0.051 C 
ATOM     51  H   UNL     1     -48.831  25.551  26.533  1.00  0.00     0.028 H 
ATOM     52  H   UNL     1     -48.601  25.400  24.793  1.00  0.00     0.028 H 
ATOM     53  H   UNL     1     -45.295  27.291  25.014  1.00  0.00     0.028 H 
ATOM     54  H   UNL     1     -45.799  25.985  23.952  1.00  0.00     0.028 H 
ATOM     55  H   UNL     1     -46.605  26.603  26.761  1.00  0.00     0.027 H 
ATOM     56  H   UNL     1     -46.449  25.043  25.965  1.00  0.00     0.027 H 
ENDBRANCH  38  41
ENDBRANCH   6  38
TORSDOF 5
ENDMDL
MODEL 3
REMARK VINA RESULT:     -10.5      2.779      4.116
REMARK SMILES O=C(NCc1ccc2cc(CN3CCCCC3)[nH]c2c1)c1cc(=O)n2ccccc2n1
REMARK SMILES IDX 5 1 6 2 7 3 8 4 9 5 10 6 18 7 19 8 20 9 4 15 3 18 1 19 2 20
REMARK SMILES IDX 21 22 22 23 31 24 23 25 30 27 24 28 25 29 29 30 26 31 28 32
REMARK SMILES IDX 27 34 11 38 12 41 13 42 17 43 14 44 16 47 15 50
REMARK H PARENT 6 10 7 11 9 12 18 13 20 14 4 16 4 17 3 21 22 26 29 33 26 35
REMARK H PARENT 28 36 27 37 11 39 11 40 13 45 13 46 17 48 17 49 14 51 14 52
REMARK H PARENT 16 53 16 54 15 55 15 56
REMARK Flexibility Score: inf
ROOT
ATOM      1  C   UNL     1     -46.311  35.356  27.836  1.00  0.00    -0.027 A 
ATOM      2  C   UNL     1     -47.691  35.454  27.619  1.00  0.00    -0.057 A 
ATOM      3  C   UNL     1     -48.339  34.635  26.686  1.00  0.00    -0.052 A 
ATOM      4  C   UNL     1     -47.586  33.703  25.947  1.00  0.00    -0.000 A 
ATOM      5  C   UNL     1     -47.906  32.746  24.945  1.00  0.00    -0.032 A 
ATOM      6  C   UNL     1     -46.738  32.108  24.575  1.00  0.00     0.030 A 
ATOM      7  N   UNL     1     -45.725  32.652  25.330  1.00  0.00    -0.357 N 
ATOM      8  C   UNL     1     -46.212  33.625  26.169  1.00  0.00     0.046 A 
ATOM      9  C   UNL     1     -45.547  34.436  27.096  1.00  0.00    -0.033 A 
ATOM     10  H   UNL     1     -48.280  36.178  28.180  1.00  0.00     0.063 H 
ATOM     11  H   UNL     1     -49.410  34.722  26.533  1.00  0.00     0.063 H 
ATOM     12  H   UNL     1     -48.888  32.546  24.539  1.00  0.00     0.065 H 
ATOM     13  H   UNL     1     -44.754  32.383  25.239  1.00  0.00     0.166 HD
ATOM     14  H   UNL     1     -44.474  34.357  27.238  1.00  0.00     0.065 H 
ENDROOT
BRANCH   1  15
ATOM     15  C   UNL     1     -45.631  36.271  28.821  1.00  0.00     0.043 C 
ATOM     16  H   UNL     1     -44.707  35.818  29.201  1.00  0.00     0.054 H 
ATOM     17  H   UNL     1     -46.272  36.455  29.691  1.00  0.00     0.054 H 
BRANCH  15  18
ATOM     18  N   UNL     1     -45.314  37.534  28.211  1.00  0.00    -0.347 N 
ATOM     19  O   UNL     1     -47.051  38.700  29.154  1.00  0.00    -0.268 OA
ATOM     20  C   UNL     1     -46.072  38.658  28.419  1.00  0.00     0.270 C 
ATOM     21  H   UNL     1     -44.541  37.607  27.556  1.00  0.00     0.164 HD
BRANCH  20  22
ATOM     22  C   UNL     1     -45.569  39.846  27.636  1.00  0.00     0.136 A 
ATOM     23  C   UNL     1     -46.483  40.537  26.952  1.00  0.00     0.035 A 
ATOM     24  N   UNL     1     -44.225  40.142  27.672  1.00  0.00    -0.225 NA
ATOM     25  C   UNL     1     -46.038  41.701  26.177  1.00  0.00     0.258 A 
ATOM     26  H   UNL     1     -47.538  40.295  26.933  1.00  0.00     0.071 H 
ATOM     27  C   UNL     1     -43.835  41.172  26.985  1.00  0.00     0.140 A 
ATOM     28  O   UNL     1     -46.873  42.346  25.544  1.00  0.00    -0.269 OA
ATOM     29  N   UNL     1     -44.680  41.979  26.230  1.00  0.00    -0.268 N 
ATOM     30  C   UNL     1     -42.389  41.530  26.995  1.00  0.00    -0.019 A 
ATOM     31  C   UNL     1     -44.182  43.067  25.521  1.00  0.00     0.014 A 
ATOM     32  C   UNL     1     -41.957  42.587  26.296  1.00  0.00    -0.057 A 
ATOM     33  H   UNL     1     -41.724  40.908  27.581  1.00  0.00     0.066 H 
ATOM     34  C   UNL     1     -42.881  43.383  25.534  1.00  0.00    -0.045 A 
ATOM     35  H   UNL     1     -44.899  43.655  24.952  1.00  0.00     0.082 H 
ATOM     36  H   UNL     1     -40.908  42.863  26.291  1.00  0.00     0.062 H 
ATOM     37  H   UNL     1     -42.504  44.235  24.977  1.00  0.00     0.064 H 
ENDBRANCH  20  22
ENDBRANCH  15  18
ENDBRANCH   1  15
BRANCH   6  38
ATOM     38  C   UNL     1     -46.477  31.020  23.589  1.00  0.00     0.038 C 
ATOM     39  H   UNL     1     -45.389  30.866  23.572  1.00  0.00     0.050 H 
ATOM     40  H   UNL     1     -46.928  30.077  23.923  1.00  0.00     0.050 H 
BRANCH  38  41
ATOM     41  N   UNL     1     -46.946  31.386  22.245  1.00  0.00    -0.298 NA
ATOM     42  C   UNL     1     -45.806  31.750  21.385  1.00  0.00    -0.001 C 
ATOM     43  C   UNL     1     -47.751  30.325  21.628  1.00  0.00    -0.001 C 
ATOM     44  C   UNL     1     -46.093  31.626  19.881  1.00  0.00    -0.040 C 
ATOM     45  H   UNL     1     -44.924  31.134  21.606  1.00  0.00     0.043 H 
ATOM     46  H   UNL     1     -45.534  32.787  21.609  1.00  0.00     0.043 H 
ATOM     47  C   UNL     1     -48.437  30.860  20.366  1.00  0.00    -0.040 C 
ATOM     48  H   UNL     1     -48.535  29.963  22.303  1.00  0.00     0.043 H 
ATOM     49  H   UNL     1     -47.125  29.457  21.382  1.00  0.00     0.043 H 
ATOM     50  C   UNL     1     -47.567  31.839  19.574  1.00  0.00    -0.051 C 
ATOM     51  H   UNL     1     -45.482  32.347  19.326  1.00  0.00     0.028 H 
ATOM     52  H   UNL     1     -45.797  30.627  19.535  1.00  0.00     0.028 H 
ATOM     53  H   UNL     1     -49.376  31.362  20.632  1.00  0.00     0.028 H 
ATOM     54  H   UNL     1     -48.710  30.010  19.729  1.00  0.00     0.028 H 
ATOM     55  H   UNL     1     -47.845  32.867  19.836  1.00  0.00     0.027 H 
ATOM     56  H   UNL     1     -47.759  31.727  18.501  1.00  0.00     0.027 H 
ENDBRANCH  38  41
ENDBRANCH   6  38
TORSDOF 5
ENDMDL
MODEL 4
REMARK VINA RESULT:     -10.4      1.809      2.951
REMARK SMILES O=C(NCc1ccc2cc(CN3CCCCC3)[nH]c2c1)c1cc(=O)n2ccccc2n1
REMARK SMILES IDX 5 1 6 2 7 3 8 4 9 5 10 6 18 7 19 8 20 9 4 15 3 18 1 19 2 20
REMARK SMILES IDX 21 22 22 23 31 24 23 25 30 27 24 28 25 29 29 30 26 31 28 32
REMARK SMILES IDX 27 34 11 38 12 41 13 42 17 43 14 44 16 47 15 50
REMARK H PARENT 6 10 7 11 9 12 18 13 20 14 4 16 4 17 3 21 22 26 29 33 26 35
REMARK H PARENT 28 36 27 37 11 39 11 40 13 45 13 46 17 48 17 49 14 51 14 52
REMARK H PARENT 16 53 16 54 15 55 15 56
REMARK Flexibility Score: inf
ROOT
ATOM      1  C   UNL     1     -46.624  35.531  28.283  1.00  0.00    -0.027 A 
ATOM      2  C   UNL     1     -47.961  35.664  27.887  1.00  0.00    -0.057 A 
ATOM      3  C   UNL     1     -48.484  34.904  26.832  1.00  0.00    -0.052 A 
ATOM      4  C   UNL     1     -47.648  33.998  26.155  1.00  0.00    -0.000 A 
ATOM      5  C   UNL     1     -47.838  33.098  25.070  1.00  0.00    -0.032 A 
ATOM      6  C   UNL     1     -46.638  32.459  24.829  1.00  0.00     0.030 A 
ATOM      7  N   UNL     1     -45.731  32.946  25.741  1.00  0.00    -0.357 N 
ATOM      8  C   UNL     1     -46.318  33.884  26.556  1.00  0.00     0.046 A 
ATOM      9  C   UNL     1     -45.777  34.636  27.606  1.00  0.00    -0.033 A 
ATOM     10  H   UNL     1     -48.613  36.369  28.399  1.00  0.00     0.063 H 
ATOM     11  H   UNL     1     -49.523  35.018  26.540  1.00  0.00     0.063 H 
ATOM     12  H   UNL     1     -48.759  32.936  24.525  1.00  0.00     0.065 H 
ATOM     13  H   UNL     1     -44.760  32.665  25.768  1.00  0.00     0.166 HD
ATOM     14  H   UNL     1     -44.733  34.531  27.887  1.00  0.00     0.065 H 
ENDROOT
BRANCH   1  15
ATOM     15  C   UNL     1     -46.075  36.383  29.397  1.00  0.00     0.043 C 
ATOM     16  H   UNL     1     -45.384  35.807  30.025  1.00  0.00     0.054 H 
ATOM     17  H   UNL     1     -46.880  36.733  30.054  1.00  0.00     0.054 H 
BRANCH  15  18
ATOM     18  N   UNL     1     -45.383  37.528  28.871  1.00  0.00    -0.347 N 
ATOM     19  O   UNL     1     -44.408  38.149  30.854  1.00  0.00    -0.268 OA
ATOM     20  C   UNL     1     -44.607  38.339  29.659  1.00  0.00     0.270 C 
ATOM     21  H   UNL     1     -45.502  37.799  27.900  1.00  0.00     0.164 HD
BRANCH  20  22
ATOM     22  C   UNL     1     -44.022  39.501  28.894  1.00  0.00     0.136 A 
ATOM     23  C   UNL     1     -42.987  40.125  29.459  1.00  0.00     0.035 A 
ATOM     24  N   UNL     1     -44.580  39.844  27.683  1.00  0.00    -0.225 NA
ATOM     25  C   UNL     1     -42.388  41.260  28.748  1.00  0.00     0.258 A 
ATOM     26  H   UNL     1     -42.556  39.845  30.412  1.00  0.00     0.071 H 
ATOM     27  C   UNL     1     -44.048  40.849  27.058  1.00  0.00     0.140 A 
ATOM     28  O   UNL     1     -41.431  41.841  29.260  1.00  0.00    -0.269 OA
ATOM     29  N   UNL     1     -42.967  41.585  27.530  1.00  0.00    -0.268 N 
ATOM     30  C   UNL     1     -44.620  41.255  25.743  1.00  0.00    -0.019 A 
ATOM     31  C   UNL     1     -42.454  42.650  26.798  1.00  0.00     0.014 A 
ATOM     32  C   UNL     1     -44.091  42.287  25.075  1.00  0.00    -0.057 A 
ATOM     33  H   UNL     1     -45.461  40.686  25.367  1.00  0.00     0.066 H 
ATOM     34  C   UNL     1     -42.972  43.010  25.617  1.00  0.00    -0.045 A 
ATOM     35  H   UNL     1     -41.608  43.183  27.228  1.00  0.00     0.082 H 
ATOM     36  H   UNL     1     -44.494  42.598  24.116  1.00  0.00     0.062 H 
ATOM     37  H   UNL     1     -42.564  43.843  25.055  1.00  0.00     0.064 H 
ENDBRANCH  20  22
ENDBRANCH  15  18
ENDBRANCH   1  15
BRANCH   6  38
ATOM     38  C   UNL     1     -46.256  31.418  23.831  1.00  0.00     0.038 C 
ATOM     39  H   UNL     1     -46.060  31.944  22.887  1.00  0.00     0.050 H 
ATOM     40  H   UNL     1     -45.320  30.926  24.124  1.00  0.00     0.050 H 
BRANCH  38  41
ATOM     41  N   UNL     1     -47.333  30.437  23.638  1.00  0.00    -0.298 NA
ATOM     42  C   UNL     1     -48.080  30.732  22.402  1.00  0.00    -0.001 C 
ATOM     43  C   UNL     1     -46.835  29.057  23.632  1.00  0.00    -0.001 C 
ATOM     44  C   UNL     1     -48.837  29.527  21.825  1.00  0.00    -0.040 C 
ATOM     45  H   UNL     1     -47.417  31.115  21.614  1.00  0.00     0.043 H 
ATOM     46  H   UNL     1     -48.799  31.528  22.626  1.00  0.00     0.043 H 
ATOM     47  C   UNL     1     -48.013  28.078  23.707  1.00  0.00    -0.040 C 
ATOM     48  H   UNL     1     -46.182  28.854  24.489  1.00  0.00     0.043 H 
ATOM     49  H   UNL     1     -46.236  28.864  22.732  1.00  0.00     0.043 H 
ATOM     50  C   UNL     1     -49.237  28.544  22.915  1.00  0.00    -0.051 C 
ATOM     51  H   UNL     1     -49.724  29.871  21.281  1.00  0.00     0.028 H 
ATOM     52  H   UNL     1     -48.199  29.010  21.096  1.00  0.00     0.028 H 
ATOM     53  H   UNL     1     -48.309  27.924  24.751  1.00  0.00     0.028 H 
ATOM     54  H   UNL     1     -47.681  27.102  23.331  1.00  0.00     0.028 H 
ATOM     55  H   UNL     1     -49.946  29.031  23.596  1.00  0.00     0.027 H 
ATOM     56  H   UNL     1     -49.758  27.681  22.486  1.00  0.00     0.027 H 
ENDBRANCH  38  41
ENDBRANCH   6  38
TORSDOF 5
ENDMDL
MODEL 5
REMARK VINA RESULT:     -10.1      1.925      2.813
REMARK SMILES O=C(NCc1ccc2cc(CN3CCCCC3)[nH]c2c1)c1cc(=O)n2ccccc2n1
REMARK SMILES IDX 5 1 6 2 7 3 8 4 9 5 10 6 18 7 19 8 20 9 4 15 3 18 1 19 2 20
REMARK SMILES IDX 21 22 22 23 31 24 23 25 30 27 24 28 25 29 29 30 26 31 28 32
REMARK SMILES IDX 27 34 11 38 12 41 13 42 17 43 14 44 16 47 15 50
REMARK H PARENT 6 10 7 11 9 12 18 13 20 14 4 16 4 17 3 21 22 26 29 33 26 35
REMARK H PARENT 28 36 27 37 11 39 11 40 13 45 13 46 17 48 17 49 14 51 14 52
REMARK H PARENT 16 53 16 54 15 55 15 56
REMARK Flexibility Score: inf
ROOT
ATOM      1  C   UNL     1     -47.482  36.539  27.438  1.00  0.00    -0.027 A 
ATOM      2  C   UNL     1     -46.176  36.098  27.192  1.00  0.00    -0.057 A 
ATOM      3  C   UNL     1     -45.929  34.835  26.637  1.00  0.00    -0.052 A 
ATOM      4  C   UNL     1     -47.014  33.993  26.330  1.00  0.00    -0.000 A 
ATOM      5  C   UNL     1     -47.128  32.687  25.779  1.00  0.00    -0.032 A 
ATOM      6  C   UNL     1     -48.469  32.366  25.714  1.00  0.00     0.030 A 
ATOM      7  N   UNL     1     -49.167  33.444  26.206  1.00  0.00    -0.357 N 
ATOM      8  C   UNL     1     -48.307  34.445  26.590  1.00  0.00     0.046 A 
ATOM      9  C   UNL     1     -48.573  35.702  27.146  1.00  0.00    -0.033 A 
ATOM     10  H   UNL     1     -45.329  36.738  27.434  1.00  0.00     0.063 H 
ATOM     11  H   UNL     1     -44.911  34.510  26.449  1.00  0.00     0.063 H 
ATOM     12  H   UNL     1     -46.312  32.051  25.464  1.00  0.00     0.065 H 
ATOM     13  H   UNL     1     -50.174  33.464  26.298  1.00  0.00     0.166 HD
ATOM     14  H   UNL     1     -49.592  36.020  27.345  1.00  0.00     0.065 H 
ENDROOT
BRANCH   1  15
ATOM     15  C   UNL     1     -47.720  37.887  28.067  1.00  0.00     0.043 C 
ATOM     16  H   UNL     1     -47.840  37.795  29.154  1.00  0.00     0.054 H 
ATOM     17  H   UNL     1     -48.643  38.339  27.685  1.00  0.00     0.054 H 
BRANCH  15  18
ATOM     18  N   UNL     1     -46.627  38.779  27.794  1.00  0.00    -0.347 N 
ATOM     19  O   UNL     1     -47.771  40.119  26.323  1.00  0.00    -0.268 OA
ATOM     20  C   UNL     1     -46.740  39.829  26.918  1.00  0.00     0.270 C 
ATOM     21  H   UNL     1     -45.714  38.614  28.207  1.00  0.00     0.164 HD
BRANCH  20  22
ATOM     22  C   UNL     1     -45.448  40.592  26.760  1.00  0.00     0.136 A 
ATOM     23  C   UNL     1     -44.534  40.420  27.718  1.00  0.00     0.035 A 
ATOM     24  N   UNL     1     -45.289  41.406  25.661  1.00  0.00    -0.225 NA
ATOM     25  C   UNL     1     -43.263  41.144  27.604  1.00  0.00     0.258 A 
ATOM     26  H   UNL     1     -44.671  39.777  28.578  1.00  0.00     0.071 H 
ATOM     27  C   UNL     1     -44.163  42.044  25.563  1.00  0.00     0.140 A 
ATOM     28  O   UNL     1     -42.414  40.992  28.482  1.00  0.00    -0.269 OA
ATOM     29  N   UNL     1     -43.127  41.956  26.487  1.00  0.00    -0.268 N 
ATOM     30  C   UNL     1     -43.948  42.936  24.389  1.00  0.00    -0.019 A 
ATOM     31  C   UNL     1     -41.950  42.674  26.310  1.00  0.00     0.014 A 
ATOM     32  C   UNL     1     -42.797  43.607  24.263  1.00  0.00    -0.057 A 
ATOM     33  H   UNL     1     -44.749  43.009  23.664  1.00  0.00     0.066 H 
ATOM     34  C   UNL     1     -41.762  43.474  25.253  1.00  0.00    -0.045 A 
ATOM     35  H   UNL     1     -41.182  42.559  27.072  1.00  0.00     0.082 H 
ATOM     36  H   UNL     1     -42.622  44.261  23.414  1.00  0.00     0.062 H 
ATOM     37  H   UNL     1     -40.839  44.030  25.125  1.00  0.00     0.064 H 
ENDBRANCH  20  22
ENDBRANCH  15  18
ENDBRANCH   1  15
BRANCH   6  38
ATOM     38  C   UNL     1     -49.170  31.146  25.218  1.00  0.00     0.038 C 
ATOM     39  H   UNL     1     -49.767  30.763  26.057  1.00  0.00     0.050 H 
ATOM     40  H   UNL     1     -49.873  31.403  24.415  1.00  0.00     0.050 H 
BRANCH  38  41
ATOM     41  N   UNL     1     -48.216  30.118  24.779  1.00  0.00    -0.298 NA
ATOM     42  C   UNL     1     -48.691  28.778  25.169  1.00  0.00    -0.001 C 
ATOM     43  C   UNL     1     -47.953  30.181  23.337  1.00  0.00    -0.001 C 
ATOM     44  C   UNL     1     -48.095  27.635  24.333  1.00  0.00    -0.040 C 
ATOM     45  H   UNL     1     -49.785  28.704  25.100  1.00  0.00     0.043 H 
ATOM     46  H   UNL     1     -48.428  28.622  26.221  1.00  0.00     0.043 H 
ATOM     47  C   UNL     1     -46.760  29.285  22.985  1.00  0.00    -0.040 C 
ATOM     48  H   UNL     1     -47.709  31.199  23.010  1.00  0.00     0.043 H 
ATOM     49  H   UNL     1     -48.840  29.875  22.766  1.00  0.00     0.043 H 
ATOM     50  C   UNL     1     -46.715  27.991  23.803  1.00  0.00    -0.051 C 
ATOM     51  H   UNL     1     -48.046  26.721  24.935  1.00  0.00     0.028 H 
ATOM     52  H   UNL     1     -48.758  27.421  23.484  1.00  0.00     0.028 H 
ATOM     53  H   UNL     1     -45.821  29.830  23.140  1.00  0.00     0.028 H 
ATOM     54  H   UNL     1     -46.807  29.044  21.916  1.00  0.00     0.028 H 
ATOM     55  H   UNL     1     -46.027  28.119  24.648  1.00  0.00     0.027 H 
ATOM     56  H   UNL     1     -46.312  27.175  23.192  1.00  0.00     0.027 H 
ENDBRANCH  38  41
ENDBRANCH   6  38
TORSDOF 5
ENDMDL
MODEL 6
REMARK VINA RESULT:     -10.1      2.084      3.298
REMARK SMILES O=C(NCc1ccc2cc(CN3CCCCC3)[nH]c2c1)c1cc(=O)n2ccccc2n1
REMARK SMILES IDX 5 1 6 2 7 3 8 4 9 5 10 6 18 7 19 8 20 9 4 15 3 18 1 19 2 20
REMARK SMILES IDX 21 22 22 23 31 24 23 25 30 27 24 28 25 29 29 30 26 31 28 32
REMARK SMILES IDX 27 34 11 38 12 41 13 42 17 43 14 44 16 47 15 50
REMARK H PARENT 6 10 7 11 9 12 18 13 20 14 4 16 4 17 3 21 22 26 29 33 26 35
REMARK H PARENT 28 36 27 37 11 39 11 40 13 45 13 46 17 48 17 49 14 51 14 52
REMARK H PARENT 16 53 16 54 15 55 15 56
REMARK Flexibility Score: inf
ROOT
ATOM      1  C   UNL     1     -47.884  34.809  26.654  1.00  0.00    -0.027 A 
ATOM      2  C   UNL     1     -46.581  34.725  26.147  1.00  0.00    -0.057 A 
ATOM      3  C   UNL     1     -46.190  33.660  25.325  1.00  0.00    -0.052 A 
ATOM      4  C   UNL     1     -47.121  32.653  25.012  1.00  0.00    -0.000 A 
ATOM      5  C   UNL     1     -47.067  31.462  24.236  1.00  0.00    -0.032 A 
ATOM      6  C   UNL     1     -48.307  30.857  24.295  1.00  0.00     0.030 A 
ATOM      7  N   UNL     1     -49.107  31.652  25.082  1.00  0.00    -0.357 N 
ATOM      8  C   UNL     1     -48.411  32.747  25.533  1.00  0.00     0.046 A 
ATOM      9  C   UNL     1     -48.820  33.802  26.357  1.00  0.00    -0.033 A 
ATOM     10  H   UNL     1     -45.851  35.495  26.390  1.00  0.00     0.063 H 
ATOM     11  H   UNL     1     -45.177  33.613  24.938  1.00  0.00     0.063 H 
ATOM     12  H   UNL     1     -46.210  31.091  23.691  1.00  0.00     0.065 H 
ATOM     13  H   UNL     1     -50.065  31.424  25.314  1.00  0.00     0.166 HD
ATOM     14  H   UNL     1     -49.829  33.841  26.755  1.00  0.00     0.065 H 
ENDROOT
BRANCH   1  15
ATOM     15  C   UNL     1     -48.272  35.945  27.563  1.00  0.00     0.043 C 
ATOM     16  H   UNL     1     -48.372  35.600  28.600  1.00  0.00     0.054 H 
ATOM     17  H   UNL     1     -49.243  36.363  27.275  1.00  0.00     0.054 H 
BRANCH  15  18
ATOM     18  N   UNL     1     -47.290  36.995  27.517  1.00  0.00    -0.347 N 
ATOM     19  O   UNL     1     -46.542  36.721  29.669  1.00  0.00    -0.268 OA
ATOM     20  C   UNL     1     -46.506  37.312  28.596  1.00  0.00     0.270 C 
ATOM     21  H   UNL     1     -47.196  37.573  26.687  1.00  0.00     0.164 HD
BRANCH  20  22
ATOM     22  C   UNL     1     -45.587  38.478  28.320  1.00  0.00     0.136 A 
ATOM     23  C   UNL     1     -45.837  39.184  27.216  1.00  0.00     0.035 A 
ATOM     24  N   UNL     1     -44.565  38.739  29.206  1.00  0.00    -0.225 NA
ATOM     25  C   UNL     1     -44.968  40.327  26.911  1.00  0.00     0.258 A 
ATOM     26  H   UNL     1     -46.644  38.969  26.529  1.00  0.00     0.071 H 
ATOM     27  C   UNL     1     -43.799  39.750  28.932  1.00  0.00     0.140 A 
ATOM     28  O   UNL     1     -45.191  40.985  25.896  1.00  0.00    -0.269 OA
ATOM     29  N   UNL     1     -43.947  40.569  27.818  1.00  0.00    -0.268 N 
ATOM     30  C   UNL     1     -42.680  40.069  29.863  1.00  0.00    -0.019 A 
ATOM     31  C   UNL     1     -43.082  41.635  27.596  1.00  0.00     0.014 A 
ATOM     32  C   UNL     1     -41.874  41.106  29.606  1.00  0.00    -0.057 A 
ATOM     33  H   UNL     1     -42.559  39.437  30.734  1.00  0.00     0.066 H 
ATOM     34  C   UNL     1     -42.079  41.917  28.437  1.00  0.00    -0.045 A 
ATOM     35  H   UNL     1     -43.255  42.234  26.705  1.00  0.00     0.082 H 
ATOM     36  H   UNL     1     -41.054  41.355  30.273  1.00  0.00     0.062 H 
ATOM     37  H   UNL     1     -41.409  42.751  28.253  1.00  0.00     0.064 H 
ENDBRANCH  20  22
ENDBRANCH  15  18
ENDBRANCH   1  15
BRANCH   6  38
ATOM     38  C   UNL     1     -48.825  29.606  23.670  1.00  0.00     0.038 C 
ATOM     39  H   UNL     1     -47.970  28.922  23.578  1.00  0.00     0.050 H 
ATOM     40  H   UNL     1     -49.556  29.118  24.327  1.00  0.00     0.050 H 
BRANCH  38  41
ATOM     41  N   UNL     1     -49.397  29.864  22.341  1.00  0.00    -0.298 NA
ATOM     42  C   UNL     1     -50.695  30.552  22.466  1.00  0.00    -0.001 C 
ATOM     43  C   UNL     1     -48.484  30.623  21.479  1.00  0.00    -0.001 C 
ATOM     44  C   UNL     1     -51.115  31.330  21.210  1.00  0.00    -0.040 C 
ATOM     45  H   UNL     1     -50.697  31.256  23.309  1.00  0.00     0.043 H 
ATOM     46  H   UNL     1     -51.457  29.794  22.684  1.00  0.00     0.043 H 
ATOM     47  C   UNL     1     -49.007  30.622  20.038  1.00  0.00    -0.040 C 
ATOM     48  H   UNL     1     -47.478  30.187  21.466  1.00  0.00     0.043 H 
ATOM     49  H   UNL     1     -48.372  31.653  21.843  1.00  0.00     0.043 H 
ATOM     50  C   UNL     1     -50.532  30.711  19.949  1.00  0.00    -0.051 C 
ATOM     51  H   UNL     1     -52.208  31.367  21.144  1.00  0.00     0.028 H 
ATOM     52  H   UNL     1     -50.766  32.368  21.292  1.00  0.00     0.028 H 
ATOM     53  H   UNL     1     -48.678  29.713  19.518  1.00  0.00     0.028 H 
ATOM     54  H   UNL     1     -48.556  31.466  19.502  1.00  0.00     0.028 H 
ATOM     55  H   UNL     1     -50.948  29.705  19.816  1.00  0.00     0.027 H 
ATOM     56  H   UNL     1     -50.823  31.289  19.064  1.00  0.00     0.027 H 
ENDBRANCH  38  41
ENDBRANCH   6  38
TORSDOF 5
ENDMDL
MODEL 7
REMARK VINA RESULT:     -10.0      2.998     11.434
REMARK SMILES O=C(NCc1ccc2cc(CN3CCCCC3)[nH]c2c1)c1cc(=O)n2ccccc2n1
REMARK SMILES IDX 5 1 6 2 7 3 8 4 9 5 10 6 18 7 19 8 20 9 4 15 3 18 1 19 2 20
REMARK SMILES IDX 21 22 22 23 31 24 23 25 30 27 24 28 25 29 29 30 26 31 28 32
REMARK SMILES IDX 27 34 11 38 12 41 13 42 17 43 14 44 16 47 15 50
REMARK H PARENT 6 10 7 11 9 12 18 13 20 14 4 16 4 17 3 21 22 26 29 33 26 35
REMARK H PARENT 28 36 27 37 11 39 11 40 13 45 13 46 17 48 17 49 14 51 14 52
REMARK H PARENT 16 53 16 54 15 55 15 56
REMARK Flexibility Score: inf
ROOT
ATOM      1  C   UNL     1     -47.066  33.369  25.243  1.00  0.00    -0.027 A 
ATOM      2  C   UNL     1     -48.316  33.163  25.840  1.00  0.00    -0.057 A 
ATOM      3  C   UNL     1     -48.901  34.142  26.655  1.00  0.00    -0.052 A 
ATOM      4  C   UNL     1     -48.214  35.349  26.882  1.00  0.00    -0.000 A 
ATOM      5  C   UNL     1     -48.498  36.523  27.635  1.00  0.00    -0.032 A 
ATOM      6  C   UNL     1     -47.435  37.391  27.489  1.00  0.00     0.030 A 
ATOM      7  N   UNL     1     -46.520  36.776  26.667  1.00  0.00    -0.357 N 
ATOM      8  C   UNL     1     -46.967  35.533  26.287  1.00  0.00     0.046 A 
ATOM      9  C   UNL     1     -46.366  34.566  25.472  1.00  0.00    -0.033 A 
ATOM     10  H   UNL     1     -48.851  32.230  25.677  1.00  0.00     0.063 H 
ATOM     11  H   UNL     1     -49.871  33.968  27.107  1.00  0.00     0.063 H 
ATOM     12  H   UNL     1     -49.389  36.709  28.219  1.00  0.00     0.065 H 
ATOM     13  H   UNL     1     -45.629  37.185  26.418  1.00  0.00     0.166 HD
ATOM     14  H   UNL     1     -45.389  34.737  25.031  1.00  0.00     0.065 H 
ENDROOT
BRANCH   1  15
ATOM     15  C   UNL     1     -46.443  32.288  24.399  1.00  0.00     0.043 C 
ATOM     16  H   UNL     1     -45.364  32.223  24.581  1.00  0.00     0.054 H 
ATOM     17  H   UNL     1     -46.569  32.504  23.331  1.00  0.00     0.054 H 
BRANCH  15  18
ATOM     18  N   UNL     1     -47.040  31.011  24.681  1.00  0.00    -0.347 N 
ATOM     19  O   UNL     1     -48.427  30.984  22.853  1.00  0.00    -0.268 OA
ATOM     20  C   UNL     1     -48.009  30.463  23.880  1.00  0.00     0.270 C 
ATOM     21  H   UNL     1     -46.793  30.504  25.526  1.00  0.00     0.164 HD
BRANCH  20  22
ATOM     22  C   UNL     1     -48.515  29.142  24.406  1.00  0.00     0.136 A 
ATOM     23  C   UNL     1     -49.833  28.943  24.348  1.00  0.00     0.035 A 
ATOM     24  N   UNL     1     -47.605  28.237  24.906  1.00  0.00    -0.225 NA
ATOM     25  C   UNL     1     -50.367  27.671  24.848  1.00  0.00     0.258 A 
ATOM     26  H   UNL     1     -50.537  29.662  23.952  1.00  0.00     0.071 H 
ATOM     27  C   UNL     1     -48.081  27.113  25.347  1.00  0.00     0.140 A 
ATOM     28  O   UNL     1     -51.581  27.477  24.798  1.00  0.00    -0.269 OA
ATOM     29  N   UNL     1     -49.430  26.776  25.345  1.00  0.00    -0.268 N 
ATOM     30  C   UNL     1     -47.133  26.103  25.897  1.00  0.00    -0.019 A 
ATOM     31  C   UNL     1     -49.860  25.548  25.837  1.00  0.00     0.014 A 
ATOM     32  C   UNL     1     -47.595  24.935  26.359  1.00  0.00    -0.057 A 
ATOM     33  H   UNL     1     -46.080  26.357  25.901  1.00  0.00     0.066 H 
ATOM     34  C   UNL     1     -49.003  24.645  26.330  1.00  0.00    -0.045 A 
ATOM     35  H   UNL     1     -50.930  25.351  25.806  1.00  0.00     0.082 H 
ATOM     36  H   UNL     1     -46.920  24.188  26.763  1.00  0.00     0.062 H 
ATOM     37  H   UNL     1     -49.350  23.691  26.711  1.00  0.00     0.064 H 
ENDBRANCH  20  22
ENDBRANCH  15  18
ENDBRANCH   1  15
BRANCH   6  38
ATOM     38  C   UNL     1     -47.196  38.759  28.035  1.00  0.00     0.038 C 
ATOM     39  H   UNL     1     -48.167  39.273  28.031  1.00  0.00     0.050 H 
ATOM     40  H   UNL     1     -46.866  38.706  29.081  1.00  0.00     0.050 H 
BRANCH  38  41
ATOM     41  N   UNL     1     -46.235  39.507  27.213  1.00  0.00    -0.298 NA
ATOM     42  C   UNL     1     -46.876  40.701  26.633  1.00  0.00    -0.001 C 
ATOM     43  C   UNL     1     -45.027  39.872  27.961  1.00  0.00    -0.001 C 
ATOM     44  C   UNL     1     -45.889  41.805  26.225  1.00  0.00    -0.040 C 
ATOM     45  H   UNL     1     -47.601  41.145  27.329  1.00  0.00     0.043 H 
ATOM     46  H   UNL     1     -47.439  40.383  25.748  1.00  0.00     0.043 H 
ATOM     47  C   UNL     1     -43.956  40.396  26.998  1.00  0.00    -0.040 C 
ATOM     48  H   UNL     1     -44.601  39.014  28.494  1.00  0.00     0.043 H 
ATOM     49  H   UNL     1     -45.256  40.629  28.724  1.00  0.00     0.043 H 
ATOM     50  C   UNL     1     -44.532  41.231  25.851  1.00  0.00    -0.051 C 
ATOM     51  H   UNL     1     -46.301  42.380  25.389  1.00  0.00     0.028 H 
ATOM     52  H   UNL     1     -45.762  42.507  27.061  1.00  0.00     0.028 H 
ATOM     53  H   UNL     1     -43.390  39.559  26.572  1.00  0.00     0.028 H 
ATOM     54  H   UNL     1     -43.238  40.999  27.567  1.00  0.00     0.028 H 
ATOM     55  H   UNL     1     -44.641  40.599  24.961  1.00  0.00     0.027 H 
ATOM     56  H   UNL     1     -43.833  42.032  25.582  1.00  0.00     0.027 H 
ENDBRANCH  38  41
ENDBRANCH   6  38
TORSDOF 5
ENDMDL
