MODEL 1
REMARK VINA RESULT:     -10.1      0.000      0.000
REMARK SMILES CCc1cc(NCCOC)c2ccc(CCc3cncc(-n4cc(-c5ccn(C)n5)c5c(N)ncnc54)c3)cc2n1
REMARK SMILES IDX 3 1 4 2 5 3 11 4 12 5 13 6 14 7 39 8 40 9 41 10 2 15 1 18
REMARK SMILES IDX 6 22 7 24 8 27 9 30 10 31 15 35 16 38 17 41 18 42 38 43
REMARK SMILES IDX 19 44 21 46 20 48 22 50 23 51 37 52 24 53 31 55 36 56 32 57
REMARK SMILES IDX 35 58 34 59 25 61 26 62 30 63 27 64 28 66 29 68 33 72
REMARK H PARENT 4 11 12 12 13 13 39 14 2 16 2 17 1 19 1 20 1 21 6 23 7 25 7 26
REMARK H PARENT 8 28 8 29 10 32 10 33 10 34 15 36 15 37 16 39 16 40 18 45
REMARK H PARENT 38 47 20 49 23 54 35 60 26 65 27 67 29 69 29 70 29 71 33 73
REMARK H PARENT 33 74
REMARK Flexibility Score: inf
ROOT
ATOM      1  C   UNL     1     -46.243  30.274  23.047  1.00  0.00     0.043 A 
ATOM      2  C   UNL     1     -47.341  29.498  23.395  1.00  0.00    -0.017 A 
ATOM      3  C   UNL     1     -48.230  29.942  24.375  1.00  0.00     0.045 A 
ATOM      4  C   UNL     1     -48.025  31.250  24.907  1.00  0.00     0.023 A 
ATOM      5  C   UNL     1     -48.908  31.889  25.815  1.00  0.00    -0.050 A 
ATOM      6  C   UNL     1     -48.670  33.182  26.283  1.00  0.00    -0.058 A 
ATOM      7  C   UNL     1     -47.540  33.876  25.861  1.00  0.00    -0.045 A 
ATOM      8  C   UNL     1     -46.653  33.240  24.979  1.00  0.00    -0.032 A 
ATOM      9  C   UNL     1     -46.881  31.963  24.484  1.00  0.00     0.073 A 
ATOM     10  N   UNL     1     -46.009  31.486  23.591  1.00  0.00    -0.253 NA
ATOM     11  H   UNL     1     -47.472  28.543  22.901  1.00  0.00     0.066 H 
ATOM     12  H   UNL     1     -49.817  31.394  26.142  1.00  0.00     0.063 H 
ATOM     13  H   UNL     1     -49.385  33.646  26.959  1.00  0.00     0.063 H 
ATOM     14  H   UNL     1     -45.772  33.773  24.623  1.00  0.00     0.065 H 
ENDROOT
BRANCH   1  15
ATOM     15  C   UNL     1     -45.266  29.795  22.005  1.00  0.00    -0.013 C 
ATOM     16  H   UNL     1     -44.550  30.593  21.774  1.00  0.00     0.033 H 
ATOM     17  H   UNL     1     -45.807  29.584  21.075  1.00  0.00     0.033 H 
BRANCH  15  18
ATOM     18  C   UNL     1     -44.530  28.543  22.452  1.00  0.00    -0.060 C 
ATOM     19  H   UNL     1     -44.456  28.516  23.543  1.00  0.00     0.023 H 
ATOM     20  H   UNL     1     -45.055  27.639  22.128  1.00  0.00     0.023 H 
ATOM     21  H   UNL     1     -43.515  28.511  22.041  1.00  0.00     0.023 H 
ENDBRANCH  15  18
ENDBRANCH   1  15
BRANCH   3  22
ATOM     22  N   UNL     1     -49.372  29.206  24.740  1.00  0.00    -0.382 N 
ATOM     23  H   UNL     1     -49.780  29.571  25.597  1.00  0.00     0.160 HD
BRANCH  22  24
ATOM     24  C   UNL     1     -49.413  27.737  24.707  1.00  0.00     0.038 C 
ATOM     25  H   UNL     1     -49.673  27.470  23.676  1.00  0.00     0.051 H 
ATOM     26  H   UNL     1     -48.427  27.303  24.900  1.00  0.00     0.051 H 
BRANCH  24  27
ATOM     27  C   UNL     1     -50.492  27.144  25.627  1.00  0.00     0.063 C 
ATOM     28  H   UNL     1     -51.381  26.913  25.029  1.00  0.00     0.059 H 
ATOM     29  H   UNL     1     -50.772  27.861  26.409  1.00  0.00     0.059 H 
BRANCH  27  30
ATOM     30  O   UNL     1     -50.035  25.924  26.217  1.00  0.00    -0.383 OA
BRANCH  30  31
ATOM     31  C   UNL     1     -48.663  25.684  25.933  1.00  0.00     0.036 C 
ATOM     32  H   UNL     1     -48.025  26.296  26.577  1.00  0.00     0.053 H 
ATOM     33  H   UNL     1     -48.451  24.629  26.130  1.00  0.00     0.053 H 
ATOM     34  H   UNL     1     -48.449  25.892  24.880  1.00  0.00     0.053 H 
ENDBRANCH  30  31
ENDBRANCH  27  30
ENDBRANCH  24  27
ENDBRANCH  22  24
ENDBRANCH   3  22
BRANCH   7  35
ATOM     35  C   UNL     1     -47.314  35.313  26.268  1.00  0.00    -0.024 C 
ATOM     36  H   UNL     1     -46.233  35.508  26.250  1.00  0.00     0.032 H 
ATOM     37  H   UNL     1     -47.753  35.988  25.521  1.00  0.00     0.032 H 
BRANCH  35  38
ATOM     38  C   UNL     1     -47.857  35.643  27.669  1.00  0.00    -0.022 C 
ATOM     39  H   UNL     1     -48.849  36.112  27.602  1.00  0.00     0.032 H 
ATOM     40  H   UNL     1     -48.012  34.703  28.214  1.00  0.00     0.032 H 
BRANCH  38  41
ATOM     41  C   UNL     1     -46.946  36.530  28.479  1.00  0.00    -0.027 A 
ATOM     42  C   UNL     1     -46.564  36.188  29.769  1.00  0.00     0.030 A 
ATOM     43  C   UNL     1     -46.422  37.715  27.945  1.00  0.00    -0.032 A 
ATOM     44  N   UNL     1     -45.726  36.926  30.525  1.00  0.00    -0.262 NA
ATOM     45  H   UNL     1     -46.926  35.282  30.248  1.00  0.00     0.084 H 
ATOM     46  C   UNL     1     -45.519  38.491  28.682  1.00  0.00     0.066 A 
ATOM     47  H   UNL     1     -46.736  38.007  26.947  1.00  0.00     0.065 H 
ATOM     48  C   UNL     1     -45.219  38.057  29.967  1.00  0.00     0.051 A 
ATOM     49  H   UNL     1     -44.521  38.570  30.620  1.00  0.00     0.086 H 
BRANCH  46  50
ATOM     50  N   UNL     1     -44.914  39.652  28.110  1.00  0.00    -0.299 N 
ATOM     51  C   UNL     1     -45.390  40.323  26.996  1.00  0.00     0.021 A 
ATOM     52  C   UNL     1     -43.758  40.311  28.526  1.00  0.00     0.150 A 
ATOM     53  C   UNL     1     -44.551  41.375  26.692  1.00  0.00     0.033 A 
ATOM     54  H   UNL     1     -46.254  39.966  26.455  1.00  0.00     0.083 H 
ATOM     55  C   UNL     1     -43.527  41.399  27.682  1.00  0.00     0.071 A 
ATOM     56  N   UNL     1     -42.999  39.980  29.592  1.00  0.00    -0.218 NA
ATOM     57  C   UNL     1     -42.412  42.202  27.989  1.00  0.00     0.137 A 
ATOM     58  C   UNL     1     -41.957  40.799  29.762  1.00  0.00     0.120 A 
ATOM     59  N   UNL     1     -41.623  41.868  29.027  1.00  0.00    -0.219 NA
ATOM     60  H   UNL     1     -41.303  40.574  30.599  1.00  0.00     0.106 H 
BRANCH  53  61
ATOM     61  C   UNL     1     -44.689  42.272  25.539  1.00  0.00     0.095 A 
ATOM     62  C   UNL     1     -43.833  42.268  24.414  1.00  0.00    -0.016 A 
ATOM     63  N   UNL     1     -45.623  43.230  25.442  1.00  0.00    -0.173 NA
ATOM     64  C   UNL     1     -44.304  43.273  23.600  1.00  0.00     0.025 A 
ATOM     65  H   UNL     1     -42.983  41.628  24.217  1.00  0.00     0.066 H 
ATOM     66  N   UNL     1     -45.368  43.811  24.255  1.00  0.00    -0.275 N 
ATOM     67  H   UNL     1     -43.969  43.636  22.640  1.00  0.00     0.084 H 
BRANCH  66  68
ATOM     68  C   UNL     1     -46.201  44.902  23.809  1.00  0.00     0.030 C 
ATOM     69  H   UNL     1     -46.771  45.272  24.664  1.00  0.00     0.048 H 
ATOM     70  H   UNL     1     -45.570  45.699  23.406  1.00  0.00     0.048 H 
ATOM     71  H   UNL     1     -46.871  44.528  23.031  1.00  0.00     0.048 H 
ENDBRANCH  66  68
ENDBRANCH  53  61
BRANCH  57  72
ATOM     72  N   UNL     1     -42.058  43.346  27.288  1.00  0.00    -0.383 N 
ATOM     73  H   UNL     1     -42.792  43.639  26.658  1.00  0.00     0.158 HD
ATOM     74  H   UNL     1     -41.648  44.063  27.892  1.00  0.00     0.158 HD
ENDBRANCH  57  72
ENDBRANCH  46  50
ENDBRANCH  38  41
ENDBRANCH  35  38
ENDBRANCH   7  35
TORSDOF 14
ENDMDL
MODEL 2
REMARK VINA RESULT:      -9.2      3.448     12.373
REMARK SMILES CCc1cc(NCCOC)c2ccc(CCc3cncc(-n4cc(-c5ccn(C)n5)c5c(N)ncnc54)c3)cc2n1
REMARK SMILES IDX 3 1 4 2 5 3 11 4 12 5 13 6 14 7 39 8 40 9 41 10 2 15 1 18
REMARK SMILES IDX 6 22 7 24 8 27 9 30 10 31 15 35 16 38 17 41 18 42 38 43
REMARK SMILES IDX 19 44 21 46 20 48 22 50 23 51 37 52 24 53 31 55 36 56 32 57
REMARK SMILES IDX 35 58 34 59 25 61 26 62 30 63 27 64 28 66 29 68 33 72
REMARK H PARENT 4 11 12 12 13 13 39 14 2 16 2 17 1 19 1 20 1 21 6 23 7 25 7 26
REMARK H PARENT 8 28 8 29 10 32 10 33 10 34 15 36 15 37 16 39 16 40 18 45
REMARK H PARENT 38 47 20 49 23 54 35 60 26 65 27 67 29 69 29 70 29 71 33 73
REMARK H PARENT 33 74
REMARK Flexibility Score: inf
ROOT
ATOM      1  C   UNL     1     -43.281  40.385  28.767  1.00  0.00     0.043 A 
ATOM      2  C   UNL     1     -43.345  41.157  27.615  1.00  0.00    -0.017 A 
ATOM      3  C   UNL     1     -44.369  40.949  26.689  1.00  0.00     0.045 A 
ATOM      4  C   UNL     1     -45.385  40.008  27.031  1.00  0.00     0.023 A 
ATOM      5  C   UNL     1     -46.550  39.776  26.256  1.00  0.00    -0.050 A 
ATOM      6  C   UNL     1     -47.525  38.860  26.652  1.00  0.00    -0.058 A 
ATOM      7  C   UNL     1     -47.364  38.143  27.834  1.00  0.00    -0.045 A 
ATOM      8  C   UNL     1     -46.204  38.355  28.594  1.00  0.00    -0.032 A 
ATOM      9  C   UNL     1     -45.232  39.276  28.229  1.00  0.00     0.073 A 
ATOM     10  N   UNL     1     -44.205  39.450  29.067  1.00  0.00    -0.253 NA
ATOM     11  H   UNL     1     -42.575  41.902  27.452  1.00  0.00     0.066 H 
ATOM     12  H   UNL     1     -46.728  40.338  25.344  1.00  0.00     0.063 H 
ATOM     13  H   UNL     1     -48.417  38.730  26.042  1.00  0.00     0.063 H 
ATOM     14  H   UNL     1     -46.068  37.817  29.532  1.00  0.00     0.065 H 
ENDROOT
BRANCH   1  15
ATOM     15  C   UNL     1     -42.169  40.587  29.763  1.00  0.00    -0.013 C 
ATOM     16  H   UNL     1     -41.666  39.632  29.956  1.00  0.00     0.033 H 
ATOM     17  H   UNL     1     -42.597  40.912  30.719  1.00  0.00     0.033 H 
BRANCH  15  18
ATOM     18  C   UNL     1     -41.163  41.623  29.287  1.00  0.00    -0.060 C 
ATOM     19  H   UNL     1     -41.212  42.517  29.916  1.00  0.00     0.023 H 
ATOM     20  H   UNL     1     -40.141  41.233  29.337  1.00  0.00     0.023 H 
ATOM     21  H   UNL     1     -41.361  41.923  28.253  1.00  0.00     0.023 H 
ENDBRANCH  15  18
ENDBRANCH   1  15
BRANCH   3  22
ATOM     22  N   UNL     1     -44.493  41.726  25.522  1.00  0.00    -0.382 N 
ATOM     23  H   UNL     1     -43.606  41.781  25.029  1.00  0.00     0.160 HD
BRANCH  22  24
ATOM     24  C   UNL     1     -45.205  43.012  25.497  1.00  0.00     0.038 C 
ATOM     25  H   UNL     1     -45.299  43.278  24.437  1.00  0.00     0.051 H 
ATOM     26  H   UNL     1     -46.225  42.914  25.884  1.00  0.00     0.051 H 
BRANCH  24  27
ATOM     27  C   UNL     1     -44.431  44.142  26.193  1.00  0.00     0.063 C 
ATOM     28  H   UNL     1     -44.434  45.026  25.546  1.00  0.00     0.059 H 
ATOM     29  H   UNL     1     -43.391  43.845  26.376  1.00  0.00     0.059 H 
BRANCH  27  30
ATOM     30  O   UNL     1     -45.065  44.501  27.423  1.00  0.00    -0.383 OA
BRANCH  30  31
ATOM     31  C   UNL     1     -46.227  45.291  27.206  1.00  0.00     0.036 C 
ATOM     32  H   UNL     1     -47.129  44.711  27.417  1.00  0.00     0.053 H 
ATOM     33  H   UNL     1     -46.193  46.147  27.887  1.00  0.00     0.053 H 
ATOM     34  H   UNL     1     -46.249  45.664  26.178  1.00  0.00     0.053 H 
ENDBRANCH  30  31
ENDBRANCH  27  30
ENDBRANCH  24  27
ENDBRANCH  22  24
ENDBRANCH   3  22
BRANCH   7  35
ATOM     35  C   UNL     1     -48.452  37.225  28.341  1.00  0.00    -0.024 C 
ATOM     36  H   UNL     1     -48.071  36.698  29.225  1.00  0.00     0.032 H 
ATOM     37  H   UNL     1     -49.309  37.816  28.689  1.00  0.00     0.032 H 
BRANCH  35  38
ATOM     38  C   UNL     1     -48.908  36.188  27.299  1.00  0.00    -0.022 C 
ATOM     39  H   UNL     1     -49.921  35.828  27.524  1.00  0.00     0.032 H 
ATOM     40  H   UNL     1     -48.981  36.683  26.322  1.00  0.00     0.032 H 
BRANCH  38  41
ATOM     41  C   UNL     1     -47.980  35.006  27.177  1.00  0.00    -0.027 A 
ATOM     42  C   UNL     1     -46.834  34.902  27.952  1.00  0.00     0.030 A 
ATOM     43  C   UNL     1     -48.262  33.950  26.299  1.00  0.00    -0.032 A 
ATOM     44  N   UNL     1     -45.988  33.853  27.907  1.00  0.00    -0.262 NA
ATOM     45  H   UNL     1     -46.553  35.680  28.657  1.00  0.00     0.084 H 
ATOM     46  C   UNL     1     -47.430  32.823  26.249  1.00  0.00     0.066 A 
ATOM     47  H   UNL     1     -49.141  34.032  25.667  1.00  0.00     0.065 H 
ATOM     48  C   UNL     1     -46.304  32.836  27.062  1.00  0.00     0.051 A 
ATOM     49  H   UNL     1     -45.601  32.013  27.116  1.00  0.00     0.086 H 
BRANCH  46  50
ATOM     50  N   UNL     1     -47.760  31.706  25.422  1.00  0.00    -0.299 N 
ATOM     51  C   UNL     1     -48.649  30.703  25.769  1.00  0.00     0.021 A 
ATOM     52  C   UNL     1     -47.262  31.398  24.157  1.00  0.00     0.150 A 
ATOM     53  C   UNL     1     -48.708  29.763  24.760  1.00  0.00     0.033 A 
ATOM     54  H   UNL     1     -49.129  30.690  26.737  1.00  0.00     0.083 H 
ATOM     55  C   UNL     1     -47.855  30.214  23.712  1.00  0.00     0.071 A 
ATOM     56  N   UNL     1     -46.378  32.136  23.454  1.00  0.00    -0.218 NA
ATOM     57  C   UNL     1     -47.490  29.778  22.424  1.00  0.00     0.137 A 
ATOM     58  C   UNL     1     -46.091  31.605  22.261  1.00  0.00     0.120 A 
ATOM     59  N   UNL     1     -46.584  30.483  21.720  1.00  0.00    -0.219 NA
ATOM     60  H   UNL     1     -45.375  32.150  21.654  1.00  0.00     0.106 H 
BRANCH  53  61
ATOM     61  C   UNL     1     -49.487  28.520  24.794  1.00  0.00     0.095 A 
ATOM     62  C   UNL     1     -50.678  28.300  24.065  1.00  0.00    -0.016 A 
ATOM     63  N   UNL     1     -49.175  27.462  25.557  1.00  0.00    -0.173 NA
ATOM     64  C   UNL     1     -51.081  27.030  24.409  1.00  0.00     0.025 A 
ATOM     65  H   UNL     1     -51.184  28.972  23.385  1.00  0.00     0.066 H 
ATOM     66  N   UNL     1     -50.154  26.575  25.295  1.00  0.00    -0.275 N 
ATOM     67  H   UNL     1     -51.931  26.439  24.103  1.00  0.00     0.084 H 
BRANCH  66  68
ATOM     68  C   UNL     1     -50.136  25.289  25.949  1.00  0.00     0.030 C 
ATOM     69  H   UNL     1     -50.592  25.399  26.936  1.00  0.00     0.048 H 
ATOM     70  H   UNL     1     -50.704  24.570  25.352  1.00  0.00     0.048 H 
ATOM     71  H   UNL     1     -49.098  24.961  26.038  1.00  0.00     0.048 H 
ENDBRANCH  66  68
ENDBRANCH  53  61
BRANCH  57  72
ATOM     72  N   UNL     1     -48.012  28.652  21.805  1.00  0.00    -0.383 N 
ATOM     73  H   UNL     1     -48.066  27.869  22.441  1.00  0.00     0.158 HD
ATOM     74  H   UNL     1     -48.847  28.861  21.251  1.00  0.00     0.158 HD
ENDBRANCH  57  72
ENDBRANCH  46  50
ENDBRANCH  38  41
ENDBRANCH  35  38
ENDBRANCH   7  35
TORSDOF 14
ENDMDL
MODEL 3
REMARK VINA RESULT:      -8.7      2.032      3.089
REMARK SMILES CCc1cc(NCCOC)c2ccc(CCc3cncc(-n4cc(-c5ccn(C)n5)c5c(N)ncnc54)c3)cc2n1
REMARK SMILES IDX 3 1 4 2 5 3 11 4 12 5 13 6 14 7 39 8 40 9 41 10 2 15 1 18
REMARK SMILES IDX 6 22 7 24 8 27 9 30 10 31 15 35 16 38 17 41 18 42 38 43
REMARK SMILES IDX 19 44 21 46 20 48 22 50 23 51 37 52 24 53 31 55 36 56 32 57
REMARK SMILES IDX 35 58 34 59 25 61 26 62 30 63 27 64 28 66 29 68 33 72
REMARK H PARENT 4 11 12 12 13 13 39 14 2 16 2 17 1 19 1 20 1 21 6 23 7 25 7 26
REMARK H PARENT 8 28 8 29 10 32 10 33 10 34 15 36 15 37 16 39 16 40 18 45
REMARK H PARENT 38 47 20 49 23 54 35 60 26 65 27 67 29 69 29 70 29 71 33 73
REMARK H PARENT 33 74
REMARK Flexibility Score: inf
ROOT
ATOM      1  C   UNL     1     -46.500  30.881  21.773  1.00  0.00     0.043 A 
ATOM      2  C   UNL     1     -47.437  29.889  22.031  1.00  0.00    -0.017 A 
ATOM      3  C   UNL     1     -48.026  29.795  23.293  1.00  0.00     0.045 A 
ATOM      4  C   UNL     1     -47.713  30.810  24.245  1.00  0.00     0.023 A 
ATOM      5  C   UNL     1     -48.321  30.922  25.521  1.00  0.00    -0.050 A 
ATOM      6  C   UNL     1     -47.993  31.952  26.403  1.00  0.00    -0.058 A 
ATOM      7  C   UNL     1     -47.044  32.902  26.038  1.00  0.00    -0.045 A 
ATOM      8  C   UNL     1     -46.424  32.784  24.785  1.00  0.00    -0.032 A 
ATOM      9  C   UNL     1     -46.750  31.779  23.884  1.00  0.00     0.073 A 
ATOM     10  N   UNL     1     -46.152  31.808  22.689  1.00  0.00    -0.253 NA
ATOM     11  H   UNL     1     -47.678  29.191  21.239  1.00  0.00     0.066 H 
ATOM     12  H   UNL     1     -49.090  30.221  25.830  1.00  0.00     0.063 H 
ATOM     13  H   UNL     1     -48.502  32.017  27.363  1.00  0.00     0.063 H 
ATOM     14  H   UNL     1     -45.692  33.528  24.473  1.00  0.00     0.065 H 
ENDROOT
BRANCH   1  15
ATOM     15  C   UNL     1     -45.842  30.980  20.421  1.00  0.00    -0.013 C 
ATOM     16  H   UNL     1     -45.961  30.033  19.881  1.00  0.00     0.033 H 
ATOM     17  H   UNL     1     -44.765  31.128  20.556  1.00  0.00     0.033 H 
BRANCH  15  18
ATOM     18  C   UNL     1     -46.408  32.127  19.599  1.00  0.00    -0.060 C 
ATOM     19  H   UNL     1     -46.271  33.075  20.127  1.00  0.00     0.023 H 
ATOM     20  H   UNL     1     -45.903  32.205  18.631  1.00  0.00     0.023 H 
ATOM     21  H   UNL     1     -47.479  31.992  19.413  1.00  0.00     0.023 H 
ENDBRANCH  15  18
ENDBRANCH   1  15
BRANCH   3  22
ATOM     22  N   UNL     1     -49.003  28.826  23.593  1.00  0.00    -0.382 N 
ATOM     23  H   UNL     1     -49.936  29.188  23.416  1.00  0.00     0.160 HD
BRANCH  22  24
ATOM     24  C   UNL     1     -48.963  28.012  24.817  1.00  0.00     0.038 C 
ATOM     25  H   UNL     1     -48.811  28.721  25.640  1.00  0.00     0.051 H 
ATOM     26  H   UNL     1     -49.924  27.521  25.004  1.00  0.00     0.051 H 
BRANCH  24  27
ATOM     27  C   UNL     1     -47.793  27.016  24.839  1.00  0.00     0.063 C 
ATOM     28  H   UNL     1     -46.963  27.457  25.402  1.00  0.00     0.059 H 
ATOM     29  H   UNL     1     -47.450  26.798  23.821  1.00  0.00     0.059 H 
BRANCH  27  30
ATOM     30  O   UNL     1     -48.176  25.808  25.500  1.00  0.00    -0.383 OA
BRANCH  30  31
ATOM     31  C   UNL     1     -47.169  25.357  26.397  1.00  0.00     0.036 C 
ATOM     32  H   UNL     1     -47.593  25.176  27.389  1.00  0.00     0.053 H 
ATOM     33  H   UNL     1     -46.764  24.416  26.012  1.00  0.00     0.053 H 
ATOM     34  H   UNL     1     -46.357  26.087  26.459  1.00  0.00     0.053 H 
ENDBRANCH  30  31
ENDBRANCH  27  30
ENDBRANCH  24  27
ENDBRANCH  22  24
ENDBRANCH   3  22
BRANCH   7  35
ATOM     35  C   UNL     1     -46.747  34.087  26.928  1.00  0.00    -0.024 C 
ATOM     36  H   UNL     1     -47.376  34.007  27.825  1.00  0.00     0.032 H 
ATOM     37  H   UNL     1     -45.710  34.040  27.283  1.00  0.00     0.032 H 
BRANCH  35  38
ATOM     38  C   UNL     1     -47.017  35.441  26.248  1.00  0.00    -0.022 C 
ATOM     39  H   UNL     1     -46.603  35.456  25.231  1.00  0.00     0.032 H 
ATOM     40  H   UNL     1     -48.101  35.562  26.127  1.00  0.00     0.032 H 
BRANCH  38  41
ATOM     41  C   UNL     1     -46.479  36.622  27.017  1.00  0.00    -0.027 A 
ATOM     42  C   UNL     1     -45.696  36.451  28.149  1.00  0.00     0.030 A 
ATOM     43  C   UNL     1     -46.722  37.935  26.593  1.00  0.00    -0.032 A 
ATOM     44  N   UNL     1     -45.162  37.469  28.855  1.00  0.00    -0.262 NA
ATOM     45  H   UNL     1     -45.462  35.463  28.535  1.00  0.00     0.084 H 
ATOM     46  C   UNL     1     -46.156  39.021  27.274  1.00  0.00     0.066 A 
ATOM     47  H   UNL     1     -47.357  38.082  25.725  1.00  0.00     0.065 H 
ATOM     48  C   UNL     1     -45.399  38.729  28.402  1.00  0.00     0.051 A 
ATOM     49  H   UNL     1     -44.901  39.488  28.996  1.00  0.00     0.086 H 
BRANCH  46  50
ATOM     50  N   UNL     1     -46.327  40.356  26.796  1.00  0.00    -0.299 N 
ATOM     51  C   UNL     1     -45.344  41.100  26.166  1.00  0.00     0.021 A 
ATOM     52  C   UNL     1     -47.464  41.157  26.877  1.00  0.00     0.150 A 
ATOM     53  C   UNL     1     -45.831  42.355  25.866  1.00  0.00     0.033 A 
ATOM     54  H   UNL     1     -44.345  40.711  26.034  1.00  0.00     0.083 H 
ATOM     55  C   UNL     1     -47.193  42.392  26.282  1.00  0.00     0.071 A 
ATOM     56  N   UNL     1     -48.650  40.796  27.410  1.00  0.00    -0.218 NA
ATOM     57  C   UNL     1     -48.256  43.313  26.243  1.00  0.00     0.137 A 
ATOM     58  C   UNL     1     -49.569  41.764  27.336  1.00  0.00     0.120 A 
ATOM     59  N   UNL     1     -49.437  42.984  26.800  1.00  0.00    -0.219 NA
ATOM     60  H   UNL     1     -50.541  41.534  27.760  1.00  0.00     0.106 H 
BRANCH  53  61
ATOM     61  C   UNL     1     -45.062  43.448  25.259  1.00  0.00     0.095 A 
ATOM     62  C   UNL     1     -44.057  43.274  24.280  1.00  0.00    -0.016 A 
ATOM     63  N   UNL     1     -45.200  44.739  25.597  1.00  0.00    -0.173 NA
ATOM     64  C   UNL     1     -43.588  44.541  24.017  1.00  0.00     0.025 A 
ATOM     65  H   UNL     1     -43.711  42.355  23.828  1.00  0.00     0.066 H 
ATOM     66  N   UNL     1     -44.301  45.374  24.823  1.00  0.00    -0.275 N 
ATOM     67  H   UNL     1     -42.824  44.898  23.343  1.00  0.00     0.084 H 
BRANCH  66  68
ATOM     68  C   UNL     1     -44.175  46.809  24.916  1.00  0.00     0.030 C 
ATOM     69  H   UNL     1     -44.152  47.218  23.903  1.00  0.00     0.048 H 
ATOM     70  H   UNL     1     -45.030  47.214  25.464  1.00  0.00     0.048 H 
ATOM     71  H   UNL     1     -43.249  47.040  25.447  1.00  0.00     0.048 H 
ENDBRANCH  66  68
ENDBRANCH  53  61
BRANCH  57  72
ATOM     72  N   UNL     1     -48.181  44.567  25.653  1.00  0.00    -0.383 N 
ATOM     73  H   UNL     1     -49.097  44.975  25.528  1.00  0.00     0.158 HD
ATOM     74  H   UNL     1     -47.462  45.157  26.080  1.00  0.00     0.158 HD
ENDBRANCH  57  72
ENDBRANCH  46  50
ENDBRANCH  38  41
ENDBRANCH  35  38
ENDBRANCH   7  35
TORSDOF 14
ENDMDL
MODEL 4
REMARK VINA RESULT:      -8.6      2.545      3.883
REMARK SMILES CCc1cc(NCCOC)c2ccc(CCc3cncc(-n4cc(-c5ccn(C)n5)c5c(N)ncnc54)c3)cc2n1
REMARK SMILES IDX 3 1 4 2 5 3 11 4 12 5 13 6 14 7 39 8 40 9 41 10 2 15 1 18
REMARK SMILES IDX 6 22 7 24 8 27 9 30 10 31 15 35 16 38 17 41 18 42 38 43
REMARK SMILES IDX 19 44 21 46 20 48 22 50 23 51 37 52 24 53 31 55 36 56 32 57
REMARK SMILES IDX 35 58 34 59 25 61 26 62 30 63 27 64 28 66 29 68 33 72
REMARK H PARENT 4 11 12 12 13 13 39 14 2 16 2 17 1 19 1 20 1 21 6 23 7 25 7 26
REMARK H PARENT 8 28 8 29 10 32 10 33 10 34 15 36 15 37 16 39 16 40 18 45
REMARK H PARENT 38 47 20 49 23 54 35 60 26 65 27 67 29 69 29 70 29 71 33 73
REMARK H PARENT 33 74
REMARK Flexibility Score: inf
ROOT
ATOM      1  C   UNL     1     -49.044  27.522  25.070  1.00  0.00     0.043 A 
ATOM      2  C   UNL     1     -49.935  27.759  24.033  1.00  0.00    -0.017 A 
ATOM      3  C   UNL     1     -50.298  29.067  23.707  1.00  0.00     0.045 A 
ATOM      4  C   UNL     1     -49.639  30.126  24.398  1.00  0.00     0.023 A 
ATOM      5  C   UNL     1     -49.807  31.502  24.097  1.00  0.00    -0.050 A 
ATOM      6  C   UNL     1     -49.116  32.496  24.792  1.00  0.00    -0.058 A 
ATOM      7  C   UNL     1     -48.237  32.146  25.811  1.00  0.00    -0.045 A 
ATOM      8  C   UNL     1     -48.082  30.787  26.127  1.00  0.00    -0.032 A 
ATOM      9  C   UNL     1     -48.743  29.782  25.435  1.00  0.00     0.073 A 
ATOM     10  N   UNL     1     -48.463  28.518  25.770  1.00  0.00    -0.253 NA
ATOM     11  H   UNL     1     -50.347  26.908  23.505  1.00  0.00     0.066 H 
ATOM     12  H   UNL     1     -50.459  31.815  23.287  1.00  0.00     0.063 H 
ATOM     13  H   UNL     1     -49.255  33.538  24.512  1.00  0.00     0.063 H 
ATOM     14  H   UNL     1     -47.384  30.491  26.909  1.00  0.00     0.065 H 
ENDROOT
BRANCH   1  15
ATOM     15  C   UNL     1     -48.660  26.114  25.444  1.00  0.00    -0.013 C 
ATOM     16  H   UNL     1     -48.009  25.690  24.670  1.00  0.00     0.033 H 
ATOM     17  H   UNL     1     -49.561  25.491  25.468  1.00  0.00     0.033 H 
BRANCH  15  18
ATOM     18  C   UNL     1     -47.971  26.055  26.798  1.00  0.00    -0.060 C 
ATOM     19  H   UNL     1     -46.915  25.799  26.675  1.00  0.00     0.023 H 
ATOM     20  H   UNL     1     -48.026  27.021  27.311  1.00  0.00     0.023 H 
ATOM     21  H   UNL     1     -48.431  25.301  27.445  1.00  0.00     0.023 H 
ENDBRANCH  15  18
ENDBRANCH   1  15
BRANCH   3  22
ATOM     22  N   UNL     1     -51.174  29.359  22.644  1.00  0.00    -0.382 N 
ATOM     23  H   UNL     1     -51.998  28.764  22.681  1.00  0.00     0.160 HD
BRANCH  22  24
ATOM     24  C   UNL     1     -50.710  29.553  21.263  1.00  0.00     0.038 C 
ATOM     25  H   UNL     1     -51.467  29.081  20.626  1.00  0.00     0.051 H 
ATOM     26  H   UNL     1     -50.692  30.613  20.990  1.00  0.00     0.051 H 
BRANCH  24  27
ATOM     27  C   UNL     1     -49.367  28.862  20.978  1.00  0.00     0.063 C 
ATOM     28  H   UNL     1     -49.505  28.138  20.167  1.00  0.00     0.059 H 
ATOM     29  H   UNL     1     -49.008  28.329  21.867  1.00  0.00     0.059 H 
BRANCH  27  30
ATOM     30  O   UNL     1     -48.393  29.816  20.548  1.00  0.00    -0.383 OA
BRANCH  30  31
ATOM     31  C   UNL     1     -48.945  30.761  19.641  1.00  0.00     0.036 C 
ATOM     32  H   UNL     1     -50.031  30.643  19.579  1.00  0.00     0.053 H 
ATOM     33  H   UNL     1     -48.722  31.765  20.013  1.00  0.00     0.053 H 
ATOM     34  H   UNL     1     -48.496  30.648  18.650  1.00  0.00     0.053 H 
ENDBRANCH  30  31
ENDBRANCH  27  30
ENDBRANCH  24  27
ENDBRANCH  22  24
ENDBRANCH   3  22
BRANCH   7  35
ATOM     35  C   UNL     1     -47.396  33.191  26.506  1.00  0.00    -0.024 C 
ATOM     36  H   UNL     1     -47.268  32.887  27.554  1.00  0.00     0.032 H 
ATOM     37  H   UNL     1     -46.388  33.211  26.073  1.00  0.00     0.032 H 
BRANCH  35  38
ATOM     38  C   UNL     1     -48.020  34.598  26.468  1.00  0.00    -0.022 C 
ATOM     39  H   UNL     1     -48.126  34.949  25.433  1.00  0.00     0.032 H 
ATOM     40  H   UNL     1     -49.041  34.538  26.866  1.00  0.00     0.032 H 
BRANCH  38  41
ATOM     41  C   UNL     1     -47.249  35.623  27.260  1.00  0.00    -0.027 A 
ATOM     42  C   UNL     1     -46.586  35.283  28.431  1.00  0.00     0.030 A 
ATOM     43  C   UNL     1     -47.145  36.951  26.823  1.00  0.00    -0.032 A 
ATOM     44  N   UNL     1     -45.856  36.152  29.161  1.00  0.00    -0.262 NA
ATOM     45  H   UNL     1     -46.617  34.273  28.829  1.00  0.00     0.084 H 
ATOM     46  C   UNL     1     -46.366  37.876  27.530  1.00  0.00     0.066 A 
ATOM     47  H   UNL     1     -47.683  37.236  25.924  1.00  0.00     0.065 H 
ATOM     48  C   UNL     1     -45.758  37.425  28.695  1.00  0.00     0.051 A 
ATOM     49  H   UNL     1     -45.119  38.048  29.311  1.00  0.00     0.086 H 
BRANCH  46  50
ATOM     50  N   UNL     1     -46.184  39.206  27.042  1.00  0.00    -0.299 N 
ATOM     51  C   UNL     1     -44.987  39.718  26.572  1.00  0.00     0.021 A 
ATOM     52  C   UNL     1     -47.131  40.225  26.957  1.00  0.00     0.150 A 
ATOM     53  C   UNL     1     -45.154  41.039  26.212  1.00  0.00     0.033 A 
ATOM     54  H   UNL     1     -44.081  39.129  26.589  1.00  0.00     0.083 H 
ATOM     55  C   UNL     1     -46.525  41.364  26.419  1.00  0.00     0.071 A 
ATOM     56  N   UNL     1     -48.432  40.128  27.302  1.00  0.00    -0.218 NA
ATOM     57  C   UNL     1     -47.358  42.483  26.227  1.00  0.00     0.137 A 
ATOM     58  C   UNL     1     -49.110  41.262  27.099  1.00  0.00     0.120 A 
ATOM     59  N   UNL     1     -48.651  42.416  26.598  1.00  0.00    -0.219 NA
ATOM     60  H   UNL     1     -50.161  41.246  27.370  1.00  0.00     0.106 H 
BRANCH  53  61
ATOM     61  C   UNL     1     -44.095  41.936  25.736  1.00  0.00     0.095 A 
ATOM     62  C   UNL     1     -42.962  42.311  26.494  1.00  0.00    -0.016 A 
ATOM     63  N   UNL     1     -44.105  42.536  24.537  1.00  0.00    -0.173 NA
ATOM     64  C   UNL     1     -42.256  43.170  25.684  1.00  0.00     0.025 A 
ATOM     65  H   UNL     1     -42.692  42.007  27.496  1.00  0.00     0.066 H 
ATOM     66  N   UNL     1     -42.975  43.269  24.532  1.00  0.00    -0.275 N 
ATOM     67  H   UNL     1     -41.330  43.705  25.837  1.00  0.00     0.084 H 
BRANCH  66  68
ATOM     68  C   UNL     1     -42.649  44.058  23.370  1.00  0.00     0.030 C 
ATOM     69  H   UNL     1     -42.824  45.110  23.608  1.00  0.00     0.048 H 
ATOM     70  H   UNL     1     -41.598  43.904  23.109  1.00  0.00     0.048 H 
ATOM     71  H   UNL     1     -43.289  43.737  22.544  1.00  0.00     0.048 H 
ENDBRANCH  66  68
ENDBRANCH  53  61
BRANCH  57  72
ATOM     72  N   UNL     1     -46.939  43.680  25.665  1.00  0.00    -0.383 N 
ATOM     73  H   UNL     1     -47.616  44.039  25.007  1.00  0.00     0.158 HD
ATOM     74  H   UNL     1     -46.576  44.334  26.364  1.00  0.00     0.158 HD
ENDBRANCH  57  72
ENDBRANCH  46  50
ENDBRANCH  38  41
ENDBRANCH  35  38
ENDBRANCH   7  35
TORSDOF 14
ENDMDL
MODEL 5
REMARK VINA RESULT:      -8.5      2.336      3.676
REMARK SMILES CCc1cc(NCCOC)c2ccc(CCc3cncc(-n4cc(-c5ccn(C)n5)c5c(N)ncnc54)c3)cc2n1
REMARK SMILES IDX 3 1 4 2 5 3 11 4 12 5 13 6 14 7 39 8 40 9 41 10 2 15 1 18
REMARK SMILES IDX 6 22 7 24 8 27 9 30 10 31 15 35 16 38 17 41 18 42 38 43
REMARK SMILES IDX 19 44 21 46 20 48 22 50 23 51 37 52 24 53 31 55 36 56 32 57
REMARK SMILES IDX 35 58 34 59 25 61 26 62 30 63 27 64 28 66 29 68 33 72
REMARK H PARENT 4 11 12 12 13 13 39 14 2 16 2 17 1 19 1 20 1 21 6 23 7 25 7 26
REMARK H PARENT 8 28 8 29 10 32 10 33 10 34 15 36 15 37 16 39 16 40 18 45
REMARK H PARENT 38 47 20 49 23 54 35 60 26 65 27 67 29 69 29 70 29 71 33 73
REMARK H PARENT 33 74
REMARK Flexibility Score: inf
ROOT
ATOM      1  C   UNL     1     -49.731  31.473  24.292  1.00  0.00     0.043 A 
ATOM      2  C   UNL     1     -48.618  30.740  23.903  1.00  0.00    -0.017 A 
ATOM      3  C   UNL     1     -47.337  31.176  24.248  1.00  0.00     0.045 A 
ATOM      4  C   UNL     1     -47.236  32.320  25.094  1.00  0.00     0.023 A 
ATOM      5  C   UNL     1     -46.018  32.812  25.628  1.00  0.00    -0.050 A 
ATOM      6  C   UNL     1     -45.981  33.922  26.473  1.00  0.00    -0.058 A 
ATOM      7  C   UNL     1     -47.161  34.579  26.806  1.00  0.00    -0.045 A 
ATOM      8  C   UNL     1     -48.366  34.110  26.264  1.00  0.00    -0.032 A 
ATOM      9  C   UNL     1     -48.429  32.995  25.439  1.00  0.00     0.073 A 
ATOM     10  N   UNL     1     -49.639  32.591  25.041  1.00  0.00    -0.253 NA
ATOM     11  H   UNL     1     -48.773  29.842  23.318  1.00  0.00     0.066 H 
ATOM     12  H   UNL     1     -45.079  32.307  25.419  1.00  0.00     0.063 H 
ATOM     13  H   UNL     1     -45.028  34.252  26.882  1.00  0.00     0.063 H 
ATOM     14  H   UNL     1     -49.304  34.599  26.528  1.00  0.00     0.065 H 
ENDROOT
BRANCH   1  15
ATOM     15  C   UNL     1     -51.117  31.022  23.910  1.00  0.00    -0.013 C 
ATOM     16  H   UNL     1     -51.685  31.871  23.508  1.00  0.00     0.033 H 
ATOM     17  H   UNL     1     -51.648  30.691  24.809  1.00  0.00     0.033 H 
BRANCH  15  18
ATOM     18  C   UNL     1     -51.084  29.888  22.899  1.00  0.00    -0.060 C 
ATOM     19  H   UNL     1     -51.558  30.200  21.963  1.00  0.00     0.023 H 
ATOM     20  H   UNL     1     -50.055  29.591  22.672  1.00  0.00     0.023 H 
ATOM     21  H   UNL     1     -51.617  29.007  23.273  1.00  0.00     0.023 H 
ENDBRANCH  15  18
ENDBRANCH   1  15
BRANCH   3  22
ATOM     22  N   UNL     1     -46.181  30.452  23.903  1.00  0.00    -0.382 N 
ATOM     23  H   UNL     1     -45.349  30.901  24.276  1.00  0.00     0.160 HD
BRANCH  22  24
ATOM     24  C   UNL     1     -45.950  29.923  22.551  1.00  0.00     0.038 C 
ATOM     25  H   UNL     1     -45.071  29.272  22.633  1.00  0.00     0.051 H 
ATOM     26  H   UNL     1     -46.777  29.287  22.221  1.00  0.00     0.051 H 
BRANCH  24  27
ATOM     27  C   UNL     1     -45.621  31.019  21.525  1.00  0.00     0.063 C 
ATOM     28  H   UNL     1     -44.753  30.704  20.935  1.00  0.00     0.059 H 
ATOM     29  H   UNL     1     -45.380  31.963  22.028  1.00  0.00     0.059 H 
BRANCH  27  30
ATOM     30  O   UNL     1     -46.715  31.206  20.623  1.00  0.00    -0.383 OA
BRANCH  30  31
ATOM     31  C   UNL     1     -46.333  31.960  19.481  1.00  0.00     0.036 C 
ATOM     32  H   UNL     1     -47.214  32.372  18.981  1.00  0.00     0.053 H 
ATOM     33  H   UNL     1     -45.698  32.788  19.812  1.00  0.00     0.053 H 
ATOM     34  H   UNL     1     -45.760  31.338  18.786  1.00  0.00     0.053 H 
ENDBRANCH  30  31
ENDBRANCH  27  30
ENDBRANCH  24  27
ENDBRANCH  22  24
ENDBRANCH   3  22
BRANCH   7  35
ATOM     35  C   UNL     1     -47.163  35.716  27.801  1.00  0.00    -0.024 C 
ATOM     36  H   UNL     1     -46.743  35.346  28.746  1.00  0.00     0.032 H 
ATOM     37  H   UNL     1     -46.487  36.512  27.463  1.00  0.00     0.032 H 
BRANCH  35  38
ATOM     38  C   UNL     1     -48.566  36.288  28.070  1.00  0.00    -0.022 C 
ATOM     39  H   UNL     1     -49.312  35.814  27.417  1.00  0.00     0.032 H 
ATOM     40  H   UNL     1     -48.861  36.026  29.094  1.00  0.00     0.032 H 
BRANCH  38  41
ATOM     41  C   UNL     1     -48.651  37.785  27.909  1.00  0.00    -0.027 A 
ATOM     42  C   UNL     1     -49.804  38.483  28.239  1.00  0.00     0.030 A 
ATOM     43  C   UNL     1     -47.554  38.530  27.456  1.00  0.00    -0.032 A 
ATOM     44  N   UNL     1     -49.924  39.824  28.146  1.00  0.00    -0.262 NA
ATOM     45  H   UNL     1     -50.693  37.974  28.600  1.00  0.00     0.084 H 
ATOM     46  C   UNL     1     -47.622  39.928  27.381  1.00  0.00     0.066 A 
ATOM     47  H   UNL     1     -46.655  37.993  27.168  1.00  0.00     0.065 H 
ATOM     48  C   UNL     1     -48.833  40.517  27.724  1.00  0.00     0.051 A 
ATOM     49  H   UNL     1     -48.994  41.589  27.720  1.00  0.00     0.086 H 
BRANCH  46  50
ATOM     50  N   UNL     1     -46.480  40.698  27.004  1.00  0.00    -0.299 N 
ATOM     51  C   UNL     1     -46.467  41.650  25.999  1.00  0.00     0.021 A 
ATOM     52  C   UNL     1     -45.193  40.641  27.537  1.00  0.00     0.150 A 
ATOM     53  C   UNL     1     -45.198  42.178  25.875  1.00  0.00     0.033 A 
ATOM     54  H   UNL     1     -47.342  41.839  25.395  1.00  0.00     0.083 H 
ATOM     55  C   UNL     1     -44.386  41.568  26.874  1.00  0.00     0.071 A 
ATOM     56  N   UNL     1     -44.791  39.847  28.551  1.00  0.00    -0.218 NA
ATOM     57  C   UNL     1     -43.054  41.669  27.319  1.00  0.00     0.137 A 
ATOM     58  C   UNL     1     -43.502  40.015  28.863  1.00  0.00     0.120 A 
ATOM     59  N   UNL     1     -42.625  40.861  28.308  1.00  0.00    -0.219 NA
ATOM     60  H   UNL     1     -43.120  39.393  29.667  1.00  0.00     0.106 H 
BRANCH  53  61
ATOM     61  C   UNL     1     -44.776  43.162  24.872  1.00  0.00     0.095 A 
ATOM     62  C   UNL     1     -45.495  44.337  24.549  1.00  0.00    -0.016 A 
ATOM     63  N   UNL     1     -43.676  43.036  24.115  1.00  0.00    -0.173 NA
ATOM     64  C   UNL     1     -44.763  44.944  23.554  1.00  0.00     0.025 A 
ATOM     65  H   UNL     1     -46.422  44.695  24.973  1.00  0.00     0.066 H 
ATOM     66  N   UNL     1     -43.692  44.133  23.335  1.00  0.00    -0.275 N 
ATOM     67  H   UNL     1     -44.921  45.858  23.002  1.00  0.00     0.084 H 
BRANCH  66  68
ATOM     68  C   UNL     1     -42.630  44.338  22.380  1.00  0.00     0.030 C 
ATOM     69  H   UNL     1     -42.564  45.407  22.163  1.00  0.00     0.048 H 
ATOM     70  H   UNL     1     -41.686  43.983  22.804  1.00  0.00     0.048 H 
ATOM     71  H   UNL     1     -42.867  43.774  21.475  1.00  0.00     0.048 H 
ENDBRANCH  66  68
ENDBRANCH  53  61
BRANCH  57  72
ATOM     72  N   UNL     1     -42.126  42.565  26.809  1.00  0.00    -0.383 N 
ATOM     73  H   UNL     1     -41.494  42.893  27.525  1.00  0.00     0.158 HD
ATOM     74  H   UNL     1     -41.710  42.239  25.932  1.00  0.00     0.158 HD
ENDBRANCH  57  72
ENDBRANCH  46  50
ENDBRANCH  38  41
ENDBRANCH  35  38
ENDBRANCH   7  35
TORSDOF 14
ENDMDL
MODEL 6
REMARK VINA RESULT:      -8.4      1.848      2.885
REMARK SMILES CCc1cc(NCCOC)c2ccc(CCc3cncc(-n4cc(-c5ccn(C)n5)c5c(N)ncnc54)c3)cc2n1
REMARK SMILES IDX 3 1 4 2 5 3 11 4 12 5 13 6 14 7 39 8 40 9 41 10 2 15 1 18
REMARK SMILES IDX 6 22 7 24 8 27 9 30 10 31 15 35 16 38 17 41 18 42 38 43
REMARK SMILES IDX 19 44 21 46 20 48 22 50 23 51 37 52 24 53 31 55 36 56 32 57
REMARK SMILES IDX 35 58 34 59 25 61 26 62 30 63 27 64 28 66 29 68 33 72
REMARK H PARENT 4 11 12 12 13 13 39 14 2 16 2 17 1 19 1 20 1 21 6 23 7 25 7 26
REMARK H PARENT 8 28 8 29 10 32 10 33 10 34 15 36 15 37 16 39 16 40 18 45
REMARK H PARENT 38 47 20 49 23 54 35 60 26 65 27 67 29 69 29 70 29 71 33 73
REMARK H PARENT 33 74
REMARK Flexibility Score: inf
ROOT
ATOM      1  C   UNL     1     -48.936  27.998  26.016  1.00  0.00     0.043 A 
ATOM      2  C   UNL     1     -49.695  28.109  24.858  1.00  0.00    -0.017 A 
ATOM      3  C   UNL     1     -49.863  29.353  24.247  1.00  0.00     0.045 A 
ATOM      4  C   UNL     1     -49.142  30.457  24.791  1.00  0.00     0.023 A 
ATOM      5  C   UNL     1     -49.111  31.752  24.214  1.00  0.00    -0.050 A 
ATOM      6  C   UNL     1     -48.367  32.789  24.776  1.00  0.00    -0.058 A 
ATOM      7  C   UNL     1     -47.633  32.566  25.937  1.00  0.00    -0.045 A 
ATOM      8  C   UNL     1     -47.676  31.293  26.524  1.00  0.00    -0.032 A 
ATOM      9  C   UNL     1     -48.392  30.241  25.969  1.00  0.00     0.073 A 
ATOM     10  N   UNL     1     -48.301  29.051  26.571  1.00  0.00    -0.253 NA
ATOM     11  H   UNL     1     -50.159  27.215  24.461  1.00  0.00     0.066 H 
ATOM     12  H   UNL     1     -49.644  31.958  23.290  1.00  0.00     0.063 H 
ATOM     13  H   UNL     1     -48.350  33.762  24.288  1.00  0.00     0.063 H 
ATOM     14  H   UNL     1     -47.093  31.092  27.422  1.00  0.00     0.065 H 
ENDROOT
BRANCH   1  15
ATOM     15  C   UNL     1     -48.765  26.664  26.694  1.00  0.00    -0.013 C 
ATOM     16  H   UNL     1     -49.656  26.435  27.292  1.00  0.00     0.033 H 
ATOM     17  H   UNL     1     -47.926  26.724  27.397  1.00  0.00     0.033 H 
BRANCH  15  18
ATOM     18  C   UNL     1     -48.503  25.550  25.694  1.00  0.00    -0.060 C 
ATOM     19  H   UNL     1     -49.143  24.689  25.910  1.00  0.00     0.023 H 
ATOM     20  H   UNL     1     -48.715  25.879  24.672  1.00  0.00     0.023 H 
ATOM     21  H   UNL     1     -47.460  25.217  25.734  1.00  0.00     0.023 H 
ENDBRANCH  15  18
ENDBRANCH   1  15
BRANCH   3  22
ATOM     22  N   UNL     1     -50.597  29.510  23.056  1.00  0.00    -0.382 N 
ATOM     23  H   UNL     1     -51.578  29.291  23.206  1.00  0.00     0.160 HD
BRANCH  22  24
ATOM     24  C   UNL     1     -50.123  29.005  21.760  1.00  0.00     0.038 C 
ATOM     25  H   UNL     1     -49.315  28.301  21.992  1.00  0.00     0.051 H 
ATOM     26  H   UNL     1     -50.898  28.429  21.245  1.00  0.00     0.051 H 
BRANCH  24  27
ATOM     27  C   UNL     1     -49.535  30.107  20.864  1.00  0.00     0.063 C 
ATOM     28  H   UNL     1     -49.590  31.064  21.395  1.00  0.00     0.059 H 
ATOM     29  H   UNL     1     -50.102  30.191  19.929  1.00  0.00     0.059 H 
BRANCH  27  30
ATOM     30  O   UNL     1     -48.157  29.844  20.584  1.00  0.00    -0.383 OA
BRANCH  30  31
ATOM     31  C   UNL     1     -47.297  30.518  21.492  1.00  0.00     0.036 C 
ATOM     32  H   UNL     1     -47.875  30.975  22.300  1.00  0.00     0.053 H 
ATOM     33  H   UNL     1     -46.611  29.783  21.925  1.00  0.00     0.053 H 
ATOM     34  H   UNL     1     -46.709  31.279  20.970  1.00  0.00     0.053 H 
ENDBRANCH  30  31
ENDBRANCH  27  30
ENDBRANCH  24  27
ENDBRANCH  22  24
ENDBRANCH   3  22
BRANCH   7  35
ATOM     35  C   UNL     1     -46.735  33.639  26.507  1.00  0.00    -0.024 C 
ATOM     36  H   UNL     1     -46.642  33.469  27.588  1.00  0.00     0.032 H 
ATOM     37  H   UNL     1     -45.722  33.537  26.099  1.00  0.00     0.032 H 
BRANCH  35  38
ATOM     38  C   UNL     1     -47.263  35.065  26.271  1.00  0.00    -0.022 C 
ATOM     39  H   UNL     1     -46.925  35.450  25.299  1.00  0.00     0.032 H 
ATOM     40  H   UNL     1     -48.359  35.026  26.207  1.00  0.00     0.032 H 
BRANCH  38  41
ATOM     41  C   UNL     1     -46.875  36.042  27.351  1.00  0.00    -0.027 A 
ATOM     42  C   UNL     1     -47.041  35.737  28.695  1.00  0.00     0.030 A 
ATOM     43  C   UNL     1     -46.299  37.280  27.038  1.00  0.00    -0.032 A 
ATOM     44  N   UNL     1     -46.682  36.559  29.702  1.00  0.00    -0.262 NA
ATOM     45  H   UNL     1     -47.478  34.795  29.014  1.00  0.00     0.084 H 
ATOM     46  C   UNL     1     -45.876  38.148  28.054  1.00  0.00     0.066 A 
ATOM     47  H   UNL     1     -46.189  37.542  25.990  1.00  0.00     0.065 H 
ATOM     48  C   UNL     1     -46.104  37.742  29.362  1.00  0.00     0.051 A 
ATOM     49  H   UNL     1     -45.804  38.325  30.226  1.00  0.00     0.086 H 
BRANCH  46  50
ATOM     50  N   UNL     1     -45.207  39.371  27.741  1.00  0.00    -0.299 N 
ATOM     51  C   UNL     1     -45.536  40.202  26.684  1.00  0.00     0.021 A 
ATOM     52  C   UNL     1     -44.120  39.946  28.398  1.00  0.00     0.150 A 
ATOM     53  C   UNL     1     -44.670  41.276  26.650  1.00  0.00     0.033 A 
ATOM     54  H   UNL     1     -46.319  39.940  25.988  1.00  0.00     0.083 H 
ATOM     55  C   UNL     1     -43.786  41.143  27.758  1.00  0.00     0.071 A 
ATOM     56  N   UNL     1     -43.507  39.454  29.494  1.00  0.00    -0.218 NA
ATOM     57  C   UNL     1     -42.726  41.877  28.323  1.00  0.00     0.137 A 
ATOM     58  C   UNL     1     -42.501  40.226  29.917  1.00  0.00     0.120 A 
ATOM     59  N   UNL     1     -42.079  41.386  29.397  1.00  0.00    -0.219 NA
ATOM     60  H   UNL     1     -41.962  39.873  30.791  1.00  0.00     0.106 H 
BRANCH  53  61
ATOM     61  C   UNL     1     -44.659  42.333  25.632  1.00  0.00     0.095 A 
ATOM     62  C   UNL     1     -45.771  43.144  25.306  1.00  0.00    -0.016 A 
ATOM     63  N   UNL     1     -43.599  42.622  24.864  1.00  0.00    -0.173 NA
ATOM     64  C   UNL     1     -45.330  43.969  24.297  1.00  0.00     0.025 A 
ATOM     65  H   UNL     1     -46.762  43.131  25.738  1.00  0.00     0.066 H 
ATOM     66  N   UNL     1     -44.034  43.621  24.073  1.00  0.00    -0.275 N 
ATOM     67  H   UNL     1     -45.827  44.749  23.738  1.00  0.00     0.084 H 
BRANCH  66  68
ATOM     68  C   UNL     1     -43.135  44.200  23.105  1.00  0.00     0.030 C 
ATOM     69  H   UNL     1     -43.281  45.283  23.103  1.00  0.00     0.048 H 
ATOM     70  H   UNL     1     -42.103  43.961  23.378  1.00  0.00     0.048 H 
ATOM     71  H   UNL     1     -43.368  43.778  22.124  1.00  0.00     0.048 H 
ENDBRANCH  66  68
ENDBRANCH  53  61
BRANCH  57  72
ATOM     72  N   UNL     1     -42.289  43.106  27.849  1.00  0.00    -0.383 N 
ATOM     73  H   UNL     1     -42.981  43.827  27.993  1.00  0.00     0.158 HD
ATOM     74  H   UNL     1     -41.329  43.316  28.136  1.00  0.00     0.158 HD
ENDBRANCH  57  72
ENDBRANCH  46  50
ENDBRANCH  38  41
ENDBRANCH  35  38
ENDBRANCH   7  35
TORSDOF 14
ENDMDL
MODEL 7
REMARK VINA RESULT:      -8.4      1.932      2.447
REMARK SMILES CCc1cc(NCCOC)c2ccc(CCc3cncc(-n4cc(-c5ccn(C)n5)c5c(N)ncnc54)c3)cc2n1
REMARK SMILES IDX 3 1 4 2 5 3 11 4 12 5 13 6 14 7 39 8 40 9 41 10 2 15 1 18
REMARK SMILES IDX 6 22 7 24 8 27 9 30 10 31 15 35 16 38 17 41 18 42 38 43
REMARK SMILES IDX 19 44 21 46 20 48 22 50 23 51 37 52 24 53 31 55 36 56 32 57
REMARK SMILES IDX 35 58 34 59 25 61 26 62 30 63 27 64 28 66 29 68 33 72
REMARK H PARENT 4 11 12 12 13 13 39 14 2 16 2 17 1 19 1 20 1 21 6 23 7 25 7 26
REMARK H PARENT 8 28 8 29 10 32 10 33 10 34 15 36 15 37 16 39 16 40 18 45
REMARK H PARENT 38 47 20 49 23 54 35 60 26 65 27 67 29 69 29 70 29 71 33 73
REMARK H PARENT 33 74
REMARK Flexibility Score: inf
ROOT
ATOM      1  C   UNL     1     -46.419  30.898  23.120  1.00  0.00     0.043 A 
ATOM      2  C   UNL     1     -47.662  30.313  22.920  1.00  0.00    -0.017 A 
ATOM      3  C   UNL     1     -48.750  30.691  23.710  1.00  0.00     0.045 A 
ATOM      4  C   UNL     1     -48.554  31.763  24.630  1.00  0.00     0.023 A 
ATOM      5  C   UNL     1     -49.587  32.342  25.411  1.00  0.00    -0.050 A 
ATOM      6  C   UNL     1     -49.342  33.408  26.278  1.00  0.00    -0.058 A 
ATOM      7  C   UNL     1     -48.056  33.926  26.395  1.00  0.00    -0.045 A 
ATOM      8  C   UNL     1     -47.027  33.343  25.640  1.00  0.00    -0.032 A 
ATOM      9  C   UNL     1     -47.252  32.297  24.756  1.00  0.00     0.073 A 
ATOM     10  N   UNL     1     -46.212  31.870  24.032  1.00  0.00    -0.253 NA
ATOM     11  H   UNL     1     -47.754  29.551  22.156  1.00  0.00     0.066 H 
ATOM     12  H   UNL     1     -50.610  31.988  25.324  1.00  0.00     0.063 H 
ATOM     13  H   UNL     1     -50.168  33.840  26.841  1.00  0.00     0.063 H 
ATOM     14  H   UNL     1     -46.017  33.747  25.704  1.00  0.00     0.065 H 
ENDROOT
BRANCH   1  15
ATOM     15  C   UNL     1     -45.234  30.483  22.287  1.00  0.00    -0.013 C 
ATOM     16  H   UNL     1     -44.357  31.080  22.567  1.00  0.00     0.033 H 
ATOM     17  H   UNL     1     -45.439  30.707  21.234  1.00  0.00     0.033 H 
BRANCH  15  18
ATOM     18  C   UNL     1     -44.929  29.002  22.436  1.00  0.00    -0.060 C 
ATOM     19  H   UNL     1     -45.797  28.475  22.844  1.00  0.00     0.023 H 
ATOM     20  H   UNL     1     -44.686  28.550  21.468  1.00  0.00     0.023 H 
ATOM     21  H   UNL     1     -44.082  28.836  23.109  1.00  0.00     0.023 H 
ENDBRANCH  15  18
ENDBRANCH   1  15
BRANCH   3  22
ATOM     22  N   UNL     1     -50.035  30.148  23.524  1.00  0.00    -0.382 N 
ATOM     23  H   UNL     1     -50.728  30.672  24.053  1.00  0.00     0.160 HD
BRANCH  22  24
ATOM     24  C   UNL     1     -50.300  28.704  23.571  1.00  0.00     0.038 C 
ATOM     25  H   UNL     1     -49.319  28.225  23.680  1.00  0.00     0.051 H 
ATOM     26  H   UNL     1     -50.878  28.429  24.459  1.00  0.00     0.051 H 
BRANCH  24  27
ATOM     27  C   UNL     1     -50.939  28.167  22.280  1.00  0.00     0.063 C 
ATOM     28  H   UNL     1     -51.930  28.619  22.160  1.00  0.00     0.059 H 
ATOM     29  H   UNL     1     -51.053  27.077  22.328  1.00  0.00     0.059 H 
BRANCH  27  30
ATOM     30  O   UNL     1     -50.153  28.532  21.143  1.00  0.00    -0.383 OA
BRANCH  30  31
ATOM     31  C   UNL     1     -50.964  28.965  20.059  1.00  0.00     0.036 C 
ATOM     32  H   UNL     1     -50.597  29.915  19.661  1.00  0.00     0.053 H 
ATOM     33  H   UNL     1     -50.913  28.210  19.268  1.00  0.00     0.053 H 
ATOM     34  H   UNL     1     -52.006  29.065  20.378  1.00  0.00     0.053 H 
ENDBRANCH  30  31
ENDBRANCH  27  30
ENDBRANCH  24  27
ENDBRANCH  22  24
ENDBRANCH   3  22
BRANCH   7  35
ATOM     35  C   UNL     1     -47.784  35.146  27.244  1.00  0.00    -0.024 C 
ATOM     36  H   UNL     1     -48.745  35.624  27.474  1.00  0.00     0.032 H 
ATOM     37  H   UNL     1     -47.360  34.843  28.210  1.00  0.00     0.032 H 
BRANCH  35  38
ATOM     38  C   UNL     1     -46.866  36.173  26.558  1.00  0.00    -0.022 C 
ATOM     39  H   UNL     1     -45.810  35.924  26.724  1.00  0.00     0.032 H 
ATOM     40  H   UNL     1     -47.018  36.107  25.473  1.00  0.00     0.032 H 
BRANCH  38  41
ATOM     41  C   UNL     1     -47.113  37.594  26.997  1.00  0.00    -0.027 A 
ATOM     42  C   UNL     1     -48.081  37.900  27.944  1.00  0.00     0.030 A 
ATOM     43  C   UNL     1     -46.349  38.654  26.491  1.00  0.00    -0.032 A 
ATOM     44  N   UNL     1     -48.321  39.148  28.396  1.00  0.00    -0.262 NA
ATOM     45  H   UNL     1     -48.709  37.131  28.384  1.00  0.00     0.084 H 
ATOM     46  C   UNL     1     -46.539  39.959  26.961  1.00  0.00     0.066 A 
ATOM     47  H   UNL     1     -45.608  38.430  25.729  1.00  0.00     0.065 H 
ATOM     48  C   UNL     1     -47.545  40.149  27.900  1.00  0.00     0.051 A 
ATOM     49  H   UNL     1     -47.770  41.112  28.345  1.00  0.00     0.086 H 
BRANCH  46  50
ATOM     50  N   UNL     1     -45.704  41.029  26.514  1.00  0.00    -0.299 N 
ATOM     51  C   UNL     1     -46.063  41.964  25.559  1.00  0.00     0.021 A 
ATOM     52  C   UNL     1     -44.404  41.327  26.918  1.00  0.00     0.150 A 
ATOM     53  C   UNL     1     -45.013  42.832  25.340  1.00  0.00     0.033 A 
ATOM     54  H   UNL     1     -47.014  41.910  25.052  1.00  0.00     0.083 H 
ATOM     55  C   UNL     1     -43.962  42.457  26.226  1.00  0.00     0.071 A 
ATOM     56  N   UNL     1     -43.691  40.660  27.850  1.00  0.00    -0.218 NA
ATOM     57  C   UNL     1     -42.672  42.922  26.546  1.00  0.00     0.137 A 
ATOM     58  C   UNL     1     -42.475  41.179  28.045  1.00  0.00     0.120 A 
ATOM     59  N   UNL     1     -41.933  42.249  27.449  1.00  0.00    -0.219 NA
ATOM     60  H   UNL     1     -41.851  40.676  28.777  1.00  0.00     0.106 H 
BRANCH  53  61
ATOM     61  C   UNL     1     -44.991  43.914  24.349  1.00  0.00     0.095 A 
ATOM     62  C   UNL     1     -45.343  45.256  24.620  1.00  0.00    -0.016 A 
ATOM     63  N   UNL     1     -44.670  43.741  23.058  1.00  0.00    -0.173 NA
ATOM     64  C   UNL     1     -45.206  45.913  23.419  1.00  0.00     0.025 A 
ATOM     65  H   UNL     1     -45.662  45.692  25.557  1.00  0.00     0.066 H 
ATOM     66  N   UNL     1     -44.802  44.970  22.524  1.00  0.00    -0.275 N 
ATOM     67  H   UNL     1     -45.365  46.945  23.142  1.00  0.00     0.084 H 
BRANCH  66  68
ATOM     68  C   UNL     1     -44.524  45.166  21.123  1.00  0.00     0.030 C 
ATOM     69  H   UNL     1     -44.628  46.230  20.897  1.00  0.00     0.048 H 
ATOM     70  H   UNL     1     -43.505  44.834  20.904  1.00  0.00     0.048 H 
ATOM     71  H   UNL     1     -45.240  44.577  20.543  1.00  0.00     0.048 H 
ENDBRANCH  66  68
ENDBRANCH  53  61
BRANCH  57  72
ATOM     72  N   UNL     1     -42.090  44.053  25.992  1.00  0.00    -0.383 N 
ATOM     73  H   UNL     1     -42.529  44.306  25.118  1.00  0.00     0.158 HD
ATOM     74  H   UNL     1     -41.955  44.799  26.680  1.00  0.00     0.158 HD
ENDBRANCH  57  72
ENDBRANCH  46  50
ENDBRANCH  38  41
ENDBRANCH  35  38
ENDBRANCH   7  35
TORSDOF 14
ENDMDL
