MODEL 1
REMARK VINA RESULT:     -10.9      0.000      0.000
REMARK SMILES Nc1ncnc2c1c([C@@H]1CCCO1)cn2-c1cncc(COc2ccc3ccc(N4CCC4)nc3c2)c1
REMARK SMILES IDX 21 1 20 4 16 5 17 6 37 7 18 8 19 11 15 13 2 14 3 15 7 16
REMARK SMILES IDX 4 17 6 18 8 19 5 20 14 22 1 24 9 27 10 28 13 29 11 31 12 34
REMARK SMILES IDX 22 39 23 40 24 41 36 42 25 43 35 45 26 47 34 49 27 50 29 51
REMARK SMILES IDX 28 52 30 55 31 56 33 57 32 58
REMARK H PARENT 21 2 21 3 17 9 37 10 19 12 4 21 14 23 1 25 1 26 9 30 10 32
REMARK H PARENT 10 33 11 35 11 36 12 37 12 38 24 44 36 46 25 48 27 53 28 54
REMARK H PARENT 31 59 31 60 33 61 33 62 32 63 32 64
REMARK Flexibility Score: inf
ROOT
ATOM      1  C   UNL     1     -46.409  36.598  26.913  1.00  0.00     0.115 C 
ATOM      2  H   UNL     1     -45.500  36.955  26.414  1.00  0.00     0.076 H 
ATOM      3  H   UNL     1     -47.253  36.969  26.316  1.00  0.00     0.076 H 
ENDROOT
BRANCH   1   4
ATOM      4  C   UNL     1     -46.490  35.090  26.920  1.00  0.00     0.010 A 
ATOM      5  C   UNL     1     -47.066  32.957  25.892  1.00  0.00     0.066 A 
ATOM      6  C   UNL     1     -46.611  32.349  27.055  1.00  0.00     0.051 A 
ATOM      7  C   UNL     1     -46.962  34.352  25.826  1.00  0.00    -0.028 A 
ATOM      8  N   UNL     1     -46.105  33.027  28.118  1.00  0.00    -0.262 NA
ATOM      9  H   UNL     1     -46.653  31.278  27.222  1.00  0.00     0.086 H 
ATOM     10  H   UNL     1     -47.243  34.896  24.929  1.00  0.00     0.065 H 
ATOM     11  C   UNL     1     -46.062  34.374  28.028  1.00  0.00     0.034 A 
ATOM     12  H   UNL     1     -45.660  34.870  28.907  1.00  0.00     0.084 H 
BRANCH   5  13
ATOM     13  N   UNL     1     -47.656  32.215  24.822  1.00  0.00    -0.299 N 
ATOM     14  C   UNL     1     -47.520  30.041  21.996  1.00  0.00     0.136 A 
ATOM     15  N   UNL     1     -46.196  29.895  21.808  1.00  0.00    -0.219 NA
ATOM     16  C   UNL     1     -47.979  30.862  23.041  1.00  0.00     0.067 A 
ATOM     17  C   UNL     1     -45.365  30.551  22.633  1.00  0.00     0.120 A 
ATOM     18  C   UNL     1     -47.013  31.465  23.841  1.00  0.00     0.150 A 
ATOM     19  C   UNL     1     -49.266  31.260  23.527  1.00  0.00     0.012 A 
ATOM     20  N   UNL     1     -45.681  31.344  23.666  1.00  0.00    -0.218 NA
ATOM     21  H   UNL     1     -44.305  30.419  22.440  1.00  0.00     0.106 H 
ATOM     22  C   UNL     1     -49.020  32.093  24.604  1.00  0.00     0.018 A 
ATOM     23  H   UNL     1     -49.732  32.573  25.259  1.00  0.00     0.083 H 
BRANCH  14  24
ATOM     24  N   UNL     1     -48.363  29.340  21.143  1.00  0.00    -0.383 N 
ATOM     25  H   UNL     1     -49.132  29.916  20.799  1.00  0.00     0.158 HD
ATOM     26  H   UNL     1     -48.638  28.463  21.568  1.00  0.00     0.158 HD
ENDBRANCH  14  24
BRANCH  19  27
ATOM     27  C   UNL     1     -50.593  30.839  22.949  1.00  0.00     0.085 C 
ATOM     28  C   UNL     1     -50.955  31.432  21.594  1.00  0.00    -0.020 C 
ATOM     29  O   UNL     1     -51.663  31.237  23.839  1.00  0.00    -0.373 OA
ATOM     30  H   UNL     1     -50.599  29.744  22.885  1.00  0.00     0.066 H 
ATOM     31  C   UNL     1     -51.661  32.709  21.973  1.00  0.00    -0.027 C 
ATOM     32  H   UNL     1     -51.674  30.772  21.092  1.00  0.00     0.030 H 
ATOM     33  H   UNL     1     -50.117  31.582  20.908  1.00  0.00     0.030 H 
ATOM     34  C   UNL     1     -52.413  32.292  23.216  1.00  0.00     0.048 C 
ATOM     35  H   UNL     1     -50.933  33.491  22.215  1.00  0.00     0.029 H 
ATOM     36  H   UNL     1     -52.323  33.092  21.191  1.00  0.00     0.029 H 
ATOM     37  H   UNL     1     -52.543  33.116  23.923  1.00  0.00     0.057 H 
ATOM     38  H   UNL     1     -53.400  31.891  22.965  1.00  0.00     0.057 H 
ENDBRANCH  19  27
ENDBRANCH   5  13
ENDBRANCH   1   4
BRANCH   1  39
ATOM     39  O   UNL     1     -46.535  37.209  28.205  1.00  0.00    -0.489 OA
BRANCH  39  40
ATOM     40  C   UNL     1     -45.480  37.945  28.671  1.00  0.00     0.122 A 
ATOM     41  C   UNL     1     -44.796  37.715  29.859  1.00  0.00    -0.019 A 
ATOM     42  C   UNL     1     -45.109  39.021  27.857  1.00  0.00     0.007 A 
ATOM     43  C   UNL     1     -43.769  38.582  30.239  1.00  0.00    -0.049 A 
ATOM     44  H   UNL     1     -45.033  36.880  30.509  1.00  0.00     0.066 H 
ATOM     45  C   UNL     1     -44.108  39.909  28.221  1.00  0.00     0.076 A 
ATOM     46  H   UNL     1     -45.640  39.191  26.923  1.00  0.00     0.069 H 
ATOM     47  C   UNL     1     -43.430  39.680  29.431  1.00  0.00     0.001 A 
ATOM     48  H   UNL     1     -43.242  38.401  31.174  1.00  0.00     0.063 H 
ATOM     49  N   UNL     1     -43.830  40.953  27.422  1.00  0.00    -0.231 NA
ATOM     50  C   UNL     1     -42.426  40.582  29.793  1.00  0.00    -0.049 A 
ATOM     51  C   UNL     1     -42.855  41.819  27.778  1.00  0.00     0.129 A 
ATOM     52  C   UNL     1     -42.140  41.660  28.960  1.00  0.00    -0.019 A 
ATOM     53  H   UNL     1     -41.871  40.460  30.719  1.00  0.00     0.063 H 
ATOM     54  H   UNL     1     -41.373  42.372  29.244  1.00  0.00     0.066 H 
BRANCH  51  55
ATOM     55  N   UNL     1     -42.591  42.919  26.940  1.00  0.00    -0.356 N 
ATOM     56  C   UNL     1     -43.605  43.778  26.395  1.00  0.00     0.021 C 
ATOM     57  C   UNL     1     -41.857  42.896  25.707  1.00  0.00     0.021 C 
ATOM     58  C   UNL     1     -42.554  44.219  25.372  1.00  0.00    -0.018 C 
ATOM     59  H   UNL     1     -43.944  44.547  27.093  1.00  0.00     0.049 H 
ATOM     60  H   UNL     1     -44.455  43.228  25.976  1.00  0.00     0.049 H 
ATOM     61  H   UNL     1     -40.775  42.950  25.841  1.00  0.00     0.049 H 
ATOM     62  H   UNL     1     -42.128  42.053  25.064  1.00  0.00     0.049 H 
ATOM     63  H   UNL     1     -41.989  45.113  25.660  1.00  0.00     0.030 H 
ATOM     64  H   UNL     1     -42.905  44.325  24.342  1.00  0.00     0.030 H 
ENDBRANCH  51  55
ENDBRANCH  39  40
ENDBRANCH   1  39
TORSDOF 7
ENDMDL
MODEL 2
REMARK VINA RESULT:     -10.8      2.522      3.511
REMARK SMILES Nc1ncnc2c1c([C@@H]1CCCO1)cn2-c1cncc(COc2ccc3ccc(N4CCC4)nc3c2)c1
REMARK SMILES IDX 21 1 20 4 16 5 17 6 37 7 18 8 19 11 15 13 2 14 3 15 7 16
REMARK SMILES IDX 4 17 6 18 8 19 5 20 14 22 1 24 9 27 10 28 13 29 11 31 12 34
REMARK SMILES IDX 22 39 23 40 24 41 36 42 25 43 35 45 26 47 34 49 27 50 29 51
REMARK SMILES IDX 28 52 30 55 31 56 33 57 32 58
REMARK H PARENT 21 2 21 3 17 9 37 10 19 12 4 21 14 23 1 25 1 26 9 30 10 32
REMARK H PARENT 10 33 11 35 11 36 12 37 12 38 24 44 36 46 25 48 27 53 28 54
REMARK H PARENT 31 59 31 60 33 61 33 62 32 63 32 64
REMARK Flexibility Score: inf
ROOT
ATOM      1  C   UNL     1     -48.911  35.075  27.157  1.00  0.00     0.115 C 
ATOM      2  H   UNL     1     -49.982  35.001  26.934  1.00  0.00     0.076 H 
ATOM      3  H   UNL     1     -48.789  34.738  28.195  1.00  0.00     0.076 H 
ENDROOT
BRANCH   1   4
ATOM      4  C   UNL     1     -48.091  34.154  26.286  1.00  0.00     0.010 A 
ATOM      5  C   UNL     1     -47.784  32.103  25.005  1.00  0.00     0.066 A 
ATOM      6  C   UNL     1     -46.498  32.547  24.727  1.00  0.00     0.051 A 
ATOM      7  C   UNL     1     -48.594  32.952  25.770  1.00  0.00    -0.028 A 
ATOM      8  N   UNL     1     -45.989  33.727  25.171  1.00  0.00    -0.262 NA
ATOM      9  H   UNL     1     -45.779  31.970  24.156  1.00  0.00     0.086 H 
ATOM     10  H   UNL     1     -49.629  32.702  25.982  1.00  0.00     0.065 H 
ATOM     11  C   UNL     1     -46.791  34.495  25.940  1.00  0.00     0.034 A 
ATOM     12  H   UNL     1     -46.336  35.421  26.279  1.00  0.00     0.084 H 
BRANCH   5  13
ATOM     13  N   UNL     1     -48.260  30.825  24.579  1.00  0.00    -0.299 N 
ATOM     14  C   UNL     1     -49.220  28.447  22.098  1.00  0.00     0.136 A 
ATOM     15  N   UNL     1     -49.151  29.168  20.965  1.00  0.00    -0.219 NA
ATOM     16  C   UNL     1     -48.916  29.063  23.325  1.00  0.00     0.067 A 
ATOM     17  C   UNL     1     -48.796  30.459  21.059  1.00  0.00     0.120 A 
ATOM     18  C   UNL     1     -48.536  30.401  23.282  1.00  0.00     0.150 A 
ATOM     19  C   UNL     1     -48.892  28.641  24.693  1.00  0.00     0.012 A 
ATOM     20  N   UNL     1     -48.471  31.149  22.161  1.00  0.00    -0.218 NA
ATOM     21  H   UNL     1     -48.766  31.011  20.124  1.00  0.00     0.106 H 
ATOM     22  C   UNL     1     -48.499  29.749  25.421  1.00  0.00     0.018 A 
ATOM     23  H   UNL     1     -48.330  29.830  26.485  1.00  0.00     0.083 H 
BRANCH  14  24
ATOM     24  N   UNL     1     -49.572  27.108  21.977  1.00  0.00    -0.383 N 
ATOM     25  H   UNL     1     -49.942  26.887  21.052  1.00  0.00     0.158 HD
ATOM     26  H   UNL     1     -50.159  26.831  22.754  1.00  0.00     0.158 HD
ENDBRANCH  14  24
BRANCH  19  27
ATOM     27  C   UNL     1     -49.239  27.263  25.194  1.00  0.00     0.085 C 
ATOM     28  C   UNL     1     -49.192  27.064  26.703  1.00  0.00    -0.020 C 
ATOM     29  O   UNL     1     -48.307  26.296  24.652  1.00  0.00    -0.373 OA
ATOM     30  H   UNL     1     -50.239  27.010  24.820  1.00  0.00     0.066 H 
ATOM     31  C   UNL     1     -47.759  26.657  26.937  1.00  0.00    -0.027 C 
ATOM     32  H   UNL     1     -49.842  26.222  26.976  1.00  0.00     0.030 H 
ATOM     33  H   UNL     1     -49.507  27.924  27.300  1.00  0.00     0.030 H 
ATOM     34  C   UNL     1     -47.472  25.812  25.717  1.00  0.00     0.048 C 
ATOM     35  H   UNL     1     -47.109  27.539  26.947  1.00  0.00     0.029 H 
ATOM     36  H   UNL     1     -47.606  26.111  27.871  1.00  0.00     0.029 H 
ATOM     37  H   UNL     1     -46.424  25.860  25.411  1.00  0.00     0.057 H 
ATOM     38  H   UNL     1     -47.735  24.764  25.892  1.00  0.00     0.057 H 
ENDBRANCH  19  27
ENDBRANCH   5  13
ENDBRANCH   1   4
BRANCH   1  39
ATOM     39  O   UNL     1     -48.495  36.448  27.132  1.00  0.00    -0.489 OA
BRANCH  39  40
ATOM     40  C   UNL     1     -47.450  36.816  27.934  1.00  0.00     0.122 A 
ATOM     41  C   UNL     1     -47.141  36.254  29.168  1.00  0.00    -0.019 A 
ATOM     42  C   UNL     1     -46.666  37.863  27.436  1.00  0.00     0.007 A 
ATOM     43  C   UNL     1     -46.073  36.766  29.907  1.00  0.00    -0.049 A 
ATOM     44  H   UNL     1     -47.705  35.426  29.582  1.00  0.00     0.066 H 
ATOM     45  C   UNL     1     -45.614  38.403  28.159  1.00  0.00     0.076 A 
ATOM     46  H   UNL     1     -46.905  38.292  26.465  1.00  0.00     0.069 H 
ATOM     47  C   UNL     1     -45.316  37.842  29.413  1.00  0.00     0.001 A 
ATOM     48  H   UNL     1     -45.840  36.327  30.876  1.00  0.00     0.063 H 
ATOM     49  N   UNL     1     -44.929  39.442  27.650  1.00  0.00    -0.231 NA
ATOM     50  C   UNL     1     -44.257  38.395  30.137  1.00  0.00    -0.049 A 
ATOM     51  C   UNL     1     -43.904  39.970  28.356  1.00  0.00     0.129 A 
ATOM     52  C   UNL     1     -43.549  39.469  29.604  1.00  0.00    -0.019 A 
ATOM     53  H   UNL     1     -43.983  38.007  31.114  1.00  0.00     0.063 H 
ATOM     54  H   UNL     1     -42.738  39.913  30.170  1.00  0.00     0.066 H 
BRANCH  51  55
ATOM     55  N   UNL     1     -43.211  41.070  27.818  1.00  0.00    -0.356 N 
ATOM     56  C   UNL     1     -42.569  42.083  28.609  1.00  0.00     0.021 C 
ATOM     57  C   UNL     1     -43.728  42.033  26.888  1.00  0.00     0.021 C 
ATOM     58  C   UNL     1     -42.593  42.954  27.350  1.00  0.00    -0.018 C 
ATOM     59  H   UNL     1     -41.580  41.792  28.970  1.00  0.00     0.049 H 
ATOM     60  H   UNL     1     -43.194  42.445  29.433  1.00  0.00     0.049 H 
ATOM     61  H   UNL     1     -43.679  41.706  25.848  1.00  0.00     0.049 H 
ATOM     62  H   UNL     1     -44.735  42.375  27.143  1.00  0.00     0.049 H 
ATOM     63  H   UNL     1     -41.685  42.893  26.740  1.00  0.00     0.030 H 
ATOM     64  H   UNL     1     -42.863  44.003  27.500  1.00  0.00     0.030 H 
ENDBRANCH  51  55
ENDBRANCH  39  40
ENDBRANCH   1  39
TORSDOF 7
ENDMDL
MODEL 3
REMARK VINA RESULT:     -10.4      2.172      2.772
REMARK SMILES Nc1ncnc2c1c([C@@H]1CCCO1)cn2-c1cncc(COc2ccc3ccc(N4CCC4)nc3c2)c1
REMARK SMILES IDX 21 1 20 4 16 5 17 6 37 7 18 8 19 11 15 13 2 14 3 15 7 16
REMARK SMILES IDX 4 17 6 18 8 19 5 20 14 22 1 24 9 27 10 28 13 29 11 31 12 34
REMARK SMILES IDX 22 39 23 40 24 41 36 42 25 43 35 45 26 47 34 49 27 50 29 51
REMARK SMILES IDX 28 52 30 55 31 56 33 57 32 58
REMARK H PARENT 21 2 21 3 17 9 37 10 19 12 4 21 14 23 1 25 1 26 9 30 10 32
REMARK H PARENT 10 33 11 35 11 36 12 37 12 38 24 44 36 46 25 48 27 53 28 54
REMARK H PARENT 31 59 31 60 33 61 33 62 32 63 32 64
REMARK Flexibility Score: inf
ROOT
ATOM      1  C   UNL     1     -46.048  35.776  27.546  1.00  0.00     0.115 C 
ATOM      2  H   UNL     1     -45.299  35.164  28.064  1.00  0.00     0.076 H 
ATOM      3  H   UNL     1     -45.551  36.182  26.656  1.00  0.00     0.076 H 
ENDROOT
BRANCH   1   4
ATOM      4  C   UNL     1     -47.218  34.949  27.072  1.00  0.00     0.010 A 
ATOM      5  C   UNL     1     -48.173  32.983  25.993  1.00  0.00     0.066 A 
ATOM      6  C   UNL     1     -49.423  33.541  26.230  1.00  0.00     0.051 A 
ATOM      7  C   UNL     1     -47.063  33.696  26.462  1.00  0.00    -0.028 A 
ATOM      8  N   UNL     1     -49.616  34.731  26.858  1.00  0.00    -0.262 NA
ATOM      9  H   UNL     1     -50.351  33.085  25.902  1.00  0.00     0.086 H 
ATOM     10  H   UNL     1     -46.057  33.299  26.366  1.00  0.00     0.065 H 
ATOM     11  C   UNL     1     -48.516  35.405  27.256  1.00  0.00     0.034 A 
ATOM     12  H   UNL     1     -48.722  36.354  27.743  1.00  0.00     0.084 H 
BRANCH   5  13
ATOM     13  N   UNL     1     -48.006  31.763  25.268  1.00  0.00    -0.299 N 
ATOM     14  C   UNL     1     -46.508  29.735  22.743  1.00  0.00     0.136 A 
ATOM     15  N   UNL     1     -45.729  30.615  22.091  1.00  0.00    -0.219 NA
ATOM     16  C   UNL     1     -47.288  30.177  23.826  1.00  0.00     0.067 A 
ATOM     17  C   UNL     1     -45.735  31.892  22.505  1.00  0.00     0.120 A 
ATOM     18  C   UNL     1     -47.183  31.521  24.172  1.00  0.00     0.150 A 
ATOM     19  C   UNL     1     -48.218  29.563  24.725  1.00  0.00     0.012 A 
ATOM     20  N   UNL     1     -46.418  32.427  23.527  1.00  0.00    -0.218 NA
ATOM     21  H   UNL     1     -45.103  32.574  21.945  1.00  0.00     0.106 H 
ATOM     22  C   UNL     1     -48.639  30.567  25.577  1.00  0.00     0.018 A 
ATOM     23  H   UNL     1     -49.317  30.499  26.415  1.00  0.00     0.083 H 
BRANCH  14  24
ATOM     24  N   UNL     1     -46.475  28.415  22.310  1.00  0.00    -0.383 N 
ATOM     25  H   UNL     1     -45.521  28.059  22.229  1.00  0.00     0.158 HD
ATOM     26  H   UNL     1     -47.047  28.305  21.483  1.00  0.00     0.158 HD
ENDBRANCH  14  24
BRANCH  19  27
ATOM     27  C   UNL     1     -48.631  28.113  24.706  1.00  0.00     0.085 C 
ATOM     28  C   UNL     1     -49.488  27.642  25.873  1.00  0.00    -0.020 C 
ATOM     29  O   UNL     1     -47.455  27.268  24.730  1.00  0.00    -0.373 OA
ATOM     30  H   UNL     1     -49.159  27.926  23.762  1.00  0.00     0.066 H 
ATOM     31  C   UNL     1     -48.457  27.211  26.885  1.00  0.00    -0.027 C 
ATOM     32  H   UNL     1     -50.065  26.761  25.565  1.00  0.00     0.030 H 
ATOM     33  H   UNL     1     -50.200  28.377  26.259  1.00  0.00     0.030 H 
ATOM     34  C   UNL     1     -47.390  26.604  26.002  1.00  0.00     0.048 C 
ATOM     35  H   UNL     1     -48.058  28.080  27.418  1.00  0.00     0.029 H 
ATOM     36  H   UNL     1     -48.840  26.504  27.626  1.00  0.00     0.029 H 
ATOM     37  H   UNL     1     -46.387  26.714  26.422  1.00  0.00     0.057 H 
ATOM     38  H   UNL     1     -47.579  25.540  25.828  1.00  0.00     0.057 H 
ENDBRANCH  19  27
ENDBRANCH   5  13
ENDBRANCH   1   4
BRANCH   1  39
ATOM     39  O   UNL     1     -46.405  36.907  28.355  1.00  0.00    -0.489 OA
BRANCH  39  40
ATOM     40  C   UNL     1     -45.425  37.814  28.655  1.00  0.00     0.122 A 
ATOM     41  C   UNL     1     -44.673  37.834  29.824  1.00  0.00    -0.019 A 
ATOM     42  C   UNL     1     -45.214  38.796  27.680  1.00  0.00     0.007 A 
ATOM     43  C   UNL     1     -43.740  38.853  30.022  1.00  0.00    -0.049 A 
ATOM     44  H   UNL     1     -44.785  37.080  30.595  1.00  0.00     0.066 H 
ATOM     45  C   UNL     1     -44.310  39.831  27.862  1.00  0.00     0.076 A 
ATOM     46  H   UNL     1     -45.798  38.770  26.763  1.00  0.00     0.069 H 
ATOM     47  C   UNL     1     -43.562  39.855  29.053  1.00  0.00     0.001 A 
ATOM     48  H   UNL     1     -43.159  38.868  30.943  1.00  0.00     0.063 H 
ATOM     49  N   UNL     1     -44.187  40.774  26.912  1.00  0.00    -0.231 NA
ATOM     50  C   UNL     1     -42.658  40.904  29.230  1.00  0.00    -0.049 A 
ATOM     51  C   UNL     1     -43.306  41.784  27.090  1.00  0.00     0.129 A 
ATOM     52  C   UNL     1     -42.532  41.876  28.242  1.00  0.00    -0.019 A 
ATOM     53  H   UNL     1     -42.056  40.978  30.132  1.00  0.00     0.063 H 
ATOM     54  H   UNL     1     -41.843  42.701  28.382  1.00  0.00     0.066 H 
BRANCH  51  55
ATOM     55  N   UNL     1     -43.206  42.774  26.095  1.00  0.00    -0.356 N 
ATOM     56  C   UNL     1     -43.828  42.684  24.804  1.00  0.00     0.021 C 
ATOM     57  C   UNL     1     -41.994  43.311  25.546  1.00  0.00     0.021 C 
ATOM     58  C   UNL     1     -42.844  43.767  24.354  1.00  0.00    -0.018 C 
ATOM     59  H   UNL     1     -44.883  42.969  24.808  1.00  0.00     0.049 H 
ATOM     60  H   UNL     1     -43.690  41.708  24.326  1.00  0.00     0.049 H 
ATOM     61  H   UNL     1     -41.556  44.109  26.149  1.00  0.00     0.049 H 
ATOM     62  H   UNL     1     -41.250  42.542  25.317  1.00  0.00     0.049 H 
ATOM     63  H   UNL     1     -43.227  44.791  24.438  1.00  0.00     0.030 H 
ATOM     64  H   UNL     1     -42.395  43.626  23.367  1.00  0.00     0.030 H 
ENDBRANCH  51  55
ENDBRANCH  39  40
ENDBRANCH   1  39
TORSDOF 7
ENDMDL
MODEL 4
REMARK VINA RESULT:     -10.3      2.795     11.645
REMARK SMILES Nc1ncnc2c1c([C@@H]1CCCO1)cn2-c1cncc(COc2ccc3ccc(N4CCC4)nc3c2)c1
REMARK SMILES IDX 21 1 20 4 16 5 17 6 37 7 18 8 19 11 15 13 2 14 3 15 7 16
REMARK SMILES IDX 4 17 6 18 8 19 5 20 14 22 1 24 9 27 10 28 13 29 11 31 12 34
REMARK SMILES IDX 22 39 23 40 24 41 36 42 25 43 35 45 26 47 34 49 27 50 29 51
REMARK SMILES IDX 28 52 30 55 31 56 33 57 32 58
REMARK H PARENT 21 2 21 3 17 9 37 10 19 12 4 21 14 23 1 25 1 26 9 30 10 32
REMARK H PARENT 10 33 11 35 11 36 12 37 12 38 24 44 36 46 25 48 27 53 28 54
REMARK H PARENT 31 59 31 60 33 61 33 62 32 63 32 64
REMARK Flexibility Score: inf
ROOT
ATOM      1  C   UNL     1     -47.081  34.077  26.602  1.00  0.00     0.115 C 
ATOM      2  H   UNL     1     -46.504  33.567  27.382  1.00  0.00     0.076 H 
ATOM      3  H   UNL     1     -48.032  33.536  26.518  1.00  0.00     0.076 H 
ENDROOT
BRANCH   1   4
ATOM      4  C   UNL     1     -47.406  35.501  26.985  1.00  0.00     0.010 A 
ATOM      5  C   UNL     1     -46.781  37.822  27.389  1.00  0.00     0.066 A 
ATOM      6  C   UNL     1     -48.110  38.053  27.720  1.00  0.00     0.051 A 
ATOM      7  C   UNL     1     -46.448  36.524  26.981  1.00  0.00    -0.028 A 
ATOM      8  N   UNL     1     -49.077  37.099  27.692  1.00  0.00    -0.262 NA
ATOM      9  H   UNL     1     -48.480  39.014  28.061  1.00  0.00     0.086 H 
ATOM     10  H   UNL     1     -45.443  36.278  26.652  1.00  0.00     0.065 H 
ATOM     11  C   UNL     1     -48.703  35.852  27.333  1.00  0.00     0.034 A 
ATOM     12  H   UNL     1     -49.509  35.123  27.336  1.00  0.00     0.084 H 
BRANCH   5  13
ATOM     13  N   UNL     1     -45.778  38.835  27.497  1.00  0.00    -0.299 N 
ATOM     14  C   UNL     1     -42.989  40.403  29.075  1.00  0.00     0.136 A 
ATOM     15  N   UNL     1     -42.853  39.684  30.202  1.00  0.00    -0.219 NA
ATOM     16  C   UNL     1     -44.021  40.084  28.175  1.00  0.00     0.067 A 
ATOM     17  C   UNL     1     -43.722  38.685  30.423  1.00  0.00     0.120 A 
ATOM     18  C   UNL     1     -44.838  39.008  28.509  1.00  0.00     0.150 A 
ATOM     19  C   UNL     1     -44.475  40.610  26.924  1.00  0.00     0.012 A 
ATOM     20  N   UNL     1     -44.730  38.278  29.639  1.00  0.00    -0.218 NA
ATOM     21  H   UNL     1     -43.588  38.137  31.350  1.00  0.00     0.106 H 
ATOM     22  C   UNL     1     -45.553  39.827  26.554  1.00  0.00     0.018 A 
ATOM     23  H   UNL     1     -46.150  39.884  25.656  1.00  0.00     0.083 H 
BRANCH  14  24
ATOM     24  N   UNL     1     -42.068  41.421  28.857  1.00  0.00    -0.383 N 
ATOM     25  H   UNL     1     -41.125  41.063  28.702  1.00  0.00     0.158 HD
ATOM     26  H   UNL     1     -42.149  42.124  29.580  1.00  0.00     0.158 HD
ENDBRANCH  14  24
BRANCH  19  27
ATOM     27  C   UNL     1     -43.874  41.785  26.194  1.00  0.00     0.085 C 
ATOM     28  C   UNL     1     -44.085  43.152  26.832  1.00  0.00    -0.020 C 
ATOM     29  O   UNL     1     -44.452  41.887  24.871  1.00  0.00    -0.373 OA
ATOM     30  H   UNL     1     -42.800  41.595  26.078  1.00  0.00     0.066 H 
ATOM     31  C   UNL     1     -45.392  43.598  26.227  1.00  0.00    -0.027 C 
ATOM     32  H   UNL     1     -43.293  43.833  26.494  1.00  0.00     0.030 H 
ATOM     33  H   UNL     1     -44.080  43.166  27.925  1.00  0.00     0.030 H 
ATOM     34  C   UNL     1     -45.284  43.057  24.819  1.00  0.00     0.048 C 
ATOM     35  H   UNL     1     -46.234  43.130  26.749  1.00  0.00     0.029 H 
ATOM     36  H   UNL     1     -45.537  44.681  26.250  1.00  0.00     0.029 H 
ATOM     37  H   UNL     1     -46.258  42.796  24.396  1.00  0.00     0.057 H 
ATOM     38  H   UNL     1     -44.799  43.778  24.155  1.00  0.00     0.057 H 
ENDBRANCH  19  27
ENDBRANCH   5  13
ENDBRANCH   1   4
BRANCH   1  39
ATOM     39  O   UNL     1     -46.427  33.935  25.333  1.00  0.00    -0.489 OA
BRANCH  39  40
ATOM     40  C   UNL     1     -46.574  32.749  24.666  1.00  0.00     0.122 A 
ATOM     41  C   UNL     1     -45.964  32.417  23.462  1.00  0.00    -0.019 A 
ATOM     42  C   UNL     1     -47.436  31.832  25.280  1.00  0.00     0.007 A 
ATOM     43  C   UNL     1     -46.246  31.187  22.865  1.00  0.00    -0.049 A 
ATOM     44  H   UNL     1     -45.271  33.085  22.963  1.00  0.00     0.066 H 
ATOM     45  C   UNL     1     -47.750  30.614  24.698  1.00  0.00     0.076 A 
ATOM     46  H   UNL     1     -47.903  32.091  26.227  1.00  0.00     0.069 H 
ATOM     47  C   UNL     1     -47.142  30.290  23.471  1.00  0.00     0.001 A 
ATOM     48  H   UNL     1     -45.772  30.936  21.918  1.00  0.00     0.063 H 
ATOM     49  N   UNL     1     -48.624  29.796  25.309  1.00  0.00    -0.231 NA
ATOM     50  C   UNL     1     -47.468  29.063  22.890  1.00  0.00    -0.049 A 
ATOM     51  C   UNL     1     -48.931  28.609  24.741  1.00  0.00     0.129 A 
ATOM     52  C   UNL     1     -48.370  28.219  23.529  1.00  0.00    -0.019 A 
ATOM     53  H   UNL     1     -47.033  28.760  21.941  1.00  0.00     0.063 H 
ATOM     54  H   UNL     1     -48.639  27.272  23.073  1.00  0.00     0.066 H 
BRANCH  51  55
ATOM     55  N   UNL     1     -49.863  27.774  25.385  1.00  0.00    -0.356 N 
ATOM     56  C   UNL     1     -49.522  26.819  26.401  1.00  0.00     0.021 C 
ATOM     57  C   UNL     1     -50.779  26.870  24.751  1.00  0.00     0.021 C 
ATOM     58  C   UNL     1     -50.871  26.157  26.105  1.00  0.00    -0.018 C 
ATOM     59  H   UNL     1     -49.415  27.260  27.395  1.00  0.00     0.049 H 
ATOM     60  H   UNL     1     -48.645  26.214  26.146  1.00  0.00     0.049 H 
ATOM     61  H   UNL     1     -51.697  27.348  24.404  1.00  0.00     0.049 H 
ATOM     62  H   UNL     1     -50.317  26.285  23.950  1.00  0.00     0.049 H 
ATOM     63  H   UNL     1     -51.694  26.500  26.742  1.00  0.00     0.030 H 
ATOM     64  H   UNL     1     -50.869  25.064  26.069  1.00  0.00     0.030 H 
ENDBRANCH  51  55
ENDBRANCH  39  40
ENDBRANCH   1  39
TORSDOF 7
ENDMDL
MODEL 5
REMARK VINA RESULT:     -10.2      2.432     11.455
REMARK SMILES Nc1ncnc2c1c([C@@H]1CCCO1)cn2-c1cncc(COc2ccc3ccc(N4CCC4)nc3c2)c1
REMARK SMILES IDX 21 1 20 4 16 5 17 6 37 7 18 8 19 11 15 13 2 14 3 15 7 16
REMARK SMILES IDX 4 17 6 18 8 19 5 20 14 22 1 24 9 27 10 28 13 29 11 31 12 34
REMARK SMILES IDX 22 39 23 40 24 41 36 42 25 43 35 45 26 47 34 49 27 50 29 51
REMARK SMILES IDX 28 52 30 55 31 56 33 57 32 58
REMARK H PARENT 21 2 21 3 17 9 37 10 19 12 4 21 14 23 1 25 1 26 9 30 10 32
REMARK H PARENT 10 33 11 35 11 36 12 37 12 38 24 44 36 46 25 48 27 53 28 54
REMARK H PARENT 31 59 31 60 33 61 33 62 32 63 32 64
REMARK Flexibility Score: inf
ROOT
ATOM      1  C   UNL     1     -48.461  36.314  27.158  1.00  0.00     0.115 C 
ATOM      2  H   UNL     1     -49.395  36.880  27.252  1.00  0.00     0.076 H 
ATOM      3  H   UNL     1     -48.128  36.440  26.120  1.00  0.00     0.076 H 
ENDROOT
BRANCH   1   4
ATOM      4  C   UNL     1     -47.376  36.870  28.050  1.00  0.00     0.010 A 
ATOM      5  C   UNL     1     -45.630  38.489  28.568  1.00  0.00     0.066 A 
ATOM      6  C   UNL     1     -45.409  37.777  29.740  1.00  0.00     0.051 A 
ATOM      7  C   UNL     1     -46.661  38.034  27.737  1.00  0.00    -0.028 A 
ATOM      8  N   UNL     1     -46.112  36.670  30.100  1.00  0.00    -0.262 NA
ATOM      9  H   UNL     1     -44.631  38.029  30.453  1.00  0.00     0.086 H 
ATOM     10  H   UNL     1     -46.933  38.569  26.832  1.00  0.00     0.065 H 
ATOM     11  C   UNL     1     -47.069  36.242  29.249  1.00  0.00     0.034 A 
ATOM     12  H   UNL     1     -47.595  35.349  29.576  1.00  0.00     0.084 H 
BRANCH   5  13
ATOM     13  N   UNL     1     -44.825  39.607  28.190  1.00  0.00    -0.299 N 
ATOM     14  C   UNL     1     -41.983  41.741  28.508  1.00  0.00     0.136 A 
ATOM     15  N   UNL     1     -41.390  41.267  29.618  1.00  0.00    -0.219 NA
ATOM     16  C   UNL     1     -43.174  41.146  28.058  1.00  0.00     0.067 A 
ATOM     17  C   UNL     1     -41.972  40.240  30.256  1.00  0.00     0.120 A 
ATOM     18  C   UNL     1     -43.660  40.070  28.796  1.00  0.00     0.150 A 
ATOM     19  C   UNL     1     -44.072  41.372  26.967  1.00  0.00     0.012 A 
ATOM     20  N   UNL     1     -43.090  39.584  29.918  1.00  0.00    -0.218 NA
ATOM     21  H   UNL     1     -41.470  39.895  31.155  1.00  0.00     0.106 H 
ATOM     22  C   UNL     1     -45.068  40.421  27.093  1.00  0.00     0.018 A 
ATOM     23  H   UNL     1     -45.913  40.241  26.446  1.00  0.00     0.083 H 
BRANCH  14  24
ATOM     24  N   UNL     1     -41.355  42.793  27.853  1.00  0.00    -0.383 N 
ATOM     25  H   UNL     1     -42.007  43.343  27.292  1.00  0.00     0.158 HD
ATOM     26  H   UNL     1     -40.538  42.458  27.359  1.00  0.00     0.158 HD
ENDBRANCH  14  24
BRANCH  19  27
ATOM     27  C   UNL     1     -43.928  42.446  25.918  1.00  0.00     0.085 C 
ATOM     28  C   UNL     1     -43.989  43.884  26.415  1.00  0.00    -0.020 C 
ATOM     29  O   UNL     1     -44.997  42.331  24.949  1.00  0.00    -0.373 OA
ATOM     30  H   UNL     1     -42.979  42.278  25.393  1.00  0.00     0.066 H 
ATOM     31  C   UNL     1     -45.464  44.191  26.353  1.00  0.00    -0.027 C 
ATOM     32  H   UNL     1     -43.467  44.535  25.701  1.00  0.00     0.030 H 
ATOM     33  H   UNL     1     -43.545  44.061  27.399  1.00  0.00     0.030 H 
ATOM     34  C   UNL     1     -45.883  43.451  25.104  1.00  0.00     0.048 C 
ATOM     35  H   UNL     1     -45.976  43.777  27.229  1.00  0.00     0.029 H 
ATOM     36  H   UNL     1     -45.687  45.259  26.303  1.00  0.00     0.029 H 
ATOM     37  H   UNL     1     -46.916  43.096  25.154  1.00  0.00     0.057 H 
ATOM     38  H   UNL     1     -45.776  44.082  24.216  1.00  0.00     0.057 H 
ENDBRANCH  19  27
ENDBRANCH   5  13
ENDBRANCH   1   4
BRANCH   1  39
ATOM     39  O   UNL     1     -48.714  34.912  27.329  1.00  0.00    -0.489 OA
BRANCH  39  40
ATOM     40  C   UNL     1     -48.095  34.040  26.474  1.00  0.00     0.122 A 
ATOM     41  C   UNL     1     -46.869  34.251  25.853  1.00  0.00    -0.019 A 
ATOM     42  C   UNL     1     -48.804  32.860  26.223  1.00  0.00     0.007 A 
ATOM     43  C   UNL     1     -46.380  33.296  24.960  1.00  0.00    -0.049 A 
ATOM     44  H   UNL     1     -46.274  35.138  26.036  1.00  0.00     0.066 H 
ATOM     45  C   UNL     1     -48.350  31.906  25.325  1.00  0.00     0.076 A 
ATOM     46  H   UNL     1     -49.757  32.695  26.720  1.00  0.00     0.069 H 
ATOM     47  C   UNL     1     -47.118  32.132  24.686  1.00  0.00     0.001 A 
ATOM     48  H   UNL     1     -45.423  33.470  24.469  1.00  0.00     0.063 H 
ATOM     49  N   UNL     1     -49.100  30.817  25.085  1.00  0.00    -0.231 NA
ATOM     50  C   UNL     1     -46.671  31.169  23.779  1.00  0.00    -0.049 A 
ATOM     51  C   UNL     1     -48.658  29.888  24.208  1.00  0.00     0.129 A 
ATOM     52  C   UNL     1     -47.449  30.041  23.537  1.00  0.00    -0.019 A 
ATOM     53  H   UNL     1     -45.729  31.290  23.252  1.00  0.00     0.063 H 
ATOM     54  H   UNL     1     -47.115  29.298  22.821  1.00  0.00     0.066 H 
BRANCH  51  55
ATOM     55  N   UNL     1     -49.465  28.763  23.954  1.00  0.00    -0.356 N 
ATOM     56  C   UNL     1     -49.578  27.636  24.837  1.00  0.00     0.021 C 
ATOM     57  C   UNL     1     -49.423  27.928  22.788  1.00  0.00     0.021 C 
ATOM     58  C   UNL     1     -50.130  26.864  23.636  1.00  0.00    -0.018 C 
ATOM     59  H   UNL     1     -50.275  27.798  25.663  1.00  0.00     0.049 H 
ATOM     60  H   UNL     1     -48.609  27.282  25.208  1.00  0.00     0.049 H 
ATOM     61  H   UNL     1     -49.995  28.321  21.946  1.00  0.00     0.049 H 
ATOM     62  H   UNL     1     -48.403  27.673  22.482  1.00  0.00     0.049 H 
ATOM     63  H   UNL     1     -51.223  26.875  23.554  1.00  0.00     0.030 H 
ATOM     64  H   UNL     1     -49.765  25.840  23.517  1.00  0.00     0.030 H 
ENDBRANCH  51  55
ENDBRANCH  39  40
ENDBRANCH   1  39
TORSDOF 7
ENDMDL
MODEL 6
REMARK VINA RESULT:     -10.1      1.420      2.689
REMARK SMILES Nc1ncnc2c1c([C@@H]1CCCO1)cn2-c1cncc(COc2ccc3ccc(N4CCC4)nc3c2)c1
REMARK SMILES IDX 21 1 20 4 16 5 17 6 37 7 18 8 19 11 15 13 2 14 3 15 7 16
REMARK SMILES IDX 4 17 6 18 8 19 5 20 14 22 1 24 9 27 10 28 13 29 11 31 12 34
REMARK SMILES IDX 22 39 23 40 24 41 36 42 25 43 35 45 26 47 34 49 27 50 29 51
REMARK SMILES IDX 28 52 30 55 31 56 33 57 32 58
REMARK H PARENT 21 2 21 3 17 9 37 10 19 12 4 21 14 23 1 25 1 26 9 30 10 32
REMARK H PARENT 10 33 11 35 11 36 12 37 12 38 24 44 36 46 25 48 27 53 28 54
REMARK H PARENT 31 59 31 60 33 61 33 62 32 63 32 64
REMARK Flexibility Score: inf
ROOT
ATOM      1  C   UNL     1     -46.650  36.798  26.959  1.00  0.00     0.115 C 
ATOM      2  H   UNL     1     -45.822  37.220  26.377  1.00  0.00     0.076 H 
ATOM      3  H   UNL     1     -47.572  37.107  26.452  1.00  0.00     0.076 H 
ENDROOT
BRANCH   1   4
ATOM      4  C   UNL     1     -46.622  35.288  26.961  1.00  0.00     0.010 A 
ATOM      5  C   UNL     1     -47.003  33.123  25.910  1.00  0.00     0.066 A 
ATOM      6  C   UNL     1     -46.549  32.545  27.088  1.00  0.00     0.051 A 
ATOM      7  C   UNL     1     -46.998  34.522  25.850  1.00  0.00    -0.028 A 
ATOM      8  N   UNL     1     -46.133  33.253  28.171  1.00  0.00    -0.262 NA
ATOM      9  H   UNL     1     -46.520  31.473  27.253  1.00  0.00     0.086 H 
ATOM     10  H   UNL     1     -47.285  35.048  24.944  1.00  0.00     0.065 H 
ATOM     11  C   UNL     1     -46.184  34.600  28.084  1.00  0.00     0.034 A 
ATOM     12  H   UNL     1     -45.851  35.121  28.978  1.00  0.00     0.084 H 
BRANCH   5  13
ATOM     13  N   UNL     1     -47.498  32.345  24.818  1.00  0.00    -0.299 N 
ATOM     14  C   UNL     1     -50.105  30.974  22.805  1.00  0.00     0.136 A 
ATOM     15  N   UNL     1     -51.211  31.341  23.476  1.00  0.00    -0.219 NA
ATOM     16  C   UNL     1     -48.843  31.331  23.311  1.00  0.00     0.067 A 
ATOM     17  C   UNL     1     -51.058  32.035  24.614  1.00  0.00     0.120 A 
ATOM     18  C   UNL     1     -48.823  32.074  24.488  1.00  0.00     0.150 A 
ATOM     19  C   UNL     1     -47.489  31.116  22.902  1.00  0.00     0.012 A 
ATOM     20  N   UNL     1     -49.917  32.445  25.186  1.00  0.00    -0.218 NA
ATOM     21  H   UNL     1     -51.974  32.301  25.134  1.00  0.00     0.106 H 
ATOM     22  C   UNL     1     -46.704  31.741  23.855  1.00  0.00     0.018 A 
ATOM     23  H   UNL     1     -45.628  31.832  23.886  1.00  0.00     0.083 H 
BRANCH  14  24
ATOM     24  N   UNL     1     -50.286  30.271  21.620  1.00  0.00    -0.383 N 
ATOM     25  H   UNL     1     -51.190  30.467  21.188  1.00  0.00     0.158 HD
ATOM     26  H   UNL     1     -50.079  29.290  21.761  1.00  0.00     0.158 HD
ENDBRANCH  14  24
BRANCH  19  27
ATOM     27  C   UNL     1     -47.050  30.354  21.678  1.00  0.00     0.085 C 
ATOM     28  C   UNL     1     -45.629  30.612  21.197  1.00  0.00    -0.020 C 
ATOM     29  O   UNL     1     -47.901  30.695  20.557  1.00  0.00    -0.373 OA
ATOM     30  H   UNL     1     -47.181  29.284  21.884  1.00  0.00     0.066 H 
ATOM     31  C   UNL     1     -45.807  31.779  20.259  1.00  0.00    -0.027 C 
ATOM     32  H   UNL     1     -45.282  29.747  20.616  1.00  0.00     0.030 H 
ATOM     33  H   UNL     1     -44.892  30.791  21.985  1.00  0.00     0.030 H 
ATOM     34  C   UNL     1     -47.134  31.458  19.611  1.00  0.00     0.048 C 
ATOM     35  H   UNL     1     -45.877  32.715  20.823  1.00  0.00     0.029 H 
ATOM     36  H   UNL     1     -44.999  31.881  19.530  1.00  0.00     0.029 H 
ATOM     37  H   UNL     1     -47.690  32.356  19.329  1.00  0.00     0.057 H 
ATOM     38  H   UNL     1     -47.000  30.838  18.719  1.00  0.00     0.057 H 
ENDBRANCH  19  27
ENDBRANCH   5  13
ENDBRANCH   1   4
BRANCH   1  39
ATOM     39  O   UNL     1     -46.692  37.396  28.263  1.00  0.00    -0.489 OA
BRANCH  39  40
ATOM     40  C   UNL     1     -45.592  38.095  28.683  1.00  0.00     0.122 A 
ATOM     41  C   UNL     1     -44.826  37.799  29.805  1.00  0.00    -0.019 A 
ATOM     42  C   UNL     1     -45.264  39.203  27.894  1.00  0.00     0.007 A 
ATOM     43  C   UNL     1     -43.759  38.632  30.146  1.00  0.00    -0.049 A 
ATOM     44  H   UNL     1     -45.029  36.937  30.431  1.00  0.00     0.066 H 
ATOM     45  C   UNL     1     -44.223  40.058  28.223  1.00  0.00     0.076 A 
ATOM     46  H   UNL     1     -45.859  39.424  27.011  1.00  0.00     0.069 H 
ATOM     47  C   UNL     1     -43.461  39.763  29.368  1.00  0.00     0.001 A 
ATOM     48  H   UNL     1     -43.168  38.400  31.030  1.00  0.00     0.063 H 
ATOM     49  N   UNL     1     -43.987  41.135  27.455  1.00  0.00    -0.231 NA
ATOM     50  C   UNL     1     -42.419  40.632  29.694  1.00  0.00    -0.049 A 
ATOM     51  C   UNL     1     -42.973  41.970  27.777  1.00  0.00     0.129 A 
ATOM     52  C   UNL     1     -42.176  41.745  28.894  1.00  0.00    -0.019 A 
ATOM     53  H   UNL     1     -41.798  40.459  30.570  1.00  0.00     0.063 H 
ATOM     54  H   UNL     1     -41.378  42.432  29.153  1.00  0.00     0.066 H 
BRANCH  51  55
ATOM     55  N   UNL     1     -42.753  43.104  26.974  1.00  0.00    -0.356 N 
ATOM     56  C   UNL     1     -43.762  44.077  26.659  1.00  0.00     0.021 C 
ATOM     57  C   UNL     1     -42.233  43.115  25.637  1.00  0.00     0.021 C 
ATOM     58  C   UNL     1     -42.856  44.509  25.502  1.00  0.00    -0.018 C 
ATOM     59  H   UNL     1     -43.915  44.816  27.448  1.00  0.00     0.049 H 
ATOM     60  H   UNL     1     -44.714  43.626  26.356  1.00  0.00     0.049 H 
ATOM     61  H   UNL     1     -41.143  43.077  25.590  1.00  0.00     0.049 H 
ATOM     62  H   UNL     1     -42.678  42.346  24.999  1.00  0.00     0.049 H 
ATOM     63  H   UNL     1     -42.176  45.334  25.744  1.00  0.00     0.030 H 
ATOM     64  H   UNL     1     -43.359  44.718  24.554  1.00  0.00     0.030 H 
ENDBRANCH  51  55
ENDBRANCH  39  40
ENDBRANCH   1  39
TORSDOF 7
ENDMDL
MODEL 7
REMARK VINA RESULT:     -10.0      3.345     12.021
REMARK SMILES Nc1ncnc2c1c([C@@H]1CCCO1)cn2-c1cncc(COc2ccc3ccc(N4CCC4)nc3c2)c1
REMARK SMILES IDX 21 1 20 4 16 5 17 6 37 7 18 8 19 11 15 13 2 14 3 15 7 16
REMARK SMILES IDX 4 17 6 18 8 19 5 20 14 22 1 24 9 27 10 28 13 29 11 31 12 34
REMARK SMILES IDX 22 39 23 40 24 41 36 42 25 43 35 45 26 47 34 49 27 50 29 51
REMARK SMILES IDX 28 52 30 55 31 56 33 57 32 58
REMARK H PARENT 21 2 21 3 17 9 37 10 19 12 4 21 14 23 1 25 1 26 9 30 10 32
REMARK H PARENT 10 33 11 35 11 36 12 37 12 38 24 44 36 46 25 48 27 53 28 54
REMARK H PARENT 31 59 31 60 33 61 33 62 32 63 32 64
REMARK Flexibility Score: inf
ROOT
ATOM      1  C   UNL     1     -47.552  34.528  26.131  1.00  0.00     0.115 C 
ATOM      2  H   UNL     1     -48.215  34.903  25.342  1.00  0.00     0.076 H 
ATOM      3  H   UNL     1     -46.631  34.202  25.630  1.00  0.00     0.076 H 
ENDROOT
BRANCH   1   4
ATOM      4  C   UNL     1     -47.173  35.614  27.109  1.00  0.00     0.010 A 
ATOM      5  C   UNL     1     -46.549  37.907  27.650  1.00  0.00     0.066 A 
ATOM      6  C   UNL     1     -46.468  37.503  28.976  1.00  0.00     0.051 A 
ATOM      7  C   UNL     1     -46.946  36.941  26.717  1.00  0.00    -0.028 A 
ATOM      8  N   UNL     1     -46.725  36.238  29.401  1.00  0.00    -0.262 NA
ATOM      9  H   UNL     1     -46.160  38.161  29.782  1.00  0.00     0.086 H 
ATOM     10  H   UNL     1     -47.087  37.193  25.671  1.00  0.00     0.065 H 
ATOM     11  C   UNL     1     -47.064  35.328  28.462  1.00  0.00     0.034 A 
ATOM     12  H   UNL     1     -47.248  34.329  28.850  1.00  0.00     0.084 H 
BRANCH   5  13
ATOM     13  N   UNL     1     -46.204  39.230  27.232  1.00  0.00    -0.299 N 
ATOM     14  C   UNL     1     -46.987  42.584  26.300  1.00  0.00     0.136 A 
ATOM     15  N   UNL     1     -48.331  42.569  26.272  1.00  0.00    -0.219 NA
ATOM     16  C   UNL     1     -46.293  41.405  26.624  1.00  0.00     0.067 A 
ATOM     17  C   UNL     1     -48.956  41.415  26.552  1.00  0.00     0.120 A 
ATOM     18  C   UNL     1     -47.061  40.282  26.920  1.00  0.00     0.150 A 
ATOM     19  C   UNL     1     -44.914  41.039  26.739  1.00  0.00     0.012 A 
ATOM     20  N   UNL     1     -48.409  40.238  26.887  1.00  0.00    -0.218 NA
ATOM     21  H   UNL     1     -50.041  41.439  26.505  1.00  0.00     0.106 H 
ATOM     22  C   UNL     1     -44.907  39.703  27.098  1.00  0.00     0.018 A 
ATOM     23  H   UNL     1     -44.060  39.068  27.312  1.00  0.00     0.083 H 
BRANCH  14  24
ATOM     24  N   UNL     1     -46.360  43.793  26.024  1.00  0.00    -0.383 N 
ATOM     25  H   UNL     1     -46.785  44.572  26.528  1.00  0.00     0.158 HD
ATOM     26  H   UNL     1     -46.275  43.921  25.024  1.00  0.00     0.158 HD
ENDBRANCH  14  24
BRANCH  19  27
ATOM     27  C   UNL     1     -43.739  41.953  26.500  1.00  0.00     0.085 C 
ATOM     28  C   UNL     1     -42.361  41.356  26.748  1.00  0.00    -0.020 C 
ATOM     29  O   UNL     1     -43.823  43.099  27.381  1.00  0.00    -0.373 OA
ATOM     30  H   UNL     1     -43.802  42.318  25.468  1.00  0.00     0.066 H 
ATOM     31  C   UNL     1     -42.136  41.646  28.211  1.00  0.00    -0.027 C 
ATOM     32  H   UNL     1     -41.616  41.912  26.164  1.00  0.00     0.030 H 
ATOM     33  H   UNL     1     -42.253  40.299  26.489  1.00  0.00     0.030 H 
ATOM     34  C   UNL     1     -42.776  43.006  28.361  1.00  0.00     0.048 C 
ATOM     35  H   UNL     1     -42.659  40.910  28.831  1.00  0.00     0.029 H 
ATOM     36  H   UNL     1     -41.081  41.645  28.500  1.00  0.00     0.029 H 
ATOM     37  H   UNL     1     -43.193  43.165  29.358  1.00  0.00     0.057 H 
ATOM     38  H   UNL     1     -42.059  43.806  28.152  1.00  0.00     0.057 H 
ENDBRANCH  19  27
ENDBRANCH   5  13
ENDBRANCH   1   4
BRANCH   1  39
ATOM     39  O   UNL     1     -48.116  33.354  26.732  1.00  0.00    -0.489 OA
BRANCH  39  40
ATOM     40  C   UNL     1     -48.639  32.398  25.904  1.00  0.00     0.122 A 
ATOM     41  C   UNL     1     -49.579  32.621  24.904  1.00  0.00    -0.019 A 
ATOM     42  C   UNL     1     -48.171  31.100  26.136  1.00  0.00     0.007 A 
ATOM     43  C   UNL     1     -50.066  31.540  24.168  1.00  0.00    -0.049 A 
ATOM     44  H   UNL     1     -49.951  33.613  24.673  1.00  0.00     0.066 H 
ATOM     45  C   UNL     1     -48.654  30.007  25.433  1.00  0.00     0.076 A 
ATOM     46  H   UNL     1     -47.427  30.931  26.912  1.00  0.00     0.069 H 
ATOM     47  C   UNL     1     -49.617  30.236  24.433  1.00  0.00     0.001 A 
ATOM     48  H   UNL     1     -50.808  31.720  23.391  1.00  0.00     0.063 H 
ATOM     49  N   UNL     1     -48.204  28.777  25.735  1.00  0.00    -0.231 NA
ATOM     50  C   UNL     1     -50.102  29.129  23.734  1.00  0.00    -0.049 A 
ATOM     51  C   UNL     1     -48.677  27.711  25.051  1.00  0.00     0.129 A 
ATOM     52  C   UNL     1     -49.629  27.858  24.048  1.00  0.00    -0.019 A 
ATOM     53  H   UNL     1     -50.850  29.243  22.954  1.00  0.00     0.063 H 
ATOM     54  H   UNL     1     -50.016  26.993  23.520  1.00  0.00     0.066 H 
BRANCH  51  55
ATOM     55  N   UNL     1     -48.209  26.429  25.394  1.00  0.00    -0.356 N 
ATOM     56  C   UNL     1     -48.763  25.625  26.448  1.00  0.00     0.021 C 
ATOM     57  C   UNL     1     -46.863  26.075  25.742  1.00  0.00     0.021 C 
ATOM     58  C   UNL     1     -47.458  24.825  26.400  1.00  0.00    -0.018 C 
ATOM     59  H   UNL     1     -49.665  25.084  26.156  1.00  0.00     0.049 H 
ATOM     60  H   UNL     1     -48.926  26.185  27.375  1.00  0.00     0.049 H 
ATOM     61  H   UNL     1     -46.220  25.897  24.879  1.00  0.00     0.049 H 
ATOM     62  H   UNL     1     -46.400  26.786  26.433  1.00  0.00     0.049 H 
ATOM     63  H   UNL     1     -47.490  23.944  25.748  1.00  0.00     0.030 H 
ATOM     64  H   UNL     1     -47.031  24.547  27.368  1.00  0.00     0.030 H 
ENDBRANCH  51  55
ENDBRANCH  39  40
ENDBRANCH   1  39
TORSDOF 7
ENDMDL
