MODEL 1
REMARK VINA RESULT:     -11.2      0.000      0.000
REMARK SMILES O=c1cc(-c2cn(Cc3ccc4cc(CNCC5CCC5)[nH]c4c3)nn2)nc2ccccn12
REMARK SMILES IDX 9 1 10 2 11 3 12 4 13 5 14 6 22 7 23 8 24 9 8 15 7 18 5 19
REMARK SMILES IDX 6 20 26 21 25 23 4 24 1 25 2 26 3 27 33 28 28 30 32 31 27 32
REMARK SMILES IDX 29 33 31 34 30 36 15 40 16 43 17 45 18 48 19 49 21 50 20 52
REMARK H PARENT 10 10 11 11 13 12 22 13 24 14 8 16 8 17 6 22 3 29 32 35 29 37
REMARK H PARENT 31 38 30 39 15 41 15 42 16 44 17 46 17 47 18 51 19 53 19 54
REMARK H PARENT 21 55 21 56 20 57 20 58
REMARK Flexibility Score: inf
ROOT
ATOM      1  C   UNL     1     -48.014  34.253  26.327  1.00  0.00    -0.024 A 
ATOM      2  C   UNL     1     -46.720  34.381  25.804  1.00  0.00    -0.056 A 
ATOM      3  C   UNL     1     -46.177  33.403  24.962  1.00  0.00    -0.052 A 
ATOM      4  C   UNL     1     -46.945  32.270  24.639  1.00  0.00    -0.000 A 
ATOM      5  C   UNL     1     -46.718  31.119  23.832  1.00  0.00    -0.032 A 
ATOM      6  C   UNL     1     -47.850  30.330  23.886  1.00  0.00     0.030 A 
ATOM      7  N   UNL     1     -48.750  30.970  24.706  1.00  0.00    -0.357 N 
ATOM      8  C   UNL     1     -48.227  32.153  25.172  1.00  0.00     0.046 A 
ATOM      9  C   UNL     1     -48.789  33.121  26.014  1.00  0.00    -0.033 A 
ATOM     10  H   UNL     1     -46.116  35.257  26.043  1.00  0.00     0.063 H 
ATOM     11  H   UNL     1     -45.175  33.522  24.561  1.00  0.00     0.063 H 
ATOM     12  H   UNL     1     -45.818  30.896  23.274  1.00  0.00     0.065 H 
ATOM     13  H   UNL     1     -49.679  30.618  24.898  1.00  0.00     0.166 HD
ATOM     14  H   UNL     1     -49.793  32.992  26.408  1.00  0.00     0.065 H 
ENDROOT
BRANCH   1  15
ATOM     15  C   UNL     1     -48.578  35.328  27.227  1.00  0.00     0.068 C 
ATOM     16  H   UNL     1     -49.214  36.027  26.672  1.00  0.00     0.057 H 
ATOM     17  H   UNL     1     -49.191  34.874  28.014  1.00  0.00     0.057 H 
BRANCH  15  18
ATOM     18  N   UNL     1     -47.530  36.118  27.848  1.00  0.00    -0.247 N 
ATOM     19  C   UNL     1     -46.024  37.581  28.353  1.00  0.00     0.131 A 
ATOM     20  C   UNL     1     -46.886  37.212  27.343  1.00  0.00     0.055 A 
ATOM     21  N   UNL     1     -46.190  36.731  29.418  1.00  0.00    -0.129 NA
ATOM     22  H   UNL     1     -47.085  37.595  26.355  1.00  0.00     0.086 H 
ATOM     23  N   UNL     1     -47.120  35.839  29.098  1.00  0.00    -0.066 NA
BRANCH  19  24
ATOM     24  C   UNL     1     -45.078  38.662  28.377  1.00  0.00     0.100 A 
ATOM     25  O   UNL     1     -42.545  40.182  30.296  1.00  0.00    -0.269 OA
ATOM     26  C   UNL     1     -43.308  40.006  29.348  1.00  0.00     0.258 A 
ATOM     27  C   UNL     1     -44.245  38.875  29.404  1.00  0.00     0.032 A 
ATOM     28  N   UNL     1     -43.370  40.787  28.208  1.00  0.00    -0.268 N 
ATOM     29  H   UNL     1     -44.211  38.265  30.295  1.00  0.00     0.071 H 
ATOM     30  C   UNL     1     -44.279  40.464  27.209  1.00  0.00     0.140 A 
ATOM     31  C   UNL     1     -42.520  41.879  28.079  1.00  0.00     0.014 A 
ATOM     32  N   UNL     1     -45.098  39.462  27.263  1.00  0.00    -0.228 NA
ATOM     33  C   UNL     1     -44.297  41.340  26.004  1.00  0.00    -0.019 A 
ATOM     34  C   UNL     1     -42.541  42.663  26.993  1.00  0.00    -0.045 A 
ATOM     35  H   UNL     1     -41.835  42.070  28.900  1.00  0.00     0.082 H 
ATOM     36  C   UNL     1     -43.460  42.382  25.924  1.00  0.00    -0.057 A 
ATOM     37  H   UNL     1     -45.005  41.093  25.224  1.00  0.00     0.066 H 
ATOM     38  H   UNL     1     -41.873  43.513  26.901  1.00  0.00     0.064 H 
ATOM     39  H   UNL     1     -43.459  43.031  25.054  1.00  0.00     0.062 H 
ENDBRANCH  19  24
ENDBRANCH  15  18
ENDBRANCH   1  15
BRANCH   6  40
ATOM     40  C   UNL     1     -48.170  29.023  23.253  1.00  0.00     0.036 C 
ATOM     41  H   UNL     1     -49.257  28.888  23.211  1.00  0.00     0.049 H 
ATOM     42  H   UNL     1     -47.786  29.026  22.226  1.00  0.00     0.049 H 
BRANCH  40  43
ATOM     43  N   UNL     1     -47.550  27.951  24.030  1.00  0.00    -0.311 NA
ATOM     44  H   UNL     1     -46.907  28.386  24.693  1.00  0.00     0.123 HD
BRANCH  43  45
ATOM     45  C   UNL     1     -48.559  27.194  24.773  1.00  0.00    -0.002 C 
ATOM     46  H   UNL     1     -49.468  27.797  24.890  1.00  0.00     0.043 H 
ATOM     47  H   UNL     1     -48.832  26.293  24.210  1.00  0.00     0.043 H 
BRANCH  45  48
ATOM     48  C   UNL     1     -48.070  26.760  26.161  1.00  0.00    -0.029 C 
ATOM     49  C   UNL     1     -46.653  26.149  26.313  1.00  0.00    -0.049 C 
ATOM     50  C   UNL     1     -48.633  25.453  26.778  1.00  0.00    -0.049 C 
ATOM     51  H   UNL     1     -48.210  27.617  26.837  1.00  0.00     0.032 H 
ATOM     52  C   UNL     1     -47.304  24.759  26.430  1.00  0.00    -0.053 C 
ATOM     53  H   UNL     1     -45.970  26.281  25.469  1.00  0.00     0.027 H 
ATOM     54  H   UNL     1     -46.140  26.467  27.229  1.00  0.00     0.027 H 
ATOM     55  H   UNL     1     -48.815  25.527  27.856  1.00  0.00     0.027 H 
ATOM     56  H   UNL     1     -49.522  25.032  26.302  1.00  0.00     0.027 H 
ATOM     57  H   UNL     1     -46.894  24.113  27.213  1.00  0.00     0.027 H 
ATOM     58  H   UNL     1     -47.328  24.196  25.491  1.00  0.00     0.027 H 
ENDBRANCH  45  48
ENDBRANCH  43  45
ENDBRANCH  40  43
ENDBRANCH   6  40
TORSDOF 7
ENDMDL
MODEL 2
REMARK VINA RESULT:     -10.5      1.533      2.198
REMARK SMILES O=c1cc(-c2cn(Cc3ccc4cc(CNCC5CCC5)[nH]c4c3)nn2)nc2ccccn12
REMARK SMILES IDX 9 1 10 2 11 3 12 4 13 5 14 6 22 7 23 8 24 9 8 15 7 18 5 19
REMARK SMILES IDX 6 20 26 21 25 23 4 24 1 25 2 26 3 27 33 28 28 30 32 31 27 32
REMARK SMILES IDX 29 33 31 34 30 36 15 40 16 43 17 45 18 48 19 49 21 50 20 52
REMARK H PARENT 10 10 11 11 13 12 22 13 24 14 8 16 8 17 6 22 3 29 32 35 29 37
REMARK H PARENT 31 38 30 39 15 41 15 42 16 44 17 46 17 47 18 51 19 53 19 54
REMARK H PARENT 21 55 21 56 20 57 20 58
REMARK Flexibility Score: inf
ROOT
ATOM      1  C   UNL     1     -48.349  35.044  26.857  1.00  0.00    -0.024 A 
ATOM      2  C   UNL     1     -46.999  35.218  26.517  1.00  0.00    -0.056 A 
ATOM      3  C   UNL     1     -46.321  34.277  25.732  1.00  0.00    -0.052 A 
ATOM      4  C   UNL     1     -47.008  33.135  25.281  1.00  0.00    -0.000 A 
ATOM      5  C   UNL     1     -46.642  32.012  24.486  1.00  0.00    -0.032 A 
ATOM      6  C   UNL     1     -47.748  31.195  24.367  1.00  0.00     0.030 A 
ATOM      7  N   UNL     1     -48.768  31.790  25.074  1.00  0.00    -0.357 N 
ATOM      8  C   UNL     1     -48.346  32.972  25.634  1.00  0.00     0.046 A 
ATOM      9  C   UNL     1     -49.042  33.903  26.415  1.00  0.00    -0.033 A 
ATOM     10  H   UNL     1     -46.458  36.101  26.856  1.00  0.00     0.063 H 
ATOM     11  H   UNL     1     -45.279  34.431  25.474  1.00  0.00     0.063 H 
ATOM     12  H   UNL     1     -45.670  31.826  24.049  1.00  0.00     0.065 H 
ATOM     13  H   UNL     1     -49.704  31.410  25.130  1.00  0.00     0.166 HD
ATOM     14  H   UNL     1     -50.086  33.739  26.667  1.00  0.00     0.065 H 
ENDROOT
BRANCH   1  15
ATOM     15  C   UNL     1     -49.058  36.081  27.697  1.00  0.00     0.068 C 
ATOM     16  H   UNL     1     -50.064  36.289  27.317  1.00  0.00     0.057 H 
ATOM     17  H   UNL     1     -49.159  35.721  28.728  1.00  0.00     0.057 H 
BRANCH  15  18
ATOM     18  N   UNL     1     -48.346  37.345  27.711  1.00  0.00    -0.247 N 
ATOM     19  C   UNL     1     -46.888  38.936  27.598  1.00  0.00     0.131 A 
ATOM     20  C   UNL     1     -47.012  37.566  27.514  1.00  0.00     0.055 A 
ATOM     21  N   UNL     1     -48.127  39.485  27.815  1.00  0.00    -0.129 NA
ATOM     22  H   UNL     1     -46.310  36.762  27.354  1.00  0.00     0.086 H 
ATOM     23  N   UNL     1     -49.014  38.500  27.878  1.00  0.00    -0.066 NA
BRANCH  19  24
ATOM     24  C   UNL     1     -45.702  39.740  27.486  1.00  0.00     0.100 A 
ATOM     25  O   UNL     1     -44.029  42.069  25.440  1.00  0.00    -0.269 OA
ATOM     26  C   UNL     1     -44.226  41.331  26.405  1.00  0.00     0.258 A 
ATOM     27  C   UNL     1     -45.466  40.542  26.440  1.00  0.00     0.032 A 
ATOM     28  N   UNL     1     -43.376  41.170  27.483  1.00  0.00    -0.268 N 
ATOM     29  H   UNL     1     -46.133  40.654  25.597  1.00  0.00     0.071 H 
ATOM     30  C   UNL     1     -43.732  40.306  28.509  1.00  0.00     0.140 A 
ATOM     31  C   UNL     1     -42.180  41.878  27.524  1.00  0.00     0.014 A 
ATOM     32  N   UNL     1     -44.830  39.618  28.537  1.00  0.00    -0.228 NA
ATOM     33  C   UNL     1     -42.777  40.177  29.645  1.00  0.00    -0.019 A 
ATOM     34  C   UNL     1     -41.325  41.757  28.547  1.00  0.00    -0.045 A 
ATOM     35  H   UNL     1     -41.968  42.536  26.685  1.00  0.00     0.082 H 
ATOM     36  C   UNL     1     -41.636  40.878  29.641  1.00  0.00    -0.057 A 
ATOM     37  H   UNL     1     -43.051  39.503  30.447  1.00  0.00     0.066 H 
ATOM     38  H   UNL     1     -40.394  42.314  28.570  1.00  0.00     0.064 H 
ATOM     39  H   UNL     1     -40.929  40.796  30.460  1.00  0.00     0.062 H 
ENDBRANCH  19  24
ENDBRANCH  15  18
ENDBRANCH   1  15
BRANCH   6  40
ATOM     40  C   UNL     1     -47.945  29.898  23.667  1.00  0.00     0.036 C 
ATOM     41  H   UNL     1     -49.015  29.711  23.524  1.00  0.00     0.049 H 
ATOM     42  H   UNL     1     -47.473  29.957  22.678  1.00  0.00     0.049 H 
BRANCH  40  43
ATOM     43  N   UNL     1     -47.340  28.829  24.460  1.00  0.00    -0.311 NA
ATOM     44  H   UNL     1     -46.759  29.270  25.176  1.00  0.00     0.123 HD
BRANCH  43  45
ATOM     45  C   UNL     1     -48.368  28.018  25.114  1.00  0.00    -0.002 C 
ATOM     46  H   UNL     1     -48.568  28.409  26.120  1.00  0.00     0.043 H 
ATOM     47  H   UNL     1     -49.303  28.081  24.546  1.00  0.00     0.043 H 
BRANCH  45  48
ATOM     48  C   UNL     1     -47.974  26.540  25.225  1.00  0.00    -0.029 C 
ATOM     49  C   UNL     1     -48.228  25.782  26.553  1.00  0.00    -0.049 C 
ATOM     50  C   UNL     1     -46.474  26.174  25.374  1.00  0.00    -0.049 C 
ATOM     51  H   UNL     1     -48.433  26.017  24.373  1.00  0.00     0.032 H 
ATOM     52  C   UNL     1     -46.726  25.902  26.868  1.00  0.00    -0.053 C 
ATOM     53  H   UNL     1     -48.901  26.261  27.271  1.00  0.00     0.027 H 
ATOM     54  H   UNL     1     -48.559  24.746  26.405  1.00  0.00     0.027 H 
ATOM     55  H   UNL     1     -46.190  25.278  24.812  1.00  0.00     0.027 H 
ATOM     56  H   UNL     1     -45.755  26.967  25.155  1.00  0.00     0.027 H 
ATOM     57  H   UNL     1     -46.256  24.998  27.266  1.00  0.00     0.027 H 
ATOM     58  H   UNL     1     -46.473  26.743  27.523  1.00  0.00     0.027 H 
ENDBRANCH  45  48
ENDBRANCH  43  45
ENDBRANCH  40  43
ENDBRANCH   6  40
TORSDOF 7
ENDMDL
MODEL 3
REMARK VINA RESULT:      -9.9      3.138     11.633
REMARK SMILES O=c1cc(-c2cn(Cc3ccc4cc(CNCC5CCC5)[nH]c4c3)nn2)nc2ccccn12
REMARK SMILES IDX 9 1 10 2 11 3 12 4 13 5 14 6 22 7 23 8 24 9 8 15 7 18 5 19
REMARK SMILES IDX 6 20 26 21 25 23 4 24 1 25 2 26 3 27 33 28 28 30 32 31 27 32
REMARK SMILES IDX 29 33 31 34 30 36 15 40 16 43 17 45 18 48 19 49 21 50 20 52
REMARK H PARENT 10 10 11 11 13 12 22 13 24 14 8 16 8 17 6 22 3 29 32 35 29 37
REMARK H PARENT 31 38 30 39 15 41 15 42 16 44 17 46 17 47 18 51 19 53 19 54
REMARK H PARENT 21 55 21 56 20 57 20 58
REMARK Flexibility Score: inf
ROOT
ATOM      1  C   UNL     1     -46.284  37.264  28.212  1.00  0.00    -0.024 A 
ATOM      2  C   UNL     1     -46.864  37.785  27.047  1.00  0.00    -0.056 A 
ATOM      3  C   UNL     1     -46.403  38.979  26.478  1.00  0.00    -0.052 A 
ATOM      4  C   UNL     1     -45.341  39.669  27.091  1.00  0.00    -0.000 A 
ATOM      5  C   UNL     1     -44.639  40.870  26.791  1.00  0.00    -0.032 A 
ATOM      6  C   UNL     1     -43.674  41.054  27.760  1.00  0.00     0.030 A 
ATOM      7  N   UNL     1     -43.779  40.001  28.640  1.00  0.00    -0.357 N 
ATOM      8  C   UNL     1     -44.780  39.143  28.252  1.00  0.00     0.046 A 
ATOM      9  C   UNL     1     -45.225  37.949  28.836  1.00  0.00    -0.033 A 
ATOM     10  H   UNL     1     -47.684  37.258  26.560  1.00  0.00     0.063 H 
ATOM     11  H   UNL     1     -46.860  39.364  25.572  1.00  0.00     0.063 H 
ATOM     12  H   UNL     1     -44.824  41.528  25.951  1.00  0.00     0.065 H 
ATOM     13  H   UNL     1     -43.168  39.876  29.436  1.00  0.00     0.166 HD
ATOM     14  H   UNL     1     -44.760  37.572  29.742  1.00  0.00     0.065 H 
ENDROOT
BRANCH   1  15
ATOM     15  C   UNL     1     -46.795  35.970  28.800  1.00  0.00     0.068 C 
ATOM     16  H   UNL     1     -45.993  35.400  29.282  1.00  0.00     0.057 H 
ATOM     17  H   UNL     1     -47.557  36.178  29.559  1.00  0.00     0.057 H 
BRANCH  15  18
ATOM     18  N   UNL     1     -47.370  35.105  27.785  1.00  0.00    -0.247 N 
ATOM     19  C   UNL     1     -47.755  33.623  26.261  1.00  0.00     0.131 A 
ATOM     20  C   UNL     1     -46.740  34.164  27.022  1.00  0.00     0.055 A 
ATOM     21  N   UNL     1     -48.940  34.227  26.601  1.00  0.00    -0.129 NA
ATOM     22  H   UNL     1     -45.677  33.987  27.081  1.00  0.00     0.086 H 
ATOM     23  N   UNL     1     -48.692  35.132  27.540  1.00  0.00    -0.066 NA
BRANCH  19  24
ATOM     24  C   UNL     1     -47.679  32.595  25.261  1.00  0.00     0.100 A 
ATOM     25  O   UNL     1     -45.504  30.958  23.025  1.00  0.00    -0.269 OA
ATOM     26  C   UNL     1     -46.556  31.227  23.603  1.00  0.00     0.258 A 
ATOM     27  C   UNL     1     -46.545  32.294  24.615  1.00  0.00     0.032 A 
ATOM     28  N   UNL     1     -47.774  30.607  23.391  1.00  0.00    -0.268 N 
ATOM     29  H   UNL     1     -45.600  32.791  24.781  1.00  0.00     0.071 H 
ATOM     30  C   UNL     1     -48.881  31.009  24.125  1.00  0.00     0.140 A 
ATOM     31  C   UNL     1     -47.869  29.590  22.448  1.00  0.00     0.014 A 
ATOM     32  N   UNL     1     -48.864  31.947  25.019  1.00  0.00    -0.228 NA
ATOM     33  C   UNL     1     -50.164  30.302  23.853  1.00  0.00    -0.019 A 
ATOM     34  C   UNL     1     -49.026  28.959  22.208  1.00  0.00    -0.045 A 
ATOM     35  H   UNL     1     -46.961  29.328  21.911  1.00  0.00     0.082 H 
ATOM     36  C   UNL     1     -50.209  29.329  22.935  1.00  0.00    -0.057 A 
ATOM     37  H   UNL     1     -51.031  30.614  24.423  1.00  0.00     0.066 H 
ATOM     38  H   UNL     1     -49.090  28.166  21.469  1.00  0.00     0.064 H 
ATOM     39  H   UNL     1     -51.135  28.804  22.724  1.00  0.00     0.062 H 
ENDBRANCH  19  24
ENDBRANCH  15  18
ENDBRANCH   1  15
BRANCH   6  40
ATOM     40  C   UNL     1     -42.666  42.130  27.956  1.00  0.00     0.036 C 
ATOM     41  H   UNL     1     -42.668  42.454  29.004  1.00  0.00     0.049 H 
ATOM     42  H   UNL     1     -41.673  41.728  27.724  1.00  0.00     0.049 H 
BRANCH  40  43
ATOM     43  N   UNL     1     -42.985  43.251  27.073  1.00  0.00    -0.311 NA
ATOM     44  H   UNL     1     -42.827  44.111  27.600  1.00  0.00     0.123 HD
BRANCH  43  45
ATOM     45  C   UNL     1     -42.118  43.249  25.894  1.00  0.00    -0.002 C 
ATOM     46  H   UNL     1     -41.119  43.617  26.163  1.00  0.00     0.043 H 
ATOM     47  H   UNL     1     -42.001  42.223  25.524  1.00  0.00     0.043 H 
BRANCH  45  48
ATOM     48  C   UNL     1     -42.671  44.109  24.751  1.00  0.00    -0.029 C 
ATOM     49  C   UNL     1     -44.187  44.431  24.705  1.00  0.00    -0.049 C 
ATOM     50  C   UNL     1     -42.825  43.476  23.344  1.00  0.00    -0.049 C 
ATOM     51  H   UNL     1     -42.067  45.029  24.714  1.00  0.00     0.032 H 
ATOM     52  C   UNL     1     -44.341  43.377  23.593  1.00  0.00    -0.053 C 
ATOM     53  H   UNL     1     -44.757  44.239  25.619  1.00  0.00     0.027 H 
ATOM     54  H   UNL     1     -44.404  45.451  24.367  1.00  0.00     0.027 H 
ATOM     55  H   UNL     1     -42.563  44.161  22.530  1.00  0.00     0.027 H 
ATOM     56  H   UNL     1     -42.312  42.525  23.178  1.00  0.00     0.027 H 
ATOM     57  H   UNL     1     -44.974  43.671  22.751  1.00  0.00     0.027 H 
ATOM     58  H   UNL     1     -44.670  42.395  23.951  1.00  0.00     0.027 H 
ENDBRANCH  45  48
ENDBRANCH  43  45
ENDBRANCH  40  43
ENDBRANCH   6  40
TORSDOF 7
ENDMDL
MODEL 4
REMARK VINA RESULT:      -9.9      3.796     11.162
REMARK SMILES O=c1cc(-c2cn(Cc3ccc4cc(CNCC5CCC5)[nH]c4c3)nn2)nc2ccccn12
REMARK SMILES IDX 9 1 10 2 11 3 12 4 13 5 14 6 22 7 23 8 24 9 8 15 7 18 5 19
REMARK SMILES IDX 6 20 26 21 25 23 4 24 1 25 2 26 3 27 33 28 28 30 32 31 27 32
REMARK SMILES IDX 29 33 31 34 30 36 15 40 16 43 17 45 18 48 19 49 21 50 20 52
REMARK H PARENT 10 10 11 11 13 12 22 13 24 14 8 16 8 17 6 22 3 29 32 35 29 37
REMARK H PARENT 31 38 30 39 15 41 15 42 16 44 17 46 17 47 18 51 19 53 19 54
REMARK H PARENT 21 55 21 56 20 57 20 58
REMARK Flexibility Score: inf
ROOT
ATOM      1  C   UNL     1     -46.223  35.443  28.167  1.00  0.00    -0.024 A 
ATOM      2  C   UNL     1     -46.389  35.999  29.443  1.00  0.00    -0.056 A 
ATOM      3  C   UNL     1     -46.556  37.379  29.617  1.00  0.00    -0.052 A 
ATOM      4  C   UNL     1     -46.553  38.220  28.490  1.00  0.00    -0.000 A 
ATOM      5  C   UNL     1     -46.698  39.624  28.305  1.00  0.00    -0.032 A 
ATOM      6  C   UNL     1     -46.613  39.887  26.952  1.00  0.00     0.030 A 
ATOM      7  N   UNL     1     -46.414  38.683  26.318  1.00  0.00    -0.357 N 
ATOM      8  C   UNL     1     -46.380  37.654  27.230  1.00  0.00     0.046 A 
ATOM      9  C   UNL     1     -46.213  36.276  27.034  1.00  0.00    -0.033 A 
ATOM     10  H   UNL     1     -46.397  35.357  30.324  1.00  0.00     0.063 H 
ATOM     11  H   UNL     1     -46.689  37.791  30.613  1.00  0.00     0.063 H 
ATOM     12  H   UNL     1     -46.849  40.361  29.083  1.00  0.00     0.065 H 
ATOM     13  H   UNL     1     -46.343  38.585  25.314  1.00  0.00     0.166 HD
ATOM     14  H   UNL     1     -46.082  35.875  26.033  1.00  0.00     0.065 H 
ENDROOT
BRANCH   1  15
ATOM     15  C   UNL     1     -46.053  33.950  28.007  1.00  0.00     0.068 C 
ATOM     16  H   UNL     1     -45.022  33.687  27.743  1.00  0.00     0.057 H 
ATOM     17  H   UNL     1     -46.296  33.442  28.947  1.00  0.00     0.057 H 
BRANCH  15  18
ATOM     18  N   UNL     1     -46.902  33.419  26.955  1.00  0.00    -0.247 N 
ATOM     19  C   UNL     1     -47.730  32.414  25.232  1.00  0.00     0.131 A 
ATOM     20  C   UNL     1     -46.536  32.673  25.871  1.00  0.00     0.055 A 
ATOM     21  N   UNL     1     -48.754  32.980  25.949  1.00  0.00    -0.129 NA
ATOM     22  H   UNL     1     -45.508  32.422  25.661  1.00  0.00     0.086 H 
ATOM     23  N   UNL     1     -48.235  33.591  27.007  1.00  0.00    -0.066 NA
BRANCH  19  24
ATOM     24  C   UNL     1     -47.959  31.681  24.017  1.00  0.00     0.100 A 
ATOM     25  O   UNL     1     -46.398  29.729  21.536  1.00  0.00    -0.269 OA
ATOM     26  C   UNL     1     -47.305  30.317  22.123  1.00  0.00     0.258 A 
ATOM     27  C   UNL     1     -46.983  31.043  23.360  1.00  0.00     0.032 A 
ATOM     28  N   UNL     1     -48.628  30.359  21.723  1.00  0.00    -0.268 N 
ATOM     29  H   UNL     1     -45.950  31.024  23.675  1.00  0.00     0.071 H 
ATOM     30  C   UNL     1     -49.550  31.057  22.492  1.00  0.00     0.140 A 
ATOM     31  C   UNL     1     -49.014  29.701  20.561  1.00  0.00     0.014 A 
ATOM     32  N   UNL     1     -49.261  31.690  23.584  1.00  0.00    -0.228 NA
ATOM     33  C   UNL     1     -50.961  31.064  22.011  1.00  0.00    -0.019 A 
ATOM     34  C   UNL     1     -50.284  29.711  20.135  1.00  0.00    -0.045 A 
ATOM     35  H   UNL     1     -48.238  29.175  20.011  1.00  0.00     0.082 H 
ATOM     36  C   UNL     1     -51.286  30.417  20.886  1.00  0.00    -0.057 A 
ATOM     37  H   UNL     1     -51.683  31.608  22.607  1.00  0.00     0.066 H 
ATOM     38  H   UNL     1     -50.575  29.194  19.226  1.00  0.00     0.064 H 
ATOM     39  H   UNL     1     -52.309  30.412  20.521  1.00  0.00     0.062 H 
ENDBRANCH  19  24
ENDBRANCH  15  18
ENDBRANCH   1  15
BRANCH   6  40
ATOM     40  C   UNL     1     -46.685  41.162  26.190  1.00  0.00     0.036 C 
ATOM     41  H   UNL     1     -47.423  41.071  25.384  1.00  0.00     0.049 H 
ATOM     42  H   UNL     1     -47.016  41.958  26.868  1.00  0.00     0.049 H 
BRANCH  40  43
ATOM     43  N   UNL     1     -45.364  41.468  25.644  1.00  0.00    -0.311 NA
ATOM     44  H   UNL     1     -45.494  42.137  24.884  1.00  0.00     0.123 HD
BRANCH  43  45
ATOM     45  C   UNL     1     -44.504  42.070  26.665  1.00  0.00    -0.002 C 
ATOM     46  H   UNL     1     -44.114  43.031  26.306  1.00  0.00     0.043 H 
ATOM     47  H   UNL     1     -45.091  42.270  27.569  1.00  0.00     0.043 H 
BRANCH  45  48
ATOM     48  C   UNL     1     -43.324  41.169  27.050  1.00  0.00    -0.029 C 
ATOM     49  C   UNL     1     -43.102  40.801  28.540  1.00  0.00    -0.049 C 
ATOM     50  C   UNL     1     -41.893  41.767  27.048  1.00  0.00    -0.049 C 
ATOM     51  H   UNL     1     -43.384  40.268  26.421  1.00  0.00     0.032 H 
ATOM     52  C   UNL     1     -41.954  41.825  28.585  1.00  0.00    -0.053 C 
ATOM     53  H   UNL     1     -43.935  40.995  29.222  1.00  0.00     0.027 H 
ATOM     54  H   UNL     1     -42.766  39.767  28.685  1.00  0.00     0.027 H 
ATOM     55  H   UNL     1     -41.135  41.073  26.669  1.00  0.00     0.027 H 
ATOM     56  H   UNL     1     -41.767  42.729  26.545  1.00  0.00     0.027 H 
ATOM     57  H   UNL     1     -41.049  41.494  29.103  1.00  0.00     0.027 H 
ATOM     58  H   UNL     1     -42.244  42.804  28.982  1.00  0.00     0.027 H 
ENDBRANCH  45  48
ENDBRANCH  43  45
ENDBRANCH  40  43
ENDBRANCH   6  40
TORSDOF 7
ENDMDL
MODEL 5
REMARK VINA RESULT:      -9.7      2.574      4.849
REMARK SMILES O=c1cc(-c2cn(Cc3ccc4cc(CNCC5CCC5)[nH]c4c3)nn2)nc2ccccn12
REMARK SMILES IDX 9 1 10 2 11 3 12 4 13 5 14 6 22 7 23 8 24 9 8 15 7 18 5 19
REMARK SMILES IDX 6 20 26 21 25 23 4 24 1 25 2 26 3 27 33 28 28 30 32 31 27 32
REMARK SMILES IDX 29 33 31 34 30 36 15 40 16 43 17 45 18 48 19 49 21 50 20 52
REMARK H PARENT 10 10 11 11 13 12 22 13 24 14 8 16 8 17 6 22 3 29 32 35 29 37
REMARK H PARENT 31 38 30 39 15 41 15 42 16 44 17 46 17 47 18 51 19 53 19 54
REMARK H PARENT 21 55 21 56 20 57 20 58
REMARK Flexibility Score: inf
ROOT
ATOM      1  C   UNL     1     -45.616  37.368  29.261  1.00  0.00    -0.024 A 
ATOM      2  C   UNL     1     -46.849  37.997  29.034  1.00  0.00    -0.056 A 
ATOM      3  C   UNL     1     -47.826  37.407  28.223  1.00  0.00    -0.052 A 
ATOM      4  C   UNL     1     -47.563  36.163  27.623  1.00  0.00    -0.000 A 
ATOM      5  C   UNL     1     -48.308  35.300  26.770  1.00  0.00    -0.032 A 
ATOM      6  C   UNL     1     -47.529  34.193  26.497  1.00  0.00     0.030 A 
ATOM      7  N   UNL     1     -46.334  34.368  27.156  1.00  0.00    -0.357 N 
ATOM      8  C   UNL     1     -46.331  35.554  27.851  1.00  0.00     0.046 A 
ATOM      9  C   UNL     1     -45.342  36.126  28.661  1.00  0.00    -0.033 A 
ATOM     10  H   UNL     1     -47.066  38.959  29.497  1.00  0.00     0.063 H 
ATOM     11  H   UNL     1     -48.777  37.906  28.063  1.00  0.00     0.063 H 
ATOM     12  H   UNL     1     -49.309  35.475  26.398  1.00  0.00     0.065 H 
ATOM     13  H   UNL     1     -45.586  33.686  27.146  1.00  0.00     0.166 HD
ATOM     14  H   UNL     1     -44.394  35.617  28.815  1.00  0.00     0.065 H 
ENDROOT
BRANCH   1  15
ATOM     15  C   UNL     1     -44.583  38.023  30.148  1.00  0.00     0.068 C 
ATOM     16  H   UNL     1     -45.022  38.375  31.088  1.00  0.00     0.057 H 
ATOM     17  H   UNL     1     -43.794  37.304  30.398  1.00  0.00     0.057 H 
BRANCH  15  18
ATOM     18  N   UNL     1     -43.977  39.178  29.510  1.00  0.00    -0.247 N 
ATOM     19  C   UNL     1     -43.456  40.834  28.225  1.00  0.00     0.131 A 
ATOM     20  C   UNL     1     -44.328  39.772  28.331  1.00  0.00     0.055 A 
ATOM     21  N   UNL     1     -42.643  40.858  29.330  1.00  0.00    -0.129 NA
ATOM     22  H   UNL     1     -45.119  39.391  27.704  1.00  0.00     0.086 H 
ATOM     23  N   UNL     1     -42.974  39.840  30.114  1.00  0.00    -0.066 NA
BRANCH  19  24
ATOM     24  C   UNL     1     -43.348  41.807  27.173  1.00  0.00     0.100 A 
ATOM     25  O   UNL     1     -41.079  43.420  25.015  1.00  0.00    -0.269 OA
ATOM     26  C   UNL     1     -42.159  43.140  25.533  1.00  0.00     0.258 A 
ATOM     27  C   UNL     1     -42.181  42.132  26.603  1.00  0.00     0.032 A 
ATOM     28  N   UNL     1     -43.381  43.692  25.197  1.00  0.00    -0.268 N 
ATOM     29  H   UNL     1     -41.229  41.702  26.880  1.00  0.00     0.071 H 
ATOM     30  C   UNL     1     -44.525  43.272  25.863  1.00  0.00     0.140 A 
ATOM     31  C   UNL     1     -43.446  44.656  24.197  1.00  0.00     0.014 A 
ATOM     32  N   UNL     1     -44.538  42.380  26.802  1.00  0.00    -0.228 NA
ATOM     33  C   UNL     1     -45.812  43.902  25.455  1.00  0.00    -0.019 A 
ATOM     34  C   UNL     1     -44.606  45.218  23.836  1.00  0.00    -0.045 A 
ATOM     35  H   UNL     1     -42.510  44.935  23.720  1.00  0.00     0.082 H 
ATOM     36  C   UNL     1     -45.827  44.827  24.488  1.00  0.00    -0.057 A 
ATOM     37  H   UNL     1     -46.707  43.578  25.973  1.00  0.00     0.066 H 
ATOM     38  H   UNL     1     -44.647  45.969  23.054  1.00  0.00     0.064 H 
ATOM     39  H   UNL     1     -46.755  45.296  24.178  1.00  0.00     0.062 H 
ENDBRANCH  19  24
ENDBRANCH  15  18
ENDBRANCH   1  15
BRANCH   6  40
ATOM     40  C   UNL     1     -47.787  32.987  25.666  1.00  0.00     0.036 C 
ATOM     41  H   UNL     1     -47.599  32.083  26.255  1.00  0.00     0.049 H 
ATOM     42  H   UNL     1     -48.842  32.987  25.366  1.00  0.00     0.049 H 
BRANCH  40  43
ATOM     43  N   UNL     1     -46.920  33.023  24.490  1.00  0.00    -0.311 NA
ATOM     44  H   UNL     1     -46.233  33.764  24.638  1.00  0.00     0.123 HD
BRANCH  43  45
ATOM     45  C   UNL     1     -46.218  31.750  24.319  1.00  0.00    -0.002 C 
ATOM     46  H   UNL     1     -45.168  31.934  24.059  1.00  0.00     0.043 H 
ATOM     47  H   UNL     1     -46.229  31.194  25.265  1.00  0.00     0.043 H 
BRANCH  45  48
ATOM     48  C   UNL     1     -46.850  30.865  23.238  1.00  0.00    -0.029 C 
ATOM     49  C   UNL     1     -47.800  29.714  23.655  1.00  0.00    -0.049 C 
ATOM     50  C   UNL     1     -45.970  29.802  22.531  1.00  0.00    -0.049 C 
ATOM     51  H   UNL     1     -47.332  31.536  22.510  1.00  0.00     0.032 H 
ATOM     52  C   UNL     1     -46.657  28.720  23.384  1.00  0.00    -0.053 C 
ATOM     53  H   UNL     1     -48.174  29.735  24.682  1.00  0.00     0.027 H 
ATOM     54  H   UNL     1     -48.653  29.588  22.977  1.00  0.00     0.027 H 
ATOM     55  H   UNL     1     -46.180  29.709  21.460  1.00  0.00     0.027 H 
ATOM     56  H   UNL     1     -44.890  29.894  22.668  1.00  0.00     0.027 H 
ATOM     57  H   UNL     1     -46.942  27.811  22.847  1.00  0.00     0.027 H 
ATOM     58  H   UNL     1     -46.093  28.433  24.278  1.00  0.00     0.027 H 
ENDBRANCH  45  48
ENDBRANCH  43  45
ENDBRANCH  40  43
ENDBRANCH   6  40
TORSDOF 7
ENDMDL
MODEL 6
REMARK VINA RESULT:      -9.6      2.910      3.991
REMARK SMILES O=c1cc(-c2cn(Cc3ccc4cc(CNCC5CCC5)[nH]c4c3)nn2)nc2ccccn12
REMARK SMILES IDX 9 1 10 2 11 3 12 4 13 5 14 6 22 7 23 8 24 9 8 15 7 18 5 19
REMARK SMILES IDX 6 20 26 21 25 23 4 24 1 25 2 26 3 27 33 28 28 30 32 31 27 32
REMARK SMILES IDX 29 33 31 34 30 36 15 40 16 43 17 45 18 48 19 49 21 50 20 52
REMARK H PARENT 10 10 11 11 13 12 22 13 24 14 8 16 8 17 6 22 3 29 32 35 29 37
REMARK H PARENT 31 38 30 39 15 41 15 42 16 44 17 46 17 47 18 51 19 53 19 54
REMARK H PARENT 21 55 21 56 20 57 20 58
REMARK Flexibility Score: inf
ROOT
ATOM      1  C   UNL     1     -46.706  35.338  28.470  1.00  0.00    -0.024 A 
ATOM      2  C   UNL     1     -47.974  35.658  27.964  1.00  0.00    -0.056 A 
ATOM      3  C   UNL     1     -48.517  34.964  26.875  1.00  0.00    -0.052 A 
ATOM      4  C   UNL     1     -47.774  33.930  26.278  1.00  0.00    -0.000 A 
ATOM      5  C   UNL     1     -48.014  33.041  25.193  1.00  0.00    -0.032 A 
ATOM      6  C   UNL     1     -46.911  32.222  25.060  1.00  0.00     0.030 A 
ATOM      7  N   UNL     1     -46.010  32.597  26.030  1.00  0.00    -0.357 N 
ATOM      8  C   UNL     1     -46.513  33.629  26.787  1.00  0.00     0.046 A 
ATOM      9  C   UNL     1     -45.953  34.309  27.876  1.00  0.00    -0.033 A 
ATOM     10  H   UNL     1     -48.561  36.454  28.421  1.00  0.00     0.063 H 
ATOM     11  H   UNL     1     -49.503  35.222  26.501  1.00  0.00     0.063 H 
ATOM     12  H   UNL     1     -48.903  33.007  24.577  1.00  0.00     0.065 H 
ATOM     13  H   UNL     1     -45.120  32.138  26.173  1.00  0.00     0.166 HD
ATOM     14  H   UNL     1     -44.965  34.043  28.243  1.00  0.00     0.065 H 
ENDROOT
BRANCH   1  15
ATOM     15  C   UNL     1     -46.147  36.097  29.651  1.00  0.00     0.068 C 
ATOM     16  H   UNL     1     -46.929  36.350  30.375  1.00  0.00     0.057 H 
ATOM     17  H   UNL     1     -45.398  35.487  30.168  1.00  0.00     0.057 H 
BRANCH  15  18
ATOM     18  N   UNL     1     -45.531  37.348  29.246  1.00  0.00    -0.247 N 
ATOM     19  C   UNL     1     -44.975  39.200  28.283  1.00  0.00     0.131 A 
ATOM     20  C   UNL     1     -45.832  38.127  28.164  1.00  0.00     0.055 A 
ATOM     21  N   UNL     1     -44.221  39.048  29.419  1.00  0.00    -0.129 NA
ATOM     22  H   UNL     1     -46.582  37.847  27.441  1.00  0.00     0.086 H 
ATOM     23  N   UNL     1     -44.573  37.910  30.004  1.00  0.00    -0.066 NA
BRANCH  19  24
ATOM     24  C   UNL     1     -44.831  40.335  27.413  1.00  0.00     0.100 A 
ATOM     25  O   UNL     1     -46.596  42.590  25.361  1.00  0.00    -0.269 OA
ATOM     26  C   UNL     1     -45.630  42.068  25.918  1.00  0.00     0.258 A 
ATOM     27  C   UNL     1     -45.868  40.910  26.792  1.00  0.00     0.032 A 
ATOM     28  N   UNL     1     -44.315  42.478  25.800  1.00  0.00    -0.268 N 
ATOM     29  H   UNL     1     -46.892  40.577  26.883  1.00  0.00     0.071 H 
ATOM     30  C   UNL     1     -43.325  41.798  26.496  1.00  0.00     0.140 A 
ATOM     31  C   UNL     1     -44.005  43.564  24.989  1.00  0.00     0.014 A 
ATOM     32  N   UNL     1     -43.541  40.781  27.269  1.00  0.00    -0.228 NA
ATOM     33  C   UNL     1     -41.927  42.288  26.331  1.00  0.00    -0.019 A 
ATOM     34  C   UNL     1     -42.747  43.998  24.845  1.00  0.00    -0.045 A 
ATOM     35  H   UNL     1     -44.832  44.046  24.475  1.00  0.00     0.082 H 
ATOM     36  C   UNL     1     -41.676  43.337  25.539  1.00  0.00    -0.057 A 
ATOM     37  H   UNL     1     -41.151  41.759  26.872  1.00  0.00     0.066 H 
ATOM     38  H   UNL     1     -42.516  44.847  24.209  1.00  0.00     0.064 H 
ATOM     39  H   UNL     1     -40.664  43.706  25.407  1.00  0.00     0.062 H 
ENDBRANCH  19  24
ENDBRANCH  15  18
ENDBRANCH   1  15
BRANCH   6  40
ATOM     40  C   UNL     1     -46.606  31.126  24.102  1.00  0.00     0.036 C 
ATOM     41  H   UNL     1     -45.598  30.739  24.289  1.00  0.00     0.049 H 
ATOM     42  H   UNL     1     -47.321  30.310  24.263  1.00  0.00     0.049 H 
BRANCH  40  43
ATOM     43  N   UNL     1     -46.714  31.640  22.738  1.00  0.00    -0.311 NA
ATOM     44  H   UNL     1     -45.819  32.073  22.502  1.00  0.00     0.123 HD
BRANCH  43  45
ATOM     45  C   UNL     1     -46.982  30.557  21.791  1.00  0.00    -0.002 C 
ATOM     46  H   UNL     1     -46.735  30.881  20.772  1.00  0.00     0.043 H 
ATOM     47  H   UNL     1     -46.343  29.696  22.025  1.00  0.00     0.043 H 
BRANCH  45  48
ATOM     48  C   UNL     1     -48.443  30.090  21.823  1.00  0.00    -0.029 C 
ATOM     49  C   UNL     1     -49.157  29.731  20.495  1.00  0.00    -0.049 C 
ATOM     50  C   UNL     1     -49.558  31.140  22.068  1.00  0.00    -0.049 C 
ATOM     51  H   UNL     1     -48.504  29.262  22.546  1.00  0.00     0.032 H 
ATOM     52  C   UNL     1     -49.893  31.081  20.566  1.00  0.00    -0.053 C 
ATOM     53  H   UNL     1     -48.518  29.587  19.618  1.00  0.00     0.027 H 
ATOM     54  H   UNL     1     -49.826  28.866  20.583  1.00  0.00     0.027 H 
ATOM     55  H   UNL     1     -50.367  30.770  22.708  1.00  0.00     0.027 H 
ATOM     56  H   UNL     1     -49.237  32.116  22.440  1.00  0.00     0.027 H 
ATOM     57  H   UNL     1     -50.960  31.047  20.325  1.00  0.00     0.027 H 
ATOM     58  H   UNL     1     -49.427  31.875  19.975  1.00  0.00     0.027 H 
ENDBRANCH  45  48
ENDBRANCH  43  45
ENDBRANCH  40  43
ENDBRANCH   6  40
TORSDOF 7
ENDMDL
MODEL 7
REMARK VINA RESULT:      -9.5      3.222     11.693
REMARK SMILES O=c1cc(-c2cn(Cc3ccc4cc(CNCC5CCC5)[nH]c4c3)nn2)nc2ccccn12
REMARK SMILES IDX 9 1 10 2 11 3 12 4 13 5 14 6 22 7 23 8 24 9 8 15 7 18 5 19
REMARK SMILES IDX 6 20 26 21 25 23 4 24 1 25 2 26 3 27 33 28 28 30 32 31 27 32
REMARK SMILES IDX 29 33 31 34 30 36 15 40 16 43 17 45 18 48 19 49 21 50 20 52
REMARK H PARENT 10 10 11 11 13 12 22 13 24 14 8 16 8 17 6 22 3 29 32 35 29 37
REMARK H PARENT 31 38 30 39 15 41 15 42 16 44 17 46 17 47 18 51 19 53 19 54
REMARK H PARENT 21 55 21 56 20 57 20 58
REMARK Flexibility Score: inf
ROOT
ATOM      1  C   UNL     1     -47.504  36.656  27.964  1.00  0.00    -0.024 A 
ATOM      2  C   UNL     1     -46.911  36.164  29.136  1.00  0.00    -0.056 A 
ATOM      3  C   UNL     1     -45.808  36.804  29.715  1.00  0.00    -0.052 A 
ATOM      4  C   UNL     1     -45.285  37.959  29.106  1.00  0.00    -0.000 A 
ATOM      5  C   UNL     1     -44.209  38.838  29.415  1.00  0.00    -0.032 A 
ATOM      6  C   UNL     1     -44.166  39.819  28.445  1.00  0.00     0.030 A 
ATOM      7  N   UNL     1     -45.182  39.552  27.556  1.00  0.00    -0.357 N 
ATOM      8  C   UNL     1     -45.879  38.431  27.938  1.00  0.00     0.046 A 
ATOM      9  C   UNL     1     -46.985  37.806  27.344  1.00  0.00    -0.033 A 
ATOM     10  H   UNL     1     -47.311  35.273  29.620  1.00  0.00     0.063 H 
ATOM     11  H   UNL     1     -45.366  36.413  30.626  1.00  0.00     0.063 H 
ATOM     12  H   UNL     1     -43.539  38.757  30.261  1.00  0.00     0.065 H 
ATOM     13  H   UNL     1     -45.392  40.135  26.757  1.00  0.00     0.166 HD
ATOM     14  H   UNL     1     -47.420  38.207  26.433  1.00  0.00     0.065 H 
ENDROOT
BRANCH   1  15
ATOM     15  C   UNL     1     -48.699  35.950  27.365  1.00  0.00     0.068 C 
ATOM     16  H   UNL     1     -49.398  35.613  28.139  1.00  0.00     0.057 H 
ATOM     17  H   UNL     1     -49.241  36.631  26.700  1.00  0.00     0.057 H 
BRANCH  15  18
ATOM     18  N   UNL     1     -48.309  34.772  26.611  1.00  0.00    -0.247 N 
ATOM     19  C   UNL     1     -48.217  32.887  25.561  1.00  0.00     0.131 A 
ATOM     20  C   UNL     1     -49.058  33.667  26.324  1.00  0.00     0.055 A 
ATOM     21  N   UNL     1     -47.023  33.544  25.398  1.00  0.00    -0.129 NA
ATOM     22  H   UNL     1     -50.068  33.542  26.685  1.00  0.00     0.086 H 
ATOM     23  N   UNL     1     -47.092  34.701  26.043  1.00  0.00    -0.066 NA
BRANCH  19  24
ATOM     24  C   UNL     1     -48.464  31.593  24.987  1.00  0.00     0.100 A 
ATOM     25  O   UNL     1     -48.870  28.177  25.743  1.00  0.00    -0.269 OA
ATOM     26  C   UNL     1     -48.795  29.192  25.052  1.00  0.00     0.258 A 
ATOM     27  C   UNL     1     -48.540  30.476  25.721  1.00  0.00     0.032 A 
ATOM     28  N   UNL     1     -48.932  29.243  23.677  1.00  0.00    -0.268 N 
ATOM     29  H   UNL     1     -48.421  30.445  26.795  1.00  0.00     0.071 H 
ATOM     30  C   UNL     1     -48.832  30.465  23.027  1.00  0.00     0.140 A 
ATOM     31  C   UNL     1     -49.171  28.071  22.969  1.00  0.00     0.014 A 
ATOM     32  N   UNL     1     -48.613  31.594  23.623  1.00  0.00    -0.228 NA
ATOM     33  C   UNL     1     -48.992  30.456  21.545  1.00  0.00    -0.019 A 
ATOM     34  C   UNL     1     -49.313  28.069  21.637  1.00  0.00    -0.045 A 
ATOM     35  H   UNL     1     -49.237  27.151  23.545  1.00  0.00     0.082 H 
ATOM     36  C   UNL     1     -49.220  29.303  20.905  1.00  0.00    -0.057 A 
ATOM     37  H   UNL     1     -48.913  31.408  21.034  1.00  0.00     0.066 H 
ATOM     38  H   UNL     1     -49.500  27.149  21.093  1.00  0.00     0.064 H 
ATOM     39  H   UNL     1     -49.338  29.278  19.826  1.00  0.00     0.062 H 
ENDBRANCH  19  24
ENDBRANCH  15  18
ENDBRANCH   1  15
BRANCH   6  40
ATOM     40  C   UNL     1     -43.257  40.980  28.257  1.00  0.00     0.036 C 
ATOM     41  H   UNL     1     -43.685  41.869  28.735  1.00  0.00     0.049 H 
ATOM     42  H   UNL     1     -42.299  40.759  28.743  1.00  0.00     0.049 H 
BRANCH  40  43
ATOM     43  N   UNL     1     -43.064  41.210  26.826  1.00  0.00    -0.311 NA
ATOM     44  H   UNL     1     -43.973  41.458  26.431  1.00  0.00     0.123 HD
BRANCH  43  45
ATOM     45  C   UNL     1     -42.129  42.313  26.595  1.00  0.00    -0.002 C 
ATOM     46  H   UNL     1     -41.752  42.690  27.554  1.00  0.00     0.043 H 
ATOM     47  H   UNL     1     -41.267  41.950  26.023  1.00  0.00     0.043 H 
BRANCH  45  48
ATOM     48  C   UNL     1     -42.763  43.474  25.820  1.00  0.00    -0.029 C 
ATOM     49  C   UNL     1     -44.220  43.343  25.308  1.00  0.00    -0.049 C 
ATOM     50  C   UNL     1     -42.333  43.716  24.350  1.00  0.00    -0.049 C 
ATOM     51  H   UNL     1     -42.635  44.381  26.431  1.00  0.00     0.032 H 
ATOM     52  C   UNL     1     -43.663  43.090  23.895  1.00  0.00    -0.053 C 
ATOM     53  H   UNL     1     -44.817  42.530  25.732  1.00  0.00     0.027 H 
ATOM     54  H   UNL     1     -44.794  44.274  25.388  1.00  0.00     0.027 H 
ATOM     55  H   UNL     1     -42.243  44.778  24.095  1.00  0.00     0.027 H 
ATOM     56  H   UNL     1     -41.430  43.199  24.014  1.00  0.00     0.027 H 
ATOM     57  H   UNL     1     -44.177  43.618  23.086  1.00  0.00     0.027 H 
ATOM     58  H   UNL     1     -43.588  42.031  23.628  1.00  0.00     0.027 H 
ENDBRANCH  45  48
ENDBRANCH  43  45
ENDBRANCH  40  43
ENDBRANCH   6  40
TORSDOF 7
ENDMDL
