MODEL 1
REMARK VINA RESULT:     -11.2      0.000      0.000
REMARK SMILES Cn1ccc(-c2cn(-c3cncc(CNC(=O)Nc4cccc(N5CCC5)n4)c3)c3ncnc(N)c23)n1
REMARK SMILES IDX 9 1 10 2 11 3 12 4 13 5 29 6 8 10 6 11 7 12 36 13 30 15
REMARK SMILES IDX 34 16 31 17 33 18 32 19 5 21 2 22 3 23 37 24 4 25 1 28 35 32
REMARK SMILES IDX 14 35 15 38 16 39 17 41 18 42 19 44 20 45 28 46 21 47 23 49
REMARK SMILES IDX 22 50 24 53 25 54 27 55 26 56
REMARK H PARENT 10 7 12 8 29 9 7 14 32 20 3 26 4 27 1 29 1 30 1 31 35 33 35 34
REMARK H PARENT 14 36 14 37 15 40 18 43 20 48 21 51 22 52 25 57 25 58 27 59
REMARK H PARENT 27 60 26 61 26 62
REMARK Flexibility Score: inf
ROOT
ATOM      1  C   UNL     1     -46.919  37.197  27.266  1.00  0.00     0.066 A 
ATOM      2  C   UNL     1     -48.161  37.144  27.888  1.00  0.00     0.051 A 
ATOM      3  N   UNL     1     -49.030  36.107  27.774  1.00  0.00    -0.262 NA
ATOM      4  C   UNL     1     -48.652  35.065  27.005  1.00  0.00     0.032 A 
ATOM      5  C   UNL     1     -47.432  34.999  26.346  1.00  0.00    -0.008 A 
ATOM      6  C   UNL     1     -46.562  36.092  26.476  1.00  0.00    -0.030 A 
ATOM      7  H   UNL     1     -48.554  37.939  28.512  1.00  0.00     0.086 H 
ATOM      8  H   UNL     1     -49.381  34.262  26.929  1.00  0.00     0.084 H 
ATOM      9  H   UNL     1     -45.607  36.038  25.964  1.00  0.00     0.065 H 
ENDROOT
BRANCH   1  10
ATOM     10  N   UNL     1     -46.041  38.320  27.410  1.00  0.00    -0.299 N 
ATOM     11  C   UNL     1     -45.016  40.281  26.963  1.00  0.00     0.033 A 
ATOM     12  C   UNL     1     -45.928  39.356  26.501  1.00  0.00     0.021 A 
ATOM     13  C   UNL     1     -44.480  39.790  28.179  1.00  0.00     0.071 A 
ATOM     14  H   UNL     1     -46.516  39.402  25.597  1.00  0.00     0.083 H 
ATOM     15  C   UNL     1     -45.151  38.596  28.454  1.00  0.00     0.150 A 
ATOM     16  C   UNL     1     -43.492  40.181  29.100  1.00  0.00     0.137 A 
ATOM     17  N   UNL     1     -44.942  37.829  29.542  1.00  0.00    -0.218 NA
ATOM     18  N   UNL     1     -43.277  39.434  30.196  1.00  0.00    -0.219 NA
ATOM     19  C   UNL     1     -44.007  38.321  30.361  1.00  0.00     0.120 A 
ATOM     20  H   UNL     1     -43.808  37.749  31.262  1.00  0.00     0.106 H 
BRANCH  11  21
ATOM     21  C   UNL     1     -44.683  41.530  26.284  1.00  0.00     0.095 A 
ATOM     22  N   UNL     1     -43.547  43.083  25.415  1.00  0.00    -0.275 N 
ATOM     23  C   UNL     1     -44.843  43.419  25.151  1.00  0.00     0.025 A 
ATOM     24  N   UNL     1     -43.420  41.928  26.093  1.00  0.00    -0.173 NA
ATOM     25  C   UNL     1     -45.610  42.415  25.695  1.00  0.00    -0.016 A 
ATOM     26  H   UNL     1     -45.106  44.313  24.604  1.00  0.00     0.084 H 
ATOM     27  H   UNL     1     -46.688  42.334  25.664  1.00  0.00     0.066 H 
BRANCH  22  28
ATOM     28  C   UNL     1     -42.364  43.819  25.039  1.00  0.00     0.030 C 
ATOM     29  H   UNL     1     -41.569  43.622  25.763  1.00  0.00     0.048 H 
ATOM     30  H   UNL     1     -42.054  43.488  24.045  1.00  0.00     0.048 H 
ATOM     31  H   UNL     1     -42.609  44.883  25.034  1.00  0.00     0.048 H 
ENDBRANCH  22  28
ENDBRANCH  11  21
BRANCH  16  32
ATOM     32  N   UNL     1     -42.662  41.287  28.950  1.00  0.00    -0.383 N 
ATOM     33  H   UNL     1     -43.164  42.162  28.850  1.00  0.00     0.158 HD
ATOM     34  H   UNL     1     -41.980  41.100  28.222  1.00  0.00     0.158 HD
ENDBRANCH  16  32
ENDBRANCH   1  10
BRANCH   5  35
ATOM     35  C   UNL     1     -47.081  33.811  25.498  1.00  0.00     0.046 C 
ATOM     36  H   UNL     1     -46.009  33.593  25.564  1.00  0.00     0.054 H 
ATOM     37  H   UNL     1     -47.298  34.023  24.445  1.00  0.00     0.054 H 
BRANCH  35  38
ATOM     38  N   UNL     1     -47.862  32.651  25.865  1.00  0.00    -0.334 N 
ATOM     39  C   UNL     1     -48.161  31.677  24.934  1.00  0.00     0.320 C 
ATOM     40  H   UNL     1     -47.794  32.345  26.824  1.00  0.00     0.165 HD
ATOM     41  O   UNL     1     -47.852  31.784  23.755  1.00  0.00    -0.248 OA
ATOM     42  N   UNL     1     -48.834  30.634  25.509  1.00  0.00    -0.292 N 
ATOM     43  H   UNL     1     -49.174  30.735  26.451  1.00  0.00     0.173 HD
BRANCH  42  44
ATOM     44  C   UNL     1     -49.273  29.450  24.915  1.00  0.00     0.136 A 
ATOM     45  C   UNL     1     -50.238  29.391  23.923  1.00  0.00    -0.019 A 
ATOM     46  N   UNL     1     -48.650  28.352  25.396  1.00  0.00    -0.214 NA
ATOM     47  C   UNL     1     -50.586  28.146  23.412  1.00  0.00    -0.055 A 
ATOM     48  H   UNL     1     -50.726  30.276  23.533  1.00  0.00     0.066 H 
ATOM     49  C   UNL     1     -48.984  27.141  24.893  1.00  0.00     0.130 A 
ATOM     50  C   UNL     1     -49.956  27.008  23.907  1.00  0.00    -0.019 A 
ATOM     51  H   UNL     1     -51.344  28.064  22.640  1.00  0.00     0.063 H 
ATOM     52  H   UNL     1     -50.230  26.031  23.524  1.00  0.00     0.066 H 
BRANCH  49  53
ATOM     53  N   UNL     1     -48.344  25.996  25.408  1.00  0.00    -0.356 N 
ATOM     54  C   UNL     1     -48.671  25.379  26.662  1.00  0.00     0.021 C 
ATOM     55  C   UNL     1     -46.936  25.828  25.615  1.00  0.00     0.021 C 
ATOM     56  C   UNL     1     -47.304  24.694  26.580  1.00  0.00    -0.018 C 
ATOM     57  H   UNL     1     -48.778  26.099  27.481  1.00  0.00     0.049 H 
ATOM     58  H   UNL     1     -49.540  24.720  26.609  1.00  0.00     0.049 H 
ATOM     59  H   UNL     1     -46.464  26.698  26.084  1.00  0.00     0.049 H 
ATOM     60  H   UNL     1     -46.393  25.527  24.716  1.00  0.00     0.049 H 
ATOM     61  H   UNL     1     -46.732  24.656  27.511  1.00  0.00     0.030 H 
ATOM     62  H   UNL     1     -47.323  23.699  26.121  1.00  0.00     0.030 H 
ENDBRANCH  49  53
ENDBRANCH  42  44
ENDBRANCH  35  38
ENDBRANCH   5  35
TORSDOF 8
ENDMDL
MODEL 2
REMARK VINA RESULT:      -9.9      1.543      2.384
REMARK SMILES Cn1ccc(-c2cn(-c3cncc(CNC(=O)Nc4cccc(N5CCC5)n4)c3)c3ncnc(N)c23)n1
REMARK SMILES IDX 9 1 10 2 11 3 12 4 13 5 29 6 8 10 6 11 7 12 36 13 30 15
REMARK SMILES IDX 34 16 31 17 33 18 32 19 5 21 2 22 3 23 37 24 4 25 1 28 35 32
REMARK SMILES IDX 14 35 15 38 16 39 17 41 18 42 19 44 20 45 28 46 21 47 23 49
REMARK SMILES IDX 22 50 24 53 25 54 27 55 26 56
REMARK H PARENT 10 7 12 8 29 9 7 14 32 20 3 26 4 27 1 29 1 30 1 31 35 33 35 34
REMARK H PARENT 14 36 14 37 15 40 18 43 20 48 21 51 22 52 25 57 25 58 27 59
REMARK H PARENT 27 60 26 61 26 62
REMARK Flexibility Score: inf
ROOT
ATOM      1  C   UNL     1     -45.612  38.135  28.388  1.00  0.00     0.066 A 
ATOM      2  C   UNL     1     -45.435  37.614  29.666  1.00  0.00     0.051 A 
ATOM      3  N   UNL     1     -46.002  36.461  30.106  1.00  0.00    -0.262 NA
ATOM      4  C   UNL     1     -46.783  35.785  29.240  1.00  0.00     0.032 A 
ATOM      5  C   UNL     1     -47.023  36.199  27.937  1.00  0.00    -0.008 A 
ATOM      6  C   UNL     1     -46.431  37.400  27.516  1.00  0.00    -0.030 A 
ATOM      7  H   UNL     1     -44.838  38.094  30.432  1.00  0.00     0.086 H 
ATOM      8  H   UNL     1     -47.228  34.875  29.635  1.00  0.00     0.084 H 
ATOM      9  H   UNL     1     -46.615  37.721  26.496  1.00  0.00     0.065 H 
ENDROOT
BRANCH   1  10
ATOM     10  N   UNL     1     -45.000  39.362  27.974  1.00  0.00    -0.299 N 
ATOM     11  C   UNL     1     -44.613  41.244  26.789  1.00  0.00     0.033 A 
ATOM     12  C   UNL     1     -45.396  40.113  26.882  1.00  0.00     0.021 A 
ATOM     13  C   UNL     1     -43.641  41.183  27.818  1.00  0.00     0.071 A 
ATOM     14  H   UNL     1     -46.224  39.828  26.252  1.00  0.00     0.083 H 
ATOM     15  C   UNL     1     -43.921  40.032  28.559  1.00  0.00     0.150 A 
ATOM     16  C   UNL     1     -42.533  41.944  28.232  1.00  0.00     0.137 A 
ATOM     17  N   UNL     1     -43.230  39.630  29.644  1.00  0.00    -0.218 NA
ATOM     18  N   UNL     1     -41.840  41.563  29.319  1.00  0.00    -0.219 NA
ATOM     19  C   UNL     1     -42.224  40.451  29.962  1.00  0.00     0.120 A 
ATOM     20  H   UNL     1     -41.642  40.181  30.838  1.00  0.00     0.106 H 
BRANCH  11  21
ATOM     21  C   UNL     1     -44.782  42.290  25.785  1.00  0.00     0.095 A 
ATOM     22  N   UNL     1     -44.388  43.556  24.142  1.00  0.00    -0.275 N 
ATOM     23  C   UNL     1     -45.659  43.877  24.523  1.00  0.00     0.025 A 
ATOM     24  N   UNL     1     -43.835  42.582  24.887  1.00  0.00    -0.173 NA
ATOM     25  C   UNL     1     -45.951  43.056  25.588  1.00  0.00    -0.016 A 
ATOM     26  H   UNL     1     -46.239  44.633  24.014  1.00  0.00     0.084 H 
ATOM     27  H   UNL     1     -46.880  43.014  26.139  1.00  0.00     0.066 H 
BRANCH  22  28
ATOM     28  C   UNL     1     -43.633  44.138  23.059  1.00  0.00     0.030 C 
ATOM     29  H   UNL     1     -43.830  45.212  23.014  1.00  0.00     0.048 H 
ATOM     30  H   UNL     1     -42.571  43.961  23.246  1.00  0.00     0.048 H 
ATOM     31  H   UNL     1     -43.946  43.661  22.127  1.00  0.00     0.048 H 
ENDBRANCH  22  28
ENDBRANCH  11  21
BRANCH  16  32
ATOM     32  N   UNL     1     -42.050  43.066  27.569  1.00  0.00    -0.383 N 
ATOM     33  H   UNL     1     -42.505  43.241  26.681  1.00  0.00     0.158 HD
ATOM     34  H   UNL     1     -41.037  43.025  27.531  1.00  0.00     0.158 HD
ENDBRANCH  16  32
ENDBRANCH   1  10
BRANCH   5  35
ATOM     35  C   UNL     1     -47.912  35.401  27.028  1.00  0.00     0.046 C 
ATOM     36  H   UNL     1     -48.356  36.044  26.259  1.00  0.00     0.054 H 
ATOM     37  H   UNL     1     -48.742  34.969  27.598  1.00  0.00     0.054 H 
BRANCH  35  38
ATOM     38  N   UNL     1     -47.197  34.299  26.423  1.00  0.00    -0.334 N 
ATOM     39  C   UNL     1     -47.876  33.278  25.790  1.00  0.00     0.320 C 
ATOM     40  H   UNL     1     -46.268  34.496  26.081  1.00  0.00     0.165 HD
ATOM     41  O   UNL     1     -49.099  33.216  25.778  1.00  0.00    -0.248 OA
ATOM     42  N   UNL     1     -47.009  32.387  25.219  1.00  0.00    -0.292 N 
ATOM     43  H   UNL     1     -46.028  32.456  25.437  1.00  0.00     0.173 HD
BRANCH  42  44
ATOM     44  C   UNL     1     -47.303  31.252  24.463  1.00  0.00     0.136 A 
ATOM     45  C   UNL     1     -46.906  31.070  23.149  1.00  0.00    -0.019 A 
ATOM     46  N   UNL     1     -48.010  30.327  25.149  1.00  0.00    -0.214 NA
ATOM     47  C   UNL     1     -47.264  29.890  22.507  1.00  0.00    -0.055 A 
ATOM     48  H   UNL     1     -46.331  31.810  22.608  1.00  0.00     0.066 H 
ATOM     49  C   UNL     1     -48.351  29.175  24.526  1.00  0.00     0.130 A 
ATOM     50  C   UNL     1     -47.999  28.934  23.202  1.00  0.00    -0.019 A 
ATOM     51  H   UNL     1     -46.976  29.719  21.475  1.00  0.00     0.063 H 
ATOM     52  H   UNL     1     -48.294  28.016  22.706  1.00  0.00     0.066 H 
BRANCH  49  53
ATOM     53  N   UNL     1     -49.101  28.219  25.239  1.00  0.00    -0.356 N 
ATOM     54  C   UNL     1     -48.703  27.647  26.494  1.00  0.00     0.021 C 
ATOM     55  C   UNL     1     -49.575  26.962  24.739  1.00  0.00     0.021 C 
ATOM     56  C   UNL     1     -49.714  26.533  26.205  1.00  0.00    -0.018 C 
ATOM     57  H   UNL     1     -47.656  27.328  26.508  1.00  0.00     0.049 H 
ATOM     58  H   UNL     1     -48.926  28.284  27.352  1.00  0.00     0.049 H 
ATOM     59  H   UNL     1     -48.818  26.415  24.167  1.00  0.00     0.049 H 
ATOM     60  H   UNL     1     -50.509  27.037  24.178  1.00  0.00     0.049 H 
ATOM     61  H   UNL     1     -49.383  25.517  26.437  1.00  0.00     0.030 H 
ATOM     62  H   UNL     1     -50.708  26.702  26.633  1.00  0.00     0.030 H 
ENDBRANCH  49  53
ENDBRANCH  42  44
ENDBRANCH  35  38
ENDBRANCH   5  35
TORSDOF 8
ENDMDL
MODEL 3
REMARK VINA RESULT:      -9.8      1.901      2.979
REMARK SMILES Cn1ccc(-c2cn(-c3cncc(CNC(=O)Nc4cccc(N5CCC5)n4)c3)c3ncnc(N)c23)n1
REMARK SMILES IDX 9 1 10 2 11 3 12 4 13 5 29 6 8 10 6 11 7 12 36 13 30 15
REMARK SMILES IDX 34 16 31 17 33 18 32 19 5 21 2 22 3 23 37 24 4 25 1 28 35 32
REMARK SMILES IDX 14 35 15 38 16 39 17 41 18 42 19 44 20 45 28 46 21 47 23 49
REMARK SMILES IDX 22 50 24 53 25 54 27 55 26 56
REMARK H PARENT 10 7 12 8 29 9 7 14 32 20 3 26 4 27 1 29 1 30 1 31 35 33 35 34
REMARK H PARENT 14 36 14 37 15 40 18 43 20 48 21 51 22 52 25 57 25 58 27 59
REMARK H PARENT 27 60 26 61 26 62
REMARK Flexibility Score: inf
ROOT
ATOM      1  C   UNL     1     -46.072  38.041  27.385  1.00  0.00     0.066 A 
ATOM      2  C   UNL     1     -45.318  37.541  28.441  1.00  0.00     0.051 A 
ATOM      3  N   UNL     1     -45.422  36.275  28.922  1.00  0.00    -0.262 NA
ATOM      4  C   UNL     1     -46.316  35.459  28.327  1.00  0.00     0.032 A 
ATOM      5  C   UNL     1     -47.113  35.842  27.258  1.00  0.00    -0.008 A 
ATOM      6  C   UNL     1     -46.989  37.159  26.792  1.00  0.00    -0.030 A 
ATOM      7  H   UNL     1     -44.588  38.127  28.987  1.00  0.00     0.086 H 
ATOM      8  H   UNL     1     -46.377  34.459  28.750  1.00  0.00     0.084 H 
ATOM      9  H   UNL     1     -47.610  37.457  25.953  1.00  0.00     0.065 H 
ENDROOT
BRANCH   1  10
ATOM     10  N   UNL     1     -45.932  39.390  26.920  1.00  0.00    -0.299 N 
ATOM     11  C   UNL     1     -44.974  41.258  26.091  1.00  0.00     0.033 A 
ATOM     12  C   UNL     1     -44.746  39.960  26.497  1.00  0.00     0.021 A 
ATOM     13  C   UNL     1     -46.342  41.549  26.321  1.00  0.00     0.071 A 
ATOM     14  H   UNL     1     -43.815  39.414  26.474  1.00  0.00     0.083 H 
ATOM     15  C   UNL     1     -46.921  40.371  26.800  1.00  0.00     0.150 A 
ATOM     16  C   UNL     1     -47.189  42.665  26.206  1.00  0.00     0.137 A 
ATOM     17  N   UNL     1     -48.223  40.230  27.119  1.00  0.00    -0.218 NA
ATOM     18  N   UNL     1     -48.492  42.539  26.510  1.00  0.00    -0.219 NA
ATOM     19  C   UNL     1     -48.935  41.347  26.934  1.00  0.00     0.120 A 
ATOM     20  H   UNL     1     -49.994  41.284  27.163  1.00  0.00     0.106 H 
BRANCH  11  21
ATOM     21  C   UNL     1     -43.957  42.145  25.535  1.00  0.00     0.095 A 
ATOM     22  N   UNL     1     -42.961  43.447  24.204  1.00  0.00    -0.275 N 
ATOM     23  C   UNL     1     -42.173  43.430  25.318  1.00  0.00     0.025 A 
ATOM     24  N   UNL     1     -44.062  42.682  24.315  1.00  0.00    -0.173 NA
ATOM     25  C   UNL     1     -42.805  42.598  26.213  1.00  0.00    -0.016 A 
ATOM     26  H   UNL     1     -41.260  44.004  25.386  1.00  0.00     0.084 H 
ATOM     27  H   UNL     1     -42.480  42.358  27.216  1.00  0.00     0.066 H 
BRANCH  22  28
ATOM     28  C   UNL     1     -42.729  44.184  22.986  1.00  0.00     0.030 C 
ATOM     29  H   UNL     1     -42.027  44.999  23.183  1.00  0.00     0.048 H 
ATOM     30  H   UNL     1     -42.307  43.501  22.244  1.00  0.00     0.048 H 
ATOM     31  H   UNL     1     -43.683  44.588  22.641  1.00  0.00     0.048 H 
ENDBRANCH  22  28
ENDBRANCH  11  21
BRANCH  16  32
ATOM     32  N   UNL     1     -46.775  43.939  25.834  1.00  0.00    -0.383 N 
ATOM     33  H   UNL     1     -47.474  44.458  25.314  1.00  0.00     0.158 HD
ATOM     34  H   UNL     1     -45.865  43.882  25.389  1.00  0.00     0.158 HD
ENDBRANCH  16  32
ENDBRANCH   1  10
BRANCH   5  35
ATOM     35  C   UNL     1     -48.095  34.882  26.650  1.00  0.00     0.046 C 
ATOM     36  H   UNL     1     -48.814  35.414  26.016  1.00  0.00     0.054 H 
ATOM     37  H   UNL     1     -48.673  34.386  27.437  1.00  0.00     0.054 H 
BRANCH  35  38
ATOM     38  N   UNL     1     -47.424  33.844  25.900  1.00  0.00    -0.334 N 
ATOM     39  C   UNL     1     -48.121  32.753  25.423  1.00  0.00     0.320 C 
ATOM     40  H   UNL     1     -46.613  34.121  25.368  1.00  0.00     0.165 HD
ATOM     41  O   UNL     1     -49.307  32.576  25.673  1.00  0.00    -0.248 OA
ATOM     42  N   UNL     1     -47.315  31.939  24.675  1.00  0.00    -0.292 N 
ATOM     43  H   UNL     1     -46.322  32.104  24.678  1.00  0.00     0.173 HD
BRANCH  42  44
ATOM     44  C   UNL     1     -47.654  30.769  23.994  1.00  0.00     0.136 A 
ATOM     45  C   UNL     1     -47.832  30.693  22.622  1.00  0.00    -0.019 A 
ATOM     46  N   UNL     1     -47.782  29.699  24.809  1.00  0.00    -0.214 NA
ATOM     47  C   UNL     1     -48.168  29.463  22.067  1.00  0.00    -0.055 A 
ATOM     48  H   UNL     1     -47.718  31.551  21.973  1.00  0.00     0.066 H 
ATOM     49  C   UNL     1     -48.102  28.502  24.267  1.00  0.00     0.130 A 
ATOM     50  C   UNL     1     -48.309  28.358  22.899  1.00  0.00    -0.019 A 
ATOM     51  H   UNL     1     -48.323  29.371  20.997  1.00  0.00     0.063 H 
ATOM     52  H   UNL     1     -48.585  27.397  22.476  1.00  0.00     0.066 H 
BRANCH  49  53
ATOM     53  N   UNL     1     -48.249  27.391  25.121  1.00  0.00    -0.356 N 
ATOM     54  C   UNL     1     -48.775  27.459  26.455  1.00  0.00     0.021 C 
ATOM     55  C   UNL     1     -47.222  26.465  25.500  1.00  0.00     0.021 C 
ATOM     56  C   UNL     1     -48.120  26.094  26.686  1.00  0.00    -0.018 C 
ATOM     57  H   UNL     1     -48.351  28.280  27.043  1.00  0.00     0.049 H 
ATOM     58  H   UNL     1     -49.866  27.478  26.492  1.00  0.00     0.049 H 
ATOM     59  H   UNL     1     -46.280  26.955  25.769  1.00  0.00     0.049 H 
ATOM     60  H   UNL     1     -47.054  25.673  24.767  1.00  0.00     0.049 H 
ATOM     61  H   UNL     1     -47.613  25.965  27.646  1.00  0.00     0.030 H 
ATOM     62  H   UNL     1     -48.780  25.238  26.503  1.00  0.00     0.030 H 
ENDBRANCH  49  53
ENDBRANCH  42  44
ENDBRANCH  35  38
ENDBRANCH   5  35
TORSDOF 8
ENDMDL
MODEL 4
REMARK VINA RESULT:      -9.6      1.159      2.183
REMARK SMILES Cn1ccc(-c2cn(-c3cncc(CNC(=O)Nc4cccc(N5CCC5)n4)c3)c3ncnc(N)c23)n1
REMARK SMILES IDX 9 1 10 2 11 3 12 4 13 5 29 6 8 10 6 11 7 12 36 13 30 15
REMARK SMILES IDX 34 16 31 17 33 18 32 19 5 21 2 22 3 23 37 24 4 25 1 28 35 32
REMARK SMILES IDX 14 35 15 38 16 39 17 41 18 42 19 44 20 45 28 46 21 47 23 49
REMARK SMILES IDX 22 50 24 53 25 54 27 55 26 56
REMARK H PARENT 10 7 12 8 29 9 7 14 32 20 3 26 4 27 1 29 1 30 1 31 35 33 35 34
REMARK H PARENT 14 36 14 37 15 40 18 43 20 48 21 51 22 52 25 57 25 58 27 59
REMARK H PARENT 27 60 26 61 26 62
REMARK Flexibility Score: inf
ROOT
ATOM      1  C   UNL     1     -47.073  37.063  27.084  1.00  0.00     0.066 A 
ATOM      2  C   UNL     1     -48.300  36.955  27.729  1.00  0.00     0.051 A 
ATOM      3  N   UNL     1     -49.108  35.866  27.657  1.00  0.00    -0.262 NA
ATOM      4  C   UNL     1     -48.681  34.827  26.910  1.00  0.00     0.032 A 
ATOM      5  C   UNL     1     -47.470  34.815  26.232  1.00  0.00    -0.008 A 
ATOM      6  C   UNL     1     -46.664  35.960  26.319  1.00  0.00    -0.030 A 
ATOM      7  H   UNL     1     -48.729  37.742  28.338  1.00  0.00     0.086 H 
ATOM      8  H   UNL     1     -49.362  33.981  26.868  1.00  0.00     0.084 H 
ATOM      9  H   UNL     1     -45.716  35.948  25.791  1.00  0.00     0.065 H 
ENDROOT
BRANCH   1  10
ATOM     10  N   UNL     1     -46.260  38.240  27.183  1.00  0.00    -0.299 N 
ATOM     11  C   UNL     1     -45.382  40.258  26.683  1.00  0.00     0.033 A 
ATOM     12  C   UNL     1     -46.256  39.276  26.268  1.00  0.00     0.021 A 
ATOM     13  C   UNL     1     -44.759  39.807  27.873  1.00  0.00     0.071 A 
ATOM     14  H   UNL     1     -46.889  39.280  25.393  1.00  0.00     0.083 H 
ATOM     15  C   UNL     1     -45.341  38.575  28.183  1.00  0.00     0.150 A 
ATOM     16  C   UNL     1     -43.755  40.265  28.745  1.00  0.00     0.137 A 
ATOM     17  N   UNL     1     -45.032  37.829  29.261  1.00  0.00    -0.218 NA
ATOM     18  N   UNL     1     -43.441  39.538  29.831  1.00  0.00    -0.219 NA
ATOM     19  C   UNL     1     -44.092  38.383  30.033  1.00  0.00     0.120 A 
ATOM     20  H   UNL     1     -43.815  37.828  30.925  1.00  0.00     0.106 H 
BRANCH  11  21
ATOM     21  C   UNL     1     -45.161  41.521  25.986  1.00  0.00     0.095 A 
ATOM     22  N   UNL     1     -44.375  42.938  24.632  1.00  0.00    -0.275 N 
ATOM     23  C   UNL     1     -45.373  43.604  25.281  1.00  0.00     0.025 A 
ATOM     24  N   UNL     1     -44.232  41.662  25.034  1.00  0.00    -0.173 NA
ATOM     25  C   UNL     1     -45.916  42.700  26.165  1.00  0.00    -0.016 A 
ATOM     26  H   UNL     1     -45.617  44.633  25.061  1.00  0.00     0.084 H 
ATOM     27  H   UNL     1     -46.745  42.868  26.838  1.00  0.00     0.066 H 
BRANCH  22  28
ATOM     28  C   UNL     1     -43.511  43.458  23.600  1.00  0.00     0.030 C 
ATOM     29  H   UNL     1     -44.087  43.600  22.682  1.00  0.00     0.048 H 
ATOM     30  H   UNL     1     -43.107  44.415  23.938  1.00  0.00     0.048 H 
ATOM     31  H   UNL     1     -42.708  42.737  23.429  1.00  0.00     0.048 H 
ENDBRANCH  22  28
ENDBRANCH  11  21
BRANCH  16  32
ATOM     32  N   UNL     1     -43.003  41.418  28.552  1.00  0.00    -0.383 N 
ATOM     33  H   UNL     1     -43.539  42.273  28.650  1.00  0.00     0.158 HD
ATOM     34  H   UNL     1     -42.478  41.339  27.688  1.00  0.00     0.158 HD
ENDBRANCH  16  32
ENDBRANCH   1  10
BRANCH   5  35
ATOM     35  C   UNL     1     -47.062  33.627  25.410  1.00  0.00     0.046 C 
ATOM     36  H   UNL     1     -45.974  33.600  25.282  1.00  0.00     0.054 H 
ATOM     37  H   UNL     1     -47.498  33.695  24.407  1.00  0.00     0.054 H 
BRANCH  35  38
ATOM     38  N   UNL     1     -47.539  32.392  25.994  1.00  0.00    -0.334 N 
ATOM     39  C   UNL     1     -48.044  31.384  25.199  1.00  0.00     0.320 C 
ATOM     40  H   UNL     1     -47.107  32.104  26.858  1.00  0.00     0.165 HD
ATOM     41  O   UNL     1     -48.183  31.513  23.989  1.00  0.00    -0.248 OA
ATOM     42  N   UNL     1     -48.359  30.279  25.942  1.00  0.00    -0.292 N 
ATOM     43  H   UNL     1     -48.354  30.352  26.946  1.00  0.00     0.173 HD
BRANCH  42  44
ATOM     44  C   UNL     1     -48.854  29.050  25.505  1.00  0.00     0.136 A 
ATOM     45  C   UNL     1     -48.847  27.894  26.268  1.00  0.00    -0.019 A 
ATOM     46  N   UNL     1     -49.359  29.097  24.252  1.00  0.00    -0.214 NA
ATOM     47  C   UNL     1     -49.373  26.733  25.714  1.00  0.00    -0.055 A 
ATOM     48  H   UNL     1     -48.451  27.866  27.275  1.00  0.00     0.066 H 
ATOM     49  C   UNL     1     -49.877  27.967  23.716  1.00  0.00     0.130 A 
ATOM     50  C   UNL     1     -49.888  26.769  24.423  1.00  0.00    -0.019 A 
ATOM     51  H   UNL     1     -49.376  25.808  26.283  1.00  0.00     0.063 H 
ATOM     52  H   UNL     1     -50.288  25.864  23.977  1.00  0.00     0.066 H 
BRANCH  49  53
ATOM     53  N   UNL     1     -50.389  28.016  22.405  1.00  0.00    -0.356 N 
ATOM     54  C   UNL     1     -51.183  26.981  21.806  1.00  0.00     0.021 C 
ATOM     55  C   UNL     1     -49.636  28.227  21.203  1.00  0.00     0.021 C 
ATOM     56  C   UNL     1     -50.826  27.611  20.457  1.00  0.00    -0.018 C 
ATOM     57  H   UNL     1     -50.777  25.977  21.969  1.00  0.00     0.049 H 
ATOM     58  H   UNL     1     -52.237  27.023  22.088  1.00  0.00     0.049 H 
ATOM     59  H   UNL     1     -48.713  27.640  21.167  1.00  0.00     0.049 H 
ATOM     60  H   UNL     1     -49.437  29.280  20.990  1.00  0.00     0.049 H 
ATOM     61  H   UNL     1     -50.574  26.912  19.655  1.00  0.00     0.030 H 
ATOM     62  H   UNL     1     -51.556  28.342  20.090  1.00  0.00     0.030 H 
ENDBRANCH  49  53
ENDBRANCH  42  44
ENDBRANCH  35  38
ENDBRANCH   5  35
TORSDOF 8
ENDMDL
MODEL 5
REMARK VINA RESULT:      -9.5      2.365      3.336
REMARK SMILES Cn1ccc(-c2cn(-c3cncc(CNC(=O)Nc4cccc(N5CCC5)n4)c3)c3ncnc(N)c23)n1
REMARK SMILES IDX 9 1 10 2 11 3 12 4 13 5 29 6 8 10 6 11 7 12 36 13 30 15
REMARK SMILES IDX 34 16 31 17 33 18 32 19 5 21 2 22 3 23 37 24 4 25 1 28 35 32
REMARK SMILES IDX 14 35 15 38 16 39 17 41 18 42 19 44 20 45 28 46 21 47 23 49
REMARK SMILES IDX 22 50 24 53 25 54 27 55 26 56
REMARK H PARENT 10 7 12 8 29 9 7 14 32 20 3 26 4 27 1 29 1 30 1 31 35 33 35 34
REMARK H PARENT 14 36 14 37 15 40 18 43 20 48 21 51 22 52 25 57 25 58 27 59
REMARK H PARENT 27 60 26 61 26 62
REMARK Flexibility Score: inf
ROOT
ATOM      1  C   UNL     1     -45.976  38.411  27.795  1.00  0.00     0.066 A 
ATOM      2  C   UNL     1     -47.258  38.454  28.333  1.00  0.00     0.051 A 
ATOM      3  N   UNL     1     -47.989  37.356  28.655  1.00  0.00    -0.262 NA
ATOM      4  C   UNL     1     -47.425  36.151  28.436  1.00  0.00     0.032 A 
ATOM      5  C   UNL     1     -46.149  35.983  27.916  1.00  0.00    -0.008 A 
ATOM      6  C   UNL     1     -45.424  37.138  27.585  1.00  0.00    -0.030 A 
ATOM      7  H   UNL     1     -47.796  39.374  28.530  1.00  0.00     0.086 H 
ATOM      8  H   UNL     1     -48.047  35.298  28.695  1.00  0.00     0.084 H 
ATOM      9  H   UNL     1     -44.425  37.006  27.182  1.00  0.00     0.065 H 
ENDROOT
BRANCH   1  10
ATOM     10  N   UNL     1     -45.249  39.600  27.463  1.00  0.00    -0.299 N 
ATOM     11  C   UNL     1     -44.646  41.481  26.370  1.00  0.00     0.033 A 
ATOM     12  C   UNL     1     -45.515  40.411  26.375  1.00  0.00     0.021 A 
ATOM     13  C   UNL     1     -43.752  41.316  27.456  1.00  0.00     0.071 A 
ATOM     14  H   UNL     1     -46.319  40.208  25.684  1.00  0.00     0.083 H 
ATOM     15  C   UNL     1     -44.164  40.168  28.138  1.00  0.00     0.150 A 
ATOM     16  C   UNL     1     -42.620  41.977  27.965  1.00  0.00     0.137 A 
ATOM     17  N   UNL     1     -43.578  39.683  29.250  1.00  0.00    -0.218 NA
ATOM     18  N   UNL     1     -42.029  41.513  29.080  1.00  0.00    -0.219 NA
ATOM     19  C   UNL     1     -42.537  40.415  29.659  1.00  0.00     0.120 A 
ATOM     20  H   UNL     1     -42.035  40.076  30.560  1.00  0.00     0.106 H 
BRANCH  11  21
ATOM     21  C   UNL     1     -44.671  42.566  25.394  1.00  0.00     0.095 A 
ATOM     22  N   UNL     1     -44.068  43.859  23.837  1.00  0.00    -0.275 N 
ATOM     23  C   UNL     1     -45.348  44.239  24.120  1.00  0.00     0.025 A 
ATOM     24  N   UNL     1     -43.635  42.832  24.591  1.00  0.00    -0.173 NA
ATOM     25  C   UNL     1     -45.776  43.402  25.126  1.00  0.00    -0.016 A 
ATOM     26  H   UNL     1     -45.841  45.042  23.591  1.00  0.00     0.084 H 
ATOM     27  H   UNL     1     -46.750  43.395  25.593  1.00  0.00     0.066 H 
BRANCH  22  28
ATOM     28  C   UNL     1     -43.192  44.431  22.845  1.00  0.00     0.030 C 
ATOM     29  H   UNL     1     -43.564  44.186  21.847  1.00  0.00     0.048 H 
ATOM     30  H   UNL     1     -43.176  45.515  22.982  1.00  0.00     0.048 H 
ATOM     31  H   UNL     1     -42.193  44.009  22.984  1.00  0.00     0.048 H 
ENDBRANCH  22  28
ENDBRANCH  11  21
BRANCH  16  32
ATOM     32  N   UNL     1     -42.012  43.079  27.374  1.00  0.00    -0.383 N 
ATOM     33  H   UNL     1     -41.959  43.889  27.980  1.00  0.00     0.158 HD
ATOM     34  H   UNL     1     -42.435  43.251  26.467  1.00  0.00     0.158 HD
ENDBRANCH  16  32
ENDBRANCH   1  10
BRANCH   5  35
ATOM     35  C   UNL     1     -45.586  34.610  27.690  1.00  0.00     0.046 C 
ATOM     36  H   UNL     1     -45.844  33.944  28.521  1.00  0.00     0.054 H 
ATOM     37  H   UNL     1     -44.492  34.654  27.646  1.00  0.00     0.054 H 
BRANCH  35  38
ATOM     38  N   UNL     1     -46.037  34.055  26.432  1.00  0.00    -0.334 N 
ATOM     39  C   UNL     1     -46.715  32.854  26.393  1.00  0.00     0.320 C 
ATOM     40  H   UNL     1     -46.253  34.713  25.699  1.00  0.00     0.165 HD
ATOM     41  O   UNL     1     -46.896  32.173  27.394  1.00  0.00    -0.248 OA
ATOM     42  N   UNL     1     -47.120  32.557  25.120  1.00  0.00    -0.292 N 
ATOM     43  H   UNL     1     -46.770  33.112  24.357  1.00  0.00     0.173 HD
BRANCH  42  44
ATOM     44  C   UNL     1     -47.861  31.460  24.678  1.00  0.00     0.136 A 
ATOM     45  C   UNL     1     -48.428  30.516  25.519  1.00  0.00    -0.019 A 
ATOM     46  N   UNL     1     -47.985  31.411  23.333  1.00  0.00    -0.214 NA
ATOM     47  C   UNL     1     -49.144  29.469  24.950  1.00  0.00    -0.055 A 
ATOM     48  H   UNL     1     -48.334  30.567  26.596  1.00  0.00     0.066 H 
ATOM     49  C   UNL     1     -48.688  30.395  22.781  1.00  0.00     0.130 A 
ATOM     50  C   UNL     1     -49.271  29.406  23.566  1.00  0.00    -0.019 A 
ATOM     51  H   UNL     1     -49.595  28.709  25.580  1.00  0.00     0.063 H 
ATOM     52  H   UNL     1     -49.816  28.585  23.112  1.00  0.00     0.066 H 
BRANCH  49  53
ATOM     53  N   UNL     1     -48.803  30.339  21.378  1.00  0.00    -0.356 N 
ATOM     54  C   UNL     1     -49.635  31.209  20.597  1.00  0.00     0.021 C 
ATOM     55  C   UNL     1     -49.155  29.189  20.597  1.00  0.00     0.021 C 
ATOM     56  C   UNL     1     -49.513  30.172  19.476  1.00  0.00    -0.018 C 
ATOM     57  H   UNL     1     -50.643  31.326  21.010  1.00  0.00     0.049 H 
ATOM     58  H   UNL     1     -49.182  32.182  20.398  1.00  0.00     0.049 H 
ATOM     59  H   UNL     1     -50.002  28.632  21.012  1.00  0.00     0.049 H 
ATOM     60  H   UNL     1     -48.314  28.524  20.392  1.00  0.00     0.049 H 
ATOM     61  H   UNL     1     -50.433  29.953  18.927  1.00  0.00     0.030 H 
ATOM     62  H   UNL     1     -48.700  30.365  18.767  1.00  0.00     0.030 H 
ENDBRANCH  49  53
ENDBRANCH  42  44
ENDBRANCH  35  38
ENDBRANCH   5  35
TORSDOF 8
ENDMDL
MODEL 6
REMARK VINA RESULT:      -9.4      2.692      4.166
REMARK SMILES Cn1ccc(-c2cn(-c3cncc(CNC(=O)Nc4cccc(N5CCC5)n4)c3)c3ncnc(N)c23)n1
REMARK SMILES IDX 9 1 10 2 11 3 12 4 13 5 29 6 8 10 6 11 7 12 36 13 30 15
REMARK SMILES IDX 34 16 31 17 33 18 32 19 5 21 2 22 3 23 37 24 4 25 1 28 35 32
REMARK SMILES IDX 14 35 15 38 16 39 17 41 18 42 19 44 20 45 28 46 21 47 23 49
REMARK SMILES IDX 22 50 24 53 25 54 27 55 26 56
REMARK H PARENT 10 7 12 8 29 9 7 14 32 20 3 26 4 27 1 29 1 30 1 31 35 33 35 34
REMARK H PARENT 14 36 14 37 15 40 18 43 20 48 21 51 22 52 25 57 25 58 27 59
REMARK H PARENT 27 60 26 61 26 62
REMARK Flexibility Score: inf
ROOT
ATOM      1  C   UNL     1     -46.045  38.113  27.530  1.00  0.00     0.066 A 
ATOM      2  C   UNL     1     -45.298  37.661  28.613  1.00  0.00     0.051 A 
ATOM      3  N   UNL     1     -45.397  36.414  29.140  1.00  0.00    -0.262 NA
ATOM      4  C   UNL     1     -46.277  35.567  28.569  1.00  0.00     0.032 A 
ATOM      5  C   UNL     1     -47.067  35.901  27.477  1.00  0.00    -0.008 A 
ATOM      6  C   UNL     1     -46.948  37.201  26.963  1.00  0.00    -0.030 A 
ATOM      7  H   UNL     1     -44.579  38.273  29.143  1.00  0.00     0.086 H 
ATOM      8  H   UNL     1     -46.335  34.583  29.029  1.00  0.00     0.084 H 
ATOM      9  H   UNL     1     -47.563  37.461  26.107  1.00  0.00     0.065 H 
ENDROOT
BRANCH   1  10
ATOM     10  N   UNL     1     -45.912  39.444  27.015  1.00  0.00    -0.299 N 
ATOM     11  C   UNL     1     -44.960  41.287  26.125  1.00  0.00     0.033 A 
ATOM     12  C   UNL     1     -44.725  40.008  26.583  1.00  0.00     0.021 A 
ATOM     13  C   UNL     1     -46.333  41.574  26.328  1.00  0.00     0.071 A 
ATOM     14  H   UNL     1     -43.790  39.470  26.592  1.00  0.00     0.083 H 
ATOM     15  C   UNL     1     -46.908  40.411  26.846  1.00  0.00     0.150 A 
ATOM     16  C   UNL     1     -47.188  42.678  26.161  1.00  0.00     0.137 A 
ATOM     17  N   UNL     1     -48.212  40.270  27.156  1.00  0.00    -0.218 NA
ATOM     18  N   UNL     1     -48.494  42.552  26.454  1.00  0.00    -0.219 NA
ATOM     19  C   UNL     1     -48.931  41.372  26.920  1.00  0.00     0.120 A 
ATOM     20  H   UNL     1     -49.992  41.310  27.140  1.00  0.00     0.106 H 
BRANCH  11  21
ATOM     21  C   UNL     1     -43.944  42.162  25.547  1.00  0.00     0.095 A 
ATOM     22  N   UNL     1     -42.956  43.440  24.188  1.00  0.00    -0.275 N 
ATOM     23  C   UNL     1     -42.156  43.434  25.293  1.00  0.00     0.025 A 
ATOM     24  N   UNL     1     -44.060  42.683  24.320  1.00  0.00    -0.173 NA
ATOM     25  C   UNL     1     -42.783  42.616  26.206  1.00  0.00    -0.016 A 
ATOM     26  H   UNL     1     -41.239  44.002  25.344  1.00  0.00     0.084 H 
ATOM     27  H   UNL     1     -42.448  42.387  27.208  1.00  0.00     0.066 H 
BRANCH  22  28
ATOM     28  C   UNL     1     -42.733  44.160  22.958  1.00  0.00     0.030 C 
ATOM     29  H   UNL     1     -43.688  44.315  22.449  1.00  0.00     0.048 H 
ATOM     30  H   UNL     1     -42.279  45.125  23.200  1.00  0.00     0.048 H 
ATOM     31  H   UNL     1     -42.066  43.567  22.328  1.00  0.00     0.048 H 
ENDBRANCH  22  28
ENDBRANCH  11  21
BRANCH  16  32
ATOM     32  N   UNL     1     -46.781  43.940  25.744  1.00  0.00    -0.383 N 
ATOM     33  H   UNL     1     -47.097  44.182  24.812  1.00  0.00     0.158 HD
ATOM     34  H   UNL     1     -45.783  44.040  25.897  1.00  0.00     0.158 HD
ENDBRANCH  16  32
ENDBRANCH   1  10
BRANCH   5  35
ATOM     35  C   UNL     1     -48.034  34.911  26.897  1.00  0.00     0.046 C 
ATOM     36  H   UNL     1     -48.919  35.421  26.500  1.00  0.00     0.054 H 
ATOM     37  H   UNL     1     -48.385  34.226  27.677  1.00  0.00     0.054 H 
BRANCH  35  38
ATOM     38  N   UNL     1     -47.410  34.100  25.874  1.00  0.00    -0.334 N 
ATOM     39  C   UNL     1     -48.015  32.945  25.422  1.00  0.00     0.320 C 
ATOM     40  H   UNL     1     -46.818  34.581  25.214  1.00  0.00     0.165 HD
ATOM     41  O   UNL     1     -49.052  32.516  25.911  1.00  0.00    -0.248 OA
ATOM     42  N   UNL     1     -47.300  32.380  24.402  1.00  0.00    -0.292 N 
ATOM     43  H   UNL     1     -46.380  32.735  24.198  1.00  0.00     0.173 HD
BRANCH  42  44
ATOM     44  C   UNL     1     -47.599  31.237  23.660  1.00  0.00     0.136 A 
ATOM     45  C   UNL     1     -47.006  30.002  23.863  1.00  0.00    -0.019 A 
ATOM     46  N   UNL     1     -48.546  31.449  22.719  1.00  0.00    -0.214 NA
ATOM     47  C   UNL     1     -47.396  28.941  23.054  1.00  0.00    -0.055 A 
ATOM     48  H   UNL     1     -46.256  29.836  24.626  1.00  0.00     0.066 H 
ATOM     49  C   UNL     1     -48.930  30.413  21.937  1.00  0.00     0.130 A 
ATOM     50  C   UNL     1     -48.364  29.150  22.077  1.00  0.00    -0.019 A 
ATOM     51  H   UNL     1     -46.945  27.962  23.181  1.00  0.00     0.063 H 
ATOM     52  H   UNL     1     -48.664  28.331  21.432  1.00  0.00     0.066 H 
BRANCH  49  53
ATOM     53  N   UNL     1     -49.905  30.640  20.947  1.00  0.00    -0.356 N 
ATOM     54  C   UNL     1     -51.121  31.375  21.160  1.00  0.00     0.021 C 
ATOM     55  C   UNL     1     -50.566  29.644  20.156  1.00  0.00     0.021 C 
ATOM     56  C   UNL     1     -51.646  30.700  19.889  1.00  0.00    -0.018 C 
ATOM     57  H   UNL     1     -51.639  31.090  22.081  1.00  0.00     0.049 H 
ATOM     58  H   UNL     1     -50.990  32.457  21.106  1.00  0.00     0.049 H 
ATOM     59  H   UNL     1     -50.899  28.781  20.744  1.00  0.00     0.049 H 
ATOM     60  H   UNL     1     -49.991  29.323  19.285  1.00  0.00     0.049 H 
ATOM     61  H   UNL     1     -52.679  30.346  19.928  1.00  0.00     0.030 H 
ATOM     62  H   UNL     1     -51.492  31.280  18.972  1.00  0.00     0.030 H 
ENDBRANCH  49  53
ENDBRANCH  42  44
ENDBRANCH  35  38
ENDBRANCH   5  35
TORSDOF 8
ENDMDL
MODEL 7
REMARK VINA RESULT:      -9.4      2.588      3.524
REMARK SMILES Cn1ccc(-c2cn(-c3cncc(CNC(=O)Nc4cccc(N5CCC5)n4)c3)c3ncnc(N)c23)n1
REMARK SMILES IDX 9 1 10 2 11 3 12 4 13 5 29 6 8 10 6 11 7 12 36 13 30 15
REMARK SMILES IDX 34 16 31 17 33 18 32 19 5 21 2 22 3 23 37 24 4 25 1 28 35 32
REMARK SMILES IDX 14 35 15 38 16 39 17 41 18 42 19 44 20 45 28 46 21 47 23 49
REMARK SMILES IDX 22 50 24 53 25 54 27 55 26 56
REMARK H PARENT 10 7 12 8 29 9 7 14 32 20 3 26 4 27 1 29 1 30 1 31 35 33 35 34
REMARK H PARENT 14 36 14 37 15 40 18 43 20 48 21 51 22 52 25 57 25 58 27 59
REMARK H PARENT 27 60 26 61 26 62
REMARK Flexibility Score: inf
ROOT
ATOM      1  C   UNL     1     -46.918  37.524  27.625  1.00  0.00     0.066 A 
ATOM      2  C   UNL     1     -46.830  37.069  28.937  1.00  0.00     0.051 A 
ATOM      3  N   UNL     1     -46.642  35.770  29.284  1.00  0.00    -0.262 NA
ATOM      4  C   UNL     1     -46.533  34.871  28.284  1.00  0.00     0.032 A 
ATOM      5  C   UNL     1     -46.592  35.208  26.938  1.00  0.00    -0.008 A 
ATOM      6  C   UNL     1     -46.797  36.558  26.614  1.00  0.00    -0.030 A 
ATOM      7  H   UNL     1     -46.920  37.714  29.803  1.00  0.00     0.086 H 
ATOM      8  H   UNL     1     -46.397  33.841  28.604  1.00  0.00     0.084 H 
ATOM      9  H   UNL     1     -46.840  36.821  25.562  1.00  0.00     0.065 H 
ENDROOT
BRANCH   1  10
ATOM     10  N   UNL     1     -47.126  38.906  27.310  1.00  0.00    -0.299 N 
ATOM     11  C   UNL     1     -48.179  40.886  27.054  1.00  0.00     0.033 A 
ATOM     12  C   UNL     1     -48.340  39.562  27.403  1.00  0.00     0.021 A 
ATOM     13  C   UNL     1     -46.829  41.069  26.663  1.00  0.00     0.071 A 
ATOM     14  H   UNL     1     -49.241  39.072  27.739  1.00  0.00     0.083 H 
ATOM     15  C   UNL     1     -46.190  39.843  26.863  1.00  0.00     0.150 A 
ATOM     16  C   UNL     1     -46.042  42.112  26.145  1.00  0.00     0.137 A 
ATOM     17  N   UNL     1     -44.883  39.611  26.628  1.00  0.00    -0.218 NA
ATOM     18  N   UNL     1     -44.734  41.901  25.915  1.00  0.00    -0.219 NA
ATOM     19  C   UNL     1     -44.231  40.685  26.172  1.00  0.00     0.120 A 
ATOM     20  H   UNL     1     -43.170  40.556  25.979  1.00  0.00     0.106 H 
BRANCH  11  21
ATOM     21  C   UNL     1     -49.240  41.888  27.086  1.00  0.00     0.095 A 
ATOM     22  N   UNL     1     -50.992  42.951  26.576  1.00  0.00    -0.275 N 
ATOM     23  C   UNL     1     -50.548  43.553  27.717  1.00  0.00     0.025 A 
ATOM     24  N   UNL     1     -50.220  41.924  26.176  1.00  0.00    -0.173 NA
ATOM     25  C   UNL     1     -49.410  42.871  28.084  1.00  0.00    -0.016 A 
ATOM     26  H   UNL     1     -51.068  44.385  28.170  1.00  0.00     0.084 H 
ATOM     27  H   UNL     1     -48.795  43.056  28.953  1.00  0.00     0.066 H 
BRANCH  22  28
ATOM     28  C   UNL     1     -52.163  43.300  25.809  1.00  0.00     0.030 C 
ATOM     29  H   UNL     1     -52.472  42.441  25.207  1.00  0.00     0.048 H 
ATOM     30  H   UNL     1     -52.960  43.576  26.503  1.00  0.00     0.048 H 
ATOM     31  H   UNL     1     -51.909  44.140  25.157  1.00  0.00     0.048 H 
ENDBRANCH  22  28
ENDBRANCH  11  21
BRANCH  16  32
ATOM     32  N   UNL     1     -46.520  43.371  25.799  1.00  0.00    -0.383 N 
ATOM     33  H   UNL     1     -47.526  43.404  25.678  1.00  0.00     0.158 HD
ATOM     34  H   UNL     1     -45.984  43.733  25.018  1.00  0.00     0.158 HD
ENDBRANCH  16  32
ENDBRANCH   1  10
BRANCH   5  35
ATOM     35  C   UNL     1     -46.473  34.154  25.876  1.00  0.00     0.046 C 
ATOM     36  H   UNL     1     -45.549  33.578  26.005  1.00  0.00     0.054 H 
ATOM     37  H   UNL     1     -46.421  34.621  24.886  1.00  0.00     0.054 H 
BRANCH  35  38
ATOM     38  N   UNL     1     -47.624  33.278  25.870  1.00  0.00    -0.334 N 
ATOM     39  C   UNL     1     -47.593  32.076  25.193  1.00  0.00     0.320 C 
ATOM     40  H   UNL     1     -48.229  33.320  26.676  1.00  0.00     0.165 HD
ATOM     41  O   UNL     1     -46.635  31.735  24.511  1.00  0.00    -0.248 OA
ATOM     42  N   UNL     1     -48.750  31.371  25.386  1.00  0.00    -0.292 N 
ATOM     43  H   UNL     1     -49.529  31.827  25.831  1.00  0.00     0.173 HD
BRANCH  42  44
ATOM     44  C   UNL     1     -49.085  30.104  24.905  1.00  0.00     0.136 A 
ATOM     45  C   UNL     1     -49.908  29.881  23.813  1.00  0.00    -0.019 A 
ATOM     46  N   UNL     1     -48.513  29.102  25.608  1.00  0.00    -0.214 NA
ATOM     47  C   UNL     1     -50.163  28.568  23.435  1.00  0.00    -0.055 A 
ATOM     48  H   UNL     1     -50.355  30.689  23.248  1.00  0.00     0.066 H 
ATOM     49  C   UNL     1     -48.757  27.824  25.234  1.00  0.00     0.130 A 
ATOM     50  C   UNL     1     -49.585  27.528  24.157  1.00  0.00    -0.019 A 
ATOM     51  H   UNL     1     -50.810  28.358  22.589  1.00  0.00     0.063 H 
ATOM     52  H   UNL     1     -49.790  26.500  23.878  1.00  0.00     0.066 H 
BRANCH  49  53
ATOM     53  N   UNL     1     -48.171  26.781  25.978  1.00  0.00    -0.356 N 
ATOM     54  C   UNL     1     -46.953  26.113  25.617  1.00  0.00     0.021 C 
ATOM     55  C   UNL     1     -48.804  25.558  26.376  1.00  0.00     0.021 C 
ATOM     56  C   UNL     1     -47.391  24.993  26.567  1.00  0.00    -0.018 C 
ATOM     57  H   UNL     1     -46.913  25.832  24.560  1.00  0.00     0.049 H 
ATOM     58  H   UNL     1     -46.054  26.660  25.908  1.00  0.00     0.049 H 
ATOM     59  H   UNL     1     -49.383  25.093  25.570  1.00  0.00     0.049 H 
ATOM     60  H   UNL     1     -49.404  25.649  27.284  1.00  0.00     0.049 H 
ATOM     61  H   UNL     1     -47.233  23.973  26.206  1.00  0.00     0.030 H 
ATOM     62  H   UNL     1     -47.002  25.086  27.587  1.00  0.00     0.030 H 
ENDBRANCH  49  53
ENDBRANCH  42  44
ENDBRANCH  35  38
ENDBRANCH   5  35
TORSDOF 8
ENDMDL
