MODEL 1
REMARK VINA RESULT:     -10.4      0.000      0.000
REMARK SMILES CNc1ccc2ccc(OC[C@H]3O[C@@H](n4cc(-c5cnn(C)c5)c5c(N)ncnc54)[C@@H](F)[C@@H]3O)cc2n1
REMARK SMILES IDX 11 1 10 4 9 5 3 6 4 7 37 8 5 9 36 11 6 12 35 14 7 15 8 17
REMARK SMILES IDX 2 20 1 22 12 26 13 27 33 28 14 30 31 31 32 34 34 36 15 38
REMARK SMILES IDX 16 39 30 40 17 41 24 43 29 44 25 45 28 46 27 47 18 49 19 50
REMARK SMILES IDX 23 51 20 52 21 54 22 56 26 60
REMARK H PARENT 11 2 11 3 4 10 5 13 35 16 7 18 8 19 2 21 1 23 1 24 1 25 12 29
REMARK H PARENT 33 32 14 33 31 35 34 37 16 42 28 48 19 53 23 55 22 57 22 58
REMARK H PARENT 22 59 26 61 26 62
REMARK Flexibility Score: inf
ROOT
ATOM      1  C   UNL     1     -46.677  36.553  27.056  1.00  0.00     0.117 C 
ATOM      2  H   UNL     1     -47.757  36.466  27.213  1.00  0.00     0.073 H 
ATOM      3  H   UNL     1     -46.420  37.587  26.808  1.00  0.00     0.073 H 
ENDROOT
BRANCH   1   4
ATOM      4  O   UNL     1     -46.300  35.679  25.982  1.00  0.00    -0.491 OA
BRANCH   4   5
ATOM      5  C   UNL     1     -47.061  34.549  25.842  1.00  0.00     0.121 A 
ATOM      6  C   UNL     1     -47.244  30.258  23.778  1.00  0.00     0.126 A 
ATOM      7  C   UNL     1     -48.471  29.979  24.369  1.00  0.00    -0.019 A 
ATOM      8  N   UNL     1     -46.611  31.430  23.986  1.00  0.00    -0.231 NA
ATOM      9  C   UNL     1     -49.071  30.935  25.183  1.00  0.00    -0.049 A 
ATOM     10  H   UNL     1     -48.954  29.021  24.211  1.00  0.00     0.066 H 
ATOM     11  C   UNL     1     -47.173  32.353  24.790  1.00  0.00     0.076 A 
ATOM     12  C   UNL     1     -48.420  32.149  25.411  1.00  0.00     0.001 A 
ATOM     13  H   UNL     1     -50.030  30.719  25.643  1.00  0.00     0.063 H 
ATOM     14  C   UNL     1     -46.514  33.552  25.028  1.00  0.00     0.007 A 
ATOM     15  C   UNL     1     -48.971  33.139  26.242  1.00  0.00    -0.049 A 
ATOM     16  H   UNL     1     -45.549  33.720  24.557  1.00  0.00     0.069 H 
ATOM     17  C   UNL     1     -48.288  34.335  26.462  1.00  0.00    -0.019 A 
ATOM     18  H   UNL     1     -49.931  32.980  26.727  1.00  0.00     0.063 H 
ATOM     19  H   UNL     1     -48.730  35.072  27.125  1.00  0.00     0.066 H 
BRANCH   6  20
ATOM     20  N   UNL     1     -46.652  29.258  22.988  1.00  0.00    -0.373 N 
ATOM     21  H   UNL     1     -47.281  28.993  22.237  1.00  0.00     0.161 HD
BRANCH  20  22
ATOM     22  C   UNL     1     -45.320  29.583  22.506  1.00  0.00     0.005 C 
ATOM     23  H   UNL     1     -44.551  28.988  23.012  1.00  0.00     0.045 H 
ATOM     24  H   UNL     1     -45.239  29.443  21.421  1.00  0.00     0.045 H 
ATOM     25  H   UNL     1     -45.113  30.637  22.715  1.00  0.00     0.045 H 
ENDBRANCH  20  22
ENDBRANCH   6  20
ENDBRANCH   4   5
ENDBRANCH   1   4
BRANCH   1  26
ATOM     26  C   UNL     1     -45.923  36.110  28.326  1.00  0.00     0.123 C 
ATOM     27  O   UNL     1     -44.671  36.827  28.411  1.00  0.00    -0.345 OA
ATOM     28  C   UNL     1     -46.671  36.453  29.613  1.00  0.00     0.119 C 
ATOM     29  H   UNL     1     -45.675  35.046  28.263  1.00  0.00     0.067 H 
ATOM     30  C   UNL     1     -44.852  37.945  29.318  1.00  0.00     0.169 C 
ATOM     31  C   UNL     1     -46.290  37.901  29.834  1.00  0.00     0.173 C 
ATOM     32  H   UNL     1     -47.751  36.304  29.528  1.00  0.00     0.066 H 
ATOM     33  H   UNL     1     -44.132  37.797  30.131  1.00  0.00     0.088 H 
ATOM     34  F   UNL     1     -47.123  38.668  29.073  1.00  0.00    -0.239 F 
ATOM     35  H   UNL     1     -46.370  38.237  30.871  1.00  0.00     0.074 H 
BRANCH  28  36
ATOM     36  O   UNL     1     -46.197  35.671  30.714  1.00  0.00    -0.387 OA
ATOM     37  H   UNL     1     -45.424  35.160  30.414  1.00  0.00     0.211 HD
ENDBRANCH  28  36
BRANCH  30  38
ATOM     38  N   UNL     1     -44.504  39.184  28.640  1.00  0.00    -0.302 N 
ATOM     39  C   UNL     1     -45.134  39.731  27.554  1.00  0.00     0.017 A 
ATOM     40  C   UNL     1     -43.471  40.001  29.024  1.00  0.00     0.148 A 
ATOM     41  C   UNL     1     -44.546  40.950  27.283  1.00  0.00     0.016 A 
ATOM     42  H   UNL     1     -45.970  39.235  27.079  1.00  0.00     0.083 H 
ATOM     43  C   UNL     1     -43.448  41.112  28.182  1.00  0.00     0.069 A 
ATOM     44  N   UNL     1     -42.637  39.746  30.048  1.00  0.00    -0.218 NA
ATOM     45  C   UNL     1     -42.412  42.033  28.414  1.00  0.00     0.136 A 
ATOM     46  C   UNL     1     -41.717  40.712  30.184  1.00  0.00     0.120 A 
ATOM     47  N   UNL     1     -41.555  41.815  29.432  1.00  0.00    -0.219 NA
ATOM     48  H   UNL     1     -41.009  40.586  30.998  1.00  0.00     0.106 H 
BRANCH  41  49
ATOM     49  C   UNL     1     -45.008  41.864  26.250  1.00  0.00     0.022 A 
ATOM     50  C   UNL     1     -44.383  42.162  25.024  1.00  0.00     0.057 A 
ATOM     51  C   UNL     1     -46.103  42.696  26.295  1.00  0.00     0.032 A 
ATOM     52  N   UNL     1     -45.060  43.073  24.318  1.00  0.00    -0.181 NA
ATOM     53  H   UNL     1     -43.463  41.763  24.616  1.00  0.00     0.087 H 
ATOM     54  N   UNL     1     -46.092  43.392  25.124  1.00  0.00    -0.275 N 
ATOM     55  H   UNL     1     -46.862  42.854  27.049  1.00  0.00     0.084 H 
BRANCH  54  56
ATOM     56  C   UNL     1     -47.044  44.388  24.702  1.00  0.00     0.030 C 
ATOM     57  H   UNL     1     -46.555  45.364  24.722  1.00  0.00     0.048 H 
ATOM     58  H   UNL     1     -47.902  44.383  25.378  1.00  0.00     0.048 H 
ATOM     59  H   UNL     1     -47.371  44.145  23.687  1.00  0.00     0.048 H 
ENDBRANCH  54  56
ENDBRANCH  41  49
BRANCH  45  60
ATOM     60  N   UNL     1     -42.161  43.157  27.637  1.00  0.00    -0.383 N 
ATOM     61  H   UNL     1     -42.402  42.969  26.670  1.00  0.00     0.158 HD
ATOM     62  H   UNL     1     -42.545  44.013  28.017  1.00  0.00     0.158 HD
ENDBRANCH  45  60
ENDBRANCH  30  38
ENDBRANCH   1  26
TORSDOF 10
ENDMDL
MODEL 2
REMARK VINA RESULT:      -9.1      3.787      8.169
REMARK SMILES CNc1ccc2ccc(OC[C@H]3O[C@@H](n4cc(-c5cnn(C)c5)c5c(N)ncnc54)[C@@H](F)[C@@H]3O)cc2n1
REMARK SMILES IDX 11 1 10 4 9 5 3 6 4 7 37 8 5 9 36 11 6 12 35 14 7 15 8 17
REMARK SMILES IDX 2 20 1 22 12 26 13 27 33 28 14 30 31 31 32 34 34 36 15 38
REMARK SMILES IDX 16 39 30 40 17 41 24 43 29 44 25 45 28 46 27 47 18 49 19 50
REMARK SMILES IDX 23 51 20 52 21 54 22 56 26 60
REMARK H PARENT 11 2 11 3 4 10 5 13 35 16 7 18 8 19 2 21 1 23 1 24 1 25 12 29
REMARK H PARENT 33 32 14 33 31 35 34 37 16 42 28 48 19 53 23 55 22 57 22 58
REMARK H PARENT 22 59 26 61 26 62
REMARK Flexibility Score: inf
ROOT
ATOM      1  C   UNL     1     -44.782  37.353  28.122  1.00  0.00     0.117 C 
ATOM      2  H   UNL     1     -43.746  37.105  27.869  1.00  0.00     0.073 H 
ATOM      3  H   UNL     1     -45.339  37.593  27.211  1.00  0.00     0.073 H 
ENDROOT
BRANCH   1   4
ATOM      4  O   UNL     1     -44.778  38.480  29.011  1.00  0.00    -0.491 OA
BRANCH   4   5
ATOM      5  C   UNL     1     -44.150  39.603  28.542  1.00  0.00     0.121 A 
ATOM      6  C   UNL     1     -43.989  42.701  24.924  1.00  0.00     0.126 A 
ATOM      7  C   UNL     1     -42.989  43.439  25.545  1.00  0.00    -0.019 A 
ATOM      8  N   UNL     1     -44.506  41.593  25.494  1.00  0.00    -0.231 NA
ATOM      9  C   UNL     1     -42.496  43.021  26.778  1.00  0.00    -0.049 A 
ATOM     10  H   UNL     1     -42.603  44.342  25.084  1.00  0.00     0.066 H 
ATOM     11  C   UNL     1     -44.051  41.194  26.697  1.00  0.00     0.076 A 
ATOM     12  C   UNL     1     -43.030  41.881  27.380  1.00  0.00     0.001 A 
ATOM     13  H   UNL     1     -41.714  43.597  27.263  1.00  0.00     0.063 H 
ATOM     14  C   UNL     1     -44.597  40.068  27.300  1.00  0.00     0.007 A 
ATOM     15  C   UNL     1     -42.584  41.429  28.634  1.00  0.00    -0.049 A 
ATOM     16  H   UNL     1     -45.388  39.531  26.784  1.00  0.00     0.069 H 
ATOM     17  C   UNL     1     -43.149  40.294  29.216  1.00  0.00    -0.019 A 
ATOM     18  H   UNL     1     -41.800  41.963  29.165  1.00  0.00     0.063 H 
ATOM     19  H   UNL     1     -42.797  39.982  30.194  1.00  0.00     0.066 H 
BRANCH   6  20
ATOM     20  N   UNL     1     -44.486  43.169  23.695  1.00  0.00    -0.373 N 
ATOM     21  H   UNL     1     -45.456  43.448  23.800  1.00  0.00     0.161 HD
BRANCH  20  22
ATOM     22  C   UNL     1     -43.677  44.203  23.073  1.00  0.00     0.005 C 
ATOM     23  H   UNL     1     -42.706  44.308  23.570  1.00  0.00     0.045 H 
ATOM     24  H   UNL     1     -43.526  44.009  22.005  1.00  0.00     0.045 H 
ATOM     25  H   UNL     1     -44.198  45.162  23.160  1.00  0.00     0.045 H 
ENDBRANCH  20  22
ENDBRANCH   6  20
ENDBRANCH   4   5
ENDBRANCH   1   4
BRANCH   1  26
ATOM     26  C   UNL     1     -45.444  36.167  28.850  1.00  0.00     0.123 C 
ATOM     27  O   UNL     1     -46.628  36.630  29.537  1.00  0.00    -0.345 OA
ATOM     28  C   UNL     1     -45.933  35.079  27.896  1.00  0.00     0.119 C 
ATOM     29  H   UNL     1     -44.768  35.773  29.616  1.00  0.00     0.067 H 
ATOM     30  C   UNL     1     -47.779  36.325  28.707  1.00  0.00     0.169 C 
ATOM     31  C   UNL     1     -47.275  35.617  27.450  1.00  0.00     0.173 C 
ATOM     32  H   UNL     1     -45.245  34.905  27.064  1.00  0.00     0.066 H 
ATOM     33  H   UNL     1     -48.419  35.667  29.307  1.00  0.00     0.088 H 
ATOM     34  F   UNL     1     -47.051  36.495  26.432  1.00  0.00    -0.239 F 
ATOM     35  H   UNL     1     -47.973  34.854  27.095  1.00  0.00     0.074 H 
BRANCH  28  36
ATOM     36  O   UNL     1     -46.129  33.837  28.580  1.00  0.00    -0.387 OA
ATOM     37  H   UNL     1     -45.353  33.676  29.146  1.00  0.00     0.211 HD
ENDBRANCH  28  36
BRANCH  30  38
ATOM     38  N   UNL     1     -48.525  37.544  28.441  1.00  0.00    -0.302 N 
ATOM     39  C   UNL     1     -48.036  38.823  28.439  1.00  0.00     0.017 A 
ATOM     40  C   UNL     1     -49.862  37.570  28.132  1.00  0.00     0.148 A 
ATOM     41  C   UNL     1     -49.051  39.674  28.052  1.00  0.00     0.016 A 
ATOM     42  H   UNL     1     -47.000  39.030  28.677  1.00  0.00     0.083 H 
ATOM     43  C   UNL     1     -50.238  38.894  27.903  1.00  0.00     0.069 A 
ATOM     44  N   UNL     1     -50.651  36.484  28.068  1.00  0.00    -0.218 NA
ATOM     45  C   UNL     1     -51.598  39.101  27.616  1.00  0.00     0.136 A 
ATOM     46  C   UNL     1     -51.914  36.812  27.756  1.00  0.00     0.120 A 
ATOM     47  N   UNL     1     -52.424  38.037  27.541  1.00  0.00    -0.219 NA
ATOM     48  H   UNL     1     -52.615  35.987  27.674  1.00  0.00     0.106 H 
BRANCH  41  49
ATOM     49  C   UNL     1     -48.881  41.104  27.850  1.00  0.00     0.022 A 
ATOM     50  C   UNL     1     -49.406  42.151  28.631  1.00  0.00     0.057 A 
ATOM     51  C   UNL     1     -48.248  41.734  26.802  1.00  0.00     0.032 A 
ATOM     52  N   UNL     1     -49.084  43.356  28.148  1.00  0.00    -0.181 NA
ATOM     53  H   UNL     1     -50.014  42.093  29.526  1.00  0.00     0.087 H 
ATOM     54  N   UNL     1     -48.395  43.070  27.026  1.00  0.00    -0.275 N 
ATOM     55  H   UNL     1     -47.731  41.351  25.933  1.00  0.00     0.084 H 
BRANCH  54  56
ATOM     56  C   UNL     1     -47.898  44.143  26.202  1.00  0.00     0.030 C 
ATOM     57  H   UNL     1     -47.847  45.049  26.809  1.00  0.00     0.048 H 
ATOM     58  H   UNL     1     -48.572  44.295  25.356  1.00  0.00     0.048 H 
ATOM     59  H   UNL     1     -46.904  43.868  25.839  1.00  0.00     0.048 H 
ENDBRANCH  54  56
ENDBRANCH  41  49
BRANCH  45  60
ATOM     60  N   UNL     1     -52.191  40.345  27.442  1.00  0.00    -0.383 N 
ATOM     61  H   UNL     1     -51.524  41.078  27.656  1.00  0.00     0.158 HD
ATOM     62  H   UNL     1     -52.676  40.449  26.559  1.00  0.00     0.158 HD
ENDBRANCH  45  60
ENDBRANCH  30  38
ENDBRANCH   1  26
TORSDOF 10
ENDMDL
MODEL 3
REMARK VINA RESULT:      -9.0      3.968      6.526
REMARK SMILES CNc1ccc2ccc(OC[C@H]3O[C@@H](n4cc(-c5cnn(C)c5)c5c(N)ncnc54)[C@@H](F)[C@@H]3O)cc2n1
REMARK SMILES IDX 11 1 10 4 9 5 3 6 4 7 37 8 5 9 36 11 6 12 35 14 7 15 8 17
REMARK SMILES IDX 2 20 1 22 12 26 13 27 33 28 14 30 31 31 32 34 34 36 15 38
REMARK SMILES IDX 16 39 30 40 17 41 24 43 29 44 25 45 28 46 27 47 18 49 19 50
REMARK SMILES IDX 23 51 20 52 21 54 22 56 26 60
REMARK H PARENT 11 2 11 3 4 10 5 13 35 16 7 18 8 19 2 21 1 23 1 24 1 25 12 29
REMARK H PARENT 33 32 14 33 31 35 34 37 16 42 28 48 19 53 23 55 22 57 22 58
REMARK H PARENT 22 59 26 61 26 62
REMARK Flexibility Score: inf
ROOT
ATOM      1  C   UNL     1     -47.733  37.352  27.372  1.00  0.00     0.117 C 
ATOM      2  H   UNL     1     -47.407  38.398  27.380  1.00  0.00     0.073 H 
ATOM      3  H   UNL     1     -47.859  37.010  26.341  1.00  0.00     0.073 H 
ENDROOT
BRANCH   1   4
ATOM      4  O   UNL     1     -48.979  37.258  28.080  1.00  0.00    -0.491 OA
BRANCH   4   5
ATOM      5  C   UNL     1     -49.727  38.404  28.119  1.00  0.00     0.121 A 
ATOM      6  C   UNL     1     -49.491  43.163  28.054  1.00  0.00     0.126 A 
ATOM      7  C   UNL     1     -50.875  43.275  28.118  1.00  0.00    -0.019 A 
ATOM      8  N   UNL     1     -48.880  41.961  28.045  1.00  0.00    -0.231 NA
ATOM      9  C   UNL     1     -51.651  42.122  28.190  1.00  0.00    -0.049 A 
ATOM     10  H   UNL     1     -51.351  44.250  28.098  1.00  0.00     0.066 H 
ATOM     11  C   UNL     1     -49.624  40.840  28.092  1.00  0.00     0.076 A 
ATOM     12  C   UNL     1     -51.029  40.873  28.174  1.00  0.00     0.001 A 
ATOM     13  H   UNL     1     -52.732  42.209  28.242  1.00  0.00     0.063 H 
ATOM     14  C   UNL     1     -49.002  39.598  28.058  1.00  0.00     0.007 A 
ATOM     15  C   UNL     1     -51.767  39.678  28.220  1.00  0.00    -0.049 A 
ATOM     16  H   UNL     1     -47.917  39.560  27.992  1.00  0.00     0.069 H 
ATOM     17  C   UNL     1     -51.116  38.445  28.187  1.00  0.00    -0.019 A 
ATOM     18  H   UNL     1     -52.853  39.703  28.278  1.00  0.00     0.063 H 
ATOM     19  H   UNL     1     -51.715  37.540  28.205  1.00  0.00     0.066 H 
BRANCH   6  20
ATOM     20  N   UNL     1     -48.740  44.346  27.950  1.00  0.00    -0.373 N 
ATOM     21  H   UNL     1     -47.749  44.126  27.955  1.00  0.00     0.161 HD
BRANCH  20  22
ATOM     22  C   UNL     1     -49.112  45.200  26.834  1.00  0.00     0.005 C 
ATOM     23  H   UNL     1     -48.826  46.242  27.011  1.00  0.00     0.045 H 
ATOM     24  H   UNL     1     -48.670  44.849  25.894  1.00  0.00     0.045 H 
ATOM     25  H   UNL     1     -50.200  45.171  26.713  1.00  0.00     0.045 H 
ENDBRANCH  20  22
ENDBRANCH   6  20
ENDBRANCH   4   5
ENDBRANCH   1   4
BRANCH   1  26
ATOM     26  C   UNL     1     -46.698  36.473  28.100  1.00  0.00     0.123 C 
ATOM     27  O   UNL     1     -45.367  36.926  27.764  1.00  0.00    -0.345 OA
ATOM     28  C   UNL     1     -46.786  36.581  29.621  1.00  0.00     0.119 C 
ATOM     29  H   UNL     1     -46.776  35.437  27.754  1.00  0.00     0.067 H 
ATOM     30  C   UNL     1     -44.896  37.779  28.839  1.00  0.00     0.169 C 
ATOM     31  C   UNL     1     -45.991  37.837  29.904  1.00  0.00     0.173 C 
ATOM     32  H   UNL     1     -47.817  36.639  29.982  1.00  0.00     0.066 H 
ATOM     33  H   UNL     1     -43.987  37.305  29.226  1.00  0.00     0.088 H 
ATOM     34  F   UNL     1     -46.820  38.903  29.718  1.00  0.00    -0.239 F 
ATOM     35  H   UNL     1     -45.582  37.896  30.916  1.00  0.00     0.074 H 
BRANCH  28  36
ATOM     36  O   UNL     1     -46.151  35.469  30.261  1.00  0.00    -0.387 OA
ATOM     37  H   UNL     1     -45.440  35.149  29.677  1.00  0.00     0.211 HD
ENDBRANCH  28  36
BRANCH  30  38
ATOM     38  N   UNL     1     -44.523  39.078  28.302  1.00  0.00    -0.302 N 
ATOM     39  C   UNL     1     -45.064  39.702  27.209  1.00  0.00     0.017 A 
ATOM     40  C   UNL     1     -43.556  39.882  28.850  1.00  0.00     0.148 A 
ATOM     41  C   UNL     1     -44.490  40.952  27.098  1.00  0.00     0.016 A 
ATOM     42  H   UNL     1     -45.837  39.229  26.617  1.00  0.00     0.083 H 
ATOM     43  C   UNL     1     -43.487  41.062  28.108  1.00  0.00     0.069 A 
ATOM     44  N   UNL     1     -42.815  39.560  29.925  1.00  0.00    -0.218 NA
ATOM     45  C   UNL     1     -42.506  41.982  28.514  1.00  0.00     0.136 A 
ATOM     46  C   UNL     1     -41.942  40.531  30.228  1.00  0.00     0.120 A 
ATOM     47  N   UNL     1     -41.742  41.697  29.589  1.00  0.00    -0.219 NA
ATOM     48  H   UNL     1     -41.310  40.352  31.093  1.00  0.00     0.106 H 
BRANCH  41  49
ATOM     49  C   UNL     1     -44.880  41.940  26.104  1.00  0.00     0.022 A 
ATOM     50  C   UNL     1     -46.079  42.677  26.049  1.00  0.00     0.057 A 
ATOM     51  C   UNL     1     -44.199  42.295  24.962  1.00  0.00     0.032 A 
ATOM     52  N   UNL     1     -46.131  43.481  24.982  1.00  0.00    -0.181 NA
ATOM     53  H   UNL     1     -46.919  42.660  26.732  1.00  0.00     0.087 H 
ATOM     54  N   UNL     1     -44.983  43.214  24.330  1.00  0.00    -0.275 N 
ATOM     55  H   UNL     1     -43.254  41.968  24.552  1.00  0.00     0.084 H 
BRANCH  54  56
ATOM     56  C   UNL     1     -44.695  43.886  23.088  1.00  0.00     0.030 C 
ATOM     57  H   UNL     1     -43.644  44.179  23.090  1.00  0.00     0.048 H 
ATOM     58  H   UNL     1     -45.332  44.769  22.995  1.00  0.00     0.048 H 
ATOM     59  H   UNL     1     -44.899  43.194  22.266  1.00  0.00     0.048 H 
ENDBRANCH  54  56
ENDBRANCH  41  49
BRANCH  45  60
ATOM     60  N   UNL     1     -42.217  43.173  27.860  1.00  0.00    -0.383 N 
ATOM     61  H   UNL     1     -42.962  43.842  28.018  1.00  0.00     0.158 HD
ATOM     62  H   UNL     1     -41.282  43.521  28.035  1.00  0.00     0.158 HD
ENDBRANCH  45  60
ENDBRANCH  30  38
ENDBRANCH   1  26
TORSDOF 10
ENDMDL
MODEL 4
REMARK VINA RESULT:      -8.4      4.083     12.631
REMARK SMILES CNc1ccc2ccc(OC[C@H]3O[C@@H](n4cc(-c5cnn(C)c5)c5c(N)ncnc54)[C@@H](F)[C@@H]3O)cc2n1
REMARK SMILES IDX 11 1 10 4 9 5 3 6 4 7 37 8 5 9 36 11 6 12 35 14 7 15 8 17
REMARK SMILES IDX 2 20 1 22 12 26 13 27 33 28 14 30 31 31 32 34 34 36 15 38
REMARK SMILES IDX 16 39 30 40 17 41 24 43 29 44 25 45 28 46 27 47 18 49 19 50
REMARK SMILES IDX 23 51 20 52 21 54 22 56 26 60
REMARK H PARENT 11 2 11 3 4 10 5 13 35 16 7 18 8 19 2 21 1 23 1 24 1 25 12 29
REMARK H PARENT 33 32 14 33 31 35 34 37 16 42 28 48 19 53 23 55 22 57 22 58
REMARK H PARENT 22 59 26 61 26 62
REMARK Flexibility Score: inf
ROOT
ATOM      1  C   UNL     1     -46.959  31.735  24.291  1.00  0.00     0.117 C 
ATOM      2  H   UNL     1     -47.711  32.449  23.938  1.00  0.00     0.073 H 
ATOM      3  H   UNL     1     -47.452  30.838  24.677  1.00  0.00     0.073 H 
ENDROOT
BRANCH   1   4
ATOM      4  O   UNL     1     -46.189  32.361  25.328  1.00  0.00    -0.491 OA
BRANCH   4   5
ATOM      5  C   UNL     1     -46.787  33.422  25.954  1.00  0.00     0.121 A 
ATOM      6  C   UNL     1     -45.949  37.455  28.350  1.00  0.00     0.126 A 
ATOM      7  C   UNL     1     -47.308  37.719  28.465  1.00  0.00    -0.019 A 
ATOM      8  N   UNL     1     -45.495  36.352  27.720  1.00  0.00    -0.231 NA
ATOM      9  C   UNL     1     -48.227  36.818  27.935  1.00  0.00    -0.049 A 
ATOM     10  H   UNL     1     -47.655  38.625  28.951  1.00  0.00     0.066 H 
ATOM     11  C   UNL     1     -46.376  35.485  27.185  1.00  0.00     0.076 A 
ATOM     12  C   UNL     1     -47.768  35.676  27.276  1.00  0.00     0.001 A 
ATOM     13  H   UNL     1     -49.289  37.022  28.027  1.00  0.00     0.063 H 
ATOM     14  C   UNL     1     -45.914  34.360  26.515  1.00  0.00     0.007 A 
ATOM     15  C   UNL     1     -48.652  34.747  26.702  1.00  0.00    -0.049 A 
ATOM     16  H   UNL     1     -44.842  34.203  26.436  1.00  0.00     0.069 H 
ATOM     17  C   UNL     1     -48.161  33.624  26.037  1.00  0.00    -0.019 A 
ATOM     18  H   UNL     1     -49.727  34.897  26.767  1.00  0.00     0.063 H 
ATOM     19  H   UNL     1     -48.869  32.935  25.587  1.00  0.00     0.066 H 
BRANCH   6  20
ATOM     20  N   UNL     1     -45.048  38.402  28.867  1.00  0.00    -0.373 N 
ATOM     21  H   UNL     1     -45.441  39.334  28.782  1.00  0.00     0.161 HD
BRANCH  20  22
ATOM     22  C   UNL     1     -44.585  38.117  30.215  1.00  0.00     0.005 C 
ATOM     23  H   UNL     1     -45.172  38.658  30.966  1.00  0.00     0.045 H 
ATOM     24  H   UNL     1     -44.610  37.043  30.431  1.00  0.00     0.045 H 
ATOM     25  H   UNL     1     -43.545  38.444  30.310  1.00  0.00     0.045 H 
ENDBRANCH  20  22
ENDBRANCH   6  20
ENDBRANCH   4   5
ENDBRANCH   1   4
BRANCH   1  26
ATOM     26  C   UNL     1     -46.006  31.362  23.139  1.00  0.00     0.123 C 
ATOM     27  O   UNL     1     -46.068  29.937  22.911  1.00  0.00    -0.345 OA
ATOM     28  C   UNL     1     -46.400  32.000  21.808  1.00  0.00     0.119 C 
ATOM     29  H   UNL     1     -44.973  31.593  23.418  1.00  0.00     0.067 H 
ATOM     30  C   UNL     1     -46.966  29.698  21.795  1.00  0.00     0.169 C 
ATOM     31  C   UNL     1     -47.465  31.054  21.298  1.00  0.00     0.173 C 
ATOM     32  H   UNL     1     -46.760  33.027  21.921  1.00  0.00     0.066 H 
ATOM     33  H   UNL     1     -46.369  29.187  21.031  1.00  0.00     0.088 H 
ATOM     34  F   UNL     1     -48.645  31.403  21.885  1.00  0.00    -0.239 F 
ATOM     35  H   UNL     1     -47.606  31.072  20.214  1.00  0.00     0.074 H 
BRANCH  28  36
ATOM     36  O   UNL     1     -45.302  32.010  20.890  1.00  0.00    -0.387 OA
ATOM     37  H   UNL     1     -45.660  32.124  19.991  1.00  0.00     0.211 HD
ENDBRANCH  28  36
BRANCH  30  38
ATOM     38  N   UNL     1     -48.025  28.791  22.207  1.00  0.00    -0.302 N 
ATOM     39  C   UNL     1     -48.194  28.234  23.447  1.00  0.00     0.017 A 
ATOM     40  C   UNL     1     -49.037  28.372  21.381  1.00  0.00     0.148 A 
ATOM     41  C   UNL     1     -49.368  27.509  23.438  1.00  0.00     0.016 A 
ATOM     42  H   UNL     1     -47.491  28.422  24.249  1.00  0.00     0.083 H 
ATOM     43  C   UNL     1     -49.891  27.545  22.110  1.00  0.00     0.069 A 
ATOM     44  N   UNL     1     -49.158  28.720  20.088  1.00  0.00    -0.218 NA
ATOM     45  C   UNL     1     -50.964  26.991  21.392  1.00  0.00     0.136 A 
ATOM     46  C   UNL     1     -50.236  28.152  19.526  1.00  0.00     0.120 A 
ATOM     47  N   UNL     1     -51.123  27.316  20.092  1.00  0.00    -0.219 NA
ATOM     48  H   UNL     1     -50.411  28.391  18.481  1.00  0.00     0.106 H 
BRANCH  41  49
ATOM     49  C   UNL     1     -49.924  26.846  24.608  1.00  0.00     0.022 A 
ATOM     50  C   UNL     1     -49.266  25.972  25.494  1.00  0.00     0.057 A 
ATOM     51  C   UNL     1     -51.230  26.864  25.040  1.00  0.00     0.032 A 
ATOM     52  N   UNL     1     -50.079  25.513  26.451  1.00  0.00    -0.181 NA
ATOM     53  H   UNL     1     -48.234  25.644  25.483  1.00  0.00     0.087 H 
ATOM     54  N   UNL     1     -51.271  26.058  26.138  1.00  0.00    -0.275 N 
ATOM     55  H   UNL     1     -52.112  27.360  24.659  1.00  0.00     0.084 H 
BRANCH  54  56
ATOM     56  C   UNL     1     -52.425  25.759  26.948  1.00  0.00     0.030 C 
ATOM     57  H   UNL     1     -52.310  24.752  27.354  1.00  0.00     0.048 H 
ATOM     58  H   UNL     1     -53.326  25.816  26.334  1.00  0.00     0.048 H 
ATOM     59  H   UNL     1     -52.480  26.493  27.756  1.00  0.00     0.048 H 
ENDBRANCH  54  56
ENDBRANCH  41  49
BRANCH  45  60
ATOM     60  N   UNL     1     -51.877  26.079  21.907  1.00  0.00    -0.383 N 
ATOM     61  H   UNL     1     -52.524  26.551  22.527  1.00  0.00     0.158 HD
ATOM     62  H   UNL     1     -52.306  25.487  21.206  1.00  0.00     0.158 HD
ENDBRANCH  45  60
ENDBRANCH  30  38
ENDBRANCH   1  26
TORSDOF 10
ENDMDL
MODEL 5
REMARK VINA RESULT:      -8.4      1.801      2.384
REMARK SMILES CNc1ccc2ccc(OC[C@H]3O[C@@H](n4cc(-c5cnn(C)c5)c5c(N)ncnc54)[C@@H](F)[C@@H]3O)cc2n1
REMARK SMILES IDX 11 1 10 4 9 5 3 6 4 7 37 8 5 9 36 11 6 12 35 14 7 15 8 17
REMARK SMILES IDX 2 20 1 22 12 26 13 27 33 28 14 30 31 31 32 34 34 36 15 38
REMARK SMILES IDX 16 39 30 40 17 41 24 43 29 44 25 45 28 46 27 47 18 49 19 50
REMARK SMILES IDX 23 51 20 52 21 54 22 56 26 60
REMARK H PARENT 11 2 11 3 4 10 5 13 35 16 7 18 8 19 2 21 1 23 1 24 1 25 12 29
REMARK H PARENT 33 32 14 33 31 35 34 37 16 42 28 48 19 53 23 55 22 57 22 58
REMARK H PARENT 22 59 26 61 26 62
REMARK Flexibility Score: inf
ROOT
ATOM      1  C   UNL     1     -46.111  35.055  27.356  1.00  0.00     0.117 C 
ATOM      2  H   UNL     1     -46.267  35.357  26.314  1.00  0.00     0.073 H 
ATOM      3  H   UNL     1     -45.190  35.504  27.738  1.00  0.00     0.073 H 
ENDROOT
BRANCH   1   4
ATOM      4  O   UNL     1     -46.023  33.624  27.408  1.00  0.00    -0.491 OA
BRANCH   4   5
ATOM      5  C   UNL     1     -46.748  32.950  26.462  1.00  0.00     0.121 A 
ATOM      6  C   UNL     1     -46.605  31.169  22.044  1.00  0.00     0.126 A 
ATOM      7  C   UNL     1     -47.901  30.679  22.154  1.00  0.00    -0.019 A 
ATOM      8  N   UNL     1     -46.016  31.840  23.055  1.00  0.00    -0.231 NA
ATOM      9  C   UNL     1     -48.618  30.899  23.327  1.00  0.00    -0.049 A 
ATOM     10  H   UNL     1     -48.350  30.119  21.341  1.00  0.00     0.066 H 
ATOM     11  C   UNL     1     -46.694  32.037  24.202  1.00  0.00     0.076 A 
ATOM     12  C   UNL     1     -48.015  31.586  24.382  1.00  0.00     0.001 A 
ATOM     13  H   UNL     1     -49.631  30.519  23.412  1.00  0.00     0.063 H 
ATOM     14  C   UNL     1     -46.084  32.706  25.256  1.00  0.00     0.007 A 
ATOM     15  C   UNL     1     -48.685  31.813  25.596  1.00  0.00    -0.049 A 
ATOM     16  H   UNL     1     -45.063  33.057  25.130  1.00  0.00     0.069 H 
ATOM     17  C   UNL     1     -48.049  32.490  26.637  1.00  0.00    -0.019 A 
ATOM     18  H   UNL     1     -49.704  31.460  25.737  1.00  0.00     0.063 H 
ATOM     19  H   UNL     1     -48.587  32.633  27.569  1.00  0.00     0.066 H 
BRANCH   6  20
ATOM     20  N   UNL     1     -45.899  30.902  20.859  1.00  0.00    -0.373 N 
ATOM     21  H   UNL     1     -46.062  29.943  20.569  1.00  0.00     0.161 HD
BRANCH  20  22
ATOM     22  C   UNL     1     -46.142  31.852  19.787  1.00  0.00     0.005 C 
ATOM     23  H   UNL     1     -45.214  32.123  19.270  1.00  0.00     0.045 H 
ATOM     24  H   UNL     1     -46.869  31.466  19.063  1.00  0.00     0.045 H 
ATOM     25  H   UNL     1     -46.562  32.769  20.213  1.00  0.00     0.045 H 
ENDBRANCH  20  22
ENDBRANCH   6  20
ENDBRANCH   4   5
ENDBRANCH   1   4
BRANCH   1  26
ATOM     26  C   UNL     1     -47.312  35.497  28.216  1.00  0.00     0.123 C 
ATOM     27  O   UNL     1     -46.913  36.600  29.060  1.00  0.00    -0.345 OA
ATOM     28  C   UNL     1     -48.478  36.028  27.384  1.00  0.00     0.119 C 
ATOM     29  H   UNL     1     -47.616  34.683  28.881  1.00  0.00     0.067 H 
ATOM     30  C   UNL     1     -47.347  37.832  28.426  1.00  0.00     0.169 C 
ATOM     31  C   UNL     1     -48.069  37.463  27.131  1.00  0.00     0.173 C 
ATOM     32  H   UNL     1     -48.634  35.460  26.462  1.00  0.00     0.066 H 
ATOM     33  H   UNL     1     -48.025  38.316  29.138  1.00  0.00     0.088 H 
ATOM     34  F   UNL     1     -47.223  37.470  26.062  1.00  0.00    -0.239 F 
ATOM     35  H   UNL     1     -48.900  38.139  26.912  1.00  0.00     0.074 H 
BRANCH  28  36
ATOM     36  O   UNL     1     -49.699  36.013  28.130  1.00  0.00    -0.387 OA
ATOM     37  H   UNL     1     -50.439  35.949  27.500  1.00  0.00     0.211 HD
ENDBRANCH  28  36
BRANCH  30  38
ATOM     38  N   UNL     1     -46.204  38.711  28.237  1.00  0.00    -0.302 N 
ATOM     39  C   UNL     1     -46.014  39.604  27.216  1.00  0.00     0.017 A 
ATOM     40  C   UNL     1     -45.137  38.773  29.097  1.00  0.00     0.148 A 
ATOM     41  C   UNL     1     -44.848  40.299  27.462  1.00  0.00     0.016 A 
ATOM     42  H   UNL     1     -46.735  39.703  26.414  1.00  0.00     0.083 H 
ATOM     43  C   UNL     1     -44.249  39.743  28.633  1.00  0.00     0.069 A 
ATOM     44  N   UNL     1     -44.998  38.012  30.197  1.00  0.00    -0.218 NA
ATOM     45  C   UNL     1     -43.071  39.901  29.381  1.00  0.00     0.136 A 
ATOM     46  C   UNL     1     -43.851  38.280  30.838  1.00  0.00     0.120 A 
ATOM     47  N   UNL     1     -42.893  39.158  30.493  1.00  0.00    -0.219 NA
ATOM     48  H   UNL     1     -43.668  37.712  31.746  1.00  0.00     0.106 H 
BRANCH  41  49
ATOM     49  C   UNL     1     -44.365  41.395  26.636  1.00  0.00     0.022 A 
ATOM     50  C   UNL     1     -43.831  42.625  27.066  1.00  0.00     0.057 A 
ATOM     51  C   UNL     1     -44.413  41.496  25.264  1.00  0.00     0.032 A 
ATOM     52  N   UNL     1     -43.512  43.425  26.043  1.00  0.00    -0.181 NA
ATOM     53  H   UNL     1     -43.666  42.978  28.076  1.00  0.00     0.087 H 
ATOM     54  N   UNL     1     -43.893  42.718  24.961  1.00  0.00    -0.275 N 
ATOM     55  H   UNL     1     -44.776  40.821  24.501  1.00  0.00     0.084 H 
BRANCH  54  56
ATOM     56  C   UNL     1     -43.728  43.285  23.646  1.00  0.00     0.030 C 
ATOM     57  H   UNL     1     -43.458  42.483  22.956  1.00  0.00     0.048 H 
ATOM     58  H   UNL     1     -42.941  44.041  23.671  1.00  0.00     0.048 H 
ATOM     59  H   UNL     1     -44.674  43.745  23.347  1.00  0.00     0.048 H 
ENDBRANCH  54  56
ENDBRANCH  41  49
BRANCH  45  60
ATOM     60  N   UNL     1     -42.023  40.748  29.043  1.00  0.00    -0.383 N 
ATOM     61  H   UNL     1     -41.593  41.118  29.883  1.00  0.00     0.158 HD
ATOM     62  H   UNL     1     -41.379  40.356  28.367  1.00  0.00     0.158 HD
ENDBRANCH  45  60
ENDBRANCH  30  38
ENDBRANCH   1  26
TORSDOF 10
ENDMDL
MODEL 6
REMARK VINA RESULT:      -8.3      2.494      3.412
REMARK SMILES CNc1ccc2ccc(OC[C@H]3O[C@@H](n4cc(-c5cnn(C)c5)c5c(N)ncnc54)[C@@H](F)[C@@H]3O)cc2n1
REMARK SMILES IDX 11 1 10 4 9 5 3 6 4 7 37 8 5 9 36 11 6 12 35 14 7 15 8 17
REMARK SMILES IDX 2 20 1 22 12 26 13 27 33 28 14 30 31 31 32 34 34 36 15 38
REMARK SMILES IDX 16 39 30 40 17 41 24 43 29 44 25 45 28 46 27 47 18 49 19 50
REMARK SMILES IDX 23 51 20 52 21 54 22 56 26 60
REMARK H PARENT 11 2 11 3 4 10 5 13 35 16 7 18 8 19 2 21 1 23 1 24 1 25 12 29
REMARK H PARENT 33 32 14 33 31 35 34 37 16 42 28 48 19 53 23 55 22 57 22 58
REMARK H PARENT 22 59 26 61 26 62
REMARK Flexibility Score: inf
ROOT
ATOM      1  C   UNL     1     -46.710  35.517  26.290  1.00  0.00     0.117 C 
ATOM      2  H   UNL     1     -47.197  36.482  26.113  1.00  0.00     0.073 H 
ATOM      3  H   UNL     1     -45.994  35.310  25.488  1.00  0.00     0.073 H 
ENDROOT
BRANCH   1   4
ATOM      4  O   UNL     1     -47.718  34.496  26.328  1.00  0.00    -0.491 OA
BRANCH   4   5
ATOM      5  C   UNL     1     -47.442  33.362  25.612  1.00  0.00     0.121 A 
ATOM      6  C   UNL     1     -48.914  28.920  24.712  1.00  0.00     0.126 A 
ATOM      7  C   UNL     1     -47.877  28.715  23.809  1.00  0.00    -0.019 A 
ATOM      8  N   UNL     1     -49.055  30.089  25.369  1.00  0.00    -0.231 NA
ATOM      9  C   UNL     1     -46.953  29.731  23.587  1.00  0.00    -0.049 A 
ATOM     10  H   UNL     1     -47.794  27.777  23.270  1.00  0.00     0.066 H 
ATOM     11  C   UNL     1     -48.178  31.086  25.144  1.00  0.00     0.076 A 
ATOM     12  C   UNL     1     -47.094  30.947  24.257  1.00  0.00     0.001 A 
ATOM     13  H   UNL     1     -46.142  29.570  22.883  1.00  0.00     0.063 H 
ATOM     14  C   UNL     1     -48.333  32.301  25.800  1.00  0.00     0.007 A 
ATOM     15  C   UNL     1     -46.202  32.013  24.051  1.00  0.00    -0.049 A 
ATOM     16  H   UNL     1     -49.167  32.421  26.485  1.00  0.00     0.069 H 
ATOM     17  C   UNL     1     -46.381  33.222  24.724  1.00  0.00    -0.019 A 
ATOM     18  H   UNL     1     -45.368  31.909  23.361  1.00  0.00     0.063 H 
ATOM     19  H   UNL     1     -45.686  34.033  24.529  1.00  0.00     0.066 H 
BRANCH   6  20
ATOM     20  N   UNL     1     -49.848  27.885  24.889  1.00  0.00    -0.373 N 
ATOM     21  H   UNL     1     -50.509  27.883  24.119  1.00  0.00     0.161 HD
BRANCH  20  22
ATOM     22  C   UNL     1     -49.260  26.576  25.117  1.00  0.00     0.005 C 
ATOM     23  H   UNL     1     -48.189  26.569  24.885  1.00  0.00     0.045 H 
ATOM     24  H   UNL     1     -49.417  26.238  26.147  1.00  0.00     0.045 H 
ATOM     25  H   UNL     1     -49.745  25.849  24.457  1.00  0.00     0.045 H 
ENDBRANCH  20  22
ENDBRANCH   6  20
ENDBRANCH   4   5
ENDBRANCH   1   4
BRANCH   1  26
ATOM     26  C   UNL     1     -45.989  35.534  27.652  1.00  0.00     0.123 C 
ATOM     27  O   UNL     1     -45.435  36.849  27.881  1.00  0.00    -0.345 OA
ATOM     28  C   UNL     1     -46.931  35.285  28.829  1.00  0.00     0.119 C 
ATOM     29  H   UNL     1     -45.147  34.834  27.640  1.00  0.00     0.067 H 
ATOM     30  C   UNL     1     -46.350  37.581  28.737  1.00  0.00     0.169 C 
ATOM     31  C   UNL     1     -47.521  36.657  29.069  1.00  0.00     0.173 C 
ATOM     32  H   UNL     1     -47.688  34.526  28.611  1.00  0.00     0.066 H 
ATOM     33  H   UNL     1     -45.781  37.842  29.637  1.00  0.00     0.088 H 
ATOM     34  F   UNL     1     -48.556  36.821  28.195  1.00  0.00    -0.239 F 
ATOM     35  H   UNL     1     -47.902  36.815  30.081  1.00  0.00     0.074 H 
BRANCH  28  36
ATOM     36  O   UNL     1     -46.210  34.874  29.995  1.00  0.00    -0.387 OA
ATOM     37  H   UNL     1     -46.853  34.549  30.651  1.00  0.00     0.211 HD
ENDBRANCH  28  36
BRANCH  30  38
ATOM     38  N   UNL     1     -46.740  38.821  28.087  1.00  0.00    -0.302 N 
ATOM     39  C   UNL     1     -48.001  39.352  28.018  1.00  0.00     0.017 A 
ATOM     40  C   UNL     1     -45.861  39.658  27.447  1.00  0.00     0.148 A 
ATOM     41  C   UNL     1     -47.919  40.579  27.391  1.00  0.00     0.016 A 
ATOM     42  H   UNL     1     -48.852  38.839  28.447  1.00  0.00     0.083 H 
ATOM     43  C   UNL     1     -46.566  40.765  26.974  1.00  0.00     0.069 A 
ATOM     44  N   UNL     1     -44.544  39.423  27.314  1.00  0.00    -0.218 NA
ATOM     45  C   UNL     1     -45.814  41.704  26.249  1.00  0.00     0.136 A 
ATOM     46  C   UNL     1     -43.936  40.406  26.633  1.00  0.00     0.120 A 
ATOM     47  N   UNL     1     -44.488  41.507  26.095  1.00  0.00    -0.219 NA
ATOM     48  H   UNL     1     -42.864  40.296  26.491  1.00  0.00     0.106 H 
BRANCH  41  49
ATOM     49  C   UNL     1     -49.048  41.480  27.216  1.00  0.00     0.022 A 
ATOM     50  C   UNL     1     -49.109  42.852  27.524  1.00  0.00     0.057 A 
ATOM     51  C   UNL     1     -50.319  41.159  26.798  1.00  0.00     0.032 A 
ATOM     52  N   UNL     1     -50.312  43.377  27.268  1.00  0.00    -0.181 NA
ATOM     53  H   UNL     1     -48.335  43.493  27.929  1.00  0.00     0.087 H 
ATOM     54  N   UNL     1     -51.032  42.320  26.845  1.00  0.00    -0.275 N 
ATOM     55  H   UNL     1     -50.766  40.223  26.492  1.00  0.00     0.084 H 
BRANCH  54  56
ATOM     56  C   UNL     1     -52.419  42.497  26.496  1.00  0.00     0.030 C 
ATOM     57  H   UNL     1     -52.507  43.388  25.872  1.00  0.00     0.048 H 
ATOM     58  H   UNL     1     -53.012  42.614  27.405  1.00  0.00     0.048 H 
ATOM     59  H   UNL     1     -52.753  41.611  25.948  1.00  0.00     0.048 H 
ENDBRANCH  54  56
ENDBRANCH  41  49
BRANCH  45  60
ATOM     60  N   UNL     1     -46.338  42.828  25.623  1.00  0.00    -0.383 N 
ATOM     61  H   UNL     1     -46.307  43.621  26.255  1.00  0.00     0.158 HD
ATOM     62  H   UNL     1     -45.959  42.998  24.700  1.00  0.00     0.158 HD
ENDBRANCH  45  60
ENDBRANCH  30  38
ENDBRANCH   1  26
TORSDOF 10
ENDMDL
MODEL 7
REMARK VINA RESULT:      -8.3      1.918      2.618
REMARK SMILES CNc1ccc2ccc(OC[C@H]3O[C@@H](n4cc(-c5cnn(C)c5)c5c(N)ncnc54)[C@@H](F)[C@@H]3O)cc2n1
REMARK SMILES IDX 11 1 10 4 9 5 3 6 4 7 37 8 5 9 36 11 6 12 35 14 7 15 8 17
REMARK SMILES IDX 2 20 1 22 12 26 13 27 33 28 14 30 31 31 32 34 34 36 15 38
REMARK SMILES IDX 16 39 30 40 17 41 24 43 29 44 25 45 28 46 27 47 18 49 19 50
REMARK SMILES IDX 23 51 20 52 21 54 22 56 26 60
REMARK H PARENT 11 2 11 3 4 10 5 13 35 16 7 18 8 19 2 21 1 23 1 24 1 25 12 29
REMARK H PARENT 33 32 14 33 31 35 34 37 16 42 28 48 19 53 23 55 22 57 22 58
REMARK H PARENT 22 59 26 61 26 62
REMARK Flexibility Score: inf
ROOT
ATOM      1  C   UNL     1     -46.050  35.191  27.918  1.00  0.00     0.117 C 
ATOM      2  H   UNL     1     -45.925  35.517  26.880  1.00  0.00     0.073 H 
ATOM      3  H   UNL     1     -45.193  35.516  28.515  1.00  0.00     0.073 H 
ENDROOT
BRANCH   1   4
ATOM      4  O   UNL     1     -46.151  33.759  27.938  1.00  0.00    -0.491 OA
BRANCH   4   5
ATOM      5  C   UNL     1     -46.472  33.171  26.744  1.00  0.00     0.121 A 
ATOM      6  C   UNL     1     -48.926  29.610  24.740  1.00  0.00     0.126 A 
ATOM      7  C   UNL     1     -48.542  30.007  23.465  1.00  0.00    -0.019 A 
ATOM      8  N   UNL     1     -48.514  30.275  25.839  1.00  0.00    -0.231 NA
ATOM      9  C   UNL     1     -47.701  31.106  23.315  1.00  0.00    -0.049 A 
ATOM     10  H   UNL     1     -48.904  29.477  22.590  1.00  0.00     0.066 H 
ATOM     11  C   UNL     1     -47.718  31.352  25.703  1.00  0.00     0.076 A 
ATOM     12  C   UNL     1     -47.274  31.804  24.446  1.00  0.00     0.001 A 
ATOM     13  H   UNL     1     -47.398  31.415  22.319  1.00  0.00     0.063 H 
ATOM     14  C   UNL     1     -47.310  32.054  26.830  1.00  0.00     0.007 A 
ATOM     15  C   UNL     1     -46.444  32.933  24.349  1.00  0.00    -0.049 A 
ATOM     16  H   UNL     1     -47.649  31.716  27.806  1.00  0.00     0.069 H 
ATOM     17  C   UNL     1     -46.048  33.619  25.497  1.00  0.00    -0.019 A 
ATOM     18  H   UNL     1     -46.106  33.287  23.377  1.00  0.00     0.063 H 
ATOM     19  H   UNL     1     -45.423  34.499  25.388  1.00  0.00     0.066 H 
BRANCH   6  20
ATOM     20  N   UNL     1     -49.802  28.518  24.854  1.00  0.00    -0.373 N 
ATOM     21  H   UNL     1     -50.579  28.630  24.210  1.00  0.00     0.161 HD
BRANCH  20  22
ATOM     22  C   UNL     1     -49.163  27.218  24.727  1.00  0.00     0.005 C 
ATOM     23  H   UNL     1     -49.401  26.743  23.769  1.00  0.00     0.045 H 
ATOM     24  H   UNL     1     -48.076  27.291  24.843  1.00  0.00     0.045 H 
ATOM     25  H   UNL     1     -49.532  26.562  25.522  1.00  0.00     0.045 H 
ENDBRANCH  20  22
ENDBRANCH   6  20
ENDBRANCH   4   5
ENDBRANCH   1   4
BRANCH   1  26
ATOM     26  C   UNL     1     -47.352  35.774  28.499  1.00  0.00     0.123 C 
ATOM     27  O   UNL     1     -47.058  37.017  29.176  1.00  0.00    -0.345 OA
ATOM     28  C   UNL     1     -48.376  36.136  27.424  1.00  0.00     0.119 C 
ATOM     29  H   UNL     1     -47.766  35.095  29.251  1.00  0.00     0.067 H 
ATOM     30  C   UNL     1     -47.370  38.108  28.272  1.00  0.00     0.169 C 
ATOM     31  C   UNL     1     -47.906  37.503  26.975  1.00  0.00     0.173 C 
ATOM     32  H   UNL     1     -48.409  35.407  26.609  1.00  0.00     0.066 H 
ATOM     33  H   UNL     1     -48.134  38.711  28.777  1.00  0.00     0.088 H 
ATOM     34  F   UNL     1     -46.915  37.319  26.057  1.00  0.00    -0.239 F 
ATOM     35  H   UNL     1     -48.683  38.121  26.518  1.00  0.00     0.074 H 
BRANCH  28  36
ATOM     36  O   UNL     1     -49.692  36.250  27.975  1.00  0.00    -0.387 OA
ATOM     37  H   UNL     1     -49.768  37.123  28.401  1.00  0.00     0.211 HD
ENDBRANCH  28  36
BRANCH  30  38
ATOM     38  N   UNL     1     -46.195  38.945  28.094  1.00  0.00    -0.302 N 
ATOM     39  C   UNL     1     -45.971  39.843  27.084  1.00  0.00     0.017 A 
ATOM     40  C   UNL     1     -45.126  38.955  28.954  1.00  0.00     0.148 A 
ATOM     41  C   UNL     1     -44.779  40.490  27.338  1.00  0.00     0.016 A 
ATOM     42  H   UNL     1     -46.687  39.980  26.284  1.00  0.00     0.083 H 
ATOM     43  C   UNL     1     -44.202  39.897  28.502  1.00  0.00     0.069 A 
ATOM     44  N   UNL     1     -45.017  38.176  30.044  1.00  0.00    -0.218 NA
ATOM     45  C   UNL     1     -43.018  40.000  29.252  1.00  0.00     0.136 A 
ATOM     46  C   UNL     1     -43.861  38.392  30.688  1.00  0.00     0.120 A 
ATOM     47  N   UNL     1     -42.870  39.237  30.354  1.00  0.00    -0.219 NA
ATOM     48  H   UNL     1     -43.699  37.806  31.589  1.00  0.00     0.106 H 
BRANCH  41  49
ATOM     49  C   UNL     1     -44.255  41.577  26.525  1.00  0.00     0.022 A 
ATOM     50  C   UNL     1     -43.791  42.832  26.965  1.00  0.00     0.057 A 
ATOM     51  C   UNL     1     -44.187  41.641  25.153  1.00  0.00     0.032 A 
ATOM     52  N   UNL     1     -43.405  43.613  25.951  1.00  0.00    -0.181 NA
ATOM     53  H   UNL     1     -43.722  43.215  27.976  1.00  0.00     0.087 H 
ATOM     54  N   UNL     1     -43.674  42.869  24.861  1.00  0.00    -0.275 N 
ATOM     55  H   UNL     1     -44.466  40.937  24.381  1.00  0.00     0.084 H 
BRANCH  54  56
ATOM     56  C   UNL     1     -43.411  43.406  23.549  1.00  0.00     0.030 C 
ATOM     57  H   UNL     1     -44.352  43.764  23.128  1.00  0.00     0.048 H 
ATOM     58  H   UNL     1     -42.986  42.625  22.914  1.00  0.00     0.048 H 
ATOM     59  H   UNL     1     -42.699  44.230  23.650  1.00  0.00     0.048 H 
ENDBRANCH  54  56
ENDBRANCH  41  49
BRANCH  45  60
ATOM     60  N   UNL     1     -41.939  40.811  28.923  1.00  0.00    -0.383 N 
ATOM     61  H   UNL     1     -41.082  40.408  29.285  1.00  0.00     0.158 HD
ATOM     62  H   UNL     1     -41.910  41.081  27.948  1.00  0.00     0.158 HD
ENDBRANCH  45  60
ENDBRANCH  30  38
ENDBRANCH   1  26
TORSDOF 10
ENDMDL
