MODEL 1
REMARK VINA RESULT:      -9.7      0.000      0.000
REMARK SMILES CCNc1ccc2ccc(CCc3cncc(-n4cc(-c5ccn(C)n5)c5c(N)ncnc54)c3)cc2n1
REMARK SMILES IDX 11 1 10 4 4 5 5 6 37 7 6 8 36 10 7 11 35 13 8 14 9 16 3 19
REMARK SMILES IDX 2 21 1 24 12 28 13 31 14 32 34 33 15 34 17 36 16 38 18 40
REMARK SMILES IDX 19 41 33 42 20 43 27 45 32 46 28 47 31 48 30 49 21 51 22 52
REMARK SMILES IDX 26 53 23 54 24 56 25 58 29 62
REMARK H PARENT 11 2 11 3 5 9 6 12 35 15 8 17 9 18 3 20 2 22 2 23 1 25 1 26
REMARK H PARENT 1 27 12 29 12 30 14 35 34 37 16 39 19 44 31 50 22 55 23 57
REMARK H PARENT 25 59 25 60 25 61 29 63 29 64
REMARK Flexibility Score: inf
ROOT
ATOM      1  C   UNL     1     -47.675  34.014  26.321  1.00  0.00    -0.024 C 
ATOM      2  H   UNL     1     -48.301  33.760  27.185  1.00  0.00     0.032 H 
ATOM      3  H   UNL     1     -48.209  34.813  25.788  1.00  0.00     0.032 H 
ENDROOT
BRANCH   1   4
ATOM      4  C   UNL     1     -47.567  32.816  25.403  1.00  0.00    -0.046 A 
ATOM      5  C   UNL     1     -48.969  28.360  24.447  1.00  0.00     0.126 A 
ATOM      6  C   UNL     1     -47.947  28.188  23.520  1.00  0.00    -0.019 A 
ATOM      7  N   UNL     1     -49.147  29.532  25.085  1.00  0.00    -0.231 NA
ATOM      8  C   UNL     1     -47.078  29.243  23.254  1.00  0.00    -0.049 A 
ATOM      9  H   UNL     1     -47.802  27.230  23.034  1.00  0.00     0.066 H 
ATOM     10  C   UNL     1     -48.311  30.554  24.836  1.00  0.00     0.073 A 
ATOM     11  C   UNL     1     -47.241  30.454  23.929  1.00  0.00     0.000 A 
ATOM     12  H   UNL     1     -46.266  29.101  22.548  1.00  0.00     0.063 H 
ATOM     13  C   UNL     1     -48.474  31.748  25.524  1.00  0.00    -0.032 A 
ATOM     14  C   UNL     1     -46.360  31.535  23.747  1.00  0.00    -0.053 A 
ATOM     15  H   UNL     1     -49.298  31.816  26.234  1.00  0.00     0.065 H 
ATOM     16  C   UNL     1     -46.515  32.704  24.492  1.00  0.00    -0.058 A 
ATOM     17  H   UNL     1     -45.530  31.457  23.048  1.00  0.00     0.063 H 
ATOM     18  H   UNL     1     -45.798  33.514  24.371  1.00  0.00     0.063 H 
BRANCH   5  19
ATOM     19  N   UNL     1     -49.772  27.251  24.750  1.00  0.00    -0.370 N 
ATOM     20  H   UNL     1     -50.698  27.375  24.355  1.00  0.00     0.162 HD
BRANCH  19  21
ATOM     21  C   UNL     1     -49.804  26.829  26.148  1.00  0.00     0.013 C 
ATOM     22  H   UNL     1     -50.805  26.511  26.460  1.00  0.00     0.049 H 
ATOM     23  H   UNL     1     -49.563  27.707  26.759  1.00  0.00     0.049 H 
BRANCH  21  24
ATOM     24  C   UNL     1     -48.771  25.751  26.435  1.00  0.00    -0.048 C 
ATOM     25  H   UNL     1     -48.424  25.301  25.500  1.00  0.00     0.025 H 
ATOM     26  H   UNL     1     -47.899  26.153  26.959  1.00  0.00     0.025 H 
ATOM     27  H   UNL     1     -49.196  24.956  27.058  1.00  0.00     0.025 H 
ENDBRANCH  21  24
ENDBRANCH  19  21
ENDBRANCH   5  19
ENDBRANCH   1   4
BRANCH   1  28
ATOM     28  C   UNL     1     -46.304  34.552  26.783  1.00  0.00    -0.022 C 
ATOM     29  H   UNL     1     -45.765  33.790  27.360  1.00  0.00     0.032 H 
ATOM     30  H   UNL     1     -45.687  34.751  25.899  1.00  0.00     0.032 H 
BRANCH  28  31
ATOM     31  C   UNL     1     -46.408  35.818  27.597  1.00  0.00    -0.027 A 
ATOM     32  C   UNL     1     -46.388  35.791  28.983  1.00  0.00     0.030 A 
ATOM     33  C   UNL     1     -46.419  37.075  26.976  1.00  0.00    -0.032 A 
ATOM     34  N   UNL     1     -46.361  36.897  29.753  1.00  0.00    -0.262 NA
ATOM     35  H   UNL     1     -46.377  34.854  29.534  1.00  0.00     0.084 H 
ATOM     36  C   UNL     1     -46.309  38.248  27.732  1.00  0.00     0.066 A 
ATOM     37  H   UNL     1     -46.426  37.096  25.891  1.00  0.00     0.065 H 
ATOM     38  C   UNL     1     -46.303  38.097  29.114  1.00  0.00     0.051 A 
ATOM     39  H   UNL     1     -46.250  38.929  29.806  1.00  0.00     0.086 H 
BRANCH  36  40
ATOM     40  N   UNL     1     -46.133  39.520  27.095  1.00  0.00    -0.299 N 
ATOM     41  C   UNL     1     -44.935  39.997  26.598  1.00  0.00     0.021 A 
ATOM     42  C   UNL     1     -47.087  40.522  26.896  1.00  0.00     0.150 A 
ATOM     43  C   UNL     1     -45.097  41.299  26.179  1.00  0.00     0.033 A 
ATOM     44  H   UNL     1     -44.029  39.410  26.603  1.00  0.00     0.083 H 
ATOM     45  C   UNL     1     -46.465  41.634  26.323  1.00  0.00     0.071 A 
ATOM     46  N   UNL     1     -48.396  40.454  27.214  1.00  0.00    -0.218 NA
ATOM     47  C   UNL     1     -47.286  42.739  26.036  1.00  0.00     0.137 A 
ATOM     48  C   UNL     1     -49.066  41.572  26.919  1.00  0.00     0.120 A 
ATOM     49  N   UNL     1     -48.592  42.690  26.351  1.00  0.00    -0.219 NA
ATOM     50  H   UNL     1     -50.125  41.575  27.163  1.00  0.00     0.106 H 
BRANCH  43  51
ATOM     51  C   UNL     1     -44.031  42.155  25.673  1.00  0.00     0.095 A 
ATOM     52  C   UNL     1     -42.863  42.501  26.383  1.00  0.00    -0.016 A 
ATOM     53  N   UNL     1     -44.038  42.669  24.438  1.00  0.00    -0.173 NA
ATOM     54  C   UNL     1     -42.142  43.288  25.515  1.00  0.00     0.025 A 
ATOM     55  H   UNL     1     -42.583  42.205  27.386  1.00  0.00     0.066 H 
ATOM     56  N   UNL     1     -42.882  43.353  24.370  1.00  0.00    -0.275 N 
ATOM     57  H   UNL     1     -41.186  43.780  25.614  1.00  0.00     0.084 H 
BRANCH  56  58
ATOM     58  C   UNL     1     -42.544  44.054  23.157  1.00  0.00     0.030 C 
ATOM     59  H   UNL     1     -41.627  43.620  22.751  1.00  0.00     0.048 H 
ATOM     60  H   UNL     1     -42.396  45.110  23.399  1.00  0.00     0.048 H 
ATOM     61  H   UNL     1     -43.358  43.948  22.435  1.00  0.00     0.048 H 
ENDBRANCH  56  58
ENDBRANCH  43  51
BRANCH  47  62
ATOM     62  N   UNL     1     -46.857  43.900  25.403  1.00  0.00    -0.383 N 
ATOM     63  H   UNL     1     -46.282  43.731  24.585  1.00  0.00     0.158 HD
ATOM     64  H   UNL     1     -47.641  44.526  25.264  1.00  0.00     0.158 HD
ENDBRANCH  47  62
ENDBRANCH  36  40
ENDBRANCH  28  31
ENDBRANCH   1  28
TORSDOF 10
ENDMDL
MODEL 2
REMARK VINA RESULT:      -9.7      1.718      2.629
REMARK SMILES CCNc1ccc2ccc(CCc3cncc(-n4cc(-c5ccn(C)n5)c5c(N)ncnc54)c3)cc2n1
REMARK SMILES IDX 11 1 10 4 4 5 5 6 37 7 6 8 36 10 7 11 35 13 8 14 9 16 3 19
REMARK SMILES IDX 2 21 1 24 12 28 13 31 14 32 34 33 15 34 17 36 16 38 18 40
REMARK SMILES IDX 19 41 33 42 20 43 27 45 32 46 28 47 31 48 30 49 21 51 22 52
REMARK SMILES IDX 26 53 23 54 24 56 25 58 29 62
REMARK H PARENT 11 2 11 3 5 9 6 12 35 15 8 17 9 18 3 20 2 22 2 23 1 25 1 26
REMARK H PARENT 1 27 12 29 12 30 14 35 34 37 16 39 19 44 31 50 22 55 23 57
REMARK H PARENT 25 59 25 60 25 61 29 63 29 64
REMARK Flexibility Score: inf
ROOT
ATOM      1  C   UNL     1     -46.433  34.037  25.493  1.00  0.00    -0.024 C 
ATOM      2  H   UNL     1     -46.608  34.897  24.835  1.00  0.00     0.032 H 
ATOM      3  H   UNL     1     -45.359  34.050  25.725  1.00  0.00     0.032 H 
ENDROOT
BRANCH   1   4
ATOM      4  C   UNL     1     -46.747  32.757  24.750  1.00  0.00    -0.046 A 
ATOM      5  C   UNL     1     -48.901  28.503  24.828  1.00  0.00     0.126 A 
ATOM      6  C   UNL     1     -48.227  28.089  23.685  1.00  0.00    -0.019 A 
ATOM      7  N   UNL     1     -48.740  29.743  25.327  1.00  0.00    -0.231 NA
ATOM      8  C   UNL     1     -47.353  28.966  23.049  1.00  0.00    -0.049 A 
ATOM      9  H   UNL     1     -48.350  27.079  23.311  1.00  0.00     0.066 H 
ATOM     10  C   UNL     1     -47.896  30.595  24.720  1.00  0.00     0.073 A 
ATOM     11  C   UNL     1     -47.160  30.246  23.574  1.00  0.00     0.000 A 
ATOM     12  H   UNL     1     -46.808  28.635  22.170  1.00  0.00     0.063 H 
ATOM     13  C   UNL     1     -47.701  31.859  25.261  1.00  0.00    -0.032 A 
ATOM     14  C   UNL     1     -46.247  31.155  23.011  1.00  0.00    -0.053 A 
ATOM     15  H   UNL     1     -48.265  32.119  26.156  1.00  0.00     0.065 H 
ATOM     16  C   UNL     1     -46.031  32.398  23.606  1.00  0.00    -0.058 A 
ATOM     17  H   UNL     1     -45.676  30.884  22.126  1.00  0.00     0.063 H 
ATOM     18  H   UNL     1     -45.288  33.071  23.183  1.00  0.00     0.063 H 
BRANCH   5  19
ATOM     19  N   UNL     1     -49.710  27.566  25.487  1.00  0.00    -0.370 N 
ATOM     20  H   UNL     1     -50.613  27.975  25.699  1.00  0.00     0.162 HD
BRANCH  19  21
ATOM     21  C   UNL     1     -49.115  26.882  26.633  1.00  0.00     0.013 C 
ATOM     22  H   UNL     1     -49.806  26.819  27.480  1.00  0.00     0.049 H 
ATOM     23  H   UNL     1     -48.272  27.493  26.976  1.00  0.00     0.049 H 
BRANCH  21  24
ATOM     24  C   UNL     1     -48.583  25.508  26.255  1.00  0.00    -0.048 C 
ATOM     25  H   UNL     1     -48.608  25.379  25.168  1.00  0.00     0.025 H 
ATOM     26  H   UNL     1     -47.550  25.367  26.587  1.00  0.00     0.025 H 
ATOM     27  H   UNL     1     -49.189  24.715  26.706  1.00  0.00     0.025 H 
ENDBRANCH  21  24
ENDBRANCH  19  21
ENDBRANCH   5  19
ENDBRANCH   1   4
BRANCH   1  28
ATOM     28  C   UNL     1     -47.229  34.189  26.806  1.00  0.00    -0.022 C 
ATOM     29  H   UNL     1     -48.097  33.517  26.812  1.00  0.00     0.032 H 
ATOM     30  H   UNL     1     -46.596  33.868  27.642  1.00  0.00     0.032 H 
BRANCH  28  31
ATOM     31  C   UNL     1     -47.688  35.603  27.061  1.00  0.00    -0.027 A 
ATOM     32  C   UNL     1     -48.973  35.878  27.501  1.00  0.00     0.030 A 
ATOM     33  C   UNL     1     -46.794  36.679  26.964  1.00  0.00    -0.032 A 
ATOM     34  N   UNL     1     -49.396  37.109  27.853  1.00  0.00    -0.262 NA
ATOM     35  H   UNL     1     -49.720  35.096  27.603  1.00  0.00     0.084 H 
ATOM     36  C   UNL     1     -47.164  37.959  27.397  1.00  0.00     0.066 A 
ATOM     37  H   UNL     1     -45.786  36.462  26.627  1.00  0.00     0.065 H 
ATOM     38  C   UNL     1     -48.482  38.116  27.812  1.00  0.00     0.051 A 
ATOM     39  H   UNL     1     -48.895  39.061  28.142  1.00  0.00     0.086 H 
BRANCH  36  40
ATOM     40  N   UNL     1     -46.201  39.016  27.473  1.00  0.00    -0.299 N 
ATOM     41  C   UNL     1     -46.133  40.089  26.605  1.00  0.00     0.021 A 
ATOM     42  C   UNL     1     -45.141  39.152  28.375  1.00  0.00     0.150 A 
ATOM     43  C   UNL     1     -45.010  40.837  26.884  1.00  0.00     0.033 A 
ATOM     44  H   UNL     1     -46.853  40.245  25.816  1.00  0.00     0.083 H 
ATOM     45  C   UNL     1     -44.392  40.279  28.030  1.00  0.00     0.071 A 
ATOM     46  N   UNL     1     -44.858  38.329  29.405  1.00  0.00    -0.218 NA
ATOM     47  C   UNL     1     -43.287  40.579  28.846  1.00  0.00     0.137 A 
ATOM     48  C   UNL     1     -43.773  38.702  30.091  1.00  0.00     0.120 A 
ATOM     49  N   UNL     1     -42.990  39.767  29.876  1.00  0.00    -0.219 NA
ATOM     50  H   UNL     1     -43.495  38.068  30.929  1.00  0.00     0.106 H 
BRANCH  43  51
ATOM     51  C   UNL     1     -44.565  41.998  26.122  1.00  0.00     0.095 A 
ATOM     52  C   UNL     1     -44.735  43.340  26.518  1.00  0.00    -0.016 A 
ATOM     53  N   UNL     1     -43.894  41.895  24.970  1.00  0.00    -0.173 NA
ATOM     54  C   UNL     1     -44.141  44.080  25.522  1.00  0.00     0.025 A 
ATOM     55  H   UNL     1     -45.215  43.713  27.414  1.00  0.00     0.066 H 
ATOM     56  N   UNL     1     -43.652  43.173  24.627  1.00  0.00    -0.275 N 
ATOM     57  H   UNL     1     -44.021  45.145  25.389  1.00  0.00     0.084 H 
BRANCH  56  58
ATOM     58  C   UNL     1     -42.932  43.455  23.410  1.00  0.00     0.030 C 
ATOM     59  H   UNL     1     -42.552  44.478  23.463  1.00  0.00     0.048 H 
ATOM     60  H   UNL     1     -43.621  43.343  22.568  1.00  0.00     0.048 H 
ATOM     61  H   UNL     1     -42.100  42.753  23.307  1.00  0.00     0.048 H 
ENDBRANCH  56  58
ENDBRANCH  43  51
BRANCH  47  62
ATOM     62  N   UNL     1     -42.475  41.697  28.699  1.00  0.00    -0.383 N 
ATOM     63  H   UNL     1     -42.505  42.106  27.772  1.00  0.00     0.158 HD
ATOM     64  H   UNL     1     -42.633  42.341  29.466  1.00  0.00     0.158 HD
ENDBRANCH  47  62
ENDBRANCH  36  40
ENDBRANCH  28  31
ENDBRANCH   1  28
TORSDOF 10
ENDMDL
MODEL 3
REMARK VINA RESULT:      -9.6      2.222      3.435
REMARK SMILES CCNc1ccc2ccc(CCc3cncc(-n4cc(-c5ccn(C)n5)c5c(N)ncnc54)c3)cc2n1
REMARK SMILES IDX 11 1 10 4 4 5 5 6 37 7 6 8 36 10 7 11 35 13 8 14 9 16 3 19
REMARK SMILES IDX 2 21 1 24 12 28 13 31 14 32 34 33 15 34 17 36 16 38 18 40
REMARK SMILES IDX 19 41 33 42 20 43 27 45 32 46 28 47 31 48 30 49 21 51 22 52
REMARK SMILES IDX 26 53 23 54 24 56 25 58 29 62
REMARK H PARENT 11 2 11 3 5 9 6 12 35 15 8 17 9 18 3 20 2 22 2 23 1 25 1 26
REMARK H PARENT 1 27 12 29 12 30 14 35 34 37 16 39 19 44 31 50 22 55 23 57
REMARK H PARENT 25 59 25 60 25 61 29 63 29 64
REMARK Flexibility Score: inf
ROOT
ATOM      1  C   UNL     1     -46.425  34.348  25.878  1.00  0.00    -0.024 C 
ATOM      2  H   UNL     1     -45.916  34.780  25.007  1.00  0.00     0.032 H 
ATOM      3  H   UNL     1     -45.648  34.210  26.641  1.00  0.00     0.032 H 
ENDROOT
BRANCH   1   4
ATOM      4  C   UNL     1     -46.987  32.991  25.516  1.00  0.00    -0.046 A 
ATOM      5  C   UNL     1     -48.156  29.930  22.051  1.00  0.00     0.126 A 
ATOM      6  C   UNL     1     -48.874  29.133  22.935  1.00  0.00    -0.019 A 
ATOM      7  N   UNL     1     -47.492  31.023  22.473  1.00  0.00    -0.231 NA
ATOM      8  C   UNL     1     -48.924  29.476  24.283  1.00  0.00    -0.049 A 
ATOM      9  H   UNL     1     -49.423  28.271  22.573  1.00  0.00     0.066 H 
ATOM     10  C   UNL     1     -47.537  31.362  23.773  1.00  0.00     0.073 A 
ATOM     11  C   UNL     1     -48.259  30.621  24.726  1.00  0.00     0.000 A 
ATOM     12  H   UNL     1     -49.505  28.866  24.969  1.00  0.00     0.063 H 
ATOM     13  C   UNL     1     -46.884  32.511  24.198  1.00  0.00    -0.032 A 
ATOM     14  C   UNL     1     -48.321  31.051  26.063  1.00  0.00    -0.053 A 
ATOM     15  H   UNL     1     -46.337  33.087  23.453  1.00  0.00     0.065 H 
ATOM     16  C   UNL     1     -47.700  32.238  26.451  1.00  0.00    -0.058 A 
ATOM     17  H   UNL     1     -48.881  30.479  26.800  1.00  0.00     0.063 H 
ATOM     18  H   UNL     1     -47.796  32.580  27.480  1.00  0.00     0.063 H 
BRANCH   5  19
ATOM     19  N   UNL     1     -48.197  29.600  20.689  1.00  0.00    -0.370 N 
ATOM     20  H   UNL     1     -47.904  30.394  20.130  1.00  0.00     0.162 HD
BRANCH  19  21
ATOM     21  C   UNL     1     -49.431  28.988  20.202  1.00  0.00     0.013 C 
ATOM     22  H   UNL     1     -49.884  28.324  20.946  1.00  0.00     0.049 H 
ATOM     23  H   UNL     1     -49.166  28.351  19.351  1.00  0.00     0.049 H 
BRANCH  21  24
ATOM     24  C   UNL     1     -50.426  30.033  19.722  1.00  0.00    -0.048 C 
ATOM     25  H   UNL     1     -50.492  30.018  18.629  1.00  0.00     0.025 H 
ATOM     26  H   UNL     1     -51.429  29.854  20.122  1.00  0.00     0.025 H 
ATOM     27  H   UNL     1     -50.120  31.038  20.031  1.00  0.00     0.025 H 
ENDBRANCH  21  24
ENDBRANCH  19  21
ENDBRANCH   5  19
ENDBRANCH   1   4
BRANCH   1  28
ATOM     28  C   UNL     1     -47.491  35.323  26.421  1.00  0.00    -0.022 C 
ATOM     29  H   UNL     1     -47.900  35.939  25.611  1.00  0.00     0.032 H 
ATOM     30  H   UNL     1     -48.335  34.741  26.812  1.00  0.00     0.032 H 
BRANCH  28  31
ATOM     31  C   UNL     1     -46.971  36.218  27.518  1.00  0.00    -0.027 A 
ATOM     32  C   UNL     1     -46.867  35.774  28.827  1.00  0.00     0.030 A 
ATOM     33  C   UNL     1     -46.474  37.498  27.229  1.00  0.00    -0.032 A 
ATOM     34  N   UNL     1     -46.303  36.492  29.819  1.00  0.00    -0.262 NA
ATOM     35  H   UNL     1     -47.228  34.794  29.126  1.00  0.00     0.084 H 
ATOM     36  C   UNL     1     -45.807  38.245  28.208  1.00  0.00     0.066 A 
ATOM     37  H   UNL     1     -46.548  37.843  26.203  1.00  0.00     0.065 H 
ATOM     38  C   UNL     1     -45.771  37.700  29.486  1.00  0.00     0.051 A 
ATOM     39  H   UNL     1     -45.310  38.193  30.333  1.00  0.00     0.086 H 
BRANCH  36  40
ATOM     40  N   UNL     1     -45.138  39.466  27.872  1.00  0.00    -0.299 N 
ATOM     41  C   UNL     1     -45.475  40.287  26.812  1.00  0.00     0.021 A 
ATOM     42  C   UNL     1     -44.019  40.034  28.489  1.00  0.00     0.150 A 
ATOM     43  C   UNL     1     -44.546  41.297  26.699  1.00  0.00     0.033 A 
ATOM     44  H   UNL     1     -46.324  40.094  26.175  1.00  0.00     0.083 H 
ATOM     45  C   UNL     1     -43.638  41.175  27.779  1.00  0.00     0.071 A 
ATOM     46  N   UNL     1     -43.384  39.562  29.582  1.00  0.00    -0.218 NA
ATOM     47  C   UNL     1     -42.531  41.887  28.274  1.00  0.00     0.137 A 
ATOM     48  C   UNL     1     -42.335  40.307  29.940  1.00  0.00     0.120 A 
ATOM     49  N   UNL     1     -41.885  41.429  29.360  1.00  0.00    -0.219 NA
ATOM     50  H   UNL     1     -41.781  39.967  30.811  1.00  0.00     0.106 H 
BRANCH  43  51
ATOM     51  C   UNL     1     -44.528  42.306  25.646  1.00  0.00     0.095 A 
ATOM     52  C   UNL     1     -45.624  43.112  25.277  1.00  0.00    -0.016 A 
ATOM     53  N   UNL     1     -43.428  42.604  24.946  1.00  0.00    -0.173 NA
ATOM     54  C   UNL     1     -45.144  43.925  24.278  1.00  0.00     0.025 A 
ATOM     55  H   UNL     1     -46.624  43.105  25.693  1.00  0.00     0.066 H 
ATOM     56  N   UNL     1     -43.831  43.587  24.122  1.00  0.00    -0.275 N 
ATOM     57  H   UNL     1     -45.613  44.702  23.692  1.00  0.00     0.084 H 
BRANCH  56  58
ATOM     58  C   UNL     1     -42.888  44.168  23.198  1.00  0.00     0.030 C 
ATOM     59  H   UNL     1     -41.880  44.013  23.590  1.00  0.00     0.048 H 
ATOM     60  H   UNL     1     -43.108  45.235  23.107  1.00  0.00     0.048 H 
ATOM     61  H   UNL     1     -42.987  43.683  22.223  1.00  0.00     0.048 H 
ENDBRANCH  56  58
ENDBRANCH  43  51
BRANCH  47  62
ATOM     62  N   UNL     1     -42.056  43.080  27.742  1.00  0.00    -0.383 N 
ATOM     63  H   UNL     1     -41.144  43.001  27.308  1.00  0.00     0.158 HD
ATOM     64  H   UNL     1     -42.774  43.512  27.173  1.00  0.00     0.158 HD
ENDBRANCH  47  62
ENDBRANCH  36  40
ENDBRANCH  28  31
ENDBRANCH   1  28
TORSDOF 10
ENDMDL
MODEL 4
REMARK VINA RESULT:      -9.5      2.082     12.164
REMARK SMILES CCNc1ccc2ccc(CCc3cncc(-n4cc(-c5ccn(C)n5)c5c(N)ncnc54)c3)cc2n1
REMARK SMILES IDX 11 1 10 4 4 5 5 6 37 7 6 8 36 10 7 11 35 13 8 14 9 16 3 19
REMARK SMILES IDX 2 21 1 24 12 28 13 31 14 32 34 33 15 34 17 36 16 38 18 40
REMARK SMILES IDX 19 41 33 42 20 43 27 45 32 46 28 47 31 48 30 49 21 51 22 52
REMARK SMILES IDX 26 53 23 54 24 56 25 58 29 62
REMARK H PARENT 11 2 11 3 5 9 6 12 35 15 8 17 9 18 3 20 2 22 2 23 1 25 1 26
REMARK H PARENT 1 27 12 29 12 30 14 35 34 37 16 39 19 44 31 50 22 55 23 57
REMARK H PARENT 25 59 25 60 25 61 29 63 29 64
REMARK Flexibility Score: inf
ROOT
ATOM      1  C   UNL     1     -47.795  35.887  28.638  1.00  0.00    -0.024 C 
ATOM      2  H   UNL     1     -48.531  36.001  29.443  1.00  0.00     0.032 H 
ATOM      3  H   UNL     1     -47.238  34.968  28.867  1.00  0.00     0.032 H 
ENDROOT
BRANCH   1   4
ATOM      4  C   UNL     1     -46.829  37.051  28.664  1.00  0.00    -0.046 A 
ATOM      5  C   UNL     1     -44.786  40.618  26.247  1.00  0.00     0.126 A 
ATOM      6  C   UNL     1     -43.835  40.810  27.243  1.00  0.00    -0.019 A 
ATOM      7  N   UNL     1     -45.761  39.699  26.375  1.00  0.00    -0.231 NA
ATOM      8  C   UNL     1     -43.878  40.026  28.392  1.00  0.00    -0.049 A 
ATOM      9  H   UNL     1     -43.042  41.537  27.112  1.00  0.00     0.066 H 
ATOM     10  C   UNL     1     -45.808  38.937  27.481  1.00  0.00     0.073 A 
ATOM     11  C   UNL     1     -44.871  39.053  28.524  1.00  0.00     0.000 A 
ATOM     12  H   UNL     1     -43.121  40.159  29.160  1.00  0.00     0.063 H 
ATOM     13  C   UNL     1     -46.791  37.963  27.593  1.00  0.00    -0.032 A 
ATOM     14  C   UNL     1     -44.932  38.192  29.633  1.00  0.00    -0.053 A 
ATOM     15  H   UNL     1     -47.507  37.870  26.777  1.00  0.00     0.065 H 
ATOM     16  C   UNL     1     -45.897  37.186  29.694  1.00  0.00    -0.058 A 
ATOM     17  H   UNL     1     -44.206  38.280  30.439  1.00  0.00     0.063 H 
ATOM     18  H   UNL     1     -45.901  36.500  30.539  1.00  0.00     0.063 H 
BRANCH   5  19
ATOM     19  N   UNL     1     -44.661  41.369  25.069  1.00  0.00    -0.370 N 
ATOM     20  H   UNL     1     -43.890  41.016  24.512  1.00  0.00     0.162 HD
BRANCH  19  21
ATOM     21  C   UNL     1     -44.631  42.822  25.220  1.00  0.00     0.013 C 
ATOM     22  H   UNL     1     -43.974  43.138  26.038  1.00  0.00     0.049 H 
ATOM     23  H   UNL     1     -45.640  43.141  25.504  1.00  0.00     0.049 H 
BRANCH  21  24
ATOM     24  C   UNL     1     -44.260  43.516  23.919  1.00  0.00    -0.048 C 
ATOM     25  H   UNL     1     -43.763  42.813  23.244  1.00  0.00     0.025 H 
ATOM     26  H   UNL     1     -45.141  43.912  23.404  1.00  0.00     0.025 H 
ATOM     27  H   UNL     1     -43.578  44.353  24.102  1.00  0.00     0.025 H 
ENDBRANCH  21  24
ENDBRANCH  19  21
ENDBRANCH   5  19
ENDBRANCH   1   4
BRANCH   1  28
ATOM     28  C   UNL     1     -48.502  35.715  27.277  1.00  0.00    -0.022 C 
ATOM     29  H   UNL     1     -49.560  35.459  27.421  1.00  0.00     0.032 H 
ATOM     30  H   UNL     1     -48.496  36.677  26.751  1.00  0.00     0.032 H 
BRANCH  28  31
ATOM     31  C   UNL     1     -47.851  34.677  26.397  1.00  0.00    -0.027 A 
ATOM     32  C   UNL     1     -46.507  34.751  26.064  1.00  0.00     0.030 A 
ATOM     33  C   UNL     1     -48.559  33.543  25.973  1.00  0.00    -0.032 A 
ATOM     34  N   UNL     1     -45.852  33.792  25.379  1.00  0.00    -0.262 NA
ATOM     35  H   UNL     1     -45.894  35.597  26.359  1.00  0.00     0.084 H 
ATOM     36  C   UNL     1     -47.902  32.486  25.332  1.00  0.00     0.066 A 
ATOM     37  H   UNL     1     -49.610  33.482  26.241  1.00  0.00     0.065 H 
ATOM     38  C   UNL     1     -46.556  32.676  25.045  1.00  0.00     0.051 A 
ATOM     39  H   UNL     1     -45.946  31.945  24.529  1.00  0.00     0.086 H 
BRANCH  36  40
ATOM     40  N   UNL     1     -48.581  31.253  25.065  1.00  0.00    -0.299 N 
ATOM     41  C   UNL     1     -48.433  30.092  25.802  1.00  0.00     0.021 A 
ATOM     42  C   UNL     1     -49.461  30.963  24.018  1.00  0.00     0.150 A 
ATOM     43  C   UNL     1     -49.122  29.069  25.191  1.00  0.00     0.033 A 
ATOM     44  H   UNL     1     -47.820  30.042  26.689  1.00  0.00     0.083 H 
ATOM     45  C   UNL     1     -49.813  29.612  24.080  1.00  0.00     0.071 A 
ATOM     46  N   UNL     1     -49.897  31.827  23.078  1.00  0.00    -0.218 NA
ATOM     47  C   UNL     1     -50.712  29.148  23.105  1.00  0.00     0.137 A 
ATOM     48  C   UNL     1     -50.724  31.264  22.192  1.00  0.00     0.120 A 
ATOM     49  N   UNL     1     -51.154  29.995  22.158  1.00  0.00    -0.219 NA
ATOM     50  H   UNL     1     -51.099  31.914  21.407  1.00  0.00     0.106 H 
BRANCH  43  51
ATOM     51  C   UNL     1     -49.128  27.680  25.635  1.00  0.00     0.095 A 
ATOM     52  C   UNL     1     -50.285  26.907  25.864  1.00  0.00    -0.016 A 
ATOM     53  N   UNL     1     -48.008  26.974  25.826  1.00  0.00    -0.173 NA
ATOM     54  C   UNL     1     -49.815  25.669  26.234  1.00  0.00     0.025 A 
ATOM     55  H   UNL     1     -51.319  27.212  25.760  1.00  0.00     0.066 H 
ATOM     56  N   UNL     1     -48.454  25.760  26.192  1.00  0.00    -0.275 N 
ATOM     57  H   UNL     1     -50.325  24.756  26.505  1.00  0.00     0.084 H 
BRANCH  56  58
ATOM     58  C   UNL     1     -47.505  24.716  26.487  1.00  0.00     0.030 C 
ATOM     59  H   UNL     1     -47.004  24.431  25.558  1.00  0.00     0.048 H 
ATOM     60  H   UNL     1     -48.047  23.865  26.908  1.00  0.00     0.048 H 
ATOM     61  H   UNL     1     -46.770  25.084  27.208  1.00  0.00     0.048 H 
ENDBRANCH  56  58
ENDBRANCH  43  51
BRANCH  47  62
ATOM     62  N   UNL     1     -51.228  27.858  23.055  1.00  0.00    -0.383 N 
ATOM     63  H   UNL     1     -51.418  27.458  23.966  1.00  0.00     0.158 HD
ATOM     64  H   UNL     1     -51.994  27.820  22.393  1.00  0.00     0.158 HD
ENDBRANCH  47  62
ENDBRANCH  36  40
ENDBRANCH  28  31
ENDBRANCH   1  28
TORSDOF 10
ENDMDL
MODEL 5
REMARK VINA RESULT:      -9.4      2.401     12.114
REMARK SMILES CCNc1ccc2ccc(CCc3cncc(-n4cc(-c5ccn(C)n5)c5c(N)ncnc54)c3)cc2n1
REMARK SMILES IDX 11 1 10 4 4 5 5 6 37 7 6 8 36 10 7 11 35 13 8 14 9 16 3 19
REMARK SMILES IDX 2 21 1 24 12 28 13 31 14 32 34 33 15 34 17 36 16 38 18 40
REMARK SMILES IDX 19 41 33 42 20 43 27 45 32 46 28 47 31 48 30 49 21 51 22 52
REMARK SMILES IDX 26 53 23 54 24 56 25 58 29 62
REMARK H PARENT 11 2 11 3 5 9 6 12 35 15 8 17 9 18 3 20 2 22 2 23 1 25 1 26
REMARK H PARENT 1 27 12 29 12 30 14 35 34 37 16 39 19 44 31 50 22 55 23 57
REMARK H PARENT 25 59 25 60 25 61 29 63 29 64
REMARK Flexibility Score: inf
ROOT
ATOM      1  C   UNL     1     -46.794  37.611  26.609  1.00  0.00    -0.024 C 
ATOM      2  H   UNL     1     -46.721  37.866  25.544  1.00  0.00     0.032 H 
ATOM      3  H   UNL     1     -47.817  37.875  26.911  1.00  0.00     0.032 H 
ENDROOT
BRANCH   1   4
ATOM      4  C   UNL     1     -45.826  38.461  27.402  1.00  0.00    -0.046 A 
ATOM      5  C   UNL     1     -42.918  42.240  27.447  1.00  0.00     0.126 A 
ATOM      6  C   UNL     1     -42.331  41.832  28.639  1.00  0.00    -0.019 A 
ATOM      7  N   UNL     1     -43.931  41.550  26.892  1.00  0.00    -0.231 NA
ATOM      8  C   UNL     1     -42.786  40.677  29.268  1.00  0.00    -0.049 A 
ATOM      9  H   UNL     1     -41.499  42.386  29.059  1.00  0.00     0.066 H 
ATOM     10  C   UNL     1     -44.375  40.432  27.491  1.00  0.00     0.073 A 
ATOM     11  C   UNL     1     -43.821  39.940  28.686  1.00  0.00     0.000 A 
ATOM     12  H   UNL     1     -42.312  40.345  30.186  1.00  0.00     0.063 H 
ATOM     13  C   UNL     1     -45.394  39.701  26.896  1.00  0.00    -0.032 A 
ATOM     14  C   UNL     1     -44.283  38.735  29.242  1.00  0.00    -0.053 A 
ATOM     15  H   UNL     1     -45.812  40.080  25.964  1.00  0.00     0.065 H 
ATOM     16  C   UNL     1     -45.271  37.992  28.594  1.00  0.00    -0.058 A 
ATOM     17  H   UNL     1     -43.853  38.353  30.165  1.00  0.00     0.063 H 
ATOM     18  H   UNL     1     -45.585  37.039  29.014  1.00  0.00     0.063 H 
BRANCH   5  19
ATOM     19  N   UNL     1     -42.378  43.362  26.801  1.00  0.00    -0.370 N 
ATOM     20  H   UNL     1     -43.093  44.071  26.681  1.00  0.00     0.162 HD
BRANCH  19  21
ATOM     21  C   UNL     1     -41.619  43.109  25.578  1.00  0.00     0.013 C 
ATOM     22  H   UNL     1     -41.358  42.051  25.467  1.00  0.00     0.049 H 
ATOM     23  H   UNL     1     -40.668  43.647  25.667  1.00  0.00     0.049 H 
BRANCH  21  24
ATOM     24  C   UNL     1     -42.346  43.628  24.347  1.00  0.00    -0.048 C 
ATOM     25  H   UNL     1     -42.845  42.803  23.828  1.00  0.00     0.025 H 
ATOM     26  H   UNL     1     -43.106  44.371  24.606  1.00  0.00     0.025 H 
ATOM     27  H   UNL     1     -41.647  44.097  23.647  1.00  0.00     0.025 H 
ENDBRANCH  21  24
ENDBRANCH  19  21
ENDBRANCH   5  19
ENDBRANCH   1   4
BRANCH   1  28
ATOM     28  C   UNL     1     -46.587  36.097  26.819  1.00  0.00    -0.022 C 
ATOM     29  H   UNL     1     -45.918  35.688  26.051  1.00  0.00     0.032 H 
ATOM     30  H   UNL     1     -46.075  35.940  27.777  1.00  0.00     0.032 H 
BRANCH  28  31
ATOM     31  C   UNL     1     -47.878  35.317  26.827  1.00  0.00    -0.027 A 
ATOM     32  C   UNL     1     -49.072  35.898  27.226  1.00  0.00     0.030 A 
ATOM     33  C   UNL     1     -47.933  34.008  26.327  1.00  0.00    -0.032 A 
ATOM     34  N   UNL     1     -50.269  35.282  27.142  1.00  0.00    -0.262 NA
ATOM     35  H   UNL     1     -49.109  36.909  27.622  1.00  0.00     0.084 H 
ATOM     36  C   UNL     1     -49.162  33.361  26.145  1.00  0.00     0.066 A 
ATOM     37  H   UNL     1     -46.999  33.556  26.007  1.00  0.00     0.065 H 
ATOM     38  C   UNL     1     -50.291  34.040  26.588  1.00  0.00     0.051 A 
ATOM     39  H   UNL     1     -51.293  33.634  26.529  1.00  0.00     0.086 H 
BRANCH  36  40
ATOM     40  N   UNL     1     -49.236  32.102  25.465  1.00  0.00    -0.299 N 
ATOM     41  C   UNL     1     -48.412  31.020  25.710  1.00  0.00     0.021 A 
ATOM     42  C   UNL     1     -50.090  31.737  24.420  1.00  0.00     0.150 A 
ATOM     43  C   UNL     1     -48.668  30.029  24.790  1.00  0.00     0.033 A 
ATOM     44  H   UNL     1     -47.666  31.023  26.491  1.00  0.00     0.083 H 
ATOM     45  C   UNL     1     -49.757  30.450  23.989  1.00  0.00     0.071 A 
ATOM     46  N   UNL     1     -51.070  32.495  23.886  1.00  0.00    -0.218 NA
ATOM     47  C   UNL     1     -50.531  29.913  22.946  1.00  0.00     0.137 A 
ATOM     48  C   UNL     1     -51.717  31.888  22.887  1.00  0.00     0.120 A 
ATOM     49  N   UNL     1     -51.510  30.656  22.400  1.00  0.00    -0.219 NA
ATOM     50  H   UNL     1     -52.512  32.458  22.415  1.00  0.00     0.106 H 
BRANCH  43  51
ATOM     51  C   UNL     1     -47.936  28.772  24.685  1.00  0.00     0.095 A 
ATOM     52  C   UNL     1     -46.917  28.503  23.748  1.00  0.00    -0.016 A 
ATOM     53  N   UNL     1     -48.132  27.746  25.522  1.00  0.00    -0.173 NA
ATOM     54  C   UNL     1     -46.499  27.225  24.039  1.00  0.00     0.025 A 
ATOM     55  H   UNL     1     -46.535  29.158  22.976  1.00  0.00     0.066 H 
ATOM     56  N   UNL     1     -47.250  26.821  25.104  1.00  0.00    -0.275 N 
ATOM     57  H   UNL     1     -45.743  26.595  23.593  1.00  0.00     0.084 H 
BRANCH  56  58
ATOM     58  C   UNL     1     -47.178  25.553  25.787  1.00  0.00     0.030 C 
ATOM     59  H   UNL     1     -46.799  25.726  26.797  1.00  0.00     0.048 H 
ATOM     60  H   UNL     1     -46.503  24.899  25.229  1.00  0.00     0.048 H 
ATOM     61  H   UNL     1     -48.175  25.107  25.833  1.00  0.00     0.048 H 
ENDBRANCH  56  58
ENDBRANCH  43  51
BRANCH  47  62
ATOM     62  N   UNL     1     -50.393  28.626  22.440  1.00  0.00    -0.383 N 
ATOM     63  H   UNL     1     -50.005  27.964  23.103  1.00  0.00     0.158 HD
ATOM     64  H   UNL     1     -51.253  28.339  21.989  1.00  0.00     0.158 HD
ENDBRANCH  47  62
ENDBRANCH  36  40
ENDBRANCH  28  31
ENDBRANCH   1  28
TORSDOF 10
ENDMDL
MODEL 6
REMARK VINA RESULT:      -9.1      2.069     12.169
REMARK SMILES CCNc1ccc2ccc(CCc3cncc(-n4cc(-c5ccn(C)n5)c5c(N)ncnc54)c3)cc2n1
REMARK SMILES IDX 11 1 10 4 4 5 5 6 37 7 6 8 36 10 7 11 35 13 8 14 9 16 3 19
REMARK SMILES IDX 2 21 1 24 12 28 13 31 14 32 34 33 15 34 17 36 16 38 18 40
REMARK SMILES IDX 19 41 33 42 20 43 27 45 32 46 28 47 31 48 30 49 21 51 22 52
REMARK SMILES IDX 26 53 23 54 24 56 25 58 29 62
REMARK H PARENT 11 2 11 3 5 9 6 12 35 15 8 17 9 18 3 20 2 22 2 23 1 25 1 26
REMARK H PARENT 1 27 12 29 12 30 14 35 34 37 16 39 19 44 31 50 22 55 23 57
REMARK H PARENT 25 59 25 60 25 61 29 63 29 64
REMARK Flexibility Score: inf
ROOT
ATOM      1  C   UNL     1     -46.121  37.004  28.816  1.00  0.00    -0.024 C 
ATOM      2  H   UNL     1     -47.172  37.284  28.959  1.00  0.00     0.032 H 
ATOM      3  H   UNL     1     -45.839  36.430  29.709  1.00  0.00     0.032 H 
ENDROOT
BRANCH   1   4
ATOM      4  C   UNL     1     -45.266  38.251  28.759  1.00  0.00    -0.046 A 
ATOM      5  C   UNL     1     -43.732  41.942  26.159  1.00  0.00     0.126 A 
ATOM      6  C   UNL     1     -42.735  42.237  27.081  1.00  0.00    -0.019 A 
ATOM      7  N   UNL     1     -44.608  40.942  26.368  1.00  0.00    -0.231 NA
ATOM      8  C   UNL     1     -42.625  41.473  28.240  1.00  0.00    -0.049 A 
ATOM      9  H   UNL     1     -42.022  43.030  26.885  1.00  0.00     0.066 H 
ATOM     10  C   UNL     1     -44.507  40.199  27.483  1.00  0.00     0.073 A 
ATOM     11  C   UNL     1     -43.514  40.417  28.454  1.00  0.00     0.000 A 
ATOM     12  H   UNL     1     -41.831  41.688  28.949  1.00  0.00     0.063 H 
ATOM     13  C   UNL     1     -45.387  39.142  27.677  1.00  0.00    -0.032 A 
ATOM     14  C   UNL     1     -43.417  39.575  29.575  1.00  0.00    -0.053 A 
ATOM     15  H   UNL     1     -46.147  38.970  26.916  1.00  0.00     0.065 H 
ATOM     16  C   UNL     1     -44.280  38.488  29.718  1.00  0.00    -0.058 A 
ATOM     17  H   UNL     1     -42.646  39.743  30.325  1.00  0.00     0.063 H 
ATOM     18  H   UNL     1     -44.161  37.820  30.568  1.00  0.00     0.063 H 
BRANCH   5  19
ATOM     19  N   UNL     1     -43.760  42.679  24.966  1.00  0.00    -0.370 N 
ATOM     20  H   UNL     1     -42.907  43.219  24.872  1.00  0.00     0.162 HD
BRANCH  19  21
ATOM     21  C   UNL     1     -44.962  43.471  24.715  1.00  0.00     0.013 C 
ATOM     22  H   UNL     1     -45.872  42.950  25.032  1.00  0.00     0.049 H 
ATOM     23  H   UNL     1     -45.049  43.596  23.630  1.00  0.00     0.049 H 
BRANCH  21  24
ATOM     24  C   UNL     1     -44.871  44.851  25.348  1.00  0.00    -0.048 C 
ATOM     25  H   UNL     1     -45.873  45.260  25.508  1.00  0.00     0.025 H 
ATOM     26  H   UNL     1     -44.361  44.822  26.316  1.00  0.00     0.025 H 
ATOM     27  H   UNL     1     -44.319  45.543  24.702  1.00  0.00     0.025 H 
ENDBRANCH  21  24
ENDBRANCH  19  21
ENDBRANCH   5  19
ENDBRANCH   1   4
BRANCH   1  28
ATOM     28  C   UNL     1     -45.965  36.102  27.574  1.00  0.00    -0.022 C 
ATOM     29  H   UNL     1     -45.683  36.698  26.697  1.00  0.00     0.032 H 
ATOM     30  H   UNL     1     -45.133  35.407  27.745  1.00  0.00     0.032 H 
BRANCH  28  31
ATOM     31  C   UNL     1     -47.206  35.304  27.260  1.00  0.00    -0.027 A 
ATOM     32  C   UNL     1     -48.471  35.858  27.377  1.00  0.00     0.030 A 
ATOM     33  C   UNL     1     -47.116  34.006  26.736  1.00  0.00    -0.032 A 
ATOM     34  N   UNL     1     -49.602  35.228  27.000  1.00  0.00    -0.262 NA
ATOM     35  H   UNL     1     -48.620  36.859  27.772  1.00  0.00     0.084 H 
ATOM     36  C   UNL     1     -48.254  33.347  26.256  1.00  0.00     0.066 A 
ATOM     37  H   UNL     1     -46.124  33.575  26.638  1.00  0.00     0.065 H 
ATOM     38  C   UNL     1     -49.469  33.999  26.433  1.00  0.00     0.051 A 
ATOM     39  H   UNL     1     -50.420  33.580  26.130  1.00  0.00     0.086 H 
BRANCH  36  40
ATOM     40  N   UNL     1     -48.141  32.103  25.554  1.00  0.00    -0.299 N 
ATOM     41  C   UNL     1     -48.835  30.951  25.868  1.00  0.00     0.021 A 
ATOM     42  C   UNL     1     -47.303  31.795  24.478  1.00  0.00     0.150 A 
ATOM     43  C   UNL     1     -48.387  29.914  25.080  1.00  0.00     0.033 A 
ATOM     44  H   UNL     1     -49.575  30.914  26.654  1.00  0.00     0.083 H 
ATOM     45  C   UNL     1     -47.444  30.440  24.165  1.00  0.00     0.071 A 
ATOM     46  N   UNL     1     -46.471  32.646  23.843  1.00  0.00    -0.218 NA
ATOM     47  C   UNL     1     -46.681  29.958  23.088  1.00  0.00     0.137 A 
ATOM     48  C   UNL     1     -45.781  32.066  22.856  1.00  0.00     0.120 A 
ATOM     49  N   UNL     1     -45.844  30.792  22.446  1.00  0.00    -0.219 NA
ATOM     50  H   UNL     1     -45.088  32.706  22.316  1.00  0.00     0.106 H 
BRANCH  43  51
ATOM     51  C   UNL     1     -48.830  28.529  25.186  1.00  0.00     0.095 A 
ATOM     52  C   UNL     1     -49.942  27.979  24.516  1.00  0.00    -0.016 A 
ATOM     53  N   UNL     1     -48.177  27.612  25.910  1.00  0.00    -0.173 NA
ATOM     54  C   UNL     1     -49.958  26.654  24.886  1.00  0.00     0.025 A 
ATOM     55  H   UNL     1     -50.628  28.481  23.846  1.00  0.00     0.066 H 
ATOM     56  N   UNL     1     -48.885  26.486  25.712  1.00  0.00    -0.275 N 
ATOM     57  H   UNL     1     -50.620  25.841  24.625  1.00  0.00     0.084 H 
BRANCH  56  58
ATOM     58  C   UNL     1     -48.467  25.264  26.353  1.00  0.00     0.030 C 
ATOM     59  H   UNL     1     -47.474  25.000  25.980  1.00  0.00     0.048 H 
ATOM     60  H   UNL     1     -49.190  24.482  26.110  1.00  0.00     0.048 H 
ATOM     61  H   UNL     1     -48.430  25.415  27.435  1.00  0.00     0.048 H 
ENDBRANCH  56  58
ENDBRANCH  43  51
BRANCH  47  62
ATOM     62  N   UNL     1     -46.746  28.662  22.590  1.00  0.00    -0.383 N 
ATOM     63  H   UNL     1     -47.643  28.212  22.736  1.00  0.00     0.158 HD
ATOM     64  H   UNL     1     -46.397  28.640  21.639  1.00  0.00     0.158 HD
ENDBRANCH  47  62
ENDBRANCH  36  40
ENDBRANCH  28  31
ENDBRANCH   1  28
TORSDOF 10
ENDMDL
MODEL 7
REMARK VINA RESULT:      -8.9      2.434     12.425
REMARK SMILES CCNc1ccc2ccc(CCc3cncc(-n4cc(-c5ccn(C)n5)c5c(N)ncnc54)c3)cc2n1
REMARK SMILES IDX 11 1 10 4 4 5 5 6 37 7 6 8 36 10 7 11 35 13 8 14 9 16 3 19
REMARK SMILES IDX 2 21 1 24 12 28 13 31 14 32 34 33 15 34 17 36 16 38 18 40
REMARK SMILES IDX 19 41 33 42 20 43 27 45 32 46 28 47 31 48 30 49 21 51 22 52
REMARK SMILES IDX 26 53 23 54 24 56 25 58 29 62
REMARK H PARENT 11 2 11 3 5 9 6 12 35 15 8 17 9 18 3 20 2 22 2 23 1 25 1 26
REMARK H PARENT 1 27 12 29 12 30 14 35 34 37 16 39 19 44 31 50 22 55 23 57
REMARK H PARENT 25 59 25 60 25 61 29 63 29 64
REMARK Flexibility Score: inf
ROOT
ATOM      1  C   UNL     1     -46.181  36.312  28.074  1.00  0.00    -0.024 C 
ATOM      2  H   UNL     1     -47.144  36.254  28.595  1.00  0.00     0.032 H 
ATOM      3  H   UNL     1     -45.413  36.174  28.847  1.00  0.00     0.032 H 
ENDROOT
BRANCH   1   4
ATOM      4  C   UNL     1     -46.011  37.689  27.471  1.00  0.00    -0.046 A 
ATOM      5  C   UNL     1     -43.448  41.708  27.316  1.00  0.00     0.126 A 
ATOM      6  C   UNL     1     -44.450  42.374  26.620  1.00  0.00    -0.019 A 
ATOM      7  N   UNL     1     -43.568  40.408  27.644  1.00  0.00    -0.231 NA
ATOM      8  C   UNL     1     -45.610  41.691  26.266  1.00  0.00    -0.049 A 
ATOM      9  H   UNL     1     -44.348  43.428  26.385  1.00  0.00     0.066 H 
ATOM     10  C   UNL     1     -44.686  39.742  27.308  1.00  0.00     0.073 A 
ATOM     11  C   UNL     1     -45.754  40.349  26.624  1.00  0.00     0.000 A 
ATOM     12  H   UNL     1     -46.403  42.218  25.743  1.00  0.00     0.063 H 
ATOM     13  C   UNL     1     -44.823  38.412  27.683  1.00  0.00    -0.032 A 
ATOM     14  C   UNL     1     -46.925  39.623  26.346  1.00  0.00    -0.053 A 
ATOM     15  H   UNL     1     -43.997  37.950  28.223  1.00  0.00     0.065 H 
ATOM     16  C   UNL     1     -47.057  38.304  26.782  1.00  0.00    -0.058 A 
ATOM     17  H   UNL     1     -47.753  40.093  25.819  1.00  0.00     0.063 H 
ATOM     18  H   UNL     1     -47.989  37.771  26.598  1.00  0.00     0.063 H 
BRANCH   5  19
ATOM     19  N   UNL     1     -42.332  42.450  27.727  1.00  0.00    -0.370 N 
ATOM     20  H   UNL     1     -41.520  42.187  27.179  1.00  0.00     0.162 HD
BRANCH  19  21
ATOM     21  C   UNL     1     -42.060  42.481  29.162  1.00  0.00     0.013 C 
ATOM     22  H   UNL     1     -42.924  42.831  29.737  1.00  0.00     0.049 H 
ATOM     23  H   UNL     1     -41.268  43.220  29.329  1.00  0.00     0.049 H 
BRANCH  21  24
ATOM     24  C   UNL     1     -41.570  41.135  29.673  1.00  0.00    -0.048 C 
ATOM     25  H   UNL     1     -40.762  41.277  30.397  1.00  0.00     0.025 H 
ATOM     26  H   UNL     1     -42.369  40.571  30.165  1.00  0.00     0.025 H 
ATOM     27  H   UNL     1     -41.187  40.520  28.851  1.00  0.00     0.025 H 
ENDBRANCH  21  24
ENDBRANCH  19  21
ENDBRANCH   5  19
ENDBRANCH   1   4
BRANCH   1  28
ATOM     28  C   UNL     1     -46.056  35.175  27.038  1.00  0.00    -0.022 C 
ATOM     29  H   UNL     1     -45.698  35.565  26.077  1.00  0.00     0.032 H 
ATOM     30  H   UNL     1     -45.289  34.469  27.380  1.00  0.00     0.032 H 
BRANCH  28  31
ATOM     31  C   UNL     1     -47.346  34.423  26.824  1.00  0.00    -0.027 A 
ATOM     32  C   UNL     1     -48.576  35.056  26.915  1.00  0.00     0.030 A 
ATOM     33  C   UNL     1     -47.339  33.080  26.420  1.00  0.00    -0.032 A 
ATOM     34  N   UNL     1     -49.748  34.459  26.620  1.00  0.00    -0.262 NA
ATOM     35  H   UNL     1     -48.660  36.095  27.219  1.00  0.00     0.084 H 
ATOM     36  C   UNL     1     -48.523  32.445  26.026  1.00  0.00     0.066 A 
ATOM     37  H   UNL     1     -46.376  32.587  26.342  1.00  0.00     0.065 H 
ATOM     38  C   UNL     1     -49.696  33.177  26.167  1.00  0.00     0.051 A 
ATOM     39  H   UNL     1     -50.676  32.787  25.922  1.00  0.00     0.086 H 
BRANCH  36  40
ATOM     40  N   UNL     1     -48.496  31.138  25.439  1.00  0.00    -0.299 N 
ATOM     41  C   UNL     1     -48.814  29.967  26.100  1.00  0.00     0.021 A 
ATOM     42  C   UNL     1     -48.110  30.784  24.143  1.00  0.00     0.150 A 
ATOM     43  C   UNL     1     -48.550  28.891  25.282  1.00  0.00     0.033 A 
ATOM     44  H   UNL     1     -49.169  29.953  27.119  1.00  0.00     0.083 H 
ATOM     45  C   UNL     1     -48.141  29.393  24.022  1.00  0.00     0.071 A 
ATOM     46  N   UNL     1     -47.744  31.631  23.158  1.00  0.00    -0.218 NA
ATOM     47  C   UNL     1     -47.795  28.858  22.769  1.00  0.00     0.137 A 
ATOM     48  C   UNL     1     -47.413  31.006  22.025  1.00  0.00     0.120 A 
ATOM     49  N   UNL     1     -47.425  29.688  21.778  1.00  0.00    -0.219 NA
ATOM     50  H   UNL     1     -47.102  31.641  21.200  1.00  0.00     0.106 H 
BRANCH  43  51
ATOM     51  C   UNL     1     -48.685  27.491  25.668  1.00  0.00     0.095 A 
ATOM     52  C   UNL     1     -49.853  26.716  25.515  1.00  0.00    -0.016 A 
ATOM     53  N   UNL     1     -47.672  26.777  26.173  1.00  0.00    -0.173 NA
ATOM     54  C   UNL     1     -49.512  25.467  25.979  1.00  0.00     0.025 A 
ATOM     55  H   UNL     1     -50.807  27.027  25.109  1.00  0.00     0.066 H 
ATOM     56  N   UNL     1     -48.203  25.555  26.355  1.00  0.00    -0.275 N 
ATOM     57  H   UNL     1     -50.075  24.549  26.058  1.00  0.00     0.084 H 
BRANCH  56  58
ATOM     58  C   UNL     1     -47.383  24.501  26.898  1.00  0.00     0.030 C 
ATOM     59  H   UNL     1     -47.859  24.127  27.808  1.00  0.00     0.048 H 
ATOM     60  H   UNL     1     -46.395  24.913  27.122  1.00  0.00     0.048 H 
ATOM     61  H   UNL     1     -47.293  23.694  26.166  1.00  0.00     0.048 H 
ENDBRANCH  56  58
ENDBRANCH  43  51
BRANCH  47  62
ATOM     62  N   UNL     1     -47.840  27.507  22.445  1.00  0.00    -0.383 N 
ATOM     63  H   UNL     1     -47.052  27.192  21.892  1.00  0.00     0.158 HD
ATOM     64  H   UNL     1     -48.037  26.961  23.276  1.00  0.00     0.158 HD
ENDBRANCH  47  62
ENDBRANCH  36  40
ENDBRANCH  28  31
ENDBRANCH   1  28
TORSDOF 10
ENDMDL
