MODEL 1
REMARK VINA RESULT:      -9.9      0.000      0.000
REMARK SMILES COCCn1ccc(-c2cn(-c3cncc(COc4ccc5ccc(N6CCC6)nc5c4)c3)c3ncnc(N)c23)n1
REMARK SMILES IDX 9 1 10 2 11 3 34 4 35 5 36 6 37 7 38 8 40 9 8 12 5 13 6 14
REMARK SMILES IDX 41 15 7 16 4 19 3 22 2 25 1 26 12 30 13 31 33 32 14 33 16 35
REMARK SMILES IDX 15 37 17 39 18 42 19 43 20 44 32 45 21 46 31 48 22 50 30 52
REMARK SMILES IDX 23 53 25 54 24 55 26 58 27 59 29 60 28 61 39 68
REMARK H PARENT 10 10 36 11 6 17 7 18 4 20 4 21 3 23 3 24 1 27 1 28 1 29 13 34
REMARK H PARENT 33 36 15 38 17 40 17 41 20 47 32 49 21 51 23 56 24 57 27 62
REMARK H PARENT 27 63 29 64 29 65 28 66 28 67 39 69 39 70
REMARK Flexibility Score: inf
ROOT
ATOM      1  C   UNL     1     -44.675  41.478  26.254  1.00  0.00     0.033 A 
ATOM      2  C   UNL     1     -45.489  40.378  26.414  1.00  0.00     0.021 A 
ATOM      3  N   UNL     1     -45.104  39.680  27.542  1.00  0.00    -0.299 N 
ATOM      4  C   UNL     1     -44.002  40.349  28.084  1.00  0.00     0.150 A 
ATOM      5  N   UNL     1     -43.337  40.007  29.205  1.00  0.00    -0.218 NA
ATOM      6  C   UNL     1     -42.330  40.836  29.494  1.00  0.00     0.120 A 
ATOM      7  N   UNL     1     -41.919  41.901  28.791  1.00  0.00    -0.219 NA
ATOM      8  C   UNL     1     -42.589  42.224  27.671  1.00  0.00     0.137 A 
ATOM      9  C   UNL     1     -43.705  41.457  27.288  1.00  0.00     0.071 A 
ATOM     10  H   UNL     1     -46.310  40.057  25.788  1.00  0.00     0.083 H 
ATOM     11  H   UNL     1     -41.774  40.617  30.401  1.00  0.00     0.106 H 
ENDROOT
BRANCH   1  12
ATOM     12  C   UNL     1     -44.813  42.468  25.190  1.00  0.00     0.095 A 
ATOM     13  N   UNL     1     -45.503  44.148  24.110  1.00  0.00    -0.270 N 
ATOM     14  C   UNL     1     -44.462  43.667  23.370  1.00  0.00     0.026 A 
ATOM     15  N   UNL     1     -45.732  43.438  25.230  1.00  0.00    -0.173 NA
ATOM     16  C   UNL     1     -43.981  42.577  24.057  1.00  0.00    -0.016 A 
ATOM     17  H   UNL     1     -44.148  44.131  22.445  1.00  0.00     0.084 H 
ATOM     18  H   UNL     1     -43.143  41.952  23.780  1.00  0.00     0.066 H 
BRANCH  13  19
ATOM     19  C   UNL     1     -46.326  45.306  23.800  1.00  0.00     0.064 C 
ATOM     20  H   UNL     1     -46.413  45.369  22.710  1.00  0.00     0.054 H 
ATOM     21  H   UNL     1     -45.765  46.184  24.142  1.00  0.00     0.054 H 
BRANCH  19  22
ATOM     22  C   UNL     1     -47.681  45.252  24.503  1.00  0.00     0.066 C 
ATOM     23  H   UNL     1     -48.259  44.349  24.265  1.00  0.00     0.059 H 
ATOM     24  H   UNL     1     -47.506  45.234  25.584  1.00  0.00     0.059 H 
BRANCH  22  25
ATOM     25  O   UNL     1     -48.480  46.417  24.269  1.00  0.00    -0.383 OA
BRANCH  25  26
ATOM     26  C   UNL     1     -48.989  46.994  25.466  1.00  0.00     0.036 C 
ATOM     27  H   UNL     1     -50.079  46.939  25.432  1.00  0.00     0.053 H 
ATOM     28  H   UNL     1     -48.650  46.432  26.339  1.00  0.00     0.053 H 
ATOM     29  H   UNL     1     -48.697  48.046  25.548  1.00  0.00     0.053 H 
ENDBRANCH  25  26
ENDBRANCH  22  25
ENDBRANCH  19  22
ENDBRANCH  13  19
ENDBRANCH   1  12
BRANCH   3  30
ATOM     30  C   UNL     1     -45.750  38.506  28.044  1.00  0.00     0.066 A 
ATOM     31  C   UNL     1     -45.441  37.999  29.303  1.00  0.00     0.051 A 
ATOM     32  C   UNL     1     -46.699  37.801  27.297  1.00  0.00    -0.028 A 
ATOM     33  N   UNL     1     -45.983  36.872  29.828  1.00  0.00    -0.262 NA
ATOM     34  H   UNL     1     -44.712  38.457  29.963  1.00  0.00     0.086 H 
ATOM     35  C   UNL     1     -47.263  36.620  27.795  1.00  0.00     0.010 A 
ATOM     36  H   UNL     1     -47.027  38.148  26.323  1.00  0.00     0.065 H 
ATOM     37  C   UNL     1     -46.868  36.203  29.058  1.00  0.00     0.034 A 
ATOM     38  H   UNL     1     -47.262  35.290  29.499  1.00  0.00     0.084 H 
BRANCH  35  39
ATOM     39  C   UNL     1     -48.260  35.827  26.993  1.00  0.00     0.115 C 
ATOM     40  H   UNL     1     -48.140  35.954  25.911  1.00  0.00     0.076 H 
ATOM     41  H   UNL     1     -49.259  36.223  27.219  1.00  0.00     0.076 H 
BRANCH  39  42
ATOM     42  O   UNL     1     -48.270  34.448  27.367  1.00  0.00    -0.489 OA
BRANCH  42  43
ATOM     43  C   UNL     1     -47.897  33.508  26.445  1.00  0.00     0.122 A 
ATOM     44  C   UNL     1     -46.790  33.864  25.676  1.00  0.00    -0.019 A 
ATOM     45  C   UNL     1     -48.510  32.275  26.219  1.00  0.00     0.007 A 
ATOM     46  C   UNL     1     -46.309  33.002  24.693  1.00  0.00    -0.049 A 
ATOM     47  H   UNL     1     -46.301  34.820  25.842  1.00  0.00     0.066 H 
ATOM     48  C   UNL     1     -48.058  31.397  25.240  1.00  0.00     0.076 A 
ATOM     49  H   UNL     1     -49.370  31.949  26.792  1.00  0.00     0.069 H 
ATOM     50  C   UNL     1     -46.941  31.770  24.469  1.00  0.00     0.001 A 
ATOM     51  H   UNL     1     -45.445  33.299  24.102  1.00  0.00     0.063 H 
ATOM     52  N   UNL     1     -48.700  30.229  25.059  1.00  0.00    -0.231 NA
ATOM     53  C   UNL     1     -46.499  30.879  23.490  1.00  0.00    -0.049 A 
ATOM     54  C   UNL     1     -48.277  29.381  24.095  1.00  0.00     0.129 A 
ATOM     55  C   UNL     1     -47.172  29.675  23.304  1.00  0.00    -0.019 A 
ATOM     56  H   UNL     1     -45.638  31.111  22.870  1.00  0.00     0.063 H 
ATOM     57  H   UNL     1     -46.829  28.976  22.550  1.00  0.00     0.066 H 
BRANCH  54  58
ATOM     58  N   UNL     1     -48.971  28.168  23.912  1.00  0.00    -0.356 N 
ATOM     59  C   UNL     1     -50.010  27.699  24.786  1.00  0.00     0.021 C 
ATOM     60  C   UNL     1     -49.693  27.772  22.738  1.00  0.00     0.021 C 
ATOM     61  C   UNL     1     -50.439  26.781  23.638  1.00  0.00    -0.018 C 
ATOM     62  H   UNL     1     -50.734  28.476  25.050  1.00  0.00     0.049 H 
ATOM     63  H   UNL     1     -49.632  27.198  25.681  1.00  0.00     0.049 H 
ATOM     64  H   UNL     1     -50.311  28.576  22.323  1.00  0.00     0.049 H 
ATOM     65  H   UNL     1     -49.062  27.328  21.964  1.00  0.00     0.049 H 
ATOM     66  H   UNL     1     -51.515  26.700  23.468  1.00  0.00     0.030 H 
ATOM     67  H   UNL     1     -49.997  25.779  23.671  1.00  0.00     0.030 H 
ENDBRANCH  54  58
ENDBRANCH  42  43
ENDBRANCH  39  42
ENDBRANCH  35  39
ENDBRANCH   3  30
BRANCH   8  68
ATOM     68  N   UNL     1     -42.087  43.301  26.951  1.00  0.00    -0.383 N 
ATOM     69  H   UNL     1     -42.540  44.155  27.261  1.00  0.00     0.158 HD
ATOM     70  H   UNL     1     -41.075  43.339  26.929  1.00  0.00     0.158 HD
ENDBRANCH   8  68
TORSDOF 11
ENDMDL
MODEL 2
REMARK VINA RESULT:      -9.9      2.026      2.643
REMARK SMILES COCCn1ccc(-c2cn(-c3cncc(COc4ccc5ccc(N6CCC6)nc5c4)c3)c3ncnc(N)c23)n1
REMARK SMILES IDX 9 1 10 2 11 3 34 4 35 5 36 6 37 7 38 8 40 9 8 12 5 13 6 14
REMARK SMILES IDX 41 15 7 16 4 19 3 22 2 25 1 26 12 30 13 31 33 32 14 33 16 35
REMARK SMILES IDX 15 37 17 39 18 42 19 43 20 44 32 45 21 46 31 48 22 50 30 52
REMARK SMILES IDX 23 53 25 54 24 55 26 58 27 59 29 60 28 61 39 68
REMARK H PARENT 10 10 36 11 6 17 7 18 4 20 4 21 3 23 3 24 1 27 1 28 1 29 13 34
REMARK H PARENT 33 36 15 38 17 40 17 41 20 47 32 49 21 51 23 56 24 57 27 62
REMARK H PARENT 27 63 29 64 29 65 28 66 28 67 39 69 39 70
REMARK Flexibility Score: inf
ROOT
ATOM      1  C   UNL     1     -45.041  40.840  26.640  1.00  0.00     0.033 A 
ATOM      2  C   UNL     1     -46.082  39.994  26.324  1.00  0.00     0.021 A 
ATOM      3  N   UNL     1     -46.153  38.981  27.261  1.00  0.00    -0.299 N 
ATOM      4  C   UNL     1     -45.111  39.187  28.170  1.00  0.00     0.150 A 
ATOM      5  N   UNL     1     -44.842  38.433  29.255  1.00  0.00    -0.218 NA
ATOM      6  C   UNL     1     -43.791  38.872  29.954  1.00  0.00     0.120 A 
ATOM      7  N   UNL     1     -42.999  39.917  29.672  1.00  0.00    -0.219 NA
ATOM      8  C   UNL     1     -43.278  40.654  28.582  1.00  0.00     0.137 A 
ATOM      9  C   UNL     1     -44.395  40.325  27.792  1.00  0.00     0.071 A 
ATOM     10  H   UNL     1     -46.764  40.056  25.488  1.00  0.00     0.083 H 
ATOM     11  H   UNL     1     -43.545  38.312  30.850  1.00  0.00     0.106 H 
ENDROOT
BRANCH   1  12
ATOM     12  C   UNL     1     -44.691  42.045  25.894  1.00  0.00     0.095 A 
ATOM     13  N   UNL     1     -44.461  44.087  25.403  1.00  0.00    -0.270 N 
ATOM     14  C   UNL     1     -43.844  43.417  24.387  1.00  0.00     0.026 A 
ATOM     15  N   UNL     1     -44.980  43.272  26.340  1.00  0.00    -0.173 NA
ATOM     16  C   UNL     1     -43.965  42.079  24.686  1.00  0.00    -0.016 A 
ATOM     17  H   UNL     1     -43.371  43.930  23.560  1.00  0.00     0.084 H 
ATOM     18  H   UNL     1     -43.578  41.248  24.114  1.00  0.00     0.066 H 
BRANCH  13  19
ATOM     19  C   UNL     1     -44.584  45.529  25.543  1.00  0.00     0.064 C 
ATOM     20  H   UNL     1     -44.655  45.955  24.536  1.00  0.00     0.054 H 
ATOM     21  H   UNL     1     -43.645  45.877  25.988  1.00  0.00     0.054 H 
BRANCH  19  22
ATOM     22  C   UNL     1     -45.758  45.921  26.439  1.00  0.00     0.066 C 
ATOM     23  H   UNL     1     -46.621  46.308  25.882  1.00  0.00     0.059 H 
ATOM     24  H   UNL     1     -46.103  45.022  26.963  1.00  0.00     0.059 H 
BRANCH  22  25
ATOM     25  O   UNL     1     -45.391  46.842  27.471  1.00  0.00    -0.383 OA
BRANCH  25  26
ATOM     26  C   UNL     1     -44.154  46.518  28.095  1.00  0.00     0.036 C 
ATOM     27  H   UNL     1     -43.540  47.421  28.123  1.00  0.00     0.053 H 
ATOM     28  H   UNL     1     -44.317  46.190  29.125  1.00  0.00     0.053 H 
ATOM     29  H   UNL     1     -43.617  45.751  27.527  1.00  0.00     0.053 H 
ENDBRANCH  25  26
ENDBRANCH  22  25
ENDBRANCH  19  22
ENDBRANCH  13  19
ENDBRANCH   1  12
BRANCH   3  30
ATOM     30  C   UNL     1     -47.138  37.943  27.277  1.00  0.00     0.066 A 
ATOM     31  C   UNL     1     -48.354  38.118  27.930  1.00  0.00     0.051 A 
ATOM     32  C   UNL     1     -46.925  36.705  26.664  1.00  0.00    -0.028 A 
ATOM     33  N   UNL     1     -49.318  37.168  28.020  1.00  0.00    -0.262 NA
ATOM     34  H   UNL     1     -48.622  39.032  28.450  1.00  0.00     0.086 H 
ATOM     35  C   UNL     1     -47.887  35.690  26.755  1.00  0.00     0.010 A 
ATOM     36  H   UNL     1     -46.022  36.498  26.100  1.00  0.00     0.065 H 
ATOM     37  C   UNL     1     -49.056  35.975  27.445  1.00  0.00     0.034 A 
ATOM     38  H   UNL     1     -49.839  35.228  27.559  1.00  0.00     0.084 H 
BRANCH  35  39
ATOM     39  C   UNL     1     -47.663  34.339  26.131  1.00  0.00     0.115 C 
ATOM     40  H   UNL     1     -46.615  34.018  26.163  1.00  0.00     0.076 H 
ATOM     41  H   UNL     1     -47.905  34.421  25.063  1.00  0.00     0.076 H 
BRANCH  39  42
ATOM     42  O   UNL     1     -48.536  33.348  26.676  1.00  0.00    -0.489 OA
BRANCH  42  43
ATOM     43  C   UNL     1     -48.796  32.219  25.948  1.00  0.00     0.122 A 
ATOM     44  C   UNL     1     -49.554  32.438  24.797  1.00  0.00    -0.019 A 
ATOM     45  C   UNL     1     -48.384  30.920  26.251  1.00  0.00     0.007 A 
ATOM     46  C   UNL     1     -49.899  31.373  23.968  1.00  0.00    -0.049 A 
ATOM     47  H   UNL     1     -49.880  33.444  24.548  1.00  0.00     0.066 H 
ATOM     48  C   UNL     1     -48.720  29.837  25.447  1.00  0.00     0.076 A 
ATOM     49  H   UNL     1     -47.791  30.697  27.129  1.00  0.00     0.069 H 
ATOM     50  C   UNL     1     -49.488  30.071  24.291  1.00  0.00     0.001 A 
ATOM     51  H   UNL     1     -50.493  31.564  23.078  1.00  0.00     0.063 H 
ATOM     52  N   UNL     1     -48.307  28.606  25.800  1.00  0.00    -0.231 NA
ATOM     53  C   UNL     1     -49.818  28.973  23.494  1.00  0.00    -0.049 A 
ATOM     54  C   UNL     1     -48.647  27.546  25.033  1.00  0.00     0.129 A 
ATOM     55  C   UNL     1     -49.392  27.702  23.869  1.00  0.00    -0.019 A 
ATOM     56  H   UNL     1     -50.402  29.095  22.587  1.00  0.00     0.063 H 
ATOM     57  H   UNL     1     -49.638  26.847  23.250  1.00  0.00     0.066 H 
BRANCH  54  58
ATOM     58  N   UNL     1     -48.216  26.263  25.426  1.00  0.00    -0.356 N 
ATOM     59  C   UNL     1     -46.844  25.921  25.678  1.00  0.00     0.021 C 
ATOM     60  C   UNL     1     -48.676  25.526  26.567  1.00  0.00     0.021 C 
ATOM     61  C   UNL     1     -47.381  24.714  26.454  1.00  0.00    -0.018 C 
ATOM     62  H   UNL     1     -46.320  26.664  26.287  1.00  0.00     0.049 H 
ATOM     63  H   UNL     1     -46.279  25.691  24.771  1.00  0.00     0.049 H 
ATOM     64  H   UNL     1     -48.760  26.140  27.469  1.00  0.00     0.049 H 
ATOM     65  H   UNL     1     -49.601  24.971  26.387  1.00  0.00     0.049 H 
ATOM     66  H   UNL     1     -46.875  24.490  27.397  1.00  0.00     0.030 H 
ATOM     67  H   UNL     1     -47.471  23.798  25.860  1.00  0.00     0.030 H 
ENDBRANCH  54  58
ENDBRANCH  42  43
ENDBRANCH  39  42
ENDBRANCH  35  39
ENDBRANCH   3  30
BRANCH   8  68
ATOM     68  N   UNL     1     -42.393  41.689  28.307  1.00  0.00    -0.383 N 
ATOM     69  H   UNL     1     -42.607  42.483  28.902  1.00  0.00     0.158 HD
ATOM     70  H   UNL     1     -41.421  41.405  28.307  1.00  0.00     0.158 HD
ENDBRANCH   8  68
TORSDOF 11
ENDMDL
MODEL 3
REMARK VINA RESULT:      -9.3      1.720      2.347
REMARK SMILES COCCn1ccc(-c2cn(-c3cncc(COc4ccc5ccc(N6CCC6)nc5c4)c3)c3ncnc(N)c23)n1
REMARK SMILES IDX 9 1 10 2 11 3 34 4 35 5 36 6 37 7 38 8 40 9 8 12 5 13 6 14
REMARK SMILES IDX 41 15 7 16 4 19 3 22 2 25 1 26 12 30 13 31 33 32 14 33 16 35
REMARK SMILES IDX 15 37 17 39 18 42 19 43 20 44 32 45 21 46 31 48 22 50 30 52
REMARK SMILES IDX 23 53 25 54 24 55 26 58 27 59 29 60 28 61 39 68
REMARK H PARENT 10 10 36 11 6 17 7 18 4 20 4 21 3 23 3 24 1 27 1 28 1 29 13 34
REMARK H PARENT 33 36 15 38 17 40 17 41 20 47 32 49 21 51 23 56 24 57 27 62
REMARK H PARENT 27 63 29 64 29 65 28 66 28 67 39 69 39 70
REMARK Flexibility Score: inf
ROOT
ATOM      1  C   UNL     1     -44.723  41.344  26.791  1.00  0.00     0.033 A 
ATOM      2  C   UNL     1     -45.427  40.175  26.982  1.00  0.00     0.021 A 
ATOM      3  N   UNL     1     -44.885  39.480  28.047  1.00  0.00    -0.299 N 
ATOM      4  C   UNL     1     -43.797  40.224  28.514  1.00  0.00     0.150 A 
ATOM      5  N   UNL     1     -43.008  39.908  29.560  1.00  0.00    -0.218 NA
ATOM      6  C   UNL     1     -42.050  40.810  29.789  1.00  0.00     0.120 A 
ATOM      7  N   UNL     1     -41.792  41.926  29.091  1.00  0.00    -0.219 NA
ATOM      8  C   UNL     1     -42.585  42.222  28.046  1.00  0.00     0.137 A 
ATOM      9  C   UNL     1     -43.665  41.376  27.735  1.00  0.00     0.071 A 
ATOM     10  H   UNL     1     -46.271  39.803  26.420  1.00  0.00     0.083 H 
ATOM     11  H   UNL     1     -41.399  40.613  30.635  1.00  0.00     0.106 H 
ENDROOT
BRANCH   1  12
ATOM     12  C   UNL     1     -45.036  42.348  25.780  1.00  0.00     0.095 A 
ATOM     13  N   UNL     1     -44.904  43.515  24.023  1.00  0.00    -0.270 N 
ATOM     14  C   UNL     1     -46.075  43.904  24.606  1.00  0.00     0.026 A 
ATOM     15  N   UNL     1     -44.255  42.561  24.716  1.00  0.00    -0.173 NA
ATOM     16  C   UNL     1     -46.197  43.149  25.750  1.00  0.00    -0.016 A 
ATOM     17  H   UNL     1     -46.716  44.656  24.169  1.00  0.00     0.084 H 
ATOM     18  H   UNL     1     -47.013  43.171  26.460  1.00  0.00     0.066 H 
BRANCH  13  19
ATOM     19  C   UNL     1     -44.345  44.019  22.779  1.00  0.00     0.064 C 
ATOM     20  H   UNL     1     -43.796  43.199  22.305  1.00  0.00     0.054 H 
ATOM     21  H   UNL     1     -43.618  44.791  23.058  1.00  0.00     0.054 H 
BRANCH  19  22
ATOM     22  C   UNL     1     -45.416  44.621  21.871  1.00  0.00     0.066 C 
ATOM     23  H   UNL     1     -46.304  44.967  22.414  1.00  0.00     0.059 H 
ATOM     24  H   UNL     1     -44.990  45.502  21.377  1.00  0.00     0.059 H 
BRANCH  22  25
ATOM     25  O   UNL     1     -45.806  43.744  20.809  1.00  0.00    -0.383 OA
BRANCH  25  26
ATOM     26  C   UNL     1     -46.234  44.437  19.642  1.00  0.00     0.036 C 
ATOM     27  H   UNL     1     -46.382  43.702  18.846  1.00  0.00     0.053 H 
ATOM     28  H   UNL     1     -47.189  44.937  19.820  1.00  0.00     0.053 H 
ATOM     29  H   UNL     1     -45.478  45.156  19.313  1.00  0.00     0.053 H 
ENDBRANCH  25  26
ENDBRANCH  22  25
ENDBRANCH  19  22
ENDBRANCH  13  19
ENDBRANCH   1  12
BRANCH   3  30
ATOM     30  C   UNL     1     -45.386  38.242  28.561  1.00  0.00     0.066 A 
ATOM     31  C   UNL     1     -46.046  38.188  29.785  1.00  0.00     0.051 A 
ATOM     32  C   UNL     1     -45.221  37.032  27.880  1.00  0.00    -0.028 A 
ATOM     33  N   UNL     1     -46.513  37.047  30.352  1.00  0.00    -0.262 NA
ATOM     34  H   UNL     1     -46.219  39.062  30.404  1.00  0.00     0.086 H 
ATOM     35  C   UNL     1     -45.668  35.830  28.445  1.00  0.00     0.010 A 
ATOM     36  H   UNL     1     -44.753  36.989  26.903  1.00  0.00     0.065 H 
ATOM     37  C   UNL     1     -46.300  35.897  29.678  1.00  0.00     0.034 A 
ATOM     38  H   UNL     1     -46.663  35.000  30.174  1.00  0.00     0.084 H 
BRANCH  35  39
ATOM     39  C   UNL     1     -45.470  34.513  27.745  1.00  0.00     0.115 C 
ATOM     40  H   UNL     1     -45.976  33.679  28.245  1.00  0.00     0.076 H 
ATOM     41  H   UNL     1     -44.401  34.268  27.792  1.00  0.00     0.076 H 
BRANCH  39  42
ATOM     42  O   UNL     1     -45.814  34.587  26.360  1.00  0.00    -0.489 OA
BRANCH  42  43
ATOM     43  C   UNL     1     -46.894  33.880  25.906  1.00  0.00     0.122 A 
ATOM     44  C   UNL     1     -48.104  34.229  26.505  1.00  0.00    -0.019 A 
ATOM     45  C   UNL     1     -46.884  32.878  24.934  1.00  0.00     0.007 A 
ATOM     46  C   UNL     1     -49.282  33.580  26.143  1.00  0.00    -0.049 A 
ATOM     47  H   UNL     1     -48.127  35.008  27.262  1.00  0.00     0.066 H 
ATOM     48  C   UNL     1     -48.042  32.207  24.558  1.00  0.00     0.076 A 
ATOM     49  H   UNL     1     -45.972  32.572  24.435  1.00  0.00     0.069 H 
ATOM     50  C   UNL     1     -49.256  32.567  25.173  1.00  0.00     0.001 A 
ATOM     51  H   UNL     1     -50.215  33.865  26.624  1.00  0.00     0.063 H 
ATOM     52  N   UNL     1     -47.966  31.239  23.626  1.00  0.00    -0.231 NA
ATOM     53  C   UNL     1     -50.410  31.885  24.784  1.00  0.00    -0.049 A 
ATOM     54  C   UNL     1     -49.086  30.571  23.270  1.00  0.00     0.129 A 
ATOM     55  C   UNL     1     -50.323  30.881  23.825  1.00  0.00    -0.019 A 
ATOM     56  H   UNL     1     -51.376  32.125  25.220  1.00  0.00     0.063 H 
ATOM     57  H   UNL     1     -51.217  30.353  23.513  1.00  0.00     0.066 H 
BRANCH  54  58
ATOM     58  N   UNL     1     -48.983  29.552  22.303  1.00  0.00    -0.356 N 
ATOM     59  C   UNL     1     -48.658  28.186  22.607  1.00  0.00     0.021 C 
ATOM     60  C   UNL     1     -49.998  29.167  21.365  1.00  0.00     0.021 C 
ATOM     61  C   UNL     1     -49.254  27.832  21.241  1.00  0.00    -0.018 C 
ATOM     62  H   UNL     1     -49.210  27.793  23.467  1.00  0.00     0.049 H 
ATOM     63  H   UNL     1     -47.586  28.009  22.719  1.00  0.00     0.049 H 
ATOM     64  H   UNL     1     -50.995  29.101  21.814  1.00  0.00     0.049 H 
ATOM     65  H   UNL     1     -50.018  29.784  20.462  1.00  0.00     0.049 H 
ATOM     66  H   UNL     1     -49.882  26.938  21.212  1.00  0.00     0.030 H 
ATOM     67  H   UNL     1     -48.525  27.795  20.425  1.00  0.00     0.030 H 
ENDBRANCH  54  58
ENDBRANCH  42  43
ENDBRANCH  39  42
ENDBRANCH  35  39
ENDBRANCH   3  30
BRANCH   8  68
ATOM     68  N   UNL     1     -42.239  43.358  27.324  1.00  0.00    -0.383 N 
ATOM     69  H   UNL     1     -41.582  43.913  27.863  1.00  0.00     0.158 HD
ATOM     70  H   UNL     1     -41.953  43.165  26.372  1.00  0.00     0.158 HD
ENDBRANCH   8  68
TORSDOF 11
ENDMDL
MODEL 4
REMARK VINA RESULT:      -9.2      2.297      3.510
REMARK SMILES COCCn1ccc(-c2cn(-c3cncc(COc4ccc5ccc(N6CCC6)nc5c4)c3)c3ncnc(N)c23)n1
REMARK SMILES IDX 9 1 10 2 11 3 34 4 35 5 36 6 37 7 38 8 40 9 8 12 5 13 6 14
REMARK SMILES IDX 41 15 7 16 4 19 3 22 2 25 1 26 12 30 13 31 33 32 14 33 16 35
REMARK SMILES IDX 15 37 17 39 18 42 19 43 20 44 32 45 21 46 31 48 22 50 30 52
REMARK SMILES IDX 23 53 25 54 24 55 26 58 27 59 29 60 28 61 39 68
REMARK H PARENT 10 10 36 11 6 17 7 18 4 20 4 21 3 23 3 24 1 27 1 28 1 29 13 34
REMARK H PARENT 33 36 15 38 17 40 17 41 20 47 32 49 21 51 23 56 24 57 27 62
REMARK H PARENT 27 63 29 64 29 65 28 66 28 67 39 69 39 70
REMARK Flexibility Score: inf
ROOT
ATOM      1  C   UNL     1     -45.399  41.761  26.022  1.00  0.00     0.033 A 
ATOM      2  C   UNL     1     -45.489  40.433  26.379  1.00  0.00     0.021 A 
ATOM      3  N   UNL     1     -46.800  40.129  26.694  1.00  0.00    -0.299 N 
ATOM      4  C   UNL     1     -47.541  41.307  26.556  1.00  0.00     0.150 A 
ATOM      5  N   UNL     1     -48.869  41.438  26.748  1.00  0.00    -0.218 NA
ATOM      6  C   UNL     1     -49.313  42.679  26.531  1.00  0.00     0.120 A 
ATOM      7  N   UNL     1     -48.593  43.758  26.193  1.00  0.00    -0.219 NA
ATOM      8  C   UNL     1     -47.268  43.611  26.014  1.00  0.00     0.137 A 
ATOM      9  C   UNL     1     -46.688  42.338  26.159  1.00  0.00     0.071 A 
ATOM     10  H   UNL     1     -44.698  39.699  26.430  1.00  0.00     0.083 H 
ATOM     11  H   UNL     1     -50.380  42.833  26.652  1.00  0.00     0.106 H 
ENDROOT
BRANCH   1  12
ATOM     12  C   UNL     1     -44.174  42.425  25.588  1.00  0.00     0.095 A 
ATOM     13  N   UNL     1     -42.723  43.302  24.327  1.00  0.00    -0.270 N 
ATOM     14  C   UNL     1     -42.260  43.525  25.591  1.00  0.00     0.026 A 
ATOM     15  N   UNL     1     -43.894  42.639  24.299  1.00  0.00    -0.173 NA
ATOM     16  C   UNL     1     -43.194  42.976  26.440  1.00  0.00    -0.016 A 
ATOM     17  H   UNL     1     -41.335  44.052  25.783  1.00  0.00     0.084 H 
ATOM     18  H   UNL     1     -43.172  42.979  27.521  1.00  0.00     0.066 H 
BRANCH  13  19
ATOM     19  C   UNL     1     -42.086  43.710  23.085  1.00  0.00     0.064 C 
ATOM     20  H   UNL     1     -41.861  42.803  22.514  1.00  0.00     0.054 H 
ATOM     21  H   UNL     1     -41.133  44.173  23.365  1.00  0.00     0.054 H 
BRANCH  19  22
ATOM     22  C   UNL     1     -42.939  44.709  22.305  1.00  0.00     0.066 C 
ATOM     23  H   UNL     1     -43.680  44.232  21.651  1.00  0.00     0.059 H 
ATOM     24  H   UNL     1     -43.501  45.314  23.024  1.00  0.00     0.059 H 
BRANCH  22  25
ATOM     25  O   UNL     1     -42.157  45.644  21.554  1.00  0.00    -0.383 OA
BRANCH  25  26
ATOM     26  C   UNL     1     -42.133  45.359  20.159  1.00  0.00     0.036 C 
ATOM     27  H   UNL     1     -41.166  44.911  19.921  1.00  0.00     0.053 H 
ATOM     28  H   UNL     1     -42.912  44.638  19.901  1.00  0.00     0.053 H 
ATOM     29  H   UNL     1     -42.246  46.275  19.571  1.00  0.00     0.053 H 
ENDBRANCH  25  26
ENDBRANCH  22  25
ENDBRANCH  19  22
ENDBRANCH  13  19
ENDBRANCH   1  12
BRANCH   3  30
ATOM     30  C   UNL     1     -47.276  38.832  27.068  1.00  0.00     0.066 A 
ATOM     31  C   UNL     1     -48.261  38.683  28.040  1.00  0.00     0.051 A 
ATOM     32  C   UNL     1     -46.769  37.660  26.500  1.00  0.00    -0.028 A 
ATOM     33  N   UNL     1     -48.733  37.487  28.473  1.00  0.00    -0.262 NA
ATOM     34  H   UNL     1     -48.716  39.521  28.557  1.00  0.00     0.086 H 
ATOM     35  C   UNL     1     -47.215  36.406  26.937  1.00  0.00     0.010 A 
ATOM     36  H   UNL     1     -46.029  37.687  25.708  1.00  0.00     0.065 H 
ATOM     37  C   UNL     1     -48.190  36.380  27.923  1.00  0.00     0.034 A 
ATOM     38  H   UNL     1     -48.573  35.439  28.312  1.00  0.00     0.084 H 
BRANCH  35  39
ATOM     39  C   UNL     1     -46.658  35.132  26.363  1.00  0.00     0.115 C 
ATOM     40  H   UNL     1     -45.615  34.950  26.649  1.00  0.00     0.076 H 
ATOM     41  H   UNL     1     -46.640  35.238  25.270  1.00  0.00     0.076 H 
BRANCH  39  42
ATOM     42  O   UNL     1     -47.489  34.006  26.653  1.00  0.00    -0.489 OA
BRANCH  42  43
ATOM     43  C   UNL     1     -47.394  32.890  25.868  1.00  0.00     0.122 A 
ATOM     44  C   UNL     1     -46.537  33.026  24.776  1.00  0.00    -0.019 A 
ATOM     45  C   UNL     1     -48.060  31.679  26.059  1.00  0.00     0.007 A 
ATOM     46  C   UNL     1     -46.355  31.969  23.887  1.00  0.00    -0.049 A 
ATOM     47  H   UNL     1     -46.011  33.963  24.615  1.00  0.00     0.066 H 
ATOM     48  C   UNL     1     -47.905  30.608  25.185  1.00  0.00     0.076 A 
ATOM     49  H   UNL     1     -48.732  31.520  26.893  1.00  0.00     0.069 H 
ATOM     50  C   UNL     1     -47.039  30.760  24.086  1.00  0.00     0.001 A 
ATOM     51  H   UNL     1     -45.685  32.096  23.041  1.00  0.00     0.063 H 
ATOM     52  N   UNL     1     -48.585  29.471  25.414  1.00  0.00    -0.231 NA
ATOM     53  C   UNL     1     -46.893  29.676  23.217  1.00  0.00    -0.049 A 
ATOM     54  C   UNL     1     -48.453  28.433  24.557  1.00  0.00     0.129 A 
ATOM     55  C   UNL     1     -47.605  28.505  23.457  1.00  0.00    -0.019 A 
ATOM     56  H   UNL     1     -46.234  29.735  22.356  1.00  0.00     0.063 H 
ATOM     57  H   UNL     1     -47.490  27.658  22.791  1.00  0.00     0.066 H 
BRANCH  54  58
ATOM     58  N   UNL     1     -49.184  27.255  24.807  1.00  0.00    -0.356 N 
ATOM     59  C   UNL     1     -48.674  26.138  25.552  1.00  0.00     0.021 C 
ATOM     60  C   UNL     1     -50.468  27.171  25.439  1.00  0.00     0.021 C 
ATOM     61  C   UNL     1     -50.132  25.704  25.729  1.00  0.00    -0.018 C 
ATOM     62  H   UNL     1     -48.165  26.432  26.475  1.00  0.00     0.049 H 
ATOM     63  H   UNL     1     -48.046  25.469  24.958  1.00  0.00     0.049 H 
ATOM     64  H   UNL     1     -50.553  27.810  26.325  1.00  0.00     0.049 H 
ATOM     65  H   UNL     1     -51.305  27.339  24.757  1.00  0.00     0.049 H 
ATOM     66  H   UNL     1     -50.403  25.340  26.724  1.00  0.00     0.030 H 
ATOM     67  H   UNL     1     -50.490  24.999  24.971  1.00  0.00     0.030 H 
ENDBRANCH  54  58
ENDBRANCH  42  43
ENDBRANCH  39  42
ENDBRANCH  35  39
ENDBRANCH   3  30
BRANCH   8  68
ATOM     68  N   UNL     1     -46.563  44.772  25.720  1.00  0.00    -0.383 N 
ATOM     69  H   UNL     1     -47.216  45.518  25.503  1.00  0.00     0.158 HD
ATOM     70  H   UNL     1     -45.860  45.008  26.410  1.00  0.00     0.158 HD
ENDBRANCH   8  68
TORSDOF 11
ENDMDL
MODEL 5
REMARK VINA RESULT:      -9.1      1.995      2.779
REMARK SMILES COCCn1ccc(-c2cn(-c3cncc(COc4ccc5ccc(N6CCC6)nc5c4)c3)c3ncnc(N)c23)n1
REMARK SMILES IDX 9 1 10 2 11 3 34 4 35 5 36 6 37 7 38 8 40 9 8 12 5 13 6 14
REMARK SMILES IDX 41 15 7 16 4 19 3 22 2 25 1 26 12 30 13 31 33 32 14 33 16 35
REMARK SMILES IDX 15 37 17 39 18 42 19 43 20 44 32 45 21 46 31 48 22 50 30 52
REMARK SMILES IDX 23 53 25 54 24 55 26 58 27 59 29 60 28 61 39 68
REMARK H PARENT 10 10 36 11 6 17 7 18 4 20 4 21 3 23 3 24 1 27 1 28 1 29 13 34
REMARK H PARENT 33 36 15 38 17 40 17 41 20 47 32 49 21 51 23 56 24 57 27 62
REMARK H PARENT 27 63 29 64 29 65 28 66 28 67 39 69 39 70
REMARK Flexibility Score: inf
ROOT
ATOM      1  C   UNL     1     -44.971  40.418  27.180  1.00  0.00     0.033 A 
ATOM      2  C   UNL     1     -46.181  39.865  26.819  1.00  0.00     0.021 A 
ATOM      3  N   UNL     1     -46.558  38.930  27.763  1.00  0.00    -0.299 N 
ATOM      4  C   UNL     1     -45.543  38.879  28.723  1.00  0.00     0.150 A 
ATOM      5  N   UNL     1     -45.532  38.109  29.829  1.00  0.00    -0.218 NA
ATOM      6  C   UNL     1     -44.438  38.276  30.577  1.00  0.00     0.120 A 
ATOM      7  N   UNL     1     -43.388  39.071  30.325  1.00  0.00    -0.219 NA
ATOM      8  C   UNL     1     -43.412  39.827  29.213  1.00  0.00     0.137 A 
ATOM      9  C   UNL     1     -44.537  39.781  28.370  1.00  0.00     0.071 A 
ATOM     10  H   UNL     1     -46.782  40.082  25.948  1.00  0.00     0.083 H 
ATOM     11  H   UNL     1     -44.389  37.693  31.491  1.00  0.00     0.106 H 
ENDROOT
BRANCH   1  12
ATOM     12  C   UNL     1     -44.283  41.471  26.439  1.00  0.00     0.095 A 
ATOM     13  N   UNL     1     -43.779  42.808  24.882  1.00  0.00    -0.270 N 
ATOM     14  C   UNL     1     -42.970  43.168  25.920  1.00  0.00     0.026 A 
ATOM     15  N   UNL     1     -44.596  41.780  25.176  1.00  0.00    -0.173 NA
ATOM     16  C   UNL     1     -43.285  42.322  26.959  1.00  0.00    -0.016 A 
ATOM     17  H   UNL     1     -42.262  43.982  25.845  1.00  0.00     0.084 H 
ATOM     18  H   UNL     1     -42.858  42.323  27.951  1.00  0.00     0.066 H 
BRANCH  13  19
ATOM     19  C   UNL     1     -43.827  43.423  23.566  1.00  0.00     0.064 C 
ATOM     20  H   UNL     1     -44.594  44.204  23.591  1.00  0.00     0.054 H 
ATOM     21  H   UNL     1     -44.167  42.643  22.874  1.00  0.00     0.054 H 
BRANCH  19  22
ATOM     22  C   UNL     1     -42.460  43.945  23.126  1.00  0.00     0.066 C 
ATOM     23  H   UNL     1     -41.754  44.070  23.957  1.00  0.00     0.059 H 
ATOM     24  H   UNL     1     -42.015  43.209  22.447  1.00  0.00     0.059 H 
BRANCH  22  25
ATOM     25  O   UNL     1     -42.541  45.157  22.369  1.00  0.00    -0.383 OA
BRANCH  25  26
ATOM     26  C   UNL     1     -42.319  44.962  20.977  1.00  0.00     0.036 C 
ATOM     27  H   UNL     1     -42.531  45.904  20.465  1.00  0.00     0.053 H 
ATOM     28  H   UNL     1     -41.275  44.703  20.786  1.00  0.00     0.053 H 
ATOM     29  H   UNL     1     -42.986  44.192  20.578  1.00  0.00     0.053 H 
ENDBRANCH  25  26
ENDBRANCH  22  25
ENDBRANCH  19  22
ENDBRANCH  13  19
ENDBRANCH   1  12
BRANCH   3  30
ATOM     30  C   UNL     1     -47.780  38.185  27.740  1.00  0.00     0.066 A 
ATOM     31  C   UNL     1     -48.971  38.745  28.190  1.00  0.00     0.051 A 
ATOM     32  C   UNL     1     -47.838  36.863  27.288  1.00  0.00    -0.028 A 
ATOM     33  N   UNL     1     -50.157  38.089  28.234  1.00  0.00    -0.262 NA
ATOM     34  H   UNL     1     -49.042  39.758  28.574  1.00  0.00     0.086 H 
ATOM     35  C   UNL     1     -49.039  36.144  27.340  1.00  0.00     0.010 A 
ATOM     36  H   UNL     1     -46.965  36.362  26.884  1.00  0.00     0.065 H 
ATOM     37  C   UNL     1     -50.161  36.803  27.823  1.00  0.00     0.034 A 
ATOM     38  H   UNL     1     -51.122  36.300  27.896  1.00  0.00     0.084 H 
BRANCH  35  39
ATOM     39  C   UNL     1     -49.116  34.710  26.891  1.00  0.00     0.115 C 
ATOM     40  H   UNL     1     -49.618  34.587  25.924  1.00  0.00     0.076 H 
ATOM     41  H   UNL     1     -49.745  34.169  27.610  1.00  0.00     0.076 H 
BRANCH  39  42
ATOM     42  O   UNL     1     -47.835  34.076  26.907  1.00  0.00    -0.489 OA
BRANCH  42  43
ATOM     43  C   UNL     1     -47.577  33.080  26.006  1.00  0.00     0.122 A 
ATOM     44  C   UNL     1     -46.402  33.256  25.275  1.00  0.00    -0.019 A 
ATOM     45  C   UNL     1     -48.361  31.950  25.766  1.00  0.00     0.007 A 
ATOM     46  C   UNL     1     -46.022  32.319  24.315  1.00  0.00    -0.049 A 
ATOM     47  H   UNL     1     -45.781  34.129  25.452  1.00  0.00     0.066 H 
ATOM     48  C   UNL     1     -48.012  31.003  24.810  1.00  0.00     0.076 A 
ATOM     49  H   UNL     1     -49.279  31.764  26.309  1.00  0.00     0.069 H 
ATOM     50  C   UNL     1     -46.826  31.194  24.077  1.00  0.00     0.001 A 
ATOM     51  H   UNL     1     -45.104  32.476  23.755  1.00  0.00     0.063 H 
ATOM     52  N   UNL     1     -48.816  29.943  24.613  1.00  0.00    -0.231 NA
ATOM     53  C   UNL     1     -46.489  30.235  23.120  1.00  0.00    -0.049 A 
ATOM     54  C   UNL     1     -48.493  29.029  23.671  1.00  0.00     0.129 A 
ATOM     55  C   UNL     1     -47.329  29.144  22.918  1.00  0.00    -0.019 A 
ATOM     56  H   UNL     1     -45.581  30.327  22.530  1.00  0.00     0.063 H 
ATOM     57  H   UNL     1     -47.069  28.392  22.182  1.00  0.00     0.066 H 
BRANCH  54  58
ATOM     58  N   UNL     1     -49.355  27.932  23.471  1.00  0.00    -0.356 N 
ATOM     59  C   UNL     1     -50.312  27.477  24.441  1.00  0.00     0.021 C 
ATOM     60  C   UNL     1     -50.279  27.766  22.388  1.00  0.00     0.021 C 
ATOM     61  C   UNL     1     -51.012  26.760  23.283  1.00  0.00    -0.018 C 
ATOM     62  H   UNL     1     -50.887  28.291  24.894  1.00  0.00     0.049 H 
ATOM     63  H   UNL     1     -49.879  26.832  25.209  1.00  0.00     0.049 H 
ATOM     64  H   UNL     1     -50.842  28.678  22.160  1.00  0.00     0.049 H 
ATOM     65  H   UNL     1     -49.825  27.353  21.483  1.00  0.00     0.049 H 
ATOM     66  H   UNL     1     -52.103  26.821  23.274  1.00  0.00     0.030 H 
ATOM     67  H   UNL     1     -50.702  25.719  23.141  1.00  0.00     0.030 H 
ENDBRANCH  54  58
ENDBRANCH  42  43
ENDBRANCH  39  42
ENDBRANCH  35  39
ENDBRANCH   3  30
BRANCH   8  68
ATOM     68  N   UNL     1     -42.275  40.589  28.973  1.00  0.00    -0.383 N 
ATOM     69  H   UNL     1     -42.547  41.542  28.753  1.00  0.00     0.158 HD
ATOM     70  H   UNL     1     -41.567  40.503  29.691  1.00  0.00     0.158 HD
ENDBRANCH   8  68
TORSDOF 11
ENDMDL
MODEL 6
REMARK VINA RESULT:      -9.0      2.407      4.652
REMARK SMILES COCCn1ccc(-c2cn(-c3cncc(COc4ccc5ccc(N6CCC6)nc5c4)c3)c3ncnc(N)c23)n1
REMARK SMILES IDX 9 1 10 2 11 3 34 4 35 5 36 6 37 7 38 8 40 9 8 12 5 13 6 14
REMARK SMILES IDX 41 15 7 16 4 19 3 22 2 25 1 26 12 30 13 31 33 32 14 33 16 35
REMARK SMILES IDX 15 37 17 39 18 42 19 43 20 44 32 45 21 46 31 48 22 50 30 52
REMARK SMILES IDX 23 53 25 54 24 55 26 58 27 59 29 60 28 61 39 68
REMARK H PARENT 10 10 36 11 6 17 7 18 4 20 4 21 3 23 3 24 1 27 1 28 1 29 13 34
REMARK H PARENT 33 36 15 38 17 40 17 41 20 47 32 49 21 51 23 56 24 57 27 62
REMARK H PARENT 27 63 29 64 29 65 28 66 28 67 39 69 39 70
REMARK Flexibility Score: inf
ROOT
ATOM      1  C   UNL     1     -45.608  38.648  27.927  1.00  0.00     0.033 A 
ATOM      2  C   UNL     1     -45.237  37.339  27.710  1.00  0.00     0.021 A 
ATOM      3  N   UNL     1     -46.368  36.551  27.611  1.00  0.00    -0.299 N 
ATOM      4  C   UNL     1     -47.472  37.388  27.799  1.00  0.00     0.150 A 
ATOM      5  N   UNL     1     -48.767  37.017  27.755  1.00  0.00    -0.218 NA
ATOM      6  C   UNL     1     -49.612  38.032  27.957  1.00  0.00     0.120 A 
ATOM      7  N   UNL     1     -49.308  39.311  28.220  1.00  0.00    -0.219 NA
ATOM      8  C   UNL     1     -48.010  39.662  28.267  1.00  0.00     0.137 A 
ATOM      9  C   UNL     1     -47.023  38.692  28.017  1.00  0.00     0.071 A 
ATOM     10  H   UNL     1     -44.240  36.931  27.627  1.00  0.00     0.083 H 
ATOM     11  H   UNL     1     -50.670  37.791  27.911  1.00  0.00     0.106 H 
ENDROOT
BRANCH   1  12
ATOM     12  C   UNL     1     -44.679  39.768  28.043  1.00  0.00     0.095 A 
ATOM     13  N   UNL     1     -43.782  41.653  27.718  1.00  0.00    -0.270 N 
ATOM     14  C   UNL     1     -43.070  41.106  28.747  1.00  0.00     0.026 A 
ATOM     15  N   UNL     1     -44.774  40.859  27.276  1.00  0.00    -0.173 NA
ATOM     16  C   UNL     1     -43.642  39.878  28.992  1.00  0.00    -0.016 A 
ATOM     17  H   UNL     1     -42.245  41.622  29.217  1.00  0.00     0.084 H 
ATOM     18  H   UNL     1     -43.353  39.167  29.753  1.00  0.00     0.066 H 
BRANCH  13  19
ATOM     19  C   UNL     1     -43.564  42.955  27.109  1.00  0.00     0.064 C 
ATOM     20  H   UNL     1     -42.622  43.352  27.502  1.00  0.00     0.054 H 
ATOM     21  H   UNL     1     -44.374  43.602  27.466  1.00  0.00     0.054 H 
BRANCH  19  22
ATOM     22  C   UNL     1     -43.590  42.886  25.583  1.00  0.00     0.066 C 
ATOM     23  H   UNL     1     -42.592  42.922  25.128  1.00  0.00     0.059 H 
ATOM     24  H   UNL     1     -44.031  41.926  25.291  1.00  0.00     0.059 H 
BRANCH  22  25
ATOM     25  O   UNL     1     -44.430  43.883  24.993  1.00  0.00    -0.383 OA
BRANCH  25  26
ATOM     26  C   UNL     1     -45.768  43.844  25.476  1.00  0.00     0.036 C 
ATOM     27  H   UNL     1     -45.769  43.310  26.429  1.00  0.00     0.053 H 
ATOM     28  H   UNL     1     -46.143  44.855  25.656  1.00  0.00     0.053 H 
ATOM     29  H   UNL     1     -46.422  43.310  24.779  1.00  0.00     0.053 H 
ENDBRANCH  25  26
ENDBRANCH  22  25
ENDBRANCH  19  22
ENDBRANCH  13  19
ENDBRANCH   1  12
BRANCH   3  30
ATOM     30  C   UNL     1     -46.370  35.144  27.344  1.00  0.00     0.066 A 
ATOM     31  C   UNL     1     -46.184  34.220  28.367  1.00  0.00     0.051 A 
ATOM     32  C   UNL     1     -46.535  34.631  26.054  1.00  0.00    -0.028 A 
ATOM     33  N   UNL     1     -46.135  32.877  28.185  1.00  0.00    -0.262 NA
ATOM     34  H   UNL     1     -46.033  34.505  29.404  1.00  0.00     0.086 H 
ATOM     35  C   UNL     1     -46.467  33.251  25.822  1.00  0.00     0.010 A 
ATOM     36  H   UNL     1     -46.725  35.279  25.205  1.00  0.00     0.065 H 
ATOM     37  C   UNL     1     -46.262  32.426  26.919  1.00  0.00     0.034 A 
ATOM     38  H   UNL     1     -46.192  31.347  26.806  1.00  0.00     0.084 H 
BRANCH  35  39
ATOM     39  C   UNL     1     -46.608  32.680  24.438  1.00  0.00     0.115 C 
ATOM     40  H   UNL     1     -46.079  31.729  24.308  1.00  0.00     0.076 H 
ATOM     41  H   UNL     1     -46.122  33.375  23.740  1.00  0.00     0.076 H 
BRANCH  39  42
ATOM     42  O   UNL     1     -47.976  32.583  24.036  1.00  0.00    -0.489 OA
BRANCH  42  43
ATOM     43  C   UNL     1     -48.606  31.371  24.111  1.00  0.00     0.122 A 
ATOM     44  C   UNL     1     -49.921  31.377  23.649  1.00  0.00    -0.019 A 
ATOM     45  C   UNL     1     -48.063  30.180  24.595  1.00  0.00     0.007 A 
ATOM     46  C   UNL     1     -50.683  30.210  23.677  1.00  0.00    -0.049 A 
ATOM     47  H   UNL     1     -50.357  32.297  23.267  1.00  0.00     0.066 H 
ATOM     48  C   UNL     1     -48.801  29.002  24.644  1.00  0.00     0.076 A 
ATOM     49  H   UNL     1     -47.046  30.120  24.962  1.00  0.00     0.069 H 
ATOM     50  C   UNL     1     -50.129  29.023  24.177  1.00  0.00     0.001 A 
ATOM     51  H   UNL     1     -51.708  30.237  23.314  1.00  0.00     0.063 H 
ATOM     52  N   UNL     1     -48.228  27.889  25.135  1.00  0.00    -0.231 NA
ATOM     53  C   UNL     1     -50.857  27.832  24.231  1.00  0.00    -0.049 A 
ATOM     54  C   UNL     1     -48.947  26.746  25.203  1.00  0.00     0.129 A 
ATOM     55  C   UNL     1     -50.259  26.687  24.747  1.00  0.00    -0.019 A 
ATOM     56  H   UNL     1     -51.883  27.788  23.878  1.00  0.00     0.063 H 
ATOM     57  H   UNL     1     -50.817  25.758  24.785  1.00  0.00     0.066 H 
BRANCH  54  58
ATOM     58  N   UNL     1     -48.333  25.594  25.733  1.00  0.00    -0.356 N 
ATOM     59  C   UNL     1     -46.911  25.398  25.794  1.00  0.00     0.021 C 
ATOM     60  C   UNL     1     -48.526  25.059  27.050  1.00  0.00     0.021 C 
ATOM     61  C   UNL     1     -47.193  24.329  26.853  1.00  0.00    -0.018 C 
ATOM     62  H   UNL     1     -46.370  26.278  26.158  1.00  0.00     0.049 H 
ATOM     63  H   UNL     1     -46.482  25.038  24.856  1.00  0.00     0.049 H 
ATOM     64  H   UNL     1     -48.522  25.828  27.830  1.00  0.00     0.049 H 
ATOM     65  H   UNL     1     -49.408  24.419  27.139  1.00  0.00     0.049 H 
ATOM     66  H   UNL     1     -46.521  24.324  27.716  1.00  0.00     0.030 H 
ATOM     67  H   UNL     1     -47.287  23.312  26.457  1.00  0.00     0.030 H 
ENDBRANCH  54  58
ENDBRANCH  42  43
ENDBRANCH  39  42
ENDBRANCH  35  39
ENDBRANCH   3  30
BRANCH   8  68
ATOM     68  N   UNL     1     -47.751  40.986  28.599  1.00  0.00    -0.383 N 
ATOM     69  H   UNL     1     -47.846  41.566  27.771  1.00  0.00     0.158 HD
ATOM     70  H   UNL     1     -48.265  41.312  29.409  1.00  0.00     0.158 HD
ENDBRANCH   8  68
TORSDOF 11
ENDMDL
MODEL 7
REMARK VINA RESULT:      -9.0      2.378      3.460
REMARK SMILES COCCn1ccc(-c2cn(-c3cncc(COc4ccc5ccc(N6CCC6)nc5c4)c3)c3ncnc(N)c23)n1
REMARK SMILES IDX 9 1 10 2 11 3 34 4 35 5 36 6 37 7 38 8 40 9 8 12 5 13 6 14
REMARK SMILES IDX 41 15 7 16 4 19 3 22 2 25 1 26 12 30 13 31 33 32 14 33 16 35
REMARK SMILES IDX 15 37 17 39 18 42 19 43 20 44 32 45 21 46 31 48 22 50 30 52
REMARK SMILES IDX 23 53 25 54 24 55 26 58 27 59 29 60 28 61 39 68
REMARK H PARENT 10 10 36 11 6 17 7 18 4 20 4 21 3 23 3 24 1 27 1 28 1 29 13 34
REMARK H PARENT 33 36 15 38 17 40 17 41 20 47 32 49 21 51 23 56 24 57 27 62
REMARK H PARENT 27 63 29 64 29 65 28 66 28 67 39 69 39 70
REMARK Flexibility Score: inf
ROOT
ATOM      1  C   UNL     1     -46.013  41.065  26.477  1.00  0.00     0.033 A 
ATOM      2  C   UNL     1     -45.575  39.779  26.704  1.00  0.00     0.021 A 
ATOM      3  N   UNL     1     -46.622  39.014  27.180  1.00  0.00    -0.299 N 
ATOM      4  C   UNL     1     -47.735  39.854  27.280  1.00  0.00     0.150 A 
ATOM      5  N   UNL     1     -48.970  39.493  27.683  1.00  0.00    -0.218 NA
ATOM      6  C   UNL     1     -49.845  40.503  27.667  1.00  0.00     0.120 A 
ATOM      7  N   UNL     1     -49.613  41.782  27.338  1.00  0.00    -0.219 NA
ATOM      8  C   UNL     1     -48.373  42.125  26.945  1.00  0.00     0.137 A 
ATOM      9  C   UNL     1     -47.374  41.138  26.868  1.00  0.00     0.071 A 
ATOM     10  H   UNL     1     -44.584  39.374  26.557  1.00  0.00     0.083 H 
ATOM     11  H   UNL     1     -50.861  40.261  27.963  1.00  0.00     0.106 H 
ENDROOT
BRANCH   1  12
ATOM     12  C   UNL     1     -45.190  42.142  25.935  1.00  0.00     0.095 A 
ATOM     13  N   UNL     1     -44.165  43.983  25.785  1.00  0.00    -0.270 N 
ATOM     14  C   UNL     1     -43.809  43.299  24.659  1.00  0.00     0.026 A 
ATOM     15  N   UNL     1     -45.001  43.295  26.584  1.00  0.00    -0.173 NA
ATOM     16  C   UNL     1     -44.452  42.085  24.734  1.00  0.00    -0.016 A 
ATOM     17  H   UNL     1     -43.137  43.713  23.919  1.00  0.00     0.084 H 
ATOM     18  H   UNL     1     -44.392  41.272  24.024  1.00  0.00     0.066 H 
BRANCH  13  19
ATOM     19  C   UNL     1     -43.726  45.316  26.165  1.00  0.00     0.064 C 
ATOM     20  H   UNL     1     -43.775  45.949  25.272  1.00  0.00     0.054 H 
ATOM     21  H   UNL     1     -42.672  45.224  26.452  1.00  0.00     0.054 H 
BRANCH  19  22
ATOM     22  C   UNL     1     -44.535  45.875  27.334  1.00  0.00     0.066 C 
ATOM     23  H   UNL     1     -44.796  45.118  28.084  1.00  0.00     0.059 H 
ATOM     24  H   UNL     1     -43.920  46.623  27.848  1.00  0.00     0.059 H 
BRANCH  22  25
ATOM     25  O   UNL     1     -45.712  46.574  26.918  1.00  0.00    -0.383 OA
BRANCH  25  26
ATOM     26  C   UNL     1     -46.751  46.549  27.890  1.00  0.00     0.036 C 
ATOM     27  H   UNL     1     -46.316  46.233  28.842  1.00  0.00     0.053 H 
ATOM     28  H   UNL     1     -47.174  47.547  28.028  1.00  0.00     0.053 H 
ATOM     29  H   UNL     1     -47.531  45.834  27.611  1.00  0.00     0.053 H 
ENDBRANCH  25  26
ENDBRANCH  22  25
ENDBRANCH  19  22
ENDBRANCH  13  19
ENDBRANCH   1  12
BRANCH   3  30
ATOM     30  C   UNL     1     -46.548  37.617  27.485  1.00  0.00     0.066 A 
ATOM     31  C   UNL     1     -45.988  37.172  28.678  1.00  0.00     0.051 A 
ATOM     32  C   UNL     1     -47.010  36.637  26.602  1.00  0.00    -0.028 A 
ATOM     33  N   UNL     1     -45.849  35.866  29.018  1.00  0.00    -0.262 NA
ATOM     34  H   UNL     1     -45.587  37.842  29.431  1.00  0.00     0.086 H 
ATOM     35  C   UNL     1     -46.863  35.277  26.906  1.00  0.00     0.010 A 
ATOM     36  H   UNL     1     -47.496  36.896  25.668  1.00  0.00     0.065 H 
ATOM     37  C   UNL     1     -46.275  34.952  28.120  1.00  0.00     0.034 A 
ATOM     38  H   UNL     1     -46.124  33.915  28.413  1.00  0.00     0.084 H 
BRANCH  35  39
ATOM     39  C   UNL     1     -47.322  34.206  25.955  1.00  0.00     0.115 C 
ATOM     40  H   UNL     1     -46.493  33.651  25.498  1.00  0.00     0.076 H 
ATOM     41  H   UNL     1     -47.831  34.700  25.117  1.00  0.00     0.076 H 
BRANCH  39  42
ATOM     42  O   UNL     1     -48.276  33.329  26.557  1.00  0.00    -0.489 OA
BRANCH  42  43
ATOM     43  C   UNL     1     -48.642  32.189  25.895  1.00  0.00     0.122 A 
ATOM     44  C   UNL     1     -49.499  32.401  24.815  1.00  0.00    -0.019 A 
ATOM     45  C   UNL     1     -48.246  30.886  26.199  1.00  0.00     0.007 A 
ATOM     46  C   UNL     1     -49.958  31.325  24.058  1.00  0.00    -0.049 A 
ATOM     47  H   UNL     1     -49.814  33.411  24.565  1.00  0.00     0.066 H 
ATOM     48  C   UNL     1     -48.694  29.792  25.467  1.00  0.00     0.076 A 
ATOM     49  H   UNL     1     -47.579  30.667  27.024  1.00  0.00     0.069 H 
ATOM     50  C   UNL     1     -49.561  30.020  24.383  1.00  0.00     0.001 A 
ATOM     51  H   UNL     1     -50.628  31.512  23.222  1.00  0.00     0.063 H 
ATOM     52  N   UNL     1     -48.290  28.558  25.819  1.00  0.00    -0.231 NA
ATOM     53  C   UNL     1     -50.002  28.911  23.657  1.00  0.00    -0.049 A 
ATOM     54  C   UNL     1     -48.737  27.489  25.123  1.00  0.00     0.129 A 
ATOM     55  C   UNL     1     -49.585  27.637  24.031  1.00  0.00    -0.019 A 
ATOM     56  H   UNL     1     -50.667  29.028  22.806  1.00  0.00     0.063 H 
ATOM     57  H   UNL     1     -49.918  26.773  23.467  1.00  0.00     0.066 H 
BRANCH  54  58
ATOM     58  N   UNL     1     -48.313  26.203  25.515  1.00  0.00    -0.356 N 
ATOM     59  C   UNL     1     -46.941  25.776  25.513  1.00  0.00     0.021 C 
ATOM     60  C   UNL     1     -48.574  25.571  26.776  1.00  0.00     0.021 C 
ATOM     61  C   UNL     1     -47.380  24.661  26.467  1.00  0.00    -0.018 C 
ATOM     62  H   UNL     1     -46.260  26.514  25.949  1.00  0.00     0.049 H 
ATOM     63  H   UNL     1     -46.588  25.452  24.531  1.00  0.00     0.049 H 
ATOM     64  H   UNL     1     -48.435  26.243  27.630  1.00  0.00     0.049 H 
ATOM     65  H   UNL     1     -49.547  25.076  26.825  1.00  0.00     0.049 H 
ATOM     66  H   UNL     1     -46.707  24.457  27.304  1.00  0.00     0.030 H 
ATOM     67  H   UNL     1     -47.644  23.720  25.972  1.00  0.00     0.030 H 
ENDBRANCH  54  58
ENDBRANCH  42  43
ENDBRANCH  39  42
ENDBRANCH  35  39
ENDBRANCH   3  30
BRANCH   8  68
ATOM     68  N   UNL     1     -48.175  43.473  26.671  1.00  0.00    -0.383 N 
ATOM     69  H   UNL     1     -48.306  43.638  25.678  1.00  0.00     0.158 HD
ATOM     70  H   UNL     1     -48.697  44.094  27.278  1.00  0.00     0.158 HD
ENDBRANCH   8  68
TORSDOF 11
ENDMDL
