MODEL 1
REMARK VINA RESULT:      -9.3      0.000      0.000
REMARK SMILES CCc1cc(N(C)CCN(C)C)c2ccc(CCc3cncc(-n4cc(-c5ccn(C)n5)c5c(N)ncnc54)c3)cc2n1
REMARK SMILES IDX 3 1 4 2 5 3 13 4 14 5 15 6 16 7 41 8 42 9 43 10 2 15 1 18
REMARK SMILES IDX 6 22 7 23 8 27 9 30 10 33 11 34 12 38 17 42 18 45 19 48
REMARK SMILES IDX 20 49 40 50 21 51 23 53 22 55 24 57 25 58 39 59 26 60 33 62
REMARK SMILES IDX 38 63 34 64 37 65 36 66 27 68 28 69 32 70 29 71 30 73 31 75
REMARK SMILES IDX 35 79
REMARK H PARENT 4 11 14 12 15 13 41 14 2 16 2 17 1 19 1 20 1 21 7 24 7 25 7 26
REMARK H PARENT 8 28 8 29 9 31 9 32 11 35 11 36 11 37 12 39 12 40 12 41 17 43
REMARK H PARENT 17 44 18 46 18 47 20 52 40 54 22 56 25 61 37 67 28 72 29 74
REMARK H PARENT 31 76 31 77 31 78 35 80 35 81
REMARK Flexibility Score: inf
ROOT
ATOM      1  C   UNL     1     -46.454  30.806  22.996  1.00  0.00     0.043 A 
ATOM      2  C   UNL     1     -47.637  30.173  23.337  1.00  0.00    -0.016 A 
ATOM      3  C   UNL     1     -48.488  30.748  24.289  1.00  0.00     0.048 A 
ATOM      4  C   UNL     1     -48.095  31.971  24.900  1.00  0.00     0.024 A 
ATOM      5  C   UNL     1     -48.826  32.659  25.900  1.00  0.00    -0.050 A 
ATOM      6  C   UNL     1     -48.385  33.870  26.434  1.00  0.00    -0.058 A 
ATOM      7  C   UNL     1     -47.194  34.433  25.987  1.00  0.00    -0.045 A 
ATOM      8  C   UNL     1     -46.458  33.751  25.011  1.00  0.00    -0.032 A 
ATOM      9  C   UNL     1     -46.875  32.542  24.469  1.00  0.00     0.073 A 
ATOM     10  N   UNL     1     -46.081  31.981  23.544  1.00  0.00    -0.253 NA
ATOM     11  H   UNL     1     -47.918  29.239  22.860  1.00  0.00     0.066 H 
ATOM     12  H   UNL     1     -49.760  32.258  26.280  1.00  0.00     0.063 H 
ATOM     13  H   UNL     1     -48.991  34.372  27.187  1.00  0.00     0.063 H 
ATOM     14  H   UNL     1     -45.521  34.174  24.650  1.00  0.00     0.065 H 
ENDROOT
BRANCH   1  15
ATOM     15  C   UNL     1     -45.545  30.221  21.948  1.00  0.00    -0.013 C 
ATOM     16  H   UNL     1     -44.795  30.963  21.649  1.00  0.00     0.033 H 
ATOM     17  H   UNL     1     -46.132  29.991  21.051  1.00  0.00     0.033 H 
BRANCH  15  18
ATOM     18  C   UNL     1     -44.862  28.957  22.444  1.00  0.00    -0.060 C 
ATOM     19  H   UNL     1     -44.549  29.056  23.488  1.00  0.00     0.023 H 
ATOM     20  H   UNL     1     -43.973  28.746  21.841  1.00  0.00     0.023 H 
ATOM     21  H   UNL     1     -45.532  28.092  22.375  1.00  0.00     0.023 H 
ENDBRANCH  15  18
ENDBRANCH   1  15
BRANCH   3  22
ATOM     22  N   UNL     1     -49.685  30.040  24.531  1.00  0.00    -0.373 N 
BRANCH  22  23
ATOM     23  C   UNL     1     -50.820  30.566  23.772  1.00  0.00     0.007 C 
ATOM     24  H   UNL     1     -51.565  29.797  23.548  1.00  0.00     0.046 H 
ATOM     25  H   UNL     1     -51.317  31.352  24.352  1.00  0.00     0.046 H 
ATOM     26  H   UNL     1     -50.492  31.023  22.831  1.00  0.00     0.046 H 
ENDBRANCH  22  23
BRANCH  22  27
ATOM     27  C   UNL     1     -49.585  28.562  24.584  1.00  0.00     0.030 C 
ATOM     28  H   UNL     1     -50.608  28.169  24.572  1.00  0.00     0.051 H 
ATOM     29  H   UNL     1     -49.091  28.156  23.696  1.00  0.00     0.051 H 
BRANCH  27  30
ATOM     30  C   UNL     1     -48.871  28.054  25.860  1.00  0.00     0.015 C 
ATOM     31  H   UNL     1     -49.590  27.980  26.687  1.00  0.00     0.045 H 
ATOM     32  H   UNL     1     -48.139  28.818  26.153  1.00  0.00     0.045 H 
BRANCH  30  33
ATOM     33  N   UNL     1     -48.151  26.774  25.674  1.00  0.00    -0.308 NA
BRANCH  33  34
ATOM     34  C   UNL     1     -47.050  26.967  24.726  1.00  0.00    -0.014 C 
ATOM     35  H   UNL     1     -46.175  27.382  25.237  1.00  0.00     0.039 H 
ATOM     36  H   UNL     1     -46.754  26.030  24.240  1.00  0.00     0.039 H 
ATOM     37  H   UNL     1     -47.331  27.687  23.949  1.00  0.00     0.039 H 
ENDBRANCH  33  34
BRANCH  33  38
ATOM     38  C   UNL     1     -47.629  26.255  26.939  1.00  0.00    -0.014 C 
ATOM     39  H   UNL     1     -46.536  26.217  26.932  1.00  0.00     0.039 H 
ATOM     40  H   UNL     1     -47.903  26.918  27.766  1.00  0.00     0.039 H 
ATOM     41  H   UNL     1     -48.010  25.252  27.163  1.00  0.00     0.039 H 
ENDBRANCH  33  38
ENDBRANCH  30  33
ENDBRANCH  27  30
ENDBRANCH  22  27
ENDBRANCH   3  22
BRANCH   7  42
ATOM     42  C   UNL     1     -46.723  35.767  26.514  1.00  0.00    -0.024 C 
ATOM     43  H   UNL     1     -45.659  35.704  26.776  1.00  0.00     0.032 H 
ATOM     44  H   UNL     1     -46.783  36.504  25.703  1.00  0.00     0.032 H 
BRANCH  42  45
ATOM     45  C   UNL     1     -47.547  36.271  27.708  1.00  0.00    -0.022 C 
ATOM     46  H   UNL     1     -47.087  35.942  28.649  1.00  0.00     0.032 H 
ATOM     47  H   UNL     1     -48.539  35.802  27.681  1.00  0.00     0.032 H 
BRANCH  45  48
ATOM     48  C   UNL     1     -47.735  37.767  27.724  1.00  0.00    -0.027 A 
ATOM     49  C   UNL     1     -48.923  38.334  28.166  1.00  0.00     0.030 A 
ATOM     50  C   UNL     1     -46.736  38.633  27.258  1.00  0.00    -0.032 A 
ATOM     51  N   UNL     1     -49.172  39.658  28.161  1.00  0.00    -0.262 NA
ATOM     52  H   UNL     1     -49.739  37.721  28.541  1.00  0.00     0.084 H 
ATOM     53  C   UNL     1     -46.953  40.018  27.239  1.00  0.00     0.066 A 
ATOM     54  H   UNL     1     -45.817  38.195  26.878  1.00  0.00     0.065 H 
ATOM     55  C   UNL     1     -48.186  40.468  27.695  1.00  0.00     0.051 A 
ATOM     56  H   UNL     1     -48.453  41.518  27.749  1.00  0.00     0.086 H 
BRANCH  53  57
ATOM     57  N   UNL     1     -45.939  40.919  26.786  1.00  0.00    -0.299 N 
ATOM     58  C   UNL     1     -46.085  41.814  25.742  1.00  0.00     0.021 A 
ATOM     59  C   UNL     1     -44.637  41.061  27.271  1.00  0.00     0.150 A 
ATOM     60  C   UNL     1     -44.889  42.464  25.524  1.00  0.00     0.033 A 
ATOM     61  H   UNL     1     -47.005  41.899  25.182  1.00  0.00     0.083 H 
ATOM     62  C   UNL     1     -43.977  42.040  26.525  1.00  0.00     0.071 A 
ATOM     63  N   UNL     1     -44.101  40.395  28.313  1.00  0.00    -0.218 NA
ATOM     64  C   UNL     1     -42.668  42.359  26.924  1.00  0.00     0.137 A 
ATOM     65  C   UNL     1     -42.843  40.764  28.579  1.00  0.00     0.120 A 
ATOM     66  N   UNL     1     -42.112  41.696  27.953  1.00  0.00    -0.219 NA
ATOM     67  H   UNL     1     -42.357  40.251  29.403  1.00  0.00     0.106 H 
BRANCH  60  68
ATOM     68  C   UNL     1     -44.640  43.421  24.449  1.00  0.00     0.095 A 
ATOM     69  C   UNL     1     -45.448  44.536  24.145  1.00  0.00    -0.016 A 
ATOM     70  N   UNL     1     -43.556  43.361  23.667  1.00  0.00    -0.173 NA
ATOM     71  C   UNL     1     -44.808  45.161  23.098  1.00  0.00     0.025 A 
ATOM     72  H   UNL     1     -46.365  44.849  24.624  1.00  0.00     0.066 H 
ATOM     73  N   UNL     1     -43.684  44.427  22.857  1.00  0.00    -0.275 N 
ATOM     74  H   UNL     1     -45.048  46.050  22.534  1.00  0.00     0.084 H 
BRANCH  73  75
ATOM     75  C   UNL     1     -42.671  44.688  21.864  1.00  0.00     0.030 C 
ATOM     76  H   UNL     1     -42.059  45.535  22.184  1.00  0.00     0.048 H 
ATOM     77  H   UNL     1     -43.166  44.921  20.919  1.00  0.00     0.048 H 
ATOM     78  H   UNL     1     -42.049  43.796  21.764  1.00  0.00     0.048 H 
ENDBRANCH  73  75
ENDBRANCH  60  68
BRANCH  64  79
ATOM     79  N   UNL     1     -41.890  43.362  26.357  1.00  0.00    -0.383 N 
ATOM     80  H   UNL     1     -42.359  44.255  26.472  1.00  0.00     0.158 HD
ATOM     81  H   UNL     1     -41.592  43.155  25.411  1.00  0.00     0.158 HD
ENDBRANCH  64  79
ENDBRANCH  53  57
ENDBRANCH  45  48
ENDBRANCH  42  45
ENDBRANCH   7  42
TORSDOF 16
ENDMDL
MODEL 2
REMARK VINA RESULT:      -9.2      1.624      2.175
REMARK SMILES CCc1cc(N(C)CCN(C)C)c2ccc(CCc3cncc(-n4cc(-c5ccn(C)n5)c5c(N)ncnc54)c3)cc2n1
REMARK SMILES IDX 3 1 4 2 5 3 13 4 14 5 15 6 16 7 41 8 42 9 43 10 2 15 1 18
REMARK SMILES IDX 6 22 7 23 8 27 9 30 10 33 11 34 12 38 17 42 18 45 19 48
REMARK SMILES IDX 20 49 40 50 21 51 23 53 22 55 24 57 25 58 39 59 26 60 33 62
REMARK SMILES IDX 38 63 34 64 37 65 36 66 27 68 28 69 32 70 29 71 30 73 31 75
REMARK SMILES IDX 35 79
REMARK H PARENT 4 11 14 12 15 13 41 14 2 16 2 17 1 19 1 20 1 21 7 24 7 25 7 26
REMARK H PARENT 8 28 8 29 9 31 9 32 11 35 11 36 11 37 12 39 12 40 12 41 17 43
REMARK H PARENT 17 44 18 46 18 47 20 52 40 54 22 56 25 61 37 67 28 72 29 74
REMARK H PARENT 31 76 31 77 31 78 35 80 35 81
REMARK Flexibility Score: inf
ROOT
ATOM      1  C   UNL     1     -46.407  30.882  22.203  1.00  0.00     0.043 A 
ATOM      2  C   UNL     1     -47.334  29.964  22.666  1.00  0.00    -0.016 A 
ATOM      3  C   UNL     1     -48.035  30.217  23.852  1.00  0.00     0.048 A 
ATOM      4  C   UNL     1     -47.753  31.415  24.565  1.00  0.00     0.024 A 
ATOM      5  C   UNL     1     -48.350  31.798  25.791  1.00  0.00    -0.050 A 
ATOM      6  C   UNL     1     -48.038  33.004  26.419  1.00  0.00    -0.058 A 
ATOM      7  C   UNL     1     -47.113  33.868  25.841  1.00  0.00    -0.045 A 
ATOM      8  C   UNL     1     -46.507  33.490  24.637  1.00  0.00    -0.032 A 
ATOM      9  C   UNL     1     -46.799  32.291  23.997  1.00  0.00     0.073 A 
ATOM     10  N   UNL     1     -46.149  32.036  22.852  1.00  0.00    -0.253 NA
ATOM     11  H   UNL     1     -47.534  29.055  22.107  1.00  0.00     0.066 H 
ATOM     12  H   UNL     1     -49.076  31.156  26.280  1.00  0.00     0.063 H 
ATOM     13  H   UNL     1     -48.537  33.264  27.351  1.00  0.00     0.063 H 
ATOM     14  H   UNL     1     -45.778  34.151  24.169  1.00  0.00     0.065 H 
ENDROOT
BRANCH   1  15
ATOM     15  C   UNL     1     -45.671  30.644  20.911  1.00  0.00    -0.013 C 
ATOM     16  H   UNL     1     -45.905  29.645  20.527  1.00  0.00     0.033 H 
ATOM     17  H   UNL     1     -44.592  30.661  21.103  1.00  0.00     0.033 H 
BRANCH  15  18
ATOM     18  C   UNL     1     -46.015  31.698  19.870  1.00  0.00    -0.060 C 
ATOM     19  H   UNL     1     -45.120  32.227  19.527  1.00  0.00     0.023 H 
ATOM     20  H   UNL     1     -46.705  32.435  20.291  1.00  0.00     0.023 H 
ATOM     21  H   UNL     1     -46.494  31.247  18.993  1.00  0.00     0.023 H 
ENDBRANCH  15  18
ENDBRANCH   1  15
BRANCH   3  22
ATOM     22  N   UNL     1     -48.985  29.236  24.209  1.00  0.00    -0.373 N 
BRANCH  22  23
ATOM     23  C   UNL     1     -49.426  28.430  23.070  1.00  0.00     0.007 C 
ATOM     24  H   UNL     1     -49.976  29.018  22.330  1.00  0.00     0.046 H 
ATOM     25  H   UNL     1     -48.555  27.994  22.568  1.00  0.00     0.046 H 
ATOM     26  H   UNL     1     -50.057  27.594  23.395  1.00  0.00     0.046 H 
ENDBRANCH  22  23
BRANCH  22  27
ATOM     27  C   UNL     1     -48.727  28.483  25.459  1.00  0.00     0.030 C 
ATOM     28  H   UNL     1     -47.960  29.035  26.014  1.00  0.00     0.051 H 
ATOM     29  H   UNL     1     -49.610  28.452  26.105  1.00  0.00     0.051 H 
BRANCH  27  30
ATOM     30  C   UNL     1     -48.216  27.045  25.200  1.00  0.00     0.015 C 
ATOM     31  H   UNL     1     -47.129  27.056  25.047  1.00  0.00     0.045 H 
ATOM     32  H   UNL     1     -48.659  26.705  24.255  1.00  0.00     0.045 H 
BRANCH  30  33
ATOM     33  N   UNL     1     -48.588  26.078  26.257  1.00  0.00    -0.308 NA
BRANCH  33  34
ATOM     34  C   UNL     1     -49.863  25.443  25.910  1.00  0.00    -0.014 C 
ATOM     35  H   UNL     1     -50.256  24.888  26.768  1.00  0.00     0.039 H 
ATOM     36  H   UNL     1     -50.617  26.174  25.597  1.00  0.00     0.039 H 
ATOM     37  H   UNL     1     -49.726  24.718  25.100  1.00  0.00     0.039 H 
ENDBRANCH  33  34
BRANCH  33  38
ATOM     38  C   UNL     1     -47.560  25.054  26.443  1.00  0.00    -0.014 C 
ATOM     39  H   UNL     1     -47.800  24.398  27.285  1.00  0.00     0.039 H 
ATOM     40  H   UNL     1     -47.501  24.405  25.562  1.00  0.00     0.039 H 
ATOM     41  H   UNL     1     -46.568  25.489  26.614  1.00  0.00     0.039 H 
ENDBRANCH  33  38
ENDBRANCH  30  33
ENDBRANCH  27  30
ENDBRANCH  22  27
ENDBRANCH   3  22
BRANCH   7  42
ATOM     42  C   UNL     1     -46.797  35.201  26.475  1.00  0.00    -0.024 C 
ATOM     43  H   UNL     1     -45.717  35.387  26.421  1.00  0.00     0.032 H 
ATOM     44  H   UNL     1     -47.263  35.993  25.875  1.00  0.00     0.032 H 
BRANCH  42  45
ATOM     45  C   UNL     1     -47.295  35.315  27.923  1.00  0.00    -0.022 C 
ATOM     46  H   UNL     1     -47.234  34.338  28.421  1.00  0.00     0.032 H 
ATOM     47  H   UNL     1     -48.360  35.580  27.915  1.00  0.00     0.032 H 
BRANCH  45  48
ATOM     48  C   UNL     1     -46.560  36.351  28.735  1.00  0.00    -0.027 A 
ATOM     49  C   UNL     1     -46.433  36.223  30.112  1.00  0.00     0.030 A 
ATOM     50  C   UNL     1     -46.016  37.496  28.137  1.00  0.00    -0.032 A 
ATOM     51  N   UNL     1     -45.831  37.135  30.900  1.00  0.00    -0.262 NA
ATOM     52  H   UNL     1     -46.831  35.360  30.641  1.00  0.00     0.084 H 
ATOM     53  C   UNL     1     -45.378  38.468  28.919  1.00  0.00     0.066 A 
ATOM     54  H   UNL     1     -46.142  37.620  27.065  1.00  0.00     0.065 H 
ATOM     55  C   UNL     1     -45.321  38.236  30.289  1.00  0.00     0.051 A 
ATOM     56  H   UNL     1     -44.832  38.907  30.986  1.00  0.00     0.086 H 
BRANCH  53  57
ATOM     57  N   UNL     1     -44.799  39.633  28.325  1.00  0.00    -0.299 N 
ATOM     58  C   UNL     1     -45.328  40.317  27.246  1.00  0.00     0.021 A 
ATOM     59  C   UNL     1     -43.617  40.283  28.685  1.00  0.00     0.150 A 
ATOM     60  C   UNL     1     -44.472  41.336  26.884  1.00  0.00     0.033 A 
ATOM     61  H   UNL     1     -46.245  40.010  26.764  1.00  0.00     0.083 H 
ATOM     62  C   UNL     1     -43.412  41.365  27.826  1.00  0.00     0.071 A 
ATOM     63  N   UNL     1     -42.811  39.954  29.715  1.00  0.00    -0.218 NA
ATOM     64  C   UNL     1     -42.293  42.174  28.089  1.00  0.00     0.137 A 
ATOM     65  C   UNL     1     -41.767  40.779  29.847  1.00  0.00     0.120 A 
ATOM     66  N   UNL     1     -41.471  41.854  29.104  1.00  0.00    -0.219 NA
ATOM     67  H   UNL     1     -41.078  40.554  30.656  1.00  0.00     0.106 H 
BRANCH  60  68
ATOM     68  C   UNL     1     -44.659  42.218  25.736  1.00  0.00     0.095 A 
ATOM     69  C   UNL     1     -43.962  42.126  24.513  1.00  0.00    -0.016 A 
ATOM     70  N   UNL     1     -45.580  43.189  25.714  1.00  0.00    -0.173 NA
ATOM     71  C   UNL     1     -44.493  43.124  23.728  1.00  0.00     0.025 A 
ATOM     72  H   UNL     1     -43.186  41.426  24.236  1.00  0.00     0.066 H 
ATOM     73  N   UNL     1     -45.457  43.722  24.485  1.00  0.00    -0.275 N 
ATOM     74  H   UNL     1     -44.278  43.437  22.716  1.00  0.00     0.084 H 
BRANCH  73  75
ATOM     75  C   UNL     1     -46.315  44.815  24.099  1.00  0.00     0.030 C 
ATOM     76  H   UNL     1     -46.166  45.036  23.039  1.00  0.00     0.048 H 
ATOM     77  H   UNL     1     -46.054  45.689  24.702  1.00  0.00     0.048 H 
ATOM     78  H   UNL     1     -47.351  44.520  24.277  1.00  0.00     0.048 H 
ENDBRANCH  73  75
ENDBRANCH  60  68
BRANCH  64  79
ATOM     79  N   UNL     1     -41.977  43.337  27.396  1.00  0.00    -0.383 N 
ATOM     80  H   UNL     1     -42.269  43.240  26.429  1.00  0.00     0.158 HD
ATOM     81  H   UNL     1     -41.017  43.634  27.524  1.00  0.00     0.158 HD
ENDBRANCH  64  79
ENDBRANCH  53  57
ENDBRANCH  45  48
ENDBRANCH  42  45
ENDBRANCH   7  42
TORSDOF 16
ENDMDL
MODEL 3
REMARK VINA RESULT:      -8.9      1.801      2.986
REMARK SMILES CCc1cc(N(C)CCN(C)C)c2ccc(CCc3cncc(-n4cc(-c5ccn(C)n5)c5c(N)ncnc54)c3)cc2n1
REMARK SMILES IDX 3 1 4 2 5 3 13 4 14 5 15 6 16 7 41 8 42 9 43 10 2 15 1 18
REMARK SMILES IDX 6 22 7 23 8 27 9 30 10 33 11 34 12 38 17 42 18 45 19 48
REMARK SMILES IDX 20 49 40 50 21 51 23 53 22 55 24 57 25 58 39 59 26 60 33 62
REMARK SMILES IDX 38 63 34 64 37 65 36 66 27 68 28 69 32 70 29 71 30 73 31 75
REMARK SMILES IDX 35 79
REMARK H PARENT 4 11 14 12 15 13 41 14 2 16 2 17 1 19 1 20 1 21 7 24 7 25 7 26
REMARK H PARENT 8 28 8 29 9 31 9 32 11 35 11 36 11 37 12 39 12 40 12 41 17 43
REMARK H PARENT 17 44 18 46 18 47 20 52 40 54 22 56 25 61 37 67 28 72 29 74
REMARK H PARENT 31 76 31 77 31 78 35 80 35 81
REMARK Flexibility Score: inf
ROOT
ATOM      1  C   UNL     1     -46.534  30.968  21.696  1.00  0.00     0.043 A 
ATOM      2  C   UNL     1     -47.613  30.107  21.797  1.00  0.00    -0.016 A 
ATOM      3  C   UNL     1     -48.367  30.066  22.976  1.00  0.00     0.048 A 
ATOM      4  C   UNL     1     -47.983  30.907  24.057  1.00  0.00     0.024 A 
ATOM      5  C   UNL     1     -48.619  30.957  25.322  1.00  0.00    -0.050 A 
ATOM      6  C   UNL     1     -48.196  31.828  26.327  1.00  0.00    -0.058 A 
ATOM      7  C   UNL     1     -47.117  32.677  26.100  1.00  0.00    -0.045 A 
ATOM      8  C   UNL     1     -46.473  32.622  24.858  1.00  0.00    -0.032 A 
ATOM      9  C   UNL     1     -46.874  31.759  23.846  1.00  0.00     0.073 A 
ATOM     10  N   UNL     1     -46.173  31.792  22.702  1.00  0.00    -0.253 NA
ATOM     11  H   UNL     1     -47.890  29.473  20.960  1.00  0.00     0.066 H 
ATOM     12  H   UNL     1     -49.464  30.314  25.545  1.00  0.00     0.063 H 
ATOM     13  H   UNL     1     -48.729  31.846  27.276  1.00  0.00     0.063 H 
ATOM     14  H   UNL     1     -45.624  33.276  24.662  1.00  0.00     0.065 H 
ENDROOT
BRANCH   1  15
ATOM     15  C   UNL     1     -45.734  31.052  20.423  1.00  0.00    -0.013 C 
ATOM     16  H   UNL     1     -45.711  30.072  19.933  1.00  0.00     0.033 H 
ATOM     17  H   UNL     1     -44.696  31.306  20.666  1.00  0.00     0.033 H 
BRANCH  15  18
ATOM     18  C   UNL     1     -46.301  32.098  19.475  1.00  0.00    -0.060 C 
ATOM     19  H   UNL     1     -47.151  32.623  19.924  1.00  0.00     0.023 H 
ATOM     20  H   UNL     1     -46.644  31.624  18.551  1.00  0.00     0.023 H 
ATOM     21  H   UNL     1     -45.545  32.846  19.213  1.00  0.00     0.023 H 
ENDBRANCH  15  18
ENDBRANCH   1  15
BRANCH   3  22
ATOM     22  N   UNL     1     -49.470  29.185  22.954  1.00  0.00    -0.373 N 
BRANCH  22  23
ATOM     23  C   UNL     1     -49.216  27.939  23.677  1.00  0.00     0.007 C 
ATOM     24  H   UNL     1     -48.969  27.110  23.007  1.00  0.00     0.046 H 
ATOM     25  H   UNL     1     -48.371  28.076  24.361  1.00  0.00     0.046 H 
ATOM     26  H   UNL     1     -50.078  27.652  24.290  1.00  0.00     0.046 H 
ENDBRANCH  22  23
BRANCH  22  27
ATOM     27  C   UNL     1     -50.807  29.785  23.171  1.00  0.00     0.030 C 
ATOM     28  H   UNL     1     -51.245  29.289  24.044  1.00  0.00     0.051 H 
ATOM     29  H   UNL     1     -50.739  30.848  23.425  1.00  0.00     0.051 H 
BRANCH  27  30
ATOM     30  C   UNL     1     -51.754  29.594  21.962  1.00  0.00     0.015 C 
ATOM     31  H   UNL     1     -52.761  29.331  22.313  1.00  0.00     0.045 H 
ATOM     32  H   UNL     1     -51.389  28.731  21.392  1.00  0.00     0.045 H 
BRANCH  30  33
ATOM     33  N   UNL     1     -51.805  30.760  21.051  1.00  0.00    -0.308 NA
BRANCH  33  34
ATOM     34  C   UNL     1     -51.546  31.986  21.811  1.00  0.00    -0.014 C 
ATOM     35  H   UNL     1     -51.806  31.842  22.864  1.00  0.00     0.039 H 
ATOM     36  H   UNL     1     -50.495  32.293  21.753  1.00  0.00     0.039 H 
ATOM     37  H   UNL     1     -52.168  32.808  21.441  1.00  0.00     0.039 H 
ENDBRANCH  33  34
BRANCH  33  38
ATOM     38  C   UNL     1     -50.838  30.639  19.959  1.00  0.00    -0.014 C 
ATOM     39  H   UNL     1     -51.274  30.128  19.096  1.00  0.00     0.039 H 
ATOM     40  H   UNL     1     -50.539  31.631  19.603  1.00  0.00     0.039 H 
ATOM     41  H   UNL     1     -49.935  30.099  20.264  1.00  0.00     0.039 H 
ENDBRANCH  33  38
ENDBRANCH  30  33
ENDBRANCH  27  30
ENDBRANCH  22  27
ENDBRANCH   3  22
BRANCH   7  42
ATOM     42  C   UNL     1     -46.674  33.663  27.153  1.00  0.00    -0.024 C 
ATOM     43  H   UNL     1     -47.089  33.372  28.127  1.00  0.00     0.032 H 
ATOM     44  H   UNL     1     -45.584  33.590  27.264  1.00  0.00     0.032 H 
BRANCH  42  45
ATOM     45  C   UNL     1     -47.045  35.115  26.817  1.00  0.00    -0.022 C 
ATOM     46  H   UNL     1     -48.136  35.221  26.756  1.00  0.00     0.032 H 
ATOM     47  H   UNL     1     -46.664  35.359  25.817  1.00  0.00     0.032 H 
BRANCH  45  48
ATOM     48  C   UNL     1     -46.487  36.122  27.791  1.00  0.00    -0.027 A 
ATOM     49  C   UNL     1     -46.460  35.861  29.154  1.00  0.00     0.030 A 
ATOM     50  C   UNL     1     -46.013  37.369  27.360  1.00  0.00    -0.032 A 
ATOM     51  N   UNL     1     -46.019  36.736  30.079  1.00  0.00    -0.262 NA
ATOM     52  H   UNL     1     -46.811  34.914  29.557  1.00  0.00     0.084 H 
ATOM     53  C   UNL     1     -45.542  38.307  28.288  1.00  0.00     0.066 A 
ATOM     54  H   UNL     1     -46.063  37.594  26.298  1.00  0.00     0.065 H 
ATOM     55  C   UNL     1     -45.575  37.937  29.629  1.00  0.00     0.051 A 
ATOM     56  H   UNL     1     -45.214  38.572  30.429  1.00  0.00     0.086 H 
BRANCH  53  57
ATOM     57  N   UNL     1     -45.036  39.576  27.867  1.00  0.00    -0.299 N 
ATOM     58  C   UNL     1     -45.579  40.348  26.855  1.00  0.00     0.021 A 
ATOM     59  C   UNL     1     -43.923  40.262  28.356  1.00  0.00     0.150 A 
ATOM     60  C   UNL     1     -44.795  41.465  26.659  1.00  0.00     0.033 A 
ATOM     61  H   UNL     1     -46.451  40.036  26.300  1.00  0.00     0.083 H 
ATOM     62  C   UNL     1     -43.773  41.455  27.644  1.00  0.00     0.071 A 
ATOM     63  N   UNL     1     -43.131  39.868  29.373  1.00  0.00    -0.218 NA
ATOM     64  C   UNL     1     -42.732  42.306  28.053  1.00  0.00     0.137 A 
ATOM     65  C   UNL     1     -42.160  40.746  29.651  1.00  0.00     0.120 A 
ATOM     66  N   UNL     1     -41.924  41.924  29.058  1.00  0.00    -0.219 NA
ATOM     67  H   UNL     1     -41.485  40.474  30.457  1.00  0.00     0.106 H 
BRANCH  60  68
ATOM     68  C   UNL     1     -45.010  42.467  25.619  1.00  0.00     0.095 A 
ATOM     69  C   UNL     1     -46.004  43.467  25.641  1.00  0.00    -0.016 A 
ATOM     70  N   UNL     1     -44.221  42.570  24.543  1.00  0.00    -0.173 NA
ATOM     71  C   UNL     1     -45.800  44.193  24.489  1.00  0.00     0.025 A 
ATOM     72  H   UNL     1     -46.760  43.643  26.394  1.00  0.00     0.066 H 
ATOM     73  N   UNL     1     -44.724  43.624  23.875  1.00  0.00    -0.275 N 
ATOM     74  H   UNL     1     -46.312  45.051  24.078  1.00  0.00     0.084 H 
BRANCH  73  75
ATOM     75  C   UNL     1     -44.107  44.039  22.639  1.00  0.00     0.030 C 
ATOM     76  H   UNL     1     -44.859  44.057  21.846  1.00  0.00     0.048 H 
ATOM     77  H   UNL     1     -43.319  43.324  22.390  1.00  0.00     0.048 H 
ATOM     78  H   UNL     1     -43.690  45.038  22.781  1.00  0.00     0.048 H 
ENDBRANCH  73  75
ENDBRANCH  60  68
BRANCH  64  79
ATOM     79  N   UNL     1     -42.485  43.566  27.522  1.00  0.00    -0.383 N 
ATOM     80  H   UNL     1     -42.288  44.215  28.277  1.00  0.00     0.158 HD
ATOM     81  H   UNL     1     -43.194  43.874  26.868  1.00  0.00     0.158 HD
ENDBRANCH  64  79
ENDBRANCH  53  57
ENDBRANCH  45  48
ENDBRANCH  42  45
ENDBRANCH   7  42
TORSDOF 16
ENDMDL
MODEL 4
REMARK VINA RESULT:      -8.7      2.263      3.388
REMARK SMILES CCc1cc(N(C)CCN(C)C)c2ccc(CCc3cncc(-n4cc(-c5ccn(C)n5)c5c(N)ncnc54)c3)cc2n1
REMARK SMILES IDX 3 1 4 2 5 3 13 4 14 5 15 6 16 7 41 8 42 9 43 10 2 15 1 18
REMARK SMILES IDX 6 22 7 23 8 27 9 30 10 33 11 34 12 38 17 42 18 45 19 48
REMARK SMILES IDX 20 49 40 50 21 51 23 53 22 55 24 57 25 58 39 59 26 60 33 62
REMARK SMILES IDX 38 63 34 64 37 65 36 66 27 68 28 69 32 70 29 71 30 73 31 75
REMARK SMILES IDX 35 79
REMARK H PARENT 4 11 14 12 15 13 41 14 2 16 2 17 1 19 1 20 1 21 7 24 7 25 7 26
REMARK H PARENT 8 28 8 29 9 31 9 32 11 35 11 36 11 37 12 39 12 40 12 41 17 43
REMARK H PARENT 17 44 18 46 18 47 20 52 40 54 22 56 25 61 37 67 28 72 29 74
REMARK H PARENT 31 76 31 77 31 78 35 80 35 81
REMARK Flexibility Score: inf
ROOT
ATOM      1  C   UNL     1     -46.531  30.831  21.836  1.00  0.00     0.043 A 
ATOM      2  C   UNL     1     -47.493  29.883  22.143  1.00  0.00    -0.016 A 
ATOM      3  C   UNL     1     -48.150  29.930  23.379  1.00  0.00     0.048 A 
ATOM      4  C   UNL     1     -47.789  30.950  24.302  1.00  0.00     0.024 A 
ATOM      5  C   UNL     1     -48.335  31.111  25.599  1.00  0.00    -0.050 A 
ATOM      6  C   UNL     1     -47.944  32.155  26.439  1.00  0.00    -0.058 A 
ATOM      7  C   UNL     1     -46.991  33.072  26.009  1.00  0.00    -0.045 A 
ATOM      8  C   UNL     1     -46.435  32.910  24.735  1.00  0.00    -0.032 A 
ATOM      9  C   UNL     1     -46.805  31.876  23.884  1.00  0.00     0.073 A 
ATOM     10  N   UNL     1     -46.197  31.822  22.689  1.00  0.00    -0.253 NA
ATOM     11  H   UNL     1     -47.753  29.112  21.425  1.00  0.00     0.066 H 
ATOM     12  H   UNL     1     -49.081  30.420  25.978  1.00  0.00     0.063 H 
ATOM     13  H   UNL     1     -48.406  32.249  27.421  1.00  0.00     0.063 H 
ATOM     14  H   UNL     1     -45.685  33.616  24.380  1.00  0.00     0.065 H 
ENDROOT
BRANCH   1  15
ATOM     15  C   UNL     1     -45.840  30.818  20.498  1.00  0.00    -0.013 C 
ATOM     16  H   UNL     1     -46.028  29.865  19.991  1.00  0.00     0.033 H 
ATOM     17  H   UNL     1     -44.757  30.882  20.652  1.00  0.00     0.033 H 
BRANCH  15  18
ATOM     18  C   UNL     1     -46.296  31.975  19.623  1.00  0.00    -0.060 C 
ATOM     19  H   UNL     1     -47.334  32.252  19.838  1.00  0.00     0.023 H 
ATOM     20  H   UNL     1     -46.230  31.699  18.566  1.00  0.00     0.023 H 
ATOM     21  H   UNL     1     -45.673  32.862  19.783  1.00  0.00     0.023 H 
ENDBRANCH  15  18
ENDBRANCH   1  15
BRANCH   3  22
ATOM     22  N   UNL     1     -49.141  28.942  23.570  1.00  0.00    -0.373 N 
BRANCH  22  23
ATOM     23  C   UNL     1     -50.235  29.040  22.603  1.00  0.00     0.007 C 
ATOM     24  H   UNL     1     -51.157  29.417  23.053  1.00  0.00     0.046 H 
ATOM     25  H   UNL     1     -49.953  29.726  21.797  1.00  0.00     0.046 H 
ATOM     26  H   UNL     1     -50.441  28.069  22.137  1.00  0.00     0.046 H 
ENDBRANCH  22  23
BRANCH  22  27
ATOM     27  C   UNL     1     -48.664  27.569  23.856  1.00  0.00     0.030 C 
ATOM     28  H   UNL     1     -49.466  26.882  23.560  1.00  0.00     0.051 H 
ATOM     29  H   UNL     1     -47.795  27.305  23.246  1.00  0.00     0.051 H 
BRANCH  27  30
ATOM     30  C   UNL     1     -48.343  27.344  25.353  1.00  0.00     0.015 C 
ATOM     31  H   UNL     1     -49.149  26.769  25.827  1.00  0.00     0.045 H 
ATOM     32  H   UNL     1     -48.338  28.329  25.839  1.00  0.00     0.045 H 
BRANCH  30  33
ATOM     33  N   UNL     1     -47.030  26.705  25.595  1.00  0.00    -0.308 NA
BRANCH  33  34
ATOM     34  C   UNL     1     -47.229  25.291  25.924  1.00  0.00    -0.014 C 
ATOM     35  H   UNL     1     -47.609  25.187  26.945  1.00  0.00     0.039 H 
ATOM     36  H   UNL     1     -47.935  24.803  25.241  1.00  0.00     0.039 H 
ATOM     37  H   UNL     1     -46.278  24.748  25.884  1.00  0.00     0.039 H 
ENDBRANCH  33  34
BRANCH  33  38
ATOM     38  C   UNL     1     -46.145  26.824  24.436  1.00  0.00    -0.014 C 
ATOM     39  H   UNL     1     -46.138  25.904  23.845  1.00  0.00     0.039 H 
ATOM     40  H   UNL     1     -46.500  27.613  23.764  1.00  0.00     0.039 H 
ATOM     41  H   UNL     1     -45.114  27.059  24.725  1.00  0.00     0.039 H 
ENDBRANCH  33  38
ENDBRANCH  30  33
ENDBRANCH  27  30
ENDBRANCH  22  27
ENDBRANCH   3  22
BRANCH   7  42
ATOM     42  C   UNL     1     -46.591  34.238  26.881  1.00  0.00    -0.024 C 
ATOM     43  H   UNL     1     -46.856  34.025  27.924  1.00  0.00     0.032 H 
ATOM     44  H   UNL     1     -45.497  34.325  26.867  1.00  0.00     0.032 H 
BRANCH  42  45
ATOM     45  C   UNL     1     -47.203  35.571  26.426  1.00  0.00    -0.022 C 
ATOM     46  H   UNL     1     -48.279  35.586  26.644  1.00  0.00     0.032 H 
ATOM     47  H   UNL     1     -47.118  35.649  25.335  1.00  0.00     0.032 H 
BRANCH  45  48
ATOM     48  C   UNL     1     -46.540  36.780  27.037  1.00  0.00    -0.027 A 
ATOM     49  C   UNL     1     -45.591  36.645  28.041  1.00  0.00     0.030 A 
ATOM     50  C   UNL     1     -46.885  38.079  26.641  1.00  0.00    -0.032 A 
ATOM     51  N   UNL     1     -44.997  37.684  28.660  1.00  0.00    -0.262 NA
ATOM     52  H   UNL     1     -45.276  35.666  28.396  1.00  0.00     0.084 H 
ATOM     53  C   UNL     1     -46.289  39.188  27.256  1.00  0.00     0.066 A 
ATOM     54  H   UNL     1     -47.652  38.194  25.880  1.00  0.00     0.065 H 
ATOM     55  C   UNL     1     -45.360  38.929  28.258  1.00  0.00     0.051 A 
ATOM     56  H   UNL     1     -44.820  39.708  28.784  1.00  0.00     0.086 H 
BRANCH  53  57
ATOM     57  N   UNL     1     -46.613  40.522  26.853  1.00  0.00    -0.299 N 
ATOM     58  C   UNL     1     -47.840  41.130  27.045  1.00  0.00     0.021 A 
ATOM     59  C   UNL     1     -45.797  41.441  26.190  1.00  0.00     0.150 A 
ATOM     60  C   UNL     1     -47.829  42.380  26.462  1.00  0.00     0.033 A 
ATOM     61  H   UNL     1     -48.662  40.625  27.530  1.00  0.00     0.083 H 
ATOM     62  C   UNL     1     -46.520  42.615  25.968  1.00  0.00     0.071 A 
ATOM     63  N   UNL     1     -44.507  41.254  25.846  1.00  0.00    -0.218 NA
ATOM     64  C   UNL     1     -45.824  43.677  25.366  1.00  0.00     0.137 A 
ATOM     65  C   UNL     1     -43.962  42.323  25.255  1.00  0.00     0.120 A 
ATOM     66  N   UNL     1     -44.541  43.505  25.004  1.00  0.00    -0.219 NA
ATOM     67  H   UNL     1     -42.926  42.224  24.947  1.00  0.00     0.106 H 
BRANCH  60  68
ATOM     68  C   UNL     1     -48.976  43.281  26.391  1.00  0.00     0.095 A 
ATOM     69  C   UNL     1     -49.656  43.826  27.500  1.00  0.00    -0.016 A 
ATOM     70  N   UNL     1     -49.465  43.736  25.232  1.00  0.00    -0.173 NA
ATOM     71  C   UNL     1     -50.626  44.637  26.955  1.00  0.00     0.025 A 
ATOM     72  H   UNL     1     -49.465  43.659  28.551  1.00  0.00     0.066 H 
ATOM     73  N   UNL     1     -50.465  44.554  25.604  1.00  0.00    -0.275 N 
ATOM     74  H   UNL     1     -51.384  45.258  27.409  1.00  0.00     0.084 H 
BRANCH  73  75
ATOM     75  C   UNL     1     -51.231  45.241  24.593  1.00  0.00     0.030 C 
ATOM     76  H   UNL     1     -50.596  45.975  24.092  1.00  0.00     0.048 H 
ATOM     77  H   UNL     1     -52.071  45.744  25.079  1.00  0.00     0.048 H 
ATOM     78  H   UNL     1     -51.589  44.503  23.871  1.00  0.00     0.048 H 
ENDBRANCH  73  75
ENDBRANCH  60  68
BRANCH  64  79
ATOM     79  N   UNL     1     -46.352  44.945  25.144  1.00  0.00    -0.383 N 
ATOM     80  H   UNL     1     -45.639  45.536  24.728  1.00  0.00     0.158 HD
ATOM     81  H   UNL     1     -46.812  45.337  25.956  1.00  0.00     0.158 HD
ENDBRANCH  64  79
ENDBRANCH  53  57
ENDBRANCH  45  48
ENDBRANCH  42  45
ENDBRANCH   7  42
TORSDOF 16
ENDMDL
MODEL 5
REMARK VINA RESULT:      -8.5      1.835      2.272
REMARK SMILES CCc1cc(N(C)CCN(C)C)c2ccc(CCc3cncc(-n4cc(-c5ccn(C)n5)c5c(N)ncnc54)c3)cc2n1
REMARK SMILES IDX 3 1 4 2 5 3 13 4 14 5 15 6 16 7 41 8 42 9 43 10 2 15 1 18
REMARK SMILES IDX 6 22 7 23 8 27 9 30 10 33 11 34 12 38 17 42 18 45 19 48
REMARK SMILES IDX 20 49 40 50 21 51 23 53 22 55 24 57 25 58 39 59 26 60 33 62
REMARK SMILES IDX 38 63 34 64 37 65 36 66 27 68 28 69 32 70 29 71 30 73 31 75
REMARK SMILES IDX 35 79
REMARK H PARENT 4 11 14 12 15 13 41 14 2 16 2 17 1 19 1 20 1 21 7 24 7 25 7 26
REMARK H PARENT 8 28 8 29 9 31 9 32 11 35 11 36 11 37 12 39 12 40 12 41 17 43
REMARK H PARENT 17 44 18 46 18 47 20 52 40 54 22 56 25 61 37 67 28 72 29 74
REMARK H PARENT 31 76 31 77 31 78 35 80 35 81
REMARK Flexibility Score: inf
ROOT
ATOM      1  C   UNL     1     -46.354  30.511  22.832  1.00  0.00     0.043 A 
ATOM      2  C   UNL     1     -47.626  29.985  22.687  1.00  0.00    -0.016 A 
ATOM      3  C   UNL     1     -48.679  30.477  23.468  1.00  0.00     0.048 A 
ATOM      4  C   UNL     1     -48.401  31.502  24.415  1.00  0.00     0.024 A 
ATOM      5  C   UNL     1     -49.346  32.078  25.298  1.00  0.00    -0.050 A 
ATOM      6  C   UNL     1     -49.001  33.099  26.184  1.00  0.00    -0.058 A 
ATOM      7  C   UNL     1     -47.694  33.576  26.218  1.00  0.00    -0.045 A 
ATOM      8  C   UNL     1     -46.750  33.000  25.359  1.00  0.00    -0.032 A 
ATOM      9  C   UNL     1     -47.071  31.979  24.473  1.00  0.00     0.073 A 
ATOM     10  N   UNL     1     -46.079  31.503  23.705  1.00  0.00    -0.253 NA
ATOM     11  H   UNL     1     -47.817  29.202  21.959  1.00  0.00     0.066 H 
ATOM     12  H   UNL     1     -50.377  31.739  25.308  1.00  0.00     0.063 H 
ATOM     13  H   UNL     1     -49.766  33.526  26.830  1.00  0.00     0.063 H 
ATOM     14  H   UNL     1     -45.721  33.356  25.373  1.00  0.00     0.065 H 
ENDROOT
BRANCH   1  15
ATOM     15  C   UNL     1     -45.217  30.020  21.976  1.00  0.00    -0.013 C 
ATOM     16  H   UNL     1     -44.411  30.763  21.964  1.00  0.00     0.033 H 
ATOM     17  H   UNL     1     -45.564  29.919  20.941  1.00  0.00     0.033 H 
BRANCH  15  18
ATOM     18  C   UNL     1     -44.687  28.681  22.464  1.00  0.00    -0.060 C 
ATOM     19  H   UNL     1     -45.236  27.847  22.014  1.00  0.00     0.023 H 
ATOM     20  H   UNL     1     -44.790  28.607  23.551  1.00  0.00     0.023 H 
ATOM     21  H   UNL     1     -43.628  28.559  22.214  1.00  0.00     0.023 H 
ENDBRANCH  15  18
ENDBRANCH   1  15
BRANCH   3  22
ATOM     22  N   UNL     1     -49.940  29.899  23.208  1.00  0.00    -0.373 N 
BRANCH  22  23
ATOM     23  C   UNL     1     -50.728  30.662  22.240  1.00  0.00     0.007 C 
ATOM     24  H   UNL     1     -50.111  31.090  21.445  1.00  0.00     0.046 H 
ATOM     25  H   UNL     1     -51.468  30.006  21.769  1.00  0.00     0.046 H 
ATOM     26  H   UNL     1     -51.284  31.470  22.728  1.00  0.00     0.046 H 
ENDBRANCH  22  23
BRANCH  22  27
ATOM     27  C   UNL     1     -49.975  28.427  23.038  1.00  0.00     0.030 C 
ATOM     28  H   UNL     1     -50.922  28.183  22.542  1.00  0.00     0.051 H 
ATOM     29  H   UNL     1     -49.181  28.076  22.372  1.00  0.00     0.051 H 
BRANCH  27  30
ATOM     30  C   UNL     1     -49.907  27.665  24.383  1.00  0.00     0.015 C 
ATOM     31  H   UNL     1     -49.793  28.377  25.212  1.00  0.00     0.045 H 
ATOM     32  H   UNL     1     -48.993  27.057  24.370  1.00  0.00     0.045 H 
BRANCH  30  33
ATOM     33  N   UNL     1     -51.056  26.763  24.621  1.00  0.00    -0.308 NA
BRANCH  33  34
ATOM     34  C   UNL     1     -51.115  26.411  26.043  1.00  0.00    -0.014 C 
ATOM     35  H   UNL     1     -52.101  26.010  26.295  1.00  0.00     0.039 H 
ATOM     36  H   UNL     1     -50.358  25.667  26.316  1.00  0.00     0.039 H 
ATOM     37  H   UNL     1     -50.967  27.300  26.666  1.00  0.00     0.039 H 
ENDBRANCH  33  34
BRANCH  33  38
ATOM     38  C   UNL     1     -52.321  27.373  24.209  1.00  0.00    -0.014 C 
ATOM     39  H   UNL     1     -52.481  28.333  24.710  1.00  0.00     0.039 H 
ATOM     40  H   UNL     1     -52.309  27.591  23.136  1.00  0.00     0.039 H 
ATOM     41  H   UNL     1     -53.180  26.725  24.417  1.00  0.00     0.039 H 
ENDBRANCH  33  38
ENDBRANCH  30  33
ENDBRANCH  27  30
ENDBRANCH  22  27
ENDBRANCH   3  22
BRANCH   7  42
ATOM     42  C   UNL     1     -47.309  34.714  27.132  1.00  0.00    -0.024 C 
ATOM     43  H   UNL     1     -48.025  34.778  27.961  1.00  0.00     0.032 H 
ATOM     44  H   UNL     1     -46.343  34.477  27.596  1.00  0.00     0.032 H 
BRANCH  42  45
ATOM     45  C   UNL     1     -47.197  36.062  26.405  1.00  0.00    -0.022 C 
ATOM     46  H   UNL     1     -48.197  36.455  26.184  1.00  0.00     0.032 H 
ATOM     47  H   UNL     1     -46.716  35.904  25.431  1.00  0.00     0.032 H 
BRANCH  45  48
ATOM     48  C   UNL     1     -46.397  37.092  27.162  1.00  0.00    -0.027 A 
ATOM     49  C   UNL     1     -45.834  36.795  28.396  1.00  0.00     0.030 A 
ATOM     50  C   UNL     1     -46.228  38.393  26.668  1.00  0.00    -0.032 A 
ATOM     51  N   UNL     1     -45.150  37.683  29.144  1.00  0.00    -0.262 NA
ATOM     52  H   UNL     1     -45.926  35.806  28.838  1.00  0.00     0.084 H 
ATOM     53  C   UNL     1     -45.520  39.346  27.412  1.00  0.00     0.066 A 
ATOM     54  H   UNL     1     -46.696  38.643  25.719  1.00  0.00     0.065 H 
ATOM     55  C   UNL     1     -45.011  38.936  28.639  1.00  0.00     0.051 A 
ATOM     56  H   UNL     1     -44.428  39.581  29.286  1.00  0.00     0.086 H 
BRANCH  53  57
ATOM     57  N   UNL     1     -45.320  40.673  26.916  1.00  0.00    -0.299 N 
ATOM     58  C   UNL     1     -46.324  41.507  26.460  1.00  0.00     0.021 A 
ATOM     59  C   UNL     1     -44.115  41.364  26.776  1.00  0.00     0.150 A 
ATOM     60  C   UNL     1     -45.769  42.674  25.980  1.00  0.00     0.033 A 
ATOM     61  H   UNL     1     -47.362  41.205  26.450  1.00  0.00     0.083 H 
ATOM     62  C   UNL     1     -44.373  42.623  26.229  1.00  0.00     0.071 A 
ATOM     63  N   UNL     1     -42.896  40.917  27.138  1.00  0.00    -0.218 NA
ATOM     64  C   UNL     1     -43.271  43.482  26.080  1.00  0.00     0.137 A 
ATOM     65  C   UNL     1     -41.925  41.812  26.922  1.00  0.00     0.120 A 
ATOM     66  N   UNL     1     -42.045  43.049  26.424  1.00  0.00    -0.219 NA
ATOM     67  H   UNL     1     -40.919  41.500  27.187  1.00  0.00     0.106 H 
BRANCH  60  68
ATOM     68  C   UNL     1     -46.514  43.756  25.343  1.00  0.00     0.095 A 
ATOM     69  C   UNL     1     -47.733  44.292  25.807  1.00  0.00    -0.016 A 
ATOM     70  N   UNL     1     -46.067  44.400  24.259  1.00  0.00    -0.173 NA
ATOM     71  C   UNL     1     -48.034  45.304  24.924  1.00  0.00     0.025 A 
ATOM     72  H   UNL     1     -48.312  43.991  26.670  1.00  0.00     0.066 H 
ATOM     73  N   UNL     1     -47.008  45.332  24.027  1.00  0.00    -0.275 N 
ATOM     74  H   UNL     1     -48.863  45.994  24.873  1.00  0.00     0.084 H 
BRANCH  73  75
ATOM     75  C   UNL     1     -46.850  46.235  22.912  1.00  0.00     0.030 C 
ATOM     76  H   UNL     1     -45.902  46.769  23.009  1.00  0.00     0.048 H 
ATOM     77  H   UNL     1     -47.681  46.944  22.923  1.00  0.00     0.048 H 
ATOM     78  H   UNL     1     -46.856  45.648  21.991  1.00  0.00     0.048 H 
ENDBRANCH  73  75
ENDBRANCH  60  68
BRANCH  64  79
ATOM     79  N   UNL     1     -43.346  44.797  25.635  1.00  0.00    -0.383 N 
ATOM     80  H   UNL     1     -43.187  44.820  24.632  1.00  0.00     0.158 HD
ATOM     81  H   UNL     1     -42.776  45.438  26.173  1.00  0.00     0.158 HD
ENDBRANCH  64  79
ENDBRANCH  53  57
ENDBRANCH  45  48
ENDBRANCH  42  45
ENDBRANCH   7  42
TORSDOF 16
ENDMDL
MODEL 6
REMARK VINA RESULT:      -8.5      1.820      3.075
REMARK SMILES CCc1cc(N(C)CCN(C)C)c2ccc(CCc3cncc(-n4cc(-c5ccn(C)n5)c5c(N)ncnc54)c3)cc2n1
REMARK SMILES IDX 3 1 4 2 5 3 13 4 14 5 15 6 16 7 41 8 42 9 43 10 2 15 1 18
REMARK SMILES IDX 6 22 7 23 8 27 9 30 10 33 11 34 12 38 17 42 18 45 19 48
REMARK SMILES IDX 20 49 40 50 21 51 23 53 22 55 24 57 25 58 39 59 26 60 33 62
REMARK SMILES IDX 38 63 34 64 37 65 36 66 27 68 28 69 32 70 29 71 30 73 31 75
REMARK SMILES IDX 35 79
REMARK H PARENT 4 11 14 12 15 13 41 14 2 16 2 17 1 19 1 20 1 21 7 24 7 25 7 26
REMARK H PARENT 8 28 8 29 9 31 9 32 11 35 11 36 11 37 12 39 12 40 12 41 17 43
REMARK H PARENT 17 44 18 46 18 47 20 52 40 54 22 56 25 61 37 67 28 72 29 74
REMARK H PARENT 31 76 31 77 31 78 35 80 35 81
REMARK Flexibility Score: inf
ROOT
ATOM      1  C   UNL     1     -48.282  30.277  21.897  1.00  0.00     0.043 A 
ATOM      2  C   UNL     1     -48.899  29.321  22.685  1.00  0.00    -0.016 A 
ATOM      3  C   UNL     1     -48.944  29.485  24.075  1.00  0.00     0.048 A 
ATOM      4  C   UNL     1     -48.327  30.633  24.644  1.00  0.00     0.024 A 
ATOM      5  C   UNL     1     -48.258  30.924  26.029  1.00  0.00    -0.050 A 
ATOM      6  C   UNL     1     -47.654  32.087  26.509  1.00  0.00    -0.058 A 
ATOM      7  C   UNL     1     -47.095  32.998  25.617  1.00  0.00    -0.045 A 
ATOM      8  C   UNL     1     -47.145  32.709  24.248  1.00  0.00    -0.032 A 
ATOM      9  C   UNL     1     -47.737  31.555  23.748  1.00  0.00     0.073 A 
ATOM     10  N   UNL     1     -47.717  31.386  22.417  1.00  0.00    -0.253 NA
ATOM     11  H   UNL     1     -49.364  28.450  22.232  1.00  0.00     0.066 H 
ATOM     12  H   UNL     1     -48.679  30.244  26.762  1.00  0.00     0.063 H 
ATOM     13  H   UNL     1     -47.642  32.278  27.580  1.00  0.00     0.063 H 
ATOM     14  H   UNL     1     -46.711  33.407  23.533  1.00  0.00     0.065 H 
ENDROOT
BRANCH   1  15
ATOM     15  C   UNL     1     -48.256  30.136  20.398  1.00  0.00    -0.013 C 
ATOM     16  H   UNL     1     -47.312  29.677  20.083  1.00  0.00     0.033 H 
ATOM     17  H   UNL     1     -48.287  31.132  19.942  1.00  0.00     0.033 H 
BRANCH  15  18
ATOM     18  C   UNL     1     -49.431  29.313  19.894  1.00  0.00    -0.060 C 
ATOM     19  H   UNL     1     -49.268  28.972  18.866  1.00  0.00     0.023 H 
ATOM     20  H   UNL     1     -50.347  29.911  19.912  1.00  0.00     0.023 H 
ATOM     21  H   UNL     1     -49.592  28.427  20.519  1.00  0.00     0.023 H 
ENDBRANCH  15  18
ENDBRANCH   1  15
BRANCH   3  22
ATOM     22  N   UNL     1     -49.634  28.472  24.777  1.00  0.00    -0.373 N 
BRANCH  22  23
ATOM     23  C   UNL     1     -51.044  28.378  24.400  1.00  0.00     0.007 C 
ATOM     24  H   UNL     1     -51.207  28.584  23.339  1.00  0.00     0.046 H 
ATOM     25  H   UNL     1     -51.412  27.365  24.603  1.00  0.00     0.046 H 
ATOM     26  H   UNL     1     -51.660  29.065  24.991  1.00  0.00     0.046 H 
ENDBRANCH  22  23
BRANCH  22  27
ATOM     27  C   UNL     1     -48.930  27.178  24.941  1.00  0.00     0.030 C 
ATOM     28  H   UNL     1     -49.634  26.390  24.650  1.00  0.00     0.051 H 
ATOM     29  H   UNL     1     -48.076  27.091  24.262  1.00  0.00     0.051 H 
BRANCH  27  30
ATOM     30  C   UNL     1     -48.472  26.923  26.397  1.00  0.00     0.015 C 
ATOM     31  H   UNL     1     -49.246  26.367  26.942  1.00  0.00     0.045 H 
ATOM     32  H   UNL     1     -48.386  27.901  26.890  1.00  0.00     0.045 H 
BRANCH  30  33
ATOM     33  N   UNL     1     -47.163  26.240  26.502  1.00  0.00    -0.308 NA
BRANCH  33  34
ATOM     34  C   UNL     1     -47.375  24.831  26.849  1.00  0.00    -0.014 C 
ATOM     35  H   UNL     1     -47.140  24.190  25.994  1.00  0.00     0.039 H 
ATOM     36  H   UNL     1     -46.755  24.517  27.697  1.00  0.00     0.039 H 
ATOM     37  H   UNL     1     -48.425  24.650  27.102  1.00  0.00     0.039 H 
ENDBRANCH  33  34
BRANCH  33  38
ATOM     38  C   UNL     1     -46.398  26.333  25.258  1.00  0.00    -0.014 C 
ATOM     39  H   UNL     1     -46.841  25.716  24.471  1.00  0.00     0.039 H 
ATOM     40  H   UNL     1     -46.410  27.361  24.878  1.00  0.00     0.039 H 
ATOM     41  H   UNL     1     -45.353  26.030  25.390  1.00  0.00     0.039 H 
ENDBRANCH  33  38
ENDBRANCH  30  33
ENDBRANCH  27  30
ENDBRANCH  22  27
ENDBRANCH   3  22
BRANCH   7  42
ATOM     42  C   UNL     1     -46.482  34.287  26.109  1.00  0.00    -0.024 C 
ATOM     43  H   UNL     1     -45.681  34.597  25.425  1.00  0.00     0.032 H 
ATOM     44  H   UNL     1     -47.240  35.078  26.053  1.00  0.00     0.032 H 
BRANCH  42  45
ATOM     45  C   UNL     1     -45.960  34.196  27.550  1.00  0.00    -0.022 C 
ATOM     46  H   UNL     1     -44.947  33.774  27.559  1.00  0.00     0.032 H 
ATOM     47  H   UNL     1     -46.583  33.488  28.112  1.00  0.00     0.032 H 
BRANCH  45  48
ATOM     48  C   UNL     1     -45.972  35.515  28.281  1.00  0.00    -0.027 A 
ATOM     49  C   UNL     1     -46.111  35.567  29.661  1.00  0.00     0.030 A 
ATOM     50  C   UNL     1     -45.884  36.732  27.592  1.00  0.00    -0.032 A 
ATOM     51  N   UNL     1     -46.177  36.712  30.369  1.00  0.00    -0.262 NA
ATOM     52  H   UNL     1     -46.184  34.661  30.259  1.00  0.00     0.084 H 
ATOM     53  C   UNL     1     -45.944  37.946  28.289  1.00  0.00     0.066 A 
ATOM     54  H   UNL     1     -45.810  36.700  26.508  1.00  0.00     0.065 H 
ATOM     55  C   UNL     1     -46.097  37.873  29.669  1.00  0.00     0.051 A 
ATOM     56  H   UNL     1     -46.131  38.746  30.310  1.00  0.00     0.086 H 
BRANCH  53  57
ATOM     57  N   UNL     1     -45.836  39.198  27.606  1.00  0.00    -0.299 N 
ATOM     58  C   UNL     1     -44.660  39.730  27.110  1.00  0.00     0.021 A 
ATOM     59  C   UNL     1     -46.852  40.115  27.327  1.00  0.00     0.150 A 
ATOM     60  C   UNL     1     -44.907  40.982  26.588  1.00  0.00     0.033 A 
ATOM     61  H   UNL     1     -43.713  39.219  27.205  1.00  0.00     0.083 H 
ATOM     62  C   UNL     1     -46.304  41.215  26.665  1.00  0.00     0.071 A 
ATOM     63  N   UNL     1     -48.161  39.961  27.613  1.00  0.00    -0.218 NA
ATOM     64  C   UNL     1     -47.204  42.211  26.248  1.00  0.00     0.137 A 
ATOM     65  C   UNL     1     -48.912  40.986  27.194  1.00  0.00     0.120 A 
ATOM     66  N   UNL     1     -48.511  42.082  26.535  1.00  0.00    -0.219 NA
ATOM     67  H   UNL     1     -49.975  40.919  27.407  1.00  0.00     0.106 H 
BRANCH  60  68
ATOM     68  C   UNL     1     -43.889  41.880  26.050  1.00  0.00     0.095 A 
ATOM     69  C   UNL     1     -42.679  42.222  26.690  1.00  0.00    -0.016 A 
ATOM     70  N   UNL     1     -43.984  42.434  24.836  1.00  0.00    -0.173 NA
ATOM     71  C   UNL     1     -42.031  43.049  25.802  1.00  0.00     0.025 A 
ATOM     72  H   UNL     1     -42.323  41.904  27.661  1.00  0.00     0.066 H 
ATOM     73  N   UNL     1     -42.845  43.138  24.712  1.00  0.00    -0.275 N 
ATOM     74  H   UNL     1     -41.077  43.555  25.853  1.00  0.00     0.084 H 
BRANCH  73  75
ATOM     75  C   UNL     1     -42.597  43.877  23.498  1.00  0.00     0.030 C 
ATOM     76  H   UNL     1     -43.463  43.790  22.838  1.00  0.00     0.048 H 
ATOM     77  H   UNL     1     -41.713  43.457  23.013  1.00  0.00     0.048 H 
ATOM     78  H   UNL     1     -42.431  44.924  23.761  1.00  0.00     0.048 H 
ENDBRANCH  73  75
ENDBRANCH  60  68
BRANCH  64  79
ATOM     79  N   UNL     1     -46.855  43.333  25.504  1.00  0.00    -0.383 N 
ATOM     80  H   UNL     1     -46.093  43.094  24.877  1.00  0.00     0.158 HD
ATOM     81  H   UNL     1     -46.701  44.159  26.069  1.00  0.00     0.158 HD
ENDBRANCH  64  79
ENDBRANCH  53  57
ENDBRANCH  45  48
ENDBRANCH  42  45
ENDBRANCH   7  42
TORSDOF 16
ENDMDL
MODEL 7
REMARK VINA RESULT:      -8.0      2.385     13.009
REMARK SMILES CCc1cc(N(C)CCN(C)C)c2ccc(CCc3cncc(-n4cc(-c5ccn(C)n5)c5c(N)ncnc54)c3)cc2n1
REMARK SMILES IDX 3 1 4 2 5 3 13 4 14 5 15 6 16 7 41 8 42 9 43 10 2 15 1 18
REMARK SMILES IDX 6 22 7 23 8 27 9 30 10 33 11 34 12 38 17 42 18 45 19 48
REMARK SMILES IDX 20 49 40 50 21 51 23 53 22 55 24 57 25 58 39 59 26 60 33 62
REMARK SMILES IDX 38 63 34 64 37 65 36 66 27 68 28 69 32 70 29 71 30 73 31 75
REMARK SMILES IDX 35 79
REMARK H PARENT 4 11 14 12 15 13 41 14 2 16 2 17 1 19 1 20 1 21 7 24 7 25 7 26
REMARK H PARENT 8 28 8 29 9 31 9 32 11 35 11 36 11 37 12 39 12 40 12 41 17 43
REMARK H PARENT 17 44 18 46 18 47 20 52 40 54 22 56 25 61 37 67 28 72 29 74
REMARK H PARENT 31 76 31 77 31 78 35 80 35 81
REMARK Flexibility Score: inf
ROOT
ATOM      1  C   UNL     1     -45.506  41.642  26.078  1.00  0.00     0.043 A 
ATOM      2  C   UNL     1     -46.552  42.542  26.190  1.00  0.00    -0.016 A 
ATOM      3  C   UNL     1     -47.785  42.119  26.701  1.00  0.00     0.048 A 
ATOM      4  C   UNL     1     -47.934  40.755  27.075  1.00  0.00     0.024 A 
ATOM      5  C   UNL     1     -49.123  40.167  27.574  1.00  0.00    -0.050 A 
ATOM      6  C   UNL     1     -49.183  38.823  27.942  1.00  0.00    -0.058 A 
ATOM      7  C   UNL     1     -48.054  38.018  27.819  1.00  0.00    -0.045 A 
ATOM      8  C   UNL     1     -46.880  38.588  27.311  1.00  0.00    -0.032 A 
ATOM      9  C   UNL     1     -46.799  39.923  26.934  1.00  0.00     0.073 A 
ATOM     10  N   UNL     1     -45.621  40.351  26.455  1.00  0.00    -0.253 NA
ATOM     11  H   UNL     1     -46.418  43.579  25.898  1.00  0.00     0.066 H 
ATOM     12  H   UNL     1     -50.028  40.755  27.687  1.00  0.00     0.063 H 
ATOM     13  H   UNL     1     -50.113  38.420  28.339  1.00  0.00     0.063 H 
ATOM     14  H   UNL     1     -45.986  37.975  27.204  1.00  0.00     0.065 H 
ENDROOT
BRANCH   1  15
ATOM     15  C   UNL     1     -44.162  42.087  25.566  1.00  0.00    -0.013 C 
ATOM     16  H   UNL     1     -43.443  41.263  25.642  1.00  0.00     0.033 H 
ATOM     17  H   UNL     1     -43.782  42.893  26.204  1.00  0.00     0.033 H 
BRANCH  15  18
ATOM     18  C   UNL     1     -44.246  42.577  24.129  1.00  0.00    -0.060 C 
ATOM     19  H   UNL     1     -43.897  43.611  24.039  1.00  0.00     0.023 H 
ATOM     20  H   UNL     1     -45.281  42.536  23.775  1.00  0.00     0.023 H 
ATOM     21  H   UNL     1     -43.635  41.958  23.463  1.00  0.00     0.023 H 
ENDBRANCH  15  18
ENDBRANCH   1  15
BRANCH   3  22
ATOM     22  N   UNL     1     -48.767  43.128  26.810  1.00  0.00    -0.373 N 
BRANCH  22  23
ATOM     23  C   UNL     1     -48.204  44.439  27.130  1.00  0.00     0.007 C 
ATOM     24  H   UNL     1     -47.742  44.464  28.121  1.00  0.00     0.046 H 
ATOM     25  H   UNL     1     -47.431  44.696  26.397  1.00  0.00     0.046 H 
ATOM     26  H   UNL     1     -48.967  45.224  27.077  1.00  0.00     0.046 H 
ENDBRANCH  22  23
BRANCH  22  27
ATOM     27  C   UNL     1     -49.837  43.128  25.785  1.00  0.00     0.030 C 
ATOM     28  H   UNL     1     -49.808  42.151  25.289  1.00  0.00     0.051 H 
ATOM     29  H   UNL     1     -50.832  43.213  26.235  1.00  0.00     0.051 H 
BRANCH  27  30
ATOM     30  C   UNL     1     -49.647  44.234  24.719  1.00  0.00     0.015 C 
ATOM     31  H   UNL     1     -48.581  44.347  24.482  1.00  0.00     0.045 H 
ATOM     32  H   UNL     1     -49.967  45.183  25.170  1.00  0.00     0.045 H 
BRANCH  30  33
ATOM     33  N   UNL     1     -50.439  44.021  23.486  1.00  0.00    -0.308 NA
BRANCH  33  34
ATOM     34  C   UNL     1     -51.554  43.113  23.773  1.00  0.00    -0.014 C 
ATOM     35  H   UNL     1     -51.567  42.851  24.836  1.00  0.00     0.039 H 
ATOM     36  H   UNL     1     -52.523  43.555  23.514  1.00  0.00     0.039 H 
ATOM     37  H   UNL     1     -51.441  42.176  23.218  1.00  0.00     0.039 H 
ENDBRANCH  33  34
BRANCH  33  38
ATOM     38  C   UNL     1     -50.952  45.279  22.945  1.00  0.00    -0.014 C 
ATOM     39  H   UNL     1     -51.458  45.123  21.987  1.00  0.00     0.039 H 
ATOM     40  H   UNL     1     -51.703  45.707  23.617  1.00  0.00     0.039 H 
ATOM     41  H   UNL     1     -50.159  46.022  22.801  1.00  0.00     0.039 H 
ENDBRANCH  33  38
ENDBRANCH  30  33
ENDBRANCH  27  30
ENDBRANCH  22  27
ENDBRANCH   3  22
BRANCH   7  42
ATOM     42  C   UNL     1     -48.081  36.574  28.259  1.00  0.00    -0.024 C 
ATOM     43  H   UNL     1     -47.055  36.188  28.315  1.00  0.00     0.032 H 
ATOM     44  H   UNL     1     -48.469  36.529  29.284  1.00  0.00     0.032 H 
BRANCH  42  45
ATOM     45  C   UNL     1     -48.947  35.684  27.356  1.00  0.00    -0.022 C 
ATOM     46  H   UNL     1     -49.543  36.304  26.674  1.00  0.00     0.032 H 
ATOM     47  H   UNL     1     -49.672  35.144  27.978  1.00  0.00     0.032 H 
BRANCH  45  48
ATOM     48  C   UNL     1     -48.156  34.670  26.569  1.00  0.00    -0.027 A 
ATOM     49  C   UNL     1     -46.862  34.944  26.148  1.00  0.00     0.030 A 
ATOM     50  C   UNL     1     -48.711  33.437  26.202  1.00  0.00    -0.032 A 
ATOM     51  N   UNL     1     -46.119  34.101  25.402  1.00  0.00    -0.262 NA
ATOM     52  H   UNL     1     -46.370  35.881  26.398  1.00  0.00     0.084 H 
ATOM     53  C   UNL     1     -47.972  32.530  25.430  1.00  0.00     0.066 A 
ATOM     54  H   UNL     1     -49.736  33.230  26.498  1.00  0.00     0.065 H 
ATOM     55  C   UNL     1     -46.690  32.918  25.057  1.00  0.00     0.051 A 
ATOM     56  H   UNL     1     -46.021  32.288  24.482  1.00  0.00     0.086 H 
BRANCH  53  57
ATOM     57  N   UNL     1     -48.513  31.258  25.062  1.00  0.00    -0.299 N 
ATOM     58  C   UNL     1     -48.446  30.115  25.837  1.00  0.00     0.021 A 
ATOM     59  C   UNL     1     -49.177  30.917  23.882  1.00  0.00     0.150 A 
ATOM     60  C   UNL     1     -48.993  29.057  25.144  1.00  0.00     0.033 A 
ATOM     61  H   UNL     1     -47.968  30.105  26.806  1.00  0.00     0.083 H 
ATOM     62  C   UNL     1     -49.516  29.563  23.925  1.00  0.00     0.071 A 
ATOM     63  N   UNL     1     -49.482  31.755  22.871  1.00  0.00    -0.218 NA
ATOM     64  C   UNL     1     -50.253  29.063  22.838  1.00  0.00     0.137 A 
ATOM     65  C   UNL     1     -50.158  31.159  21.883  1.00  0.00     0.120 A 
ATOM     66  N   UNL     1     -50.556  29.881  21.814  1.00  0.00    -0.219 NA
ATOM     67  H   UNL     1     -50.421  31.786  21.036  1.00  0.00     0.106 H 
BRANCH  60  68
ATOM     68  C   UNL     1     -49.023  27.674  25.612  1.00  0.00     0.095 A 
ATOM     69  C   UNL     1     -50.188  26.909  25.826  1.00  0.00    -0.016 A 
ATOM     70  N   UNL     1     -47.911  26.963  25.831  1.00  0.00    -0.173 NA
ATOM     71  C   UNL     1     -49.731  25.671  26.220  1.00  0.00     0.025 A 
ATOM     72  H   UNL     1     -51.219  27.211  25.705  1.00  0.00     0.066 H 
ATOM     73  N   UNL     1     -48.370  25.753  26.199  1.00  0.00    -0.275 N 
ATOM     74  H   UNL     1     -50.250  24.763  26.490  1.00  0.00     0.084 H 
BRANCH  73  75
ATOM     75  C   UNL     1     -47.430  24.706  26.515  1.00  0.00     0.030 C 
ATOM     76  H   UNL     1     -47.969  23.768  26.667  1.00  0.00     0.048 H 
ATOM     77  H   UNL     1     -46.898  24.983  27.428  1.00  0.00     0.048 H 
ATOM     78  H   UNL     1     -46.733  24.604  25.679  1.00  0.00     0.048 H 
ENDBRANCH  73  75
ENDBRANCH  60  68
BRANCH  64  79
ATOM     79  N   UNL     1     -50.750  27.768  22.746  1.00  0.00    -0.383 N 
ATOM     80  H   UNL     1     -51.477  27.638  23.442  1.00  0.00     0.158 HD
ATOM     81  H   UNL     1     -50.027  27.058  22.746  1.00  0.00     0.158 HD
ENDBRANCH  64  79
ENDBRANCH  53  57
ENDBRANCH  45  48
ENDBRANCH  42  45
ENDBRANCH   7  42
TORSDOF 16
ENDMDL
