MODEL 1
REMARK VINA RESULT:      -9.7      0.000      0.000
REMARK SMILES CCc1cc(N(C)C2CC2)c2ccc(OC[C@H]3O[C@@H](n4cc(-c5ccn(C)n5)c5c(N)ncnc54)[C@@H](F)[C@@H]3O)cc2n1
REMARK SMILES IDX 16 1 15 4 14 5 3 6 4 7 42 8 5 9 41 11 11 12 40 13 12 14
REMARK SMILES IDX 13 16 2 19 1 22 6 26 7 27 8 31 9 32 10 33 17 39 18 40 38 41
REMARK SMILES IDX 19 43 36 44 37 47 39 49 20 51 21 52 35 53 22 54 29 56 34 57
REMARK SMILES IDX 30 58 33 59 32 60 23 62 24 63 28 64 25 65 26 67 27 69 31 73
REMARK H PARENT 16 2 16 3 4 10 40 15 12 17 13 18 2 20 2 21 1 23 1 24 1 25 7 28
REMARK H PARENT 7 29 7 30 8 34 9 35 9 36 10 37 10 38 17 42 38 45 19 46 36 48
REMARK H PARENT 39 50 21 55 33 61 24 66 25 68 27 70 27 71 27 72 31 74 31 75
REMARK Flexibility Score: inf
ROOT
ATOM      1  C   UNL     1     -46.414  35.682  26.673  1.00  0.00     0.117 C 
ATOM      2  H   UNL     1     -45.779  35.179  25.939  1.00  0.00     0.073 H 
ATOM      3  H   UNL     1     -46.599  36.684  26.268  1.00  0.00     0.073 H 
ENDROOT
BRANCH   1   4
ATOM      4  O   UNL     1     -47.702  35.079  26.816  1.00  0.00    -0.491 OA
BRANCH   4   5
ATOM      5  C   UNL     1     -47.954  33.873  26.228  1.00  0.00     0.121 A 
ATOM      6  C   UNL     1     -46.424  31.007  22.739  1.00  0.00     0.043 A 
ATOM      7  C   UNL     1     -47.381  30.040  23.007  1.00  0.00    -0.016 A 
ATOM      8  N   UNL     1     -46.330  32.154  23.449  1.00  0.00    -0.253 NA
ATOM      9  C   UNL     1     -48.282  30.242  24.057  1.00  0.00     0.048 A 
ATOM     10  H   UNL     1     -47.411  29.131  22.417  1.00  0.00     0.066 H 
ATOM     11  C   UNL     1     -47.197  32.369  24.452  1.00  0.00     0.076 A 
ATOM     12  C   UNL     1     -48.205  31.448  24.801  1.00  0.00     0.024 A 
ATOM     13  C   UNL     1     -47.095  33.553  25.171  1.00  0.00     0.007 A 
ATOM     14  C   UNL     1     -49.089  31.782  25.852  1.00  0.00    -0.047 A 
ATOM     15  H   UNL     1     -46.313  34.259  24.895  1.00  0.00     0.069 H 
ATOM     16  C   UNL     1     -48.961  32.979  26.561  1.00  0.00    -0.019 A 
ATOM     17  H   UNL     1     -49.903  31.106  26.113  1.00  0.00     0.063 H 
ATOM     18  H   UNL     1     -49.684  33.177  27.343  1.00  0.00     0.066 H 
BRANCH   6  19
ATOM     19  C   UNL     1     -45.449  30.827  21.606  1.00  0.00    -0.013 C 
ATOM     20  H   UNL     1     -45.373  29.765  21.344  1.00  0.00     0.033 H 
ATOM     21  H   UNL     1     -44.451  31.138  21.937  1.00  0.00     0.033 H 
BRANCH  19  22
ATOM     22  C   UNL     1     -45.853  31.639  20.386  1.00  0.00    -0.060 C 
ATOM     23  H   UNL     1     -45.378  31.256  19.477  1.00  0.00     0.023 H 
ATOM     24  H   UNL     1     -45.553  32.685  20.511  1.00  0.00     0.023 H 
ATOM     25  H   UNL     1     -46.937  31.613  20.233  1.00  0.00     0.023 H 
ENDBRANCH  19  22
ENDBRANCH   6  19
BRANCH   9  26
ATOM     26  N   UNL     1     -49.257  29.239  24.380  1.00  0.00    -0.371 N 
BRANCH  26  27
ATOM     27  C   UNL     1     -48.572  28.016  24.816  1.00  0.00     0.007 C 
ATOM     28  H   UNL     1     -48.048  27.531  23.984  1.00  0.00     0.046 H 
ATOM     29  H   UNL     1     -47.841  28.213  25.608  1.00  0.00     0.046 H 
ATOM     30  H   UNL     1     -49.289  27.302  25.236  1.00  0.00     0.046 H 
ENDBRANCH  26  27
BRANCH  26  31
ATOM     31  C   UNL     1     -50.409  29.102  23.455  1.00  0.00     0.029 C 
ATOM     32  C   UNL     1     -51.698  28.418  23.813  1.00  0.00    -0.031 C 
ATOM     33  C   UNL     1     -51.673  29.904  23.594  1.00  0.00    -0.031 C 
ATOM     34  H   UNL     1     -50.064  28.990  22.426  1.00  0.00     0.053 H 
ATOM     35  H   UNL     1     -52.165  27.800  23.055  1.00  0.00     0.029 H 
ATOM     36  H   UNL     1     -51.846  28.056  24.823  1.00  0.00     0.029 H 
ATOM     37  H   UNL     1     -51.800  30.552  24.450  1.00  0.00     0.029 H 
ATOM     38  H   UNL     1     -52.127  30.287  22.687  1.00  0.00     0.029 H 
ENDBRANCH  26  31
ENDBRANCH   9  26
ENDBRANCH   4   5
ENDBRANCH   1   4
BRANCH   1  39
ATOM     39  C   UNL     1     -45.732  35.830  28.043  1.00  0.00     0.123 C 
ATOM     40  O   UNL     1     -44.719  36.861  27.983  1.00  0.00    -0.345 OA
ATOM     41  C   UNL     1     -46.729  36.248  29.129  1.00  0.00     0.119 C 
ATOM     42  H   UNL     1     -45.218  34.897  28.301  1.00  0.00     0.067 H 
ATOM     43  C   UNL     1     -45.109  37.934  28.872  1.00  0.00     0.169 C 
ATOM     44  C   UNL     1     -46.601  37.754  29.123  1.00  0.00     0.173 C 
ATOM     45  H   UNL     1     -47.744  35.895  28.921  1.00  0.00     0.066 H 
ATOM     46  H   UNL     1     -44.531  37.810  29.796  1.00  0.00     0.088 H 
ATOM     47  F   UNL     1     -47.340  38.233  28.082  1.00  0.00    -0.239 F 
ATOM     48  H   UNL     1     -46.945  38.229  30.045  1.00  0.00     0.074 H 
BRANCH  41  49
ATOM     49  O   UNL     1     -46.332  35.724  30.401  1.00  0.00    -0.387 OA
ATOM     50  H   UNL     1     -46.790  36.233  31.094  1.00  0.00     0.211 HD
ENDBRANCH  41  49
BRANCH  43  51
ATOM     51  N   UNL     1     -44.722  39.215  28.302  1.00  0.00    -0.302 N 
ATOM     52  C   UNL     1     -45.257  39.807  27.187  1.00  0.00     0.019 A 
ATOM     53  C   UNL     1     -43.698  39.995  28.780  1.00  0.00     0.148 A 
ATOM     54  C   UNL     1     -44.641  41.031  27.007  1.00  0.00     0.033 A 
ATOM     55  H   UNL     1     -46.051  39.325  26.630  1.00  0.00     0.083 H 
ATOM     56  C   UNL     1     -43.618  41.144  27.998  1.00  0.00     0.071 A 
ATOM     57  N   UNL     1     -42.920  39.681  29.832  1.00  0.00    -0.218 NA
ATOM     58  C   UNL     1     -42.614  42.063  28.354  1.00  0.00     0.137 A 
ATOM     59  C   UNL     1     -42.020  40.646  30.083  1.00  0.00     0.120 A 
ATOM     60  N   UNL     1     -41.833  41.801  29.424  1.00  0.00    -0.219 NA
ATOM     61  H   UNL     1     -41.358  40.473  30.926  1.00  0.00     0.106 H 
BRANCH  54  62
ATOM     62  C   UNL     1     -44.984  42.020  25.981  1.00  0.00     0.095 A 
ATOM     63  C   UNL     1     -46.164  42.799  25.989  1.00  0.00    -0.016 A 
ATOM     64  N   UNL     1     -44.196  42.327  24.941  1.00  0.00    -0.173 NA
ATOM     65  C   UNL     1     -46.071  43.598  24.874  1.00  0.00     0.025 A 
ATOM     66  H   UNL     1     -46.973  42.785  26.705  1.00  0.00     0.066 H 
ATOM     67  N   UNL     1     -44.881  43.286  24.290  1.00  0.00    -0.275 N 
ATOM     68  H   UNL     1     -46.734  44.351  24.471  1.00  0.00     0.084 H 
BRANCH  67  69
ATOM     69  C   UNL     1     -44.323  43.872  23.096  1.00  0.00     0.030 C 
ATOM     70  H   UNL     1     -45.138  44.058  22.392  1.00  0.00     0.048 H 
ATOM     71  H   UNL     1     -43.827  44.812  23.349  1.00  0.00     0.048 H 
ATOM     72  H   UNL     1     -43.602  43.169  22.673  1.00  0.00     0.048 H 
ENDBRANCH  67  69
ENDBRANCH  54  62
BRANCH  58  73
ATOM     73  N   UNL     1     -42.361  43.241  27.669  1.00  0.00    -0.383 N 
ATOM     74  H   UNL     1     -41.436  43.250  27.263  1.00  0.00     0.158 HD
ATOM     75  H   UNL     1     -42.647  44.070  28.200  1.00  0.00     0.158 HD
ENDBRANCH  58  73
ENDBRANCH  43  51
ENDBRANCH   1  39
TORSDOF 13
ENDMDL
MODEL 2
REMARK VINA RESULT:      -9.4      1.223      2.655
REMARK SMILES CCc1cc(N(C)C2CC2)c2ccc(OC[C@H]3O[C@@H](n4cc(-c5ccn(C)n5)c5c(N)ncnc54)[C@@H](F)[C@@H]3O)cc2n1
REMARK SMILES IDX 16 1 15 4 14 5 3 6 4 7 42 8 5 9 41 11 11 12 40 13 12 14
REMARK SMILES IDX 13 16 2 19 1 22 6 26 7 27 8 31 9 32 10 33 17 39 18 40 38 41
REMARK SMILES IDX 19 43 36 44 37 47 39 49 20 51 21 52 35 53 22 54 29 56 34 57
REMARK SMILES IDX 30 58 33 59 32 60 23 62 24 63 28 64 25 65 26 67 27 69 31 73
REMARK H PARENT 16 2 16 3 4 10 40 15 12 17 13 18 2 20 2 21 1 23 1 24 1 25 7 28
REMARK H PARENT 7 29 7 30 8 34 9 35 9 36 10 37 10 38 17 42 38 45 19 46 36 48
REMARK H PARENT 39 50 21 55 33 61 24 66 25 68 27 70 27 71 27 72 31 74 31 75
REMARK Flexibility Score: inf
ROOT
ATOM      1  C   UNL     1     -46.470  35.730  26.778  1.00  0.00     0.117 C 
ATOM      2  H   UNL     1     -45.761  35.537  25.970  1.00  0.00     0.073 H 
ATOM      3  H   UNL     1     -46.943  36.689  26.537  1.00  0.00     0.073 H 
ENDROOT
BRANCH   1   4
ATOM      4  O   UNL     1     -47.535  34.778  26.836  1.00  0.00    -0.491 OA
BRANCH   4   5
ATOM      5  C   UNL     1     -47.442  33.615  26.128  1.00  0.00     0.121 A 
ATOM      6  C   UNL     1     -50.117  30.325  23.950  1.00  0.00     0.043 A 
ATOM      7  C   UNL     1     -49.017  29.576  23.559  1.00  0.00    -0.016 A 
ATOM      8  N   UNL     1     -50.002  31.473  24.654  1.00  0.00    -0.253 NA
ATOM      9  C   UNL     1     -47.734  30.021  23.891  1.00  0.00     0.048 A 
ATOM     10  H   UNL     1     -49.158  28.666  22.986  1.00  0.00     0.066 H 
ATOM     11  C   UNL     1     -48.776  31.906  24.994  1.00  0.00     0.076 A 
ATOM     12  C   UNL     1     -47.599  31.216  24.645  1.00  0.00     0.024 A 
ATOM     13  C   UNL     1     -48.671  33.084  25.722  1.00  0.00     0.007 A 
ATOM     14  C   UNL     1     -46.358  31.737  25.077  1.00  0.00    -0.047 A 
ATOM     15  H   UNL     1     -49.586  33.611  25.987  1.00  0.00     0.069 H 
ATOM     16  C   UNL     1     -46.281  32.927  25.806  1.00  0.00    -0.019 A 
ATOM     17  H   UNL     1     -45.437  31.200  24.857  1.00  0.00     0.063 H 
ATOM     18  H   UNL     1     -45.298  33.259  26.119  1.00  0.00     0.066 H 
BRANCH   6  19
ATOM     19  C   UNL     1     -51.512  29.865  23.621  1.00  0.00    -0.013 C 
ATOM     20  H   UNL     1     -51.923  29.290  24.459  1.00  0.00     0.033 H 
ATOM     21  H   UNL     1     -51.473  29.181  22.764  1.00  0.00     0.033 H 
BRANCH  19  22
ATOM     22  C   UNL     1     -52.424  31.036  23.292  1.00  0.00    -0.060 C 
ATOM     23  H   UNL     1     -52.400  31.271  22.222  1.00  0.00     0.023 H 
ATOM     24  H   UNL     1     -52.110  31.928  23.843  1.00  0.00     0.023 H 
ATOM     25  H   UNL     1     -53.463  30.817  23.562  1.00  0.00     0.023 H 
ENDBRANCH  19  22
ENDBRANCH   6  19
BRANCH   9  26
ATOM     26  N   UNL     1     -46.577  29.284  23.467  1.00  0.00    -0.371 N 
BRANCH  26  27
ATOM     27  C   UNL     1     -46.035  29.892  22.245  1.00  0.00     0.007 C 
ATOM     28  H   UNL     1     -45.595  29.137  21.583  1.00  0.00     0.046 H 
ATOM     29  H   UNL     1     -46.801  30.434  21.679  1.00  0.00     0.046 H 
ATOM     30  H   UNL     1     -45.262  30.627  22.491  1.00  0.00     0.046 H 
ENDBRANCH  26  27
BRANCH  26  31
ATOM     31  C   UNL     1     -46.663  27.804  23.531  1.00  0.00     0.029 C 
ATOM     32  C   UNL     1     -45.469  26.892  23.537  1.00  0.00    -0.031 C 
ATOM     33  C   UNL     1     -46.323  27.016  24.766  1.00  0.00    -0.031 C 
ATOM     34  H   UNL     1     -47.550  27.448  23.006  1.00  0.00     0.053 H 
ATOM     35  H   UNL     1     -45.536  25.977  22.961  1.00  0.00     0.029 H 
ATOM     36  H   UNL     1     -44.474  27.318  23.565  1.00  0.00     0.029 H 
ATOM     37  H   UNL     1     -45.914  27.526  25.627  1.00  0.00     0.029 H 
ATOM     38  H   UNL     1     -46.964  26.180  25.020  1.00  0.00     0.029 H 
ENDBRANCH  26  31
ENDBRANCH   9  26
ENDBRANCH   4   5
ENDBRANCH   1   4
BRANCH   1  39
ATOM     39  C   UNL     1     -45.784  35.857  28.149  1.00  0.00     0.123 C 
ATOM     40  O   UNL     1     -44.755  36.873  28.095  1.00  0.00    -0.345 OA
ATOM     41  C   UNL     1     -46.774  36.282  29.239  1.00  0.00     0.119 C 
ATOM     42  H   UNL     1     -45.284  34.914  28.399  1.00  0.00     0.067 H 
ATOM     43  C   UNL     1     -45.128  37.945  28.992  1.00  0.00     0.169 C 
ATOM     44  C   UNL     1     -46.622  37.786  29.243  1.00  0.00     0.173 C 
ATOM     45  H   UNL     1     -47.794  35.947  29.030  1.00  0.00     0.066 H 
ATOM     46  H   UNL     1     -44.551  37.805  29.915  1.00  0.00     0.088 H 
ATOM     47  F   UNL     1     -47.354  38.284  28.208  1.00  0.00    -0.239 F 
ATOM     48  H   UNL     1     -46.957  38.260  30.169  1.00  0.00     0.074 H 
BRANCH  41  49
ATOM     49  O   UNL     1     -46.383  35.743  30.506  1.00  0.00    -0.387 OA
ATOM     50  H   UNL     1     -45.520  35.304  30.394  1.00  0.00     0.211 HD
ENDBRANCH  41  49
BRANCH  43  51
ATOM     51  N   UNL     1     -44.722  39.224  28.432  1.00  0.00    -0.302 N 
ATOM     52  C   UNL     1     -45.272  39.849  27.342  1.00  0.00     0.019 A 
ATOM     53  C   UNL     1     -43.661  39.967  28.891  1.00  0.00     0.148 A 
ATOM     54  C   UNL     1     -44.627  41.059  27.163  1.00  0.00     0.033 A 
ATOM     55  H   UNL     1     -46.095  39.399  26.802  1.00  0.00     0.083 H 
ATOM     56  C   UNL     1     -43.572  41.126  28.125  1.00  0.00     0.071 A 
ATOM     57  N   UNL     1     -42.862  39.614  29.914  1.00  0.00    -0.218 NA
ATOM     58  C   UNL     1     -42.532  42.010  28.465  1.00  0.00     0.137 A 
ATOM     59  C   UNL     1     -41.928  40.549  30.153  1.00  0.00     0.120 A 
ATOM     60  N   UNL     1     -41.728  41.709  29.506  1.00  0.00    -0.219 NA
ATOM     61  H   UNL     1     -41.246  40.343  30.973  1.00  0.00     0.106 H 
BRANCH  54  62
ATOM     62  C   UNL     1     -44.972  42.074  26.164  1.00  0.00     0.095 A 
ATOM     63  C   UNL     1     -44.285  42.254  24.942  1.00  0.00    -0.016 A 
ATOM     64  N   UNL     1     -46.007  42.919  26.280  1.00  0.00    -0.173 NA
ATOM     65  C   UNL     1     -44.945  43.282  24.311  1.00  0.00     0.025 A 
ATOM     66  H   UNL     1     -43.428  41.713  24.568  1.00  0.00     0.066 H 
ATOM     67  N   UNL     1     -45.964  43.636  25.141  1.00  0.00    -0.275 N 
ATOM     68  H   UNL     1     -44.780  43.764  23.357  1.00  0.00     0.084 H 
BRANCH  67  69
ATOM     69  C   UNL     1     -46.951  44.662  24.910  1.00  0.00     0.030 C 
ATOM     70  H   UNL     1     -47.565  44.362  24.056  1.00  0.00     0.048 H 
ATOM     71  H   UNL     1     -47.578  44.773  25.798  1.00  0.00     0.048 H 
ATOM     72  H   UNL     1     -46.431  45.599  24.699  1.00  0.00     0.048 H 
ENDBRANCH  67  69
ENDBRANCH  54  62
BRANCH  58  73
ATOM     73  N   UNL     1     -42.267  43.192  27.792  1.00  0.00    -0.383 N 
ATOM     74  H   UNL     1     -43.112  43.704  27.579  1.00  0.00     0.158 HD
ATOM     75  H   UNL     1     -41.594  43.065  27.029  1.00  0.00     0.158 HD
ENDBRANCH  58  73
ENDBRANCH  43  51
ENDBRANCH   1  39
TORSDOF 13
ENDMDL
MODEL 3
REMARK VINA RESULT:      -8.9      1.458      3.006
REMARK SMILES CCc1cc(N(C)C2CC2)c2ccc(OC[C@H]3O[C@@H](n4cc(-c5ccn(C)n5)c5c(N)ncnc54)[C@@H](F)[C@@H]3O)cc2n1
REMARK SMILES IDX 16 1 15 4 14 5 3 6 4 7 42 8 5 9 41 11 11 12 40 13 12 14
REMARK SMILES IDX 13 16 2 19 1 22 6 26 7 27 8 31 9 32 10 33 17 39 18 40 38 41
REMARK SMILES IDX 19 43 36 44 37 47 39 49 20 51 21 52 35 53 22 54 29 56 34 57
REMARK SMILES IDX 30 58 33 59 32 60 23 62 24 63 28 64 25 65 26 67 27 69 31 73
REMARK H PARENT 16 2 16 3 4 10 40 15 12 17 13 18 2 20 2 21 1 23 1 24 1 25 7 28
REMARK H PARENT 7 29 7 30 8 34 9 35 9 36 10 37 10 38 17 42 38 45 19 46 36 48
REMARK H PARENT 39 50 21 55 33 61 24 66 25 68 27 70 27 71 27 72 31 74 31 75
REMARK Flexibility Score: inf
ROOT
ATOM      1  C   UNL     1     -45.810  34.948  27.740  1.00  0.00     0.117 C 
ATOM      2  H   UNL     1     -44.748  35.059  27.973  1.00  0.00     0.073 H 
ATOM      3  H   UNL     1     -45.923  35.283  26.703  1.00  0.00     0.073 H 
ENDROOT
BRANCH   1   4
ATOM      4  O   UNL     1     -46.256  33.590  27.759  1.00  0.00    -0.491 OA
BRANCH   4   5
ATOM      5  C   UNL     1     -46.686  33.003  26.604  1.00  0.00     0.121 A 
ATOM      6  C   UNL     1     -48.995  29.160  24.984  1.00  0.00     0.043 A 
ATOM      7  C   UNL     1     -48.882  29.554  23.659  1.00  0.00    -0.016 A 
ATOM      8  N   UNL     1     -48.499  29.894  26.006  1.00  0.00    -0.253 NA
ATOM      9  C   UNL     1     -48.244  30.760  23.357  1.00  0.00     0.048 A 
ATOM     10  H   UNL     1     -49.304  28.936  22.875  1.00  0.00     0.066 H 
ATOM     11  C   UNL     1     -47.871  31.049  25.731  1.00  0.00     0.076 A 
ATOM     12  C   UNL     1     -47.704  31.533  24.418  1.00  0.00     0.024 A 
ATOM     13  C   UNL     1     -47.361  31.791  26.788  1.00  0.00     0.007 A 
ATOM     14  C   UNL     1     -47.000  32.744  24.230  1.00  0.00    -0.047 A 
ATOM     15  H   UNL     1     -47.494  31.409  27.798  1.00  0.00     0.069 H 
ATOM     16  C   UNL     1     -46.500  33.473  25.312  1.00  0.00    -0.019 A 
ATOM     17  H   UNL     1     -46.822  33.118  23.223  1.00  0.00     0.063 H 
ATOM     18  H   UNL     1     -45.956  34.384  25.094  1.00  0.00     0.066 H 
BRANCH   6  19
ATOM     19  C   UNL     1     -49.663  27.859  25.342  1.00  0.00    -0.013 C 
ATOM     20  H   UNL     1     -49.687  27.199  24.468  1.00  0.00     0.033 H 
ATOM     21  H   UNL     1     -50.707  28.054  25.614  1.00  0.00     0.033 H 
BRANCH  19  22
ATOM     22  C   UNL     1     -48.960  27.169  26.501  1.00  0.00    -0.060 C 
ATOM     23  H   UNL     1     -49.541  27.251  27.425  1.00  0.00     0.023 H 
ATOM     24  H   UNL     1     -47.979  27.624  26.674  1.00  0.00     0.023 H 
ATOM     25  H   UNL     1     -48.809  26.104  26.294  1.00  0.00     0.023 H 
ENDBRANCH  19  22
ENDBRANCH   6  19
BRANCH   9  26
ATOM     26  N   UNL     1     -48.147  31.209  21.997  1.00  0.00    -0.371 N 
BRANCH  26  27
ATOM     27  C   UNL     1     -49.460  31.085  21.349  1.00  0.00     0.007 C 
ATOM     28  H   UNL     1     -49.363  30.998  20.261  1.00  0.00     0.046 H 
ATOM     29  H   UNL     1     -50.017  30.214  21.711  1.00  0.00     0.046 H 
ATOM     30  H   UNL     1     -50.083  31.958  21.572  1.00  0.00     0.046 H 
ENDBRANCH  26  27
BRANCH  26  31
ATOM     31  C   UNL     1     -46.949  30.783  21.233  1.00  0.00     0.029 C 
ATOM     32  C   UNL     1     -46.457  31.469  19.989  1.00  0.00    -0.031 C 
ATOM     33  C   UNL     1     -45.650  31.540  21.255  1.00  0.00    -0.031 C 
ATOM     34  H   UNL     1     -46.834  29.699  21.274  1.00  0.00     0.053 H 
ATOM     35  H   UNL     1     -46.088  30.843  19.186  1.00  0.00     0.029 H 
ATOM     36  H   UNL     1     -46.948  32.371  19.650  1.00  0.00     0.029 H 
ATOM     37  H   UNL     1     -45.594  32.485  21.776  1.00  0.00     0.029 H 
ATOM     38  H   UNL     1     -44.734  30.962  21.300  1.00  0.00     0.029 H 
ENDBRANCH  26  31
ENDBRANCH   9  26
ENDBRANCH   4   5
ENDBRANCH   1   4
BRANCH   1  39
ATOM     39  C   UNL     1     -46.705  35.822  28.634  1.00  0.00     0.123 C 
ATOM     40  O   UNL     1     -46.002  37.030  29.008  1.00  0.00    -0.345 OA
ATOM     41  C   UNL     1     -47.981  36.257  27.905  1.00  0.00     0.119 C 
ATOM     42  H   UNL     1     -46.931  35.288  29.565  1.00  0.00     0.067 H 
ATOM     43  C   UNL     1     -46.706  38.160  28.441  1.00  0.00     0.169 C 
ATOM     44  C   UNL     1     -47.584  37.597  27.330  1.00  0.00     0.173 C 
ATOM     45  H   UNL     1     -48.295  35.532  27.148  1.00  0.00     0.066 H 
ATOM     46  H   UNL     1     -47.312  38.596  29.245  1.00  0.00     0.088 H 
ATOM     47  F   UNL     1     -46.862  37.369  26.196  1.00  0.00    -0.239 F 
ATOM     48  H   UNL     1     -48.433  38.239  27.082  1.00  0.00     0.074 H 
BRANCH  41  49
ATOM     49  O   UNL     1     -49.057  36.418  28.835  1.00  0.00    -0.387 OA
ATOM     50  H   UNL     1     -48.899  37.236  29.341  1.00  0.00     0.211 HD
ENDBRANCH  41  49
BRANCH  43  51
ATOM     51  N   UNL     1     -45.756  39.180  28.029  1.00  0.00    -0.302 N 
ATOM     52  C   UNL     1     -45.827  39.953  26.898  1.00  0.00     0.019 A 
ATOM     53  C   UNL     1     -44.594  39.470  28.701  1.00  0.00     0.148 A 
ATOM     54  C   UNL     1     -44.754  40.824  26.898  1.00  0.00     0.033 A 
ATOM     55  H   UNL     1     -46.649  39.843  26.202  1.00  0.00     0.083 H 
ATOM     56  C   UNL     1     -43.940  40.498  28.027  1.00  0.00     0.071 A 
ATOM     57  N   UNL     1     -44.182  38.854  29.824  1.00  0.00    -0.218 NA
ATOM     58  C   UNL     1     -42.722  40.925  28.587  1.00  0.00     0.137 A 
ATOM     59  C   UNL     1     -43.023  39.367  30.269  1.00  0.00     0.120 A 
ATOM     60  N   UNL     1     -42.290  40.355  29.731  1.00  0.00    -0.219 NA
ATOM     61  H   UNL     1     -42.627  38.928  31.180  1.00  0.00     0.106 H 
BRANCH  54  62
ATOM     62  C   UNL     1     -44.507  41.880  25.912  1.00  0.00     0.095 A 
ATOM     63  C   UNL     1     -45.496  42.771  25.436  1.00  0.00    -0.016 A 
ATOM     64  N   UNL     1     -43.304  42.147  25.383  1.00  0.00    -0.173 NA
ATOM     65  C   UNL     1     -44.837  43.599  24.558  1.00  0.00     0.025 A 
ATOM     66  H   UNL     1     -46.545  42.809  25.693  1.00  0.00     0.066 H 
ATOM     67  N   UNL     1     -43.537  43.193  24.568  1.00  0.00    -0.275 N 
ATOM     68  H   UNL     1     -45.180  44.428  23.956  1.00  0.00     0.084 H 
BRANCH  67  69
ATOM     69  C   UNL     1     -42.446  43.766  23.818  1.00  0.00     0.030 C 
ATOM     70  H   UNL     1     -42.616  44.842  23.733  1.00  0.00     0.048 H 
ATOM     71  H   UNL     1     -41.505  43.577  24.341  1.00  0.00     0.048 H 
ATOM     72  H   UNL     1     -42.426  43.300  22.831  1.00  0.00     0.048 H 
ENDBRANCH  67  69
ENDBRANCH  54  62
BRANCH  58  73
ATOM     73  N   UNL     1     -41.915  41.908  28.035  1.00  0.00    -0.383 N 
ATOM     74  H   UNL     1     -42.308  42.830  28.157  1.00  0.00     0.158 HD
ATOM     75  H   UNL     1     -41.586  41.661  27.096  1.00  0.00     0.158 HD
ENDBRANCH  58  73
ENDBRANCH  43  51
ENDBRANCH   1  39
TORSDOF 13
ENDMDL
MODEL 4
REMARK VINA RESULT:      -8.7      2.008      2.628
REMARK SMILES CCc1cc(N(C)C2CC2)c2ccc(OC[C@H]3O[C@@H](n4cc(-c5ccn(C)n5)c5c(N)ncnc54)[C@@H](F)[C@@H]3O)cc2n1
REMARK SMILES IDX 16 1 15 4 14 5 3 6 4 7 42 8 5 9 41 11 11 12 40 13 12 14
REMARK SMILES IDX 13 16 2 19 1 22 6 26 7 27 8 31 9 32 10 33 17 39 18 40 38 41
REMARK SMILES IDX 19 43 36 44 37 47 39 49 20 51 21 52 35 53 22 54 29 56 34 57
REMARK SMILES IDX 30 58 33 59 32 60 23 62 24 63 28 64 25 65 26 67 27 69 31 73
REMARK H PARENT 16 2 16 3 4 10 40 15 12 17 13 18 2 20 2 21 1 23 1 24 1 25 7 28
REMARK H PARENT 7 29 7 30 8 34 9 35 9 36 10 37 10 38 17 42 38 45 19 46 36 48
REMARK H PARENT 39 50 21 55 33 61 24 66 25 68 27 70 27 71 27 72 31 74 31 75
REMARK Flexibility Score: inf
ROOT
ATOM      1  C   UNL     1     -46.338  34.981  26.667  1.00  0.00     0.117 C 
ATOM      2  H   UNL     1     -45.559  34.563  26.025  1.00  0.00     0.073 H 
ATOM      3  H   UNL     1     -46.807  35.781  26.083  1.00  0.00     0.073 H 
ENDROOT
BRANCH   1   4
ATOM      4  O   UNL     1     -47.385  34.054  26.964  1.00  0.00    -0.491 OA
BRANCH   4   5
ATOM      5  C   UNL     1     -47.547  32.944  26.186  1.00  0.00     0.121 A 
ATOM      6  C   UNL     1     -46.286  31.096  21.977  1.00  0.00     0.043 A 
ATOM      7  C   UNL     1     -47.001  29.926  22.188  1.00  0.00    -0.016 A 
ATOM      8  N   UNL     1     -46.242  32.096  22.886  1.00  0.00    -0.253 NA
ATOM      9  C   UNL     1     -47.698  29.758  23.388  1.00  0.00     0.048 A 
ATOM     10  H   UNL     1     -46.997  29.148  21.434  1.00  0.00     0.066 H 
ATOM     11  C   UNL     1     -46.919  31.956  24.038  1.00  0.00     0.076 A 
ATOM     12  C   UNL     1     -47.675  30.807  24.345  1.00  0.00     0.024 A 
ATOM     13  C   UNL     1     -46.872  32.992  24.962  1.00  0.00     0.007 A 
ATOM     14  C   UNL     1     -48.378  30.769  25.570  1.00  0.00    -0.047 A 
ATOM     15  H   UNL     1     -46.285  33.875  24.717  1.00  0.00     0.069 H 
ATOM     16  C   UNL     1     -48.310  31.824  26.483  1.00  0.00    -0.019 A 
ATOM     17  H   UNL     1     -49.003  29.910  25.811  1.00  0.00     0.063 H 
ATOM     18  H   UNL     1     -48.888  31.735  27.395  1.00  0.00     0.066 H 
BRANCH   6  19
ATOM     19  C   UNL     1     -45.537  31.314  20.689  1.00  0.00    -0.013 C 
ATOM     20  H   UNL     1     -45.151  30.358  20.316  1.00  0.00     0.033 H 
ATOM     21  H   UNL     1     -44.663  31.947  20.885  1.00  0.00     0.033 H 
BRANCH  19  22
ATOM     22  C   UNL     1     -46.413  31.973  19.636  1.00  0.00    -0.060 C 
ATOM     23  H   UNL     1     -47.476  31.833  19.859  1.00  0.00     0.023 H 
ATOM     24  H   UNL     1     -46.213  31.540  18.651  1.00  0.00     0.023 H 
ATOM     25  H   UNL     1     -46.222  33.050  19.579  1.00  0.00     0.023 H 
ENDBRANCH  19  22
ENDBRANCH   6  19
BRANCH   9  26
ATOM     26  N   UNL     1     -48.415  28.542  23.647  1.00  0.00    -0.371 N 
BRANCH  26  27
ATOM     27  C   UNL     1     -47.481  27.522  24.142  1.00  0.00     0.007 C 
ATOM     28  H   UNL     1     -47.512  27.447  25.235  1.00  0.00     0.046 H 
ATOM     29  H   UNL     1     -47.696  26.531  23.728  1.00  0.00     0.046 H 
ATOM     30  H   UNL     1     -46.456  27.761  23.841  1.00  0.00     0.046 H 
ENDBRANCH  26  27
BRANCH  26  31
ATOM     31  C   UNL     1     -49.427  28.132  22.642  1.00  0.00     0.029 C 
ATOM     32  C   UNL     1     -50.521  27.137  22.908  1.00  0.00    -0.031 C 
ATOM     33  C   UNL     1     -50.860  28.585  22.688  1.00  0.00    -0.031 C 
ATOM     34  H   UNL     1     -48.993  28.128  21.641  1.00  0.00     0.053 H 
ATOM     35  H   UNL     1     -50.761  26.434  22.119  1.00  0.00     0.029 H 
ATOM     36  H   UNL     1     -50.642  26.733  23.905  1.00  0.00     0.029 H 
ATOM     37  H   UNL     1     -51.207  29.164  23.532  1.00  0.00     0.029 H 
ATOM     38  H   UNL     1     -51.332  28.854  21.751  1.00  0.00     0.029 H 
ENDBRANCH  26  31
ENDBRANCH   9  26
ENDBRANCH   4   5
ENDBRANCH   1   4
BRANCH   1  39
ATOM     39  C   UNL     1     -45.774  35.591  27.962  1.00  0.00     0.123 C 
ATOM     40  O   UNL     1     -45.424  36.978  27.744  1.00  0.00    -0.345 OA
ATOM     41  C   UNL     1     -46.804  35.564  29.096  1.00  0.00     0.119 C 
ATOM     42  H   UNL     1     -44.849  35.073  28.240  1.00  0.00     0.067 H 
ATOM     43  C   UNL     1     -46.270  37.797  28.585  1.00  0.00     0.169 C 
ATOM     44  C   UNL     1     -47.455  36.922  28.972  1.00  0.00     0.173 C 
ATOM     45  H   UNL     1     -47.509  34.732  28.999  1.00  0.00     0.066 H 
ATOM     46  H   UNL     1     -45.675  38.074  29.463  1.00  0.00     0.088 H 
ATOM     47  F   UNL     1     -48.373  36.858  27.967  1.00  0.00    -0.239 F 
ATOM     48  H   UNL     1     -47.958  37.254  29.884  1.00  0.00     0.074 H 
BRANCH  41  49
ATOM     49  O   UNL     1     -46.149  35.443  30.363  1.00  0.00    -0.387 OA
ATOM     50  H   UNL     1     -46.770  35.020  30.984  1.00  0.00     0.211 HD
ENDBRANCH  41  49
BRANCH  43  51
ATOM     51  N   UNL     1     -46.605  39.033  27.896  1.00  0.00    -0.302 N 
ATOM     52  C   UNL     1     -47.866  39.511  27.644  1.00  0.00     0.019 A 
ATOM     53  C   UNL     1     -45.681  39.878  27.332  1.00  0.00     0.148 A 
ATOM     54  C   UNL     1     -47.749  40.731  27.005  1.00  0.00     0.033 A 
ATOM     55  H   UNL     1     -48.742  38.962  27.966  1.00  0.00     0.083 H 
ATOM     56  C   UNL     1     -46.357  40.957  26.768  1.00  0.00     0.071 A 
ATOM     57  N   UNL     1     -44.351  39.678  27.342  1.00  0.00    -0.218 NA
ATOM     58  C   UNL     1     -45.555  41.929  26.144  1.00  0.00     0.137 A 
ATOM     59  C   UNL     1     -43.698  40.685  26.738  1.00  0.00     0.120 A 
ATOM     60  N   UNL     1     -44.213  41.783  26.161  1.00  0.00    -0.219 NA
ATOM     61  H   UNL     1     -42.615  40.604  26.713  1.00  0.00     0.106 H 
BRANCH  54  62
ATOM     62  C   UNL     1     -48.858  41.617  26.640  1.00  0.00     0.095 A 
ATOM     63  C   UNL     1     -50.194  41.436  27.064  1.00  0.00    -0.016 A 
ATOM     64  N   UNL     1     -48.720  42.724  25.896  1.00  0.00    -0.173 NA
ATOM     65  C   UNL     1     -50.887  42.491  26.519  1.00  0.00     0.025 A 
ATOM     66  H   UNL     1     -50.601  40.648  27.681  1.00  0.00     0.066 H 
ATOM     67  N   UNL     1     -49.966  43.232  25.842  1.00  0.00    -0.275 N 
ATOM     68  H   UNL     1     -51.929  42.771  26.571  1.00  0.00     0.084 H 
BRANCH  67  69
ATOM     69  C   UNL     1     -50.205  44.454  25.114  1.00  0.00     0.030 C 
ATOM     70  H   UNL     1     -49.238  44.895  24.857  1.00  0.00     0.048 H 
ATOM     71  H   UNL     1     -50.766  44.232  24.204  1.00  0.00     0.048 H 
ATOM     72  H   UNL     1     -50.778  45.128  25.753  1.00  0.00     0.048 H 
ENDBRANCH  67  69
ENDBRANCH  54  62
BRANCH  58  73
ATOM     73  N   UNL     1     -46.053  43.049  25.498  1.00  0.00    -0.383 N 
ATOM     74  H   UNL     1     -45.325  43.568  25.027  1.00  0.00     0.158 HD
ATOM     75  H   UNL     1     -46.702  43.583  26.085  1.00  0.00     0.158 HD
ENDBRANCH  58  73
ENDBRANCH  43  51
ENDBRANCH   1  39
TORSDOF 13
ENDMDL
MODEL 5
REMARK VINA RESULT:      -8.4      1.561      2.593
REMARK SMILES CCc1cc(N(C)C2CC2)c2ccc(OC[C@H]3O[C@@H](n4cc(-c5ccn(C)n5)c5c(N)ncnc54)[C@@H](F)[C@@H]3O)cc2n1
REMARK SMILES IDX 16 1 15 4 14 5 3 6 4 7 42 8 5 9 41 11 11 12 40 13 12 14
REMARK SMILES IDX 13 16 2 19 1 22 6 26 7 27 8 31 9 32 10 33 17 39 18 40 38 41
REMARK SMILES IDX 19 43 36 44 37 47 39 49 20 51 21 52 35 53 22 54 29 56 34 57
REMARK SMILES IDX 30 58 33 59 32 60 23 62 24 63 28 64 25 65 26 67 27 69 31 73
REMARK H PARENT 16 2 16 3 4 10 40 15 12 17 13 18 2 20 2 21 1 23 1 24 1 25 7 28
REMARK H PARENT 7 29 7 30 8 34 9 35 9 36 10 37 10 38 17 42 38 45 19 46 36 48
REMARK H PARENT 39 50 21 55 33 61 24 66 25 68 27 70 27 71 27 72 31 74 31 75
REMARK Flexibility Score: inf
ROOT
ATOM      1  C   UNL     1     -45.725  35.404  26.707  1.00  0.00     0.117 C 
ATOM      2  H   UNL     1     -45.113  34.503  26.617  1.00  0.00     0.073 H 
ATOM      3  H   UNL     1     -45.282  36.134  26.020  1.00  0.00     0.073 H 
ENDROOT
BRANCH   1   4
ATOM      4  O   UNL     1     -47.071  35.221  26.261  1.00  0.00    -0.491 OA
BRANCH   4   5
ATOM      5  C   UNL     1     -47.491  33.983  25.867  1.00  0.00     0.121 A 
ATOM      6  C   UNL     1     -46.279  30.327  23.058  1.00  0.00     0.043 A 
ATOM      7  C   UNL     1     -47.400  29.588  23.403  1.00  0.00    -0.016 A 
ATOM      8  N   UNL     1     -46.030  31.555  23.569  1.00  0.00    -0.253 NA
ATOM      9  C   UNL     1     -48.311  30.117  24.322  1.00  0.00     0.048 A 
ATOM     10  H   UNL     1     -47.551  28.604  22.974  1.00  0.00     0.066 H 
ATOM     11  C   UNL     1     -46.904  32.083  24.443  1.00  0.00     0.076 A 
ATOM     12  C   UNL     1     -48.072  31.411  24.855  1.00  0.00     0.024 A 
ATOM     13  C   UNL     1     -46.641  33.346  24.956  1.00  0.00     0.007 A 
ATOM     14  C   UNL     1     -48.944  32.065  25.754  1.00  0.00    -0.047 A 
ATOM     15  H   UNL     1     -45.736  33.857  24.633  1.00  0.00     0.069 H 
ATOM     16  C   UNL     1     -48.654  33.335  26.258  1.00  0.00    -0.019 A 
ATOM     17  H   UNL     1     -49.874  31.585  26.055  1.00  0.00     0.063 H 
ATOM     18  H   UNL     1     -49.375  33.784  26.931  1.00  0.00     0.066 H 
BRANCH   6  19
ATOM     19  C   UNL     1     -45.287  29.793  22.059  1.00  0.00    -0.013 C 
ATOM     20  H   UNL     1     -44.565  30.575  21.796  1.00  0.00     0.033 H 
ATOM     21  H   UNL     1     -45.813  29.532  21.134  1.00  0.00     0.033 H 
BRANCH  19  22
ATOM     22  C   UNL     1     -44.561  28.567  22.591  1.00  0.00    -0.060 C 
ATOM     23  H   UNL     1     -45.220  27.692  22.609  1.00  0.00     0.023 H 
ATOM     24  H   UNL     1     -44.210  28.749  23.612  1.00  0.00     0.023 H 
ATOM     25  H   UNL     1     -43.693  28.320  21.971  1.00  0.00     0.023 H 
ENDBRANCH  19  22
ENDBRANCH   6  19
BRANCH   9  26
ATOM     26  N   UNL     1     -49.460  29.357  24.725  1.00  0.00    -0.371 N 
BRANCH  26  27
ATOM     27  C   UNL     1     -49.030  28.237  25.573  1.00  0.00     0.007 C 
ATOM     28  H   UNL     1     -48.498  27.476  24.992  1.00  0.00     0.046 H 
ATOM     29  H   UNL     1     -48.372  28.565  26.386  1.00  0.00     0.046 H 
ATOM     30  H   UNL     1     -49.893  27.765  26.053  1.00  0.00     0.046 H 
ENDBRANCH  26  27
BRANCH  26  31
ATOM     31  C   UNL     1     -50.487  29.092  23.688  1.00  0.00     0.029 C 
ATOM     32  C   UNL     1     -51.789  28.391  23.953  1.00  0.00    -0.031 C 
ATOM     33  C   UNL     1     -51.782  29.852  23.602  1.00  0.00    -0.031 C 
ATOM     34  H   UNL     1     -50.016  28.904  22.721  1.00  0.00     0.053 H 
ATOM     35  H   UNL     1     -52.142  27.690  23.206  1.00  0.00     0.029 H 
ATOM     36  H   UNL     1     -52.048  28.115  24.967  1.00  0.00     0.029 H 
ATOM     37  H   UNL     1     -52.030  30.567  24.373  1.00  0.00     0.029 H 
ATOM     38  H   UNL     1     -52.133  30.134  22.616  1.00  0.00     0.029 H 
ENDBRANCH  26  31
ENDBRANCH   9  26
ENDBRANCH   4   5
ENDBRANCH   1   4
BRANCH   1  39
ATOM     39  C   UNL     1     -45.703  35.996  28.126  1.00  0.00     0.123 C 
ATOM     40  O   UNL     1     -45.064  37.294  28.110  1.00  0.00    -0.345 OA
ATOM     41  C   UNL     1     -47.119  36.203  28.675  1.00  0.00     0.119 C 
ATOM     42  H   UNL     1     -45.102  35.356  28.782  1.00  0.00     0.067 H 
ATOM     43  C   UNL     1     -46.043  38.287  28.494  1.00  0.00     0.169 C 
ATOM     44  C   UNL     1     -47.406  37.637  28.293  1.00  0.00     0.173 C 
ATOM     45  H   UNL     1     -47.836  35.488  28.259  1.00  0.00     0.066 H 
ATOM     46  H   UNL     1     -45.864  38.521  29.551  1.00  0.00     0.088 H 
ATOM     47  F   UNL     1     -47.776  37.656  26.982  1.00  0.00    -0.239 F 
ATOM     48  H   UNL     1     -48.198  38.100  28.887  1.00  0.00     0.074 H 
BRANCH  41  49
ATOM     49  O   UNL     1     -47.128  36.059  30.099  1.00  0.00    -0.387 OA
ATOM     50  H   UNL     1     -46.437  35.416  30.342  1.00  0.00     0.211 HD
ENDBRANCH  41  49
BRANCH  43  51
ATOM     51  N   UNL     1     -45.822  39.515  27.748  1.00  0.00    -0.302 N 
ATOM     52  C   UNL     1     -44.610  40.033  27.369  1.00  0.00     0.019 A 
ATOM     53  C   UNL     1     -46.820  40.380  27.369  1.00  0.00     0.148 A 
ATOM     54  C   UNL     1     -44.837  41.188  26.645  1.00  0.00     0.033 A 
ATOM     55  H   UNL     1     -43.687  39.523  27.617  1.00  0.00     0.083 H 
ATOM     56  C   UNL     1     -46.244  41.438  26.671  1.00  0.00     0.071 A 
ATOM     57  N   UNL     1     -48.127  40.207  27.635  1.00  0.00    -0.218 NA
ATOM     58  C   UNL     1     -47.132  42.423  26.203  1.00  0.00     0.137 A 
ATOM     59  C   UNL     1     -48.869  41.199  27.116  1.00  0.00     0.120 A 
ATOM     60  N   UNL     1     -48.456  42.271  26.420  1.00  0.00    -0.219 NA
ATOM     61  H   UNL     1     -49.941  41.128  27.279  1.00  0.00     0.106 H 
BRANCH  54  62
ATOM     62  C   UNL     1     -43.812  41.999  25.980  1.00  0.00     0.095 A 
ATOM     63  C   UNL     1     -42.560  42.323  26.551  1.00  0.00    -0.016 A 
ATOM     64  N   UNL     1     -43.933  42.489  24.738  1.00  0.00    -0.173 NA
ATOM     65  C   UNL     1     -41.914  43.066  25.592  1.00  0.00     0.025 A 
ATOM     66  H   UNL     1     -42.177  42.054  27.525  1.00  0.00     0.066 H 
ATOM     67  N   UNL     1     -42.767  43.129  24.532  1.00  0.00    -0.275 N 
ATOM     68  H   UNL     1     -40.937  43.529  25.578  1.00  0.00     0.084 H 
BRANCH  67  69
ATOM     69  C   UNL     1     -42.531  43.789  23.271  1.00  0.00     0.030 C 
ATOM     70  H   UNL     1     -41.472  43.686  23.021  1.00  0.00     0.048 H 
ATOM     71  H   UNL     1     -43.144  43.323  22.496  1.00  0.00     0.048 H 
ATOM     72  H   UNL     1     -42.801  44.842  23.379  1.00  0.00     0.048 H 
ENDBRANCH  67  69
ENDBRANCH  54  62
BRANCH  58  73
ATOM     73  N   UNL     1     -46.738  43.565  25.523  1.00  0.00    -0.383 N 
ATOM     74  H   UNL     1     -47.176  44.396  25.895  1.00  0.00     0.158 HD
ATOM     75  H   UNL     1     -46.760  43.441  24.506  1.00  0.00     0.158 HD
ENDBRANCH  58  73
ENDBRANCH  43  51
ENDBRANCH   1  39
TORSDOF 13
ENDMDL
MODEL 6
REMARK VINA RESULT:      -7.9      2.131      3.647
REMARK SMILES CCc1cc(N(C)C2CC2)c2ccc(OC[C@H]3O[C@@H](n4cc(-c5ccn(C)n5)c5c(N)ncnc54)[C@@H](F)[C@@H]3O)cc2n1
REMARK SMILES IDX 16 1 15 4 14 5 3 6 4 7 42 8 5 9 41 11 11 12 40 13 12 14
REMARK SMILES IDX 13 16 2 19 1 22 6 26 7 27 8 31 9 32 10 33 17 39 18 40 38 41
REMARK SMILES IDX 19 43 36 44 37 47 39 49 20 51 21 52 35 53 22 54 29 56 34 57
REMARK SMILES IDX 30 58 33 59 32 60 23 62 24 63 28 64 25 65 26 67 27 69 31 73
REMARK H PARENT 16 2 16 3 4 10 40 15 12 17 13 18 2 20 2 21 1 23 1 24 1 25 7 28
REMARK H PARENT 7 29 7 30 8 34 9 35 9 36 10 37 10 38 17 42 38 45 19 46 36 48
REMARK H PARENT 39 50 21 55 33 61 24 66 25 68 27 70 27 71 27 72 31 74 31 75
REMARK Flexibility Score: inf
ROOT
ATOM      1  C   UNL     1     -46.612  35.038  26.906  1.00  0.00     0.117 C 
ATOM      2  H   UNL     1     -46.145  35.292  25.951  1.00  0.00     0.073 H 
ATOM      3  H   UNL     1     -47.629  35.447  26.858  1.00  0.00     0.073 H 
ENDROOT
BRANCH   1   4
ATOM      4  O   UNL     1     -46.770  33.631  27.103  1.00  0.00    -0.491 OA
BRANCH   4   5
ATOM      5  C   UNL     1     -46.955  32.814  26.026  1.00  0.00     0.121 A 
ATOM      6  C   UNL     1     -49.171  28.810  24.690  1.00  0.00     0.043 A 
ATOM      7  C   UNL     1     -48.687  28.882  23.392  1.00  0.00    -0.016 A 
ATOM      8  N   UNL     1     -48.875  29.737  25.629  1.00  0.00    -0.253 NA
ATOM      9  C   UNL     1     -47.870  29.956  23.026  1.00  0.00     0.048 A 
ATOM     10  H   UNL     1     -48.961  28.121  22.671  1.00  0.00     0.066 H 
ATOM     11  C   UNL     1     -48.079  30.767  25.296  1.00  0.00     0.076 A 
ATOM     12  C   UNL     1     -47.538  30.928  24.006  1.00  0.00     0.024 A 
ATOM     13  C   UNL     1     -47.778  31.709  26.271  1.00  0.00     0.007 A 
ATOM     14  C   UNL     1     -46.686  32.029  23.764  1.00  0.00    -0.047 A 
ATOM     15  H   UNL     1     -48.201  31.577  27.265  1.00  0.00     0.069 H 
ATOM     16  C   UNL     1     -46.402  32.964  24.762  1.00  0.00    -0.019 A 
ATOM     17  H   UNL     1     -46.221  32.152  22.786  1.00  0.00     0.063 H 
ATOM     18  H   UNL     1     -45.727  33.774  24.512  1.00  0.00     0.066 H 
BRANCH   6  19
ATOM     19  C   UNL     1     -50.040  27.659  25.120  1.00  0.00    -0.013 C 
ATOM     20  H   UNL     1     -50.275  27.025  24.257  1.00  0.00     0.033 H 
ATOM     21  H   UNL     1     -50.997  28.049  25.489  1.00  0.00     0.033 H 
BRANCH  19  22
ATOM     22  C   UNL     1     -49.377  26.833  26.211  1.00  0.00    -0.060 C 
ATOM     23  H   UNL     1     -49.465  27.320  27.188  1.00  0.00     0.023 H 
ATOM     24  H   UNL     1     -48.312  26.701  25.991  1.00  0.00     0.023 H 
ATOM     25  H   UNL     1     -49.833  25.840  26.289  1.00  0.00     0.023 H 
ENDBRANCH  19  22
ENDBRANCH   6  19
BRANCH   9  26
ATOM     26  N   UNL     1     -47.388  30.075  21.679  1.00  0.00    -0.371 N 
BRANCH  26  27
ATOM     27  C   UNL     1     -45.919  30.095  21.688  1.00  0.00     0.007 C 
ATOM     28  H   UNL     1     -45.529  31.040  21.295  1.00  0.00     0.046 H 
ATOM     29  H   UNL     1     -45.511  29.953  22.696  1.00  0.00     0.046 H 
ATOM     30  H   UNL     1     -45.519  29.276  21.081  1.00  0.00     0.046 H 
ENDBRANCH  26  27
BRANCH  26  31
ATOM     31  C   UNL     1     -48.093  31.036  20.795  1.00  0.00     0.029 C 
ATOM     32  C   UNL     1     -47.542  31.539  19.491  1.00  0.00    -0.031 C 
ATOM     33  C   UNL     1     -48.741  30.634  19.499  1.00  0.00    -0.031 C 
ATOM     34  H   UNL     1     -48.678  31.742  21.386  1.00  0.00     0.053 H 
ATOM     35  H   UNL     1     -47.695  32.585  19.253  1.00  0.00     0.029 H 
ATOM     36  H   UNL     1     -46.607  31.139  19.119  1.00  0.00     0.029 H 
ATOM     37  H   UNL     1     -48.624  29.623  19.137  1.00  0.00     0.029 H 
ATOM     38  H   UNL     1     -49.704  31.073  19.263  1.00  0.00     0.029 H 
ENDBRANCH  26  31
ENDBRANCH   9  26
ENDBRANCH   4   5
ENDBRANCH   1   4
BRANCH   1  39
ATOM     39  C   UNL     1     -45.890  35.673  28.106  1.00  0.00     0.123 C 
ATOM     40  O   UNL     1     -45.479  37.022  27.779  1.00  0.00    -0.345 OA
ATOM     41  C   UNL     1     -46.805  35.771  29.331  1.00  0.00     0.119 C 
ATOM     42  H   UNL     1     -44.975  35.110  28.325  1.00  0.00     0.067 H 
ATOM     43  C   UNL     1     -46.188  37.936  28.648  1.00  0.00     0.169 C 
ATOM     44  C   UNL     1     -47.381  37.161  29.193  1.00  0.00     0.173 C 
ATOM     45  H   UNL     1     -47.564  34.983  29.347  1.00  0.00     0.066 H 
ATOM     46  H   UNL     1     -45.494  38.217  29.450  1.00  0.00     0.088 H 
ATOM     47  F   UNL     1     -48.394  37.107  28.283  1.00  0.00    -0.239 F 
ATOM     48  H   UNL     1     -47.772  37.571  30.128  1.00  0.00     0.074 H 
BRANCH  41  49
ATOM     49  O   UNL     1     -46.039  35.671  30.536  1.00  0.00    -0.387 OA
ATOM     50  H   UNL     1     -45.716  34.755  30.613  1.00  0.00     0.211 HD
ENDBRANCH  41  49
BRANCH  43  51
ATOM     51  N   UNL     1     -46.512  39.155  27.925  1.00  0.00    -0.302 N 
ATOM     52  C   UNL     1     -47.768  39.641  27.667  1.00  0.00     0.019 A 
ATOM     53  C   UNL     1     -45.581  39.973  27.332  1.00  0.00     0.148 A 
ATOM     54  C   UNL     1     -47.641  40.840  26.992  1.00  0.00     0.033 A 
ATOM     55  H   UNL     1     -48.649  39.112  28.009  1.00  0.00     0.083 H 
ATOM     56  C   UNL     1     -46.248  41.042  26.741  1.00  0.00     0.071 A 
ATOM     57  N   UNL     1     -44.254  39.757  27.341  1.00  0.00    -0.218 NA
ATOM     58  C   UNL     1     -45.438  41.987  26.084  1.00  0.00     0.137 A 
ATOM     59  C   UNL     1     -43.592  40.738  26.704  1.00  0.00     0.120 A 
ATOM     60  N   UNL     1     -44.098  41.824  26.098  1.00  0.00    -0.219 NA
ATOM     61  H   UNL     1     -42.511  40.643  26.675  1.00  0.00     0.106 H 
BRANCH  54  62
ATOM     62  C   UNL     1     -48.741  41.729  26.608  1.00  0.00     0.095 A 
ATOM     63  C   UNL     1     -50.103  41.479  26.893  1.00  0.00    -0.016 A 
ATOM     64  N   UNL     1     -48.574  42.901  25.978  1.00  0.00    -0.173 NA
ATOM     65  C   UNL     1     -50.779  42.562  26.382  1.00  0.00     0.025 A 
ATOM     66  H   UNL     1     -50.537  40.629  27.400  1.00  0.00     0.066 H 
ATOM     67  N   UNL     1     -49.826  43.381  25.857  1.00  0.00    -0.275 N 
ATOM     68  H   UNL     1     -51.830  42.810  26.364  1.00  0.00     0.084 H 
BRANCH  67  69
ATOM     69  C   UNL     1     -50.039  44.657  25.219  1.00  0.00     0.030 C 
ATOM     70  H   UNL     1     -49.996  44.512  24.137  1.00  0.00     0.048 H 
ATOM     71  H   UNL     1     -51.018  45.049  25.504  1.00  0.00     0.048 H 
ATOM     72  H   UNL     1     -49.253  45.341  25.547  1.00  0.00     0.048 H 
ENDBRANCH  67  69
ENDBRANCH  54  62
BRANCH  58  73
ATOM     73  N   UNL     1     -45.927  43.093  25.409  1.00  0.00    -0.383 N 
ATOM     74  H   UNL     1     -45.774  43.948  25.925  1.00  0.00     0.158 HD
ATOM     75  H   UNL     1     -46.867  42.937  25.031  1.00  0.00     0.158 HD
ENDBRANCH  58  73
ENDBRANCH  43  51
ENDBRANCH   1  39
TORSDOF 13
ENDMDL
