MODEL 1
REMARK VINA RESULT:     -10.9      0.000      0.000
REMARK SMILES O=C(NCc1cnc2cc(CNC[C@]34C[C@](F)(C3)C4)[nH]c2c1)c1cc(=O)n2ccccc2n1
REMARK SMILES IDX 5 1 6 2 7 3 8 4 9 5 10 6 20 7 21 8 22 9 4 14 3 17 1 18 2 19
REMARK SMILES IDX 23 21 24 22 33 23 25 24 32 26 26 27 27 28 31 29 28 30 30 31
REMARK SMILES IDX 29 33 11 37 12 40 13 42 14 45 15 46 19 47 18 48 16 49 17 56
REMARK H PARENT 6 10 9 11 20 12 22 13 4 15 4 16 3 20 24 25 31 32 28 34 30 35
REMARK H PARENT 29 36 11 38 11 39 12 41 13 43 13 44 15 50 15 51 19 52 19 53
REMARK H PARENT 18 54 18 55
REMARK Flexibility Score: inf
ROOT
ATOM      1  C   UNL     1     -47.768  35.307  27.036  1.00  0.00    -0.008 A 
ATOM      2  C   UNL     1     -46.456  35.273  26.563  1.00  0.00     0.033 A 
ATOM      3  N   UNL     1     -45.901  34.293  25.816  1.00  0.00    -0.254 NA
ATOM      4  C   UNL     1     -46.735  33.265  25.529  1.00  0.00     0.088 A 
ATOM      5  C   UNL     1     -46.480  32.095  24.776  1.00  0.00    -0.014 A 
ATOM      6  C   UNL     1     -47.641  31.343  24.761  1.00  0.00     0.031 A 
ATOM      7  N   UNL     1     -48.582  32.034  25.491  1.00  0.00    -0.356 N 
ATOM      8  C   UNL     1     -48.055  33.210  25.963  1.00  0.00     0.065 A 
ATOM      9  C   UNL     1     -48.611  34.232  26.732  1.00  0.00    -0.030 A 
ATOM     10  H   UNL     1     -45.770  36.088  26.789  1.00  0.00     0.084 H 
ATOM     11  H   UNL     1     -45.544  31.838  24.301  1.00  0.00     0.067 H 
ATOM     12  H   UNL     1     -49.536  31.722  25.620  1.00  0.00     0.166 HD
ATOM     13  H   UNL     1     -49.639  34.195  27.079  1.00  0.00     0.065 H 
ENDROOT
BRANCH   1  14
ATOM     14  C   UNL     1     -48.258  36.453  27.875  1.00  0.00     0.045 C 
ATOM     15  H   UNL     1     -49.145  36.911  27.423  1.00  0.00     0.054 H 
ATOM     16  H   UNL     1     -48.549  36.093  28.867  1.00  0.00     0.054 H 
BRANCH  14  17
ATOM     17  N   UNL     1     -47.256  37.483  27.985  1.00  0.00    -0.347 N 
ATOM     18  O   UNL     1     -46.364  36.789  29.988  1.00  0.00    -0.268 OA
ATOM     19  C   UNL     1     -46.347  37.531  29.013  1.00  0.00     0.270 C 
ATOM     20  H   UNL     1     -47.064  38.088  27.193  1.00  0.00     0.164 HD
BRANCH  19  21
ATOM     21  C   UNL     1     -45.302  38.599  28.804  1.00  0.00     0.136 A 
ATOM     22  C   UNL     1     -44.344  38.684  29.729  1.00  0.00     0.035 A 
ATOM     23  N   UNL     1     -45.392  39.404  27.690  1.00  0.00    -0.225 NA
ATOM     24  C   UNL     1     -43.302  39.705  29.561  1.00  0.00     0.258 A 
ATOM     25  H   UNL     1     -44.283  38.044  30.600  1.00  0.00     0.071 H 
ATOM     26  C   UNL     1     -44.466  40.302  27.543  1.00  0.00     0.140 A 
ATOM     27  O   UNL     1     -42.419  39.793  30.411  1.00  0.00    -0.269 OA
ATOM     28  N   UNL     1     -43.413  40.499  28.429  1.00  0.00    -0.268 N 
ATOM     29  C   UNL     1     -44.520  41.193  26.349  1.00  0.00    -0.019 A 
ATOM     30  C   UNL     1     -42.462  41.487  28.199  1.00  0.00     0.014 A 
ATOM     31  C   UNL     1     -43.581  42.129  26.171  1.00  0.00    -0.057 A 
ATOM     32  H   UNL     1     -45.335  41.047  25.651  1.00  0.00     0.066 H 
ATOM     33  C   UNL     1     -42.516  42.284  27.126  1.00  0.00    -0.045 A 
ATOM     34  H   UNL     1     -41.665  41.585  28.934  1.00  0.00     0.082 H 
ATOM     35  H   UNL     1     -43.602  42.787  25.307  1.00  0.00     0.062 H 
ATOM     36  H   UNL     1     -41.768  43.051  26.957  1.00  0.00     0.064 H 
ENDBRANCH  19  21
ENDBRANCH  14  17
ENDBRANCH   1  14
BRANCH   6  37
ATOM     37  C   UNL     1     -47.949  30.027  24.140  1.00  0.00     0.036 C 
ATOM     38  H   UNL     1     -48.732  30.151  23.382  1.00  0.00     0.049 H 
ATOM     39  H   UNL     1     -47.048  29.663  23.637  1.00  0.00     0.049 H 
BRANCH  37  40
ATOM     40  N   UNL     1     -48.392  29.100  25.182  1.00  0.00    -0.311 NA
ATOM     41  H   UNL     1     -49.249  29.492  25.578  1.00  0.00     0.123 HD
BRANCH  40  42
ATOM     42  C   UNL     1     -48.695  27.773  24.645  1.00  0.00     0.002 C 
ATOM     43  H   UNL     1     -49.787  27.668  24.625  1.00  0.00     0.043 H 
ATOM     44  H   UNL     1     -48.364  27.676  23.605  1.00  0.00     0.043 H 
BRANCH  42  45
ATOM     45  C   UNL     1     -48.132  26.698  25.502  1.00  0.00    -0.008 C 
ATOM     46  C   UNL     1     -48.686  25.279  25.952  1.00  0.00    -0.012 C 
ATOM     47  C   UNL     1     -46.744  25.940  25.373  1.00  0.00    -0.012 C 
ATOM     48  C   UNL     1     -47.727  26.843  27.028  1.00  0.00    -0.012 C 
ATOM     49  C   UNL     1     -47.331  25.385  26.695  1.00  0.00     0.112 C 
ATOM     50  H   UNL     1     -49.593  25.276  26.565  1.00  0.00     0.031 H 
ATOM     51  H   UNL     1     -48.765  24.505  25.183  1.00  0.00     0.031 H 
ATOM     52  H   UNL     1     -45.838  26.551  25.447  1.00  0.00     0.031 H 
ATOM     53  H   UNL     1     -46.639  25.239  24.539  1.00  0.00     0.031 H 
ATOM     54  H   UNL     1     -48.542  26.989  27.745  1.00  0.00     0.031 H 
ATOM     55  H   UNL     1     -46.914  27.539  27.260  1.00  0.00     0.031 H 
ATOM     56  F   UNL     1     -46.787  24.493  27.507  1.00  0.00    -0.244 F 
ENDBRANCH  42  45
ENDBRANCH  40  42
ENDBRANCH  37  40
ENDBRANCH   6  37
TORSDOF 7
ENDMDL
MODEL 2
REMARK VINA RESULT:     -10.7      1.503      2.117
REMARK SMILES O=C(NCc1cnc2cc(CNC[C@]34C[C@](F)(C3)C4)[nH]c2c1)c1cc(=O)n2ccccc2n1
REMARK SMILES IDX 5 1 6 2 7 3 8 4 9 5 10 6 20 7 21 8 22 9 4 14 3 17 1 18 2 19
REMARK SMILES IDX 23 21 24 22 33 23 25 24 32 26 26 27 27 28 31 29 28 30 30 31
REMARK SMILES IDX 29 33 11 37 12 40 13 42 14 45 15 46 19 47 18 48 16 49 17 56
REMARK H PARENT 6 10 9 11 20 12 22 13 4 15 4 16 3 20 24 25 31 32 28 34 30 35
REMARK H PARENT 29 36 11 38 11 39 12 41 13 43 13 44 15 50 15 51 19 52 19 53
REMARK H PARENT 18 54 18 55
REMARK Flexibility Score: inf
ROOT
ATOM      1  C   UNL     1     -47.826  34.534  26.535  1.00  0.00    -0.008 A 
ATOM      2  C   UNL     1     -46.581  34.476  25.908  1.00  0.00     0.033 A 
ATOM      3  N   UNL     1     -46.139  33.486  25.100  1.00  0.00    -0.254 NA
ATOM      4  C   UNL     1     -47.022  32.476  24.915  1.00  0.00     0.088 A 
ATOM      5  C   UNL     1     -46.883  31.302  24.137  1.00  0.00    -0.014 A 
ATOM      6  C   UNL     1     -48.052  30.574  24.262  1.00  0.00     0.031 A 
ATOM      7  N   UNL     1     -48.885  31.282  25.099  1.00  0.00    -0.356 N 
ATOM      8  C   UNL     1     -48.281  32.446  25.504  1.00  0.00     0.065 A 
ATOM      9  C   UNL     1     -48.721  33.477  26.335  1.00  0.00    -0.030 A 
ATOM     10  H   UNL     1     -45.857  35.276  26.049  1.00  0.00     0.084 H 
ATOM     11  H   UNL     1     -46.017  31.028  23.553  1.00  0.00     0.067 H 
ATOM     12  H   UNL     1     -49.823  30.989  25.343  1.00  0.00     0.166 HD
ATOM     13  H   UNL     1     -49.699  33.460  26.803  1.00  0.00     0.065 H 
ENDROOT
BRANCH   1  14
ATOM     14  C   UNL     1     -48.188  35.688  27.426  1.00  0.00     0.045 C 
ATOM     15  H   UNL     1     -49.155  36.113  27.135  1.00  0.00     0.054 H 
ATOM     16  H   UNL     1     -48.284  35.345  28.462  1.00  0.00     0.054 H 
BRANCH  14  17
ATOM     17  N   UNL     1     -47.213  36.745  27.332  1.00  0.00    -0.347 N 
ATOM     18  O   UNL     1     -48.603  38.463  27.968  1.00  0.00    -0.268 OA
ATOM     19  C   UNL     1     -47.490  38.047  27.670  1.00  0.00     0.270 C 
ATOM     20  H   UNL     1     -46.231  36.517  27.207  1.00  0.00     0.164 HD
BRANCH  19  21
ATOM     21  C   UNL     1     -46.258  38.918  27.650  1.00  0.00     0.136 A 
ATOM     22  C   UNL     1     -46.114  39.721  26.593  1.00  0.00     0.035 A 
ATOM     23  N   UNL     1     -45.376  38.841  28.704  1.00  0.00    -0.225 NA
ATOM     24  C   UNL     1     -44.933  40.591  26.536  1.00  0.00     0.258 A 
ATOM     25  H   UNL     1     -46.816  39.773  25.771  1.00  0.00     0.071 H 
ATOM     26  C   UNL     1     -44.336  39.616  28.652  1.00  0.00     0.140 A 
ATOM     27  O   UNL     1     -44.790  41.329  25.564  1.00  0.00    -0.269 OA
ATOM     28  N   UNL     1     -44.063  40.498  27.612  1.00  0.00    -0.268 N 
ATOM     29  C   UNL     1     -43.356  39.570  29.774  1.00  0.00    -0.019 A 
ATOM     30  C   UNL     1     -42.922  41.293  27.631  1.00  0.00     0.014 A 
ATOM     31  C   UNL     1     -42.273  40.356  29.748  1.00  0.00    -0.057 A 
ATOM     32  H   UNL     1     -43.560  38.888  30.590  1.00  0.00     0.066 H 
ATOM     33  C   UNL     1     -42.045  41.247  28.641  1.00  0.00    -0.045 A 
ATOM     34  H   UNL     1     -42.771  41.960  26.785  1.00  0.00     0.082 H 
ATOM     35  H   UNL     1     -41.548  40.339  30.556  1.00  0.00     0.062 H 
ATOM     36  H   UNL     1     -41.159  41.873  28.645  1.00  0.00     0.064 H 
ENDBRANCH  19  21
ENDBRANCH  14  17
ENDBRANCH   1  14
BRANCH   6  37
ATOM     37  C   UNL     1     -48.460  29.266  23.683  1.00  0.00     0.036 C 
ATOM     38  H   UNL     1     -48.817  29.411  22.657  1.00  0.00     0.049 H 
ATOM     39  H   UNL     1     -47.579  28.616  23.643  1.00  0.00     0.049 H 
BRANCH  37  40
ATOM     40  N   UNL     1     -49.516  28.684  24.513  1.00  0.00    -0.311 NA
ATOM     41  H   UNL     1     -50.405  29.003  24.121  1.00  0.00     0.123 HD
BRANCH  40  42
ATOM     42  C   UNL     1     -49.495  27.221  24.484  1.00  0.00     0.002 C 
ATOM     43  H   UNL     1     -50.476  26.872  24.828  1.00  0.00     0.043 H 
ATOM     44  H   UNL     1     -49.381  26.842  23.462  1.00  0.00     0.043 H 
BRANCH  42  45
ATOM     45  C   UNL     1     -48.453  26.675  25.390  1.00  0.00    -0.008 C 
ATOM     46  C   UNL     1     -46.892  26.437  25.215  1.00  0.00    -0.012 C 
ATOM     47  C   UNL     1     -48.058  27.137  26.856  1.00  0.00    -0.012 C 
ATOM     48  C   UNL     1     -48.439  25.220  26.020  1.00  0.00    -0.012 C 
ATOM     49  C   UNL     1     -47.181  25.881  26.632  1.00  0.00     0.112 C 
ATOM     50  H   UNL     1     -46.586  25.718  24.448  1.00  0.00     0.031 H 
ATOM     51  H   UNL     1     -46.253  27.323  25.157  1.00  0.00     0.031 H 
ATOM     52  H   UNL     1     -48.838  27.072  27.622  1.00  0.00     0.031 H 
ATOM     53  H   UNL     1     -47.542  28.098  26.948  1.00  0.00     0.031 H 
ATOM     54  H   UNL     1     -48.280  24.383  25.331  1.00  0.00     0.031 H 
ATOM     55  H   UNL     1     -49.255  24.971  26.707  1.00  0.00     0.031 H 
ATOM     56  F   UNL     1     -46.317  25.340  27.475  1.00  0.00    -0.244 F 
ENDBRANCH  42  45
ENDBRANCH  40  42
ENDBRANCH  37  40
ENDBRANCH   6  37
TORSDOF 7
ENDMDL
MODEL 3
REMARK VINA RESULT:     -10.5      1.851      2.769
REMARK SMILES O=C(NCc1cnc2cc(CNC[C@]34C[C@](F)(C3)C4)[nH]c2c1)c1cc(=O)n2ccccc2n1
REMARK SMILES IDX 5 1 6 2 7 3 8 4 9 5 10 6 20 7 21 8 22 9 4 14 3 17 1 18 2 19
REMARK SMILES IDX 23 21 24 22 33 23 25 24 32 26 26 27 27 28 31 29 28 30 30 31
REMARK SMILES IDX 29 33 11 37 12 40 13 42 14 45 15 46 19 47 18 48 16 49 17 56
REMARK H PARENT 6 10 9 11 20 12 22 13 4 15 4 16 3 20 24 25 31 32 28 34 30 35
REMARK H PARENT 29 36 11 38 11 39 12 41 13 43 13 44 15 50 15 51 19 52 19 53
REMARK H PARENT 18 54 18 55
REMARK Flexibility Score: inf
ROOT
ATOM      1  C   UNL     1     -46.224  36.088  28.360  1.00  0.00    -0.008 A 
ATOM      2  C   UNL     1     -47.612  35.989  28.253  1.00  0.00     0.033 A 
ATOM      3  N   UNL     1     -48.293  35.152  27.439  1.00  0.00    -0.254 NA
ATOM      4  C   UNL     1     -47.511  34.357  26.670  1.00  0.00     0.088 A 
ATOM      5  C   UNL     1     -47.895  33.378  25.723  1.00  0.00    -0.014 A 
ATOM      6  C   UNL     1     -46.741  32.830  25.193  1.00  0.00     0.031 A 
ATOM      7  N   UNL     1     -45.676  33.462  25.798  1.00  0.00    -0.356 N 
ATOM      8  C   UNL     1     -46.122  34.391  26.704  1.00  0.00     0.065 A 
ATOM      9  C   UNL     1     -45.436  35.261  27.552  1.00  0.00    -0.030 A 
ATOM     10  H   UNL     1     -48.256  36.624  28.859  1.00  0.00     0.084 H 
ATOM     11  H   UNL     1     -48.909  33.110  25.463  1.00  0.00     0.067 H 
ATOM     12  H   UNL     1     -44.707  33.235  25.614  1.00  0.00     0.166 HD
ATOM     13  H   UNL     1     -44.352  35.297  27.582  1.00  0.00     0.065 H 
ENDROOT
BRANCH   1  14
ATOM     14  C   UNL     1     -45.590  37.076  29.296  1.00  0.00     0.045 C 
ATOM     15  H   UNL     1     -46.349  37.549  29.931  1.00  0.00     0.054 H 
ATOM     16  H   UNL     1     -44.885  36.564  29.960  1.00  0.00     0.054 H 
BRANCH  14  17
ATOM     17  N   UNL     1     -44.926  38.129  28.571  1.00  0.00    -0.347 N 
ATOM     18  O   UNL     1     -46.766  39.482  28.296  1.00  0.00    -0.268 OA
ATOM     19  C   UNL     1     -45.564  39.281  28.178  1.00  0.00     0.270 C 
ATOM     20  H   UNL     1     -43.913  38.138  28.507  1.00  0.00     0.164 HD
BRANCH  19  21
ATOM     21  C   UNL     1     -44.609  40.293  27.592  1.00  0.00     0.136 A 
ATOM     22  C   UNL     1     -43.510  40.555  28.304  1.00  0.00     0.035 A 
ATOM     23  N   UNL     1     -44.919  40.870  26.381  1.00  0.00    -0.225 NA
ATOM     24  C   UNL     1     -42.551  41.529  27.767  1.00  0.00     0.258 A 
ATOM     25  H   UNL     1     -43.278  40.093  29.254  1.00  0.00     0.071 H 
ATOM     26  C   UNL     1     -44.065  41.726  25.908  1.00  0.00     0.140 A 
ATOM     27  O   UNL     1     -41.539  41.780  28.418  1.00  0.00    -0.269 OA
ATOM     28  N   UNL     1     -42.883  42.092  26.544  1.00  0.00    -0.268 N 
ATOM     29  C   UNL     1     -44.355  42.373  24.597  1.00  0.00    -0.019 A 
ATOM     30  C   UNL     1     -42.022  43.021  25.970  1.00  0.00     0.014 A 
ATOM     31  C   UNL     1     -43.495  43.261  24.086  1.00  0.00    -0.057 A 
ATOM     32  H   UNL     1     -45.272  42.094  24.093  1.00  0.00     0.066 H 
ATOM     33  C   UNL     1     -42.288  43.599  24.793  1.00  0.00    -0.045 A 
ATOM     34  H   UNL     1     -41.116  43.260  26.522  1.00  0.00     0.082 H 
ATOM     35  H   UNL     1     -43.687  43.742  23.131  1.00  0.00     0.062 H 
ATOM     36  H   UNL     1     -41.609  44.322  24.355  1.00  0.00     0.064 H 
ENDBRANCH  19  21
ENDBRANCH  14  17
ENDBRANCH   1  14
BRANCH   6  37
ATOM     37  C   UNL     1     -46.538  31.780  24.160  1.00  0.00     0.036 C 
ATOM     38  H   UNL     1     -45.785  32.115  23.436  1.00  0.00     0.049 H 
ATOM     39  H   UNL     1     -46.154  30.880  24.652  1.00  0.00     0.049 H 
BRANCH  37  40
ATOM     40  N   UNL     1     -47.811  31.520  23.487  1.00  0.00    -0.311 NA
ATOM     41  H   UNL     1     -47.994  32.326  22.885  1.00  0.00     0.123 HD
BRANCH  40  42
ATOM     42  C   UNL     1     -47.756  30.320  22.651  1.00  0.00     0.002 C 
ATOM     43  H   UNL     1     -48.515  30.431  21.867  1.00  0.00     0.043 H 
ATOM     44  H   UNL     1     -46.796  30.238  22.131  1.00  0.00     0.043 H 
BRANCH  42  45
ATOM     45  C   UNL     1     -48.060  29.097  23.436  1.00  0.00    -0.008 C 
ATOM     46  C   UNL     1     -48.670  28.872  24.886  1.00  0.00    -0.012 C 
ATOM     47  C   UNL     1     -48.955  27.849  23.039  1.00  0.00    -0.012 C 
ATOM     48  C   UNL     1     -47.011  27.995  23.885  1.00  0.00    -0.012 C 
ATOM     49  C   UNL     1     -48.356  27.434  24.405  1.00  0.00     0.112 C 
ATOM     50  H   UNL     1     -48.088  29.256  25.730  1.00  0.00     0.031 H 
ATOM     51  H   UNL     1     -49.725  29.121  25.030  1.00  0.00     0.031 H 
ATOM     52  H   UNL     1     -48.641  27.274  22.160  1.00  0.00     0.031 H 
ATOM     53  H   UNL     1     -50.037  28.010  22.996  1.00  0.00     0.031 H 
ATOM     54  H   UNL     1     -46.270  28.294  24.634  1.00  0.00     0.031 H 
ATOM     55  H   UNL     1     -46.511  27.435  23.088  1.00  0.00     0.031 H 
ATOM     56  F   UNL     1     -48.554  26.304  25.063  1.00  0.00    -0.244 F 
ENDBRANCH  42  45
ENDBRANCH  40  42
ENDBRANCH  37  40
ENDBRANCH   6  37
TORSDOF 7
ENDMDL
MODEL 4
REMARK VINA RESULT:     -10.4      1.699      2.373
REMARK SMILES O=C(NCc1cnc2cc(CNC[C@]34C[C@](F)(C3)C4)[nH]c2c1)c1cc(=O)n2ccccc2n1
REMARK SMILES IDX 5 1 6 2 7 3 8 4 9 5 10 6 20 7 21 8 22 9 4 14 3 17 1 18 2 19
REMARK SMILES IDX 23 21 24 22 33 23 25 24 32 26 26 27 27 28 31 29 28 30 30 31
REMARK SMILES IDX 29 33 11 37 12 40 13 42 14 45 15 46 19 47 18 48 16 49 17 56
REMARK H PARENT 6 10 9 11 20 12 22 13 4 15 4 16 3 20 24 25 31 32 28 34 30 35
REMARK H PARENT 29 36 11 38 11 39 12 41 13 43 13 44 15 50 15 51 19 52 19 53
REMARK H PARENT 18 54 18 55
REMARK Flexibility Score: inf
ROOT
ATOM      1  C   UNL     1     -46.492  34.918  27.565  1.00  0.00    -0.008 A 
ATOM      2  C   UNL     1     -47.811  35.353  27.439  1.00  0.00     0.033 A 
ATOM      3  N   UNL     1     -48.814  34.694  26.817  1.00  0.00    -0.254 NA
ATOM      4  C   UNL     1     -48.454  33.505  26.277  1.00  0.00     0.088 A 
ATOM      5  C   UNL     1     -49.247  32.571  25.568  1.00  0.00    -0.014 A 
ATOM      6  C   UNL     1     -48.433  31.509  25.216  1.00  0.00     0.031 A 
ATOM      7  N   UNL     1     -47.172  31.788  25.694  1.00  0.00    -0.356 N 
ATOM      8  C   UNL     1     -47.163  32.995  26.348  1.00  0.00     0.065 A 
ATOM      9  C   UNL     1     -46.140  33.689  26.995  1.00  0.00    -0.030 A 
ATOM     10  H   UNL     1     -48.117  36.308  27.862  1.00  0.00     0.084 H 
ATOM     11  H   UNL     1     -50.299  32.674  25.343  1.00  0.00     0.067 H 
ATOM     12  H   UNL     1     -46.382  31.163  25.598  1.00  0.00     0.166 HD
ATOM     13  H   UNL     1     -45.129  33.301  27.051  1.00  0.00     0.065 H 
ENDROOT
BRANCH   1  14
ATOM     14  C   UNL     1     -45.466  35.758  28.270  1.00  0.00     0.045 C 
ATOM     15  H   UNL     1     -45.676  35.804  29.345  1.00  0.00     0.054 H 
ATOM     16  H   UNL     1     -44.472  35.313  28.153  1.00  0.00     0.054 H 
BRANCH  14  17
ATOM     17  N   UNL     1     -45.473  37.112  27.777  1.00  0.00    -0.347 N 
ATOM     18  O   UNL     1     -45.193  38.151  29.809  1.00  0.00    -0.268 OA
ATOM     19  C   UNL     1     -45.277  38.202  28.588  1.00  0.00     0.270 C 
ATOM     20  H   UNL     1     -45.422  37.286  26.778  1.00  0.00     0.164 HD
BRANCH  19  21
ATOM     21  C   UNL     1     -45.157  39.486  27.803  1.00  0.00     0.136 A 
ATOM     22  C   UNL     1     -46.284  39.965  27.270  1.00  0.00     0.035 A 
ATOM     23  N   UNL     1     -43.920  40.080  27.691  1.00  0.00    -0.225 NA
ATOM     24  C   UNL     1     -46.213  41.216  26.504  1.00  0.00     0.258 A 
ATOM     25  H   UNL     1     -47.251  39.489  27.367  1.00  0.00     0.071 H 
ATOM     26  C   UNL     1     -43.864  41.188  27.018  1.00  0.00     0.140 A 
ATOM     27  O   UNL     1     -47.245  41.660  26.005  1.00  0.00    -0.269 OA
ATOM     28  N   UNL     1     -44.957  41.796  26.410  1.00  0.00    -0.268 N 
ATOM     29  C   UNL     1     -42.546  41.870  26.874  1.00  0.00    -0.019 A 
ATOM     30  C   UNL     1     -44.812  42.984  25.703  1.00  0.00     0.014 A 
ATOM     31  C   UNL     1     -42.457  43.013  26.184  1.00  0.00    -0.057 A 
ATOM     32  H   UNL     1     -41.688  41.406  27.345  1.00  0.00     0.066 H 
ATOM     33  C   UNL     1     -43.626  43.591  25.577  1.00  0.00    -0.045 A 
ATOM     34  H   UNL     1     -45.709  43.404  25.253  1.00  0.00     0.082 H 
ATOM     35  H   UNL     1     -41.506  43.525  26.069  1.00  0.00     0.062 H 
ATOM     36  H   UNL     1     -43.525  44.518  25.023  1.00  0.00     0.064 H 
ENDBRANCH  19  21
ENDBRANCH  14  17
ENDBRANCH   1  14
BRANCH   6  37
ATOM     37  C   UNL     1     -48.721  30.263  24.458  1.00  0.00     0.036 C 
ATOM     38  H   UNL     1     -49.794  30.043  24.503  1.00  0.00     0.049 H 
ATOM     39  H   UNL     1     -48.455  30.427  23.409  1.00  0.00     0.049 H 
BRANCH  37  40
ATOM     40  N   UNL     1     -47.951  29.162  25.039  1.00  0.00    -0.311 NA
ATOM     41  H   UNL     1     -48.039  29.247  26.055  1.00  0.00     0.123 HD
BRANCH  40  42
ATOM     42  C   UNL     1     -48.472  27.855  24.638  1.00  0.00     0.002 C 
ATOM     43  H   UNL     1     -49.563  27.891  24.739  1.00  0.00     0.043 H 
ATOM     44  H   UNL     1     -48.273  27.652  23.580  1.00  0.00     0.043 H 
BRANCH  42  45
ATOM     45  C   UNL     1     -47.950  26.771  25.511  1.00  0.00    -0.008 C 
ATOM     46  C   UNL     1     -46.670  25.836  25.417  1.00  0.00    -0.012 C 
ATOM     47  C   UNL     1     -47.614  26.809  27.061  1.00  0.00    -0.012 C 
ATOM     48  C   UNL     1     -48.705  25.425  25.872  1.00  0.00    -0.012 C 
ATOM     49  C   UNL     1     -47.393  25.323  26.686  1.00  0.00     0.112 C 
ATOM     50  H   UNL     1     -46.618  25.156  24.560  1.00  0.00     0.031 H 
ATOM     51  H   UNL     1     -45.693  26.307  25.566  1.00  0.00     0.031 H 
ATOM     52  H   UNL     1     -48.442  27.035  27.741  1.00  0.00     0.031 H 
ATOM     53  H   UNL     1     -46.733  27.386  27.362  1.00  0.00     0.031 H 
ATOM     54  H   UNL     1     -48.849  24.704  25.060  1.00  0.00     0.031 H 
ATOM     55  H   UNL     1     -49.638  25.518  26.440  1.00  0.00     0.031 H 
ATOM     56  F   UNL     1     -47.016  24.337  27.484  1.00  0.00    -0.244 F 
ENDBRANCH  42  45
ENDBRANCH  40  42
ENDBRANCH  37  40
ENDBRANCH   6  37
TORSDOF 7
ENDMDL
MODEL 5
REMARK VINA RESULT:     -10.2      1.901      2.591
REMARK SMILES O=C(NCc1cnc2cc(CNC[C@]34C[C@](F)(C3)C4)[nH]c2c1)c1cc(=O)n2ccccc2n1
REMARK SMILES IDX 5 1 6 2 7 3 8 4 9 5 10 6 20 7 21 8 22 9 4 14 3 17 1 18 2 19
REMARK SMILES IDX 23 21 24 22 33 23 25 24 32 26 26 27 27 28 31 29 28 30 30 31
REMARK SMILES IDX 29 33 11 37 12 40 13 42 14 45 15 46 19 47 18 48 16 49 17 56
REMARK H PARENT 6 10 9 11 20 12 22 13 4 15 4 16 3 20 24 25 31 32 28 34 30 35
REMARK H PARENT 29 36 11 38 11 39 12 41 13 43 13 44 15 50 15 51 19 52 19 53
REMARK H PARENT 18 54 18 55
REMARK Flexibility Score: inf
ROOT
ATOM      1  C   UNL     1     -47.064  34.616  27.571  1.00  0.00    -0.008 A 
ATOM      2  C   UNL     1     -48.335  34.552  26.999  1.00  0.00     0.033 A 
ATOM      3  N   UNL     1     -48.700  33.785  25.947  1.00  0.00    -0.254 NA
ATOM      4  C   UNL     1     -47.702  33.029  25.431  1.00  0.00     0.088 A 
ATOM      5  C   UNL     1     -47.742  32.124  24.344  1.00  0.00    -0.014 A 
ATOM      6  C   UNL     1     -46.474  31.590  24.194  1.00  0.00     0.031 A 
ATOM      7  N   UNL     1     -45.677  32.160  25.163  1.00  0.00    -0.356 N 
ATOM      8  C   UNL     1     -46.405  33.034  25.931  1.00  0.00     0.065 A 
ATOM      9  C   UNL     1     -46.047  33.831  27.018  1.00  0.00    -0.030 A 
ATOM     10  H   UNL     1     -49.148  35.157  27.398  1.00  0.00     0.084 H 
ATOM     11  H   UNL     1     -48.609  31.894  23.742  1.00  0.00     0.067 H 
ATOM     12  H   UNL     1     -44.702  31.927  25.299  1.00  0.00     0.166 HD
ATOM     13  H   UNL     1     -45.036  33.844  27.412  1.00  0.00     0.065 H 
ENDROOT
BRANCH   1  14
ATOM     14  C   UNL     1     -46.786  35.527  28.733  1.00  0.00     0.045 C 
ATOM     15  H   UNL     1     -47.720  35.922  29.147  1.00  0.00     0.054 H 
ATOM     16  H   UNL     1     -46.286  34.971  29.533  1.00  0.00     0.054 H 
BRANCH  14  17
ATOM     17  N   UNL     1     -45.988  36.657  28.329  1.00  0.00    -0.347 N 
ATOM     18  O   UNL     1     -47.735  38.074  27.847  1.00  0.00    -0.268 OA
ATOM     19  C   UNL     1     -46.534  37.865  27.972  1.00  0.00     0.270 C 
ATOM     20  H   UNL     1     -44.986  36.653  28.493  1.00  0.00     0.164 HD
BRANCH  19  21
ATOM     21  C   UNL     1     -45.484  38.929  27.761  1.00  0.00     0.136 A 
ATOM     22  C   UNL     1     -45.527  39.587  26.601  1.00  0.00     0.035 A 
ATOM     23  N   UNL     1     -44.565  39.157  28.761  1.00  0.00    -0.225 NA
ATOM     24  C   UNL     1     -44.528  40.635  26.358  1.00  0.00     0.258 A 
ATOM     25  H   UNL     1     -46.256  39.398  25.824  1.00  0.00     0.071 H 
ATOM     26  C   UNL     1     -43.686  40.089  28.544  1.00  0.00     0.140 A 
ATOM     27  O   UNL     1     -44.558  41.242  25.290  1.00  0.00    -0.269 OA
ATOM     28  N   UNL     1     -43.617  40.849  27.382  1.00  0.00    -0.268 N 
ATOM     29  C   UNL     1     -42.675  40.375  29.600  1.00  0.00    -0.019 A 
ATOM     30  C   UNL     1     -42.642  41.828  27.226  1.00  0.00     0.014 A 
ATOM     31  C   UNL     1     -41.755  41.328  29.404  1.00  0.00    -0.057 A 
ATOM     32  H   UNL     1     -42.721  39.790  30.510  1.00  0.00     0.066 H 
ATOM     33  C   UNL     1     -41.735  42.080  28.178  1.00  0.00    -0.045 A 
ATOM     34  H   UNL     1     -42.646  42.385  26.292  1.00  0.00     0.082 H 
ATOM     35  H   UNL     1     -41.011  41.553  30.162  1.00  0.00     0.062 H 
ATOM     36  H   UNL     1     -40.979  42.847  28.045  1.00  0.00     0.064 H 
ENDBRANCH  19  21
ENDBRANCH  14  17
ENDBRANCH   1  14
BRANCH   6  37
ATOM     37  C   UNL     1     -45.932  30.609  23.218  1.00  0.00     0.036 C 
ATOM     38  H   UNL     1     -45.627  31.130  22.302  1.00  0.00     0.049 H 
ATOM     39  H   UNL     1     -45.041  30.145  23.653  1.00  0.00     0.049 H 
BRANCH  37  40
ATOM     40  N   UNL     1     -46.962  29.614  22.918  1.00  0.00    -0.311 NA
ATOM     41  H   UNL     1     -46.929  29.451  21.909  1.00  0.00     0.123 HD
BRANCH  40  42
ATOM     42  C   UNL     1     -46.714  28.343  23.600  1.00  0.00     0.002 C 
ATOM     43  H   UNL     1     -46.569  27.579  22.827  1.00  0.00     0.043 H 
ATOM     44  H   UNL     1     -45.781  28.372  24.174  1.00  0.00     0.043 H 
BRANCH  42  45
ATOM     45  C   UNL     1     -47.868  27.947  24.448  1.00  0.00    -0.008 C 
ATOM     46  C   UNL     1     -48.675  28.703  25.588  1.00  0.00    -0.012 C 
ATOM     47  C   UNL     1     -49.296  27.413  24.010  1.00  0.00    -0.012 C 
ATOM     48  C   UNL     1     -47.901  26.727  25.461  1.00  0.00    -0.012 C 
ATOM     49  C   UNL     1     -49.334  27.303  25.554  1.00  0.00     0.112 C 
ATOM     50  H   UNL     1     -48.117  28.973  26.491  1.00  0.00     0.031 H 
ATOM     51  H   UNL     1     -49.300  29.548  25.283  1.00  0.00     0.031 H 
ATOM     52  H   UNL     1     -49.321  26.477  23.442  1.00  0.00     0.031 H 
ATOM     53  H   UNL     1     -49.972  28.136  23.543  1.00  0.00     0.031 H 
ATOM     54  H   UNL     1     -47.270  26.806  26.353  1.00  0.00     0.031 H 
ATOM     55  H   UNL     1     -47.794  25.725  25.031  1.00  0.00     0.031 H 
ATOM     56  F   UNL     1     -50.330  26.864  26.307  1.00  0.00    -0.244 F 
ENDBRANCH  42  45
ENDBRANCH  40  42
ENDBRANCH  37  40
ENDBRANCH   6  37
TORSDOF 7
ENDMDL
MODEL 6
REMARK VINA RESULT:      -9.8      4.518     12.217
REMARK SMILES O=C(NCc1cnc2cc(CNC[C@]34C[C@](F)(C3)C4)[nH]c2c1)c1cc(=O)n2ccccc2n1
REMARK SMILES IDX 5 1 6 2 7 3 8 4 9 5 10 6 20 7 21 8 22 9 4 14 3 17 1 18 2 19
REMARK SMILES IDX 23 21 24 22 33 23 25 24 32 26 26 27 27 28 31 29 28 30 30 31
REMARK SMILES IDX 29 33 11 37 12 40 13 42 14 45 15 46 19 47 18 48 16 49 17 56
REMARK H PARENT 6 10 9 11 20 12 22 13 4 15 4 16 3 20 24 25 31 32 28 34 30 35
REMARK H PARENT 29 36 11 38 11 39 12 41 13 43 13 44 15 50 15 51 19 52 19 53
REMARK H PARENT 18 54 18 55
REMARK Flexibility Score: inf
ROOT
ATOM      1  C   UNL     1     -46.477  33.631  25.858  1.00  0.00    -0.008 A 
ATOM      2  C   UNL     1     -46.316  33.075  27.127  1.00  0.00     0.033 A 
ATOM      3  N   UNL     1     -46.255  33.754  28.295  1.00  0.00    -0.254 NA
ATOM      4  C   UNL     1     -46.362  35.099  28.168  1.00  0.00     0.088 A 
ATOM      5  C   UNL     1     -46.341  36.093  29.175  1.00  0.00    -0.014 A 
ATOM      6  C   UNL     1     -46.484  37.322  28.557  1.00  0.00     0.031 A 
ATOM      7  N   UNL     1     -46.583  37.086  27.203  1.00  0.00    -0.356 N 
ATOM      8  C   UNL     1     -46.518  35.740  26.945  1.00  0.00     0.065 A 
ATOM      9  C   UNL     1     -46.579  35.022  25.750  1.00  0.00    -0.030 A 
ATOM     10  H   UNL     1     -46.223  31.997  27.248  1.00  0.00     0.084 H 
ATOM     11  H   UNL     1     -46.233  35.918  30.237  1.00  0.00     0.067 H 
ATOM     12  H   UNL     1     -46.722  37.813  26.513  1.00  0.00     0.166 HD
ATOM     13  H   UNL     1     -46.696  35.514  24.790  1.00  0.00     0.065 H 
ENDROOT
BRANCH   1  14
ATOM     14  C   UNL     1     -46.511  32.761  24.634  1.00  0.00     0.045 C 
ATOM     15  H   UNL     1     -47.005  33.281  23.804  1.00  0.00     0.054 H 
ATOM     16  H   UNL     1     -45.491  32.531  24.310  1.00  0.00     0.054 H 
BRANCH  14  17
ATOM     17  N   UNL     1     -47.250  31.548  24.877  1.00  0.00    -0.347 N 
ATOM     18  O   UNL     1     -48.213  31.387  22.794  1.00  0.00    -0.268 OA
ATOM     19  C   UNL     1     -48.000  30.926  23.909  1.00  0.00     0.270 C 
ATOM     20  H   UNL     1     -47.071  31.007  25.717  1.00  0.00     0.164 HD
BRANCH  19  21
ATOM     21  C   UNL     1     -48.529  29.588  24.366  1.00  0.00     0.136 A 
ATOM     22  C   UNL     1     -49.844  29.396  24.247  1.00  0.00     0.035 A 
ATOM     23  N   UNL     1     -47.640  28.661  24.864  1.00  0.00    -0.225 NA
ATOM     24  C   UNL     1     -50.399  28.105  24.674  1.00  0.00     0.258 A 
ATOM     25  H   UNL     1     -50.532  30.132  23.853  1.00  0.00     0.071 H 
ATOM     26  C   UNL     1     -48.135  27.519  25.234  1.00  0.00     0.140 A 
ATOM     27  O   UNL     1     -51.610  27.921  24.572  1.00  0.00    -0.269 OA
ATOM     28  N   UNL     1     -49.483  27.187  25.166  1.00  0.00    -0.268 N 
ATOM     29  C   UNL     1     -47.210  26.483  25.774  1.00  0.00    -0.019 A 
ATOM     30  C   UNL     1     -49.933  25.941  25.587  1.00  0.00     0.014 A 
ATOM     31  C   UNL     1     -47.691  25.297  26.167  1.00  0.00    -0.057 A 
ATOM     32  H   UNL     1     -46.157  26.731  25.830  1.00  0.00     0.066 H 
ATOM     33  C   UNL     1     -49.098  25.014  26.072  1.00  0.00    -0.045 A 
ATOM     34  H   UNL     1     -51.001  25.748  25.506  1.00  0.00     0.082 H 
ATOM     35  H   UNL     1     -47.033  24.528  26.561  1.00  0.00     0.062 H 
ATOM     36  H   UNL     1     -49.461  24.045  26.397  1.00  0.00     0.064 H 
ENDBRANCH  19  21
ENDBRANCH  14  17
ENDBRANCH   1  14
BRANCH   6  37
ATOM     37  C   UNL     1     -46.518  38.701  29.112  1.00  0.00     0.036 C 
ATOM     38  H   UNL     1     -47.559  39.011  29.265  1.00  0.00     0.049 H 
ATOM     39  H   UNL     1     -46.022  38.693  30.087  1.00  0.00     0.049 H 
BRANCH  37  40
ATOM     40  N   UNL     1     -45.849  39.608  28.178  1.00  0.00    -0.311 NA
ATOM     41  H   UNL     1     -46.216  40.544  28.366  1.00  0.00     0.123 HD
BRANCH  40  42
ATOM     42  C   UNL     1     -44.400  39.630  28.376  1.00  0.00     0.002 C 
ATOM     43  H   UNL     1     -44.217  39.703  29.455  1.00  0.00     0.043 H 
ATOM     44  H   UNL     1     -43.937  38.691  28.053  1.00  0.00     0.043 H 
BRANCH  42  45
ATOM     45  C   UNL     1     -43.779  40.804  27.710  1.00  0.00    -0.008 C 
ATOM     46  C   UNL     1     -42.953  42.043  28.263  1.00  0.00    -0.012 C 
ATOM     47  C   UNL     1     -42.733  40.841  26.517  1.00  0.00    -0.012 C 
ATOM     48  C   UNL     1     -44.544  41.902  26.859  1.00  0.00    -0.012 C 
ATOM     49  C   UNL     1     -43.063  42.337  26.747  1.00  0.00     0.112 C 
ATOM     50  H   UNL     1     -43.479  42.721  28.944  1.00  0.00     0.031 H 
ATOM     51  H   UNL     1     -41.951  41.844  28.652  1.00  0.00     0.031 H 
ATOM     52  H   UNL     1     -43.052  40.400  25.566  1.00  0.00     0.031 H 
ATOM     53  H   UNL     1     -41.714  40.513  26.743  1.00  0.00     0.031 H 
ATOM     54  H   UNL     1     -45.221  42.568  27.404  1.00  0.00     0.031 H 
ATOM     55  H   UNL     1     -45.035  41.563  25.940  1.00  0.00     0.031 H 
ATOM     56  F   UNL     1     -42.578  43.379  26.092  1.00  0.00    -0.244 F 
ENDBRANCH  42  45
ENDBRANCH  40  42
ENDBRANCH  37  40
ENDBRANCH   6  37
TORSDOF 7
ENDMDL
MODEL 7
REMARK VINA RESULT:      -9.6      3.159      4.628
REMARK SMILES O=C(NCc1cnc2cc(CNC[C@]34C[C@](F)(C3)C4)[nH]c2c1)c1cc(=O)n2ccccc2n1
REMARK SMILES IDX 5 1 6 2 7 3 8 4 9 5 10 6 20 7 21 8 22 9 4 14 3 17 1 18 2 19
REMARK SMILES IDX 23 21 24 22 33 23 25 24 32 26 26 27 27 28 31 29 28 30 30 31
REMARK SMILES IDX 29 33 11 37 12 40 13 42 14 45 15 46 19 47 18 48 16 49 17 56
REMARK H PARENT 6 10 9 11 20 12 22 13 4 15 4 16 3 20 24 25 31 32 28 34 30 35
REMARK H PARENT 29 36 11 38 11 39 12 41 13 43 13 44 15 50 15 51 19 52 19 53
REMARK H PARENT 18 54 18 55
REMARK Flexibility Score: inf
ROOT
ATOM      1  C   UNL     1     -46.768  32.311  24.798  1.00  0.00    -0.008 A 
ATOM      2  C   UNL     1     -46.540  32.045  23.448  1.00  0.00     0.033 A 
ATOM      3  N   UNL     1     -47.188  31.130  22.694  1.00  0.00    -0.254 NA
ATOM      4  C   UNL     1     -48.137  30.426  23.357  1.00  0.00     0.088 A 
ATOM      5  C   UNL     1     -48.991  29.407  22.874  1.00  0.00    -0.014 A 
ATOM      6  C   UNL     1     -49.788  28.991  23.925  1.00  0.00     0.031 A 
ATOM      7  N   UNL     1     -49.426  29.735  25.027  1.00  0.00    -0.356 N 
ATOM      8  C   UNL     1     -48.427  30.618  24.703  1.00  0.00     0.065 A 
ATOM      9  C   UNL     1     -47.748  31.568  25.466  1.00  0.00    -0.030 A 
ATOM     10  H   UNL     1     -45.778  32.597  22.900  1.00  0.00     0.084 H 
ATOM     11  H   UNL     1     -49.014  29.025  21.863  1.00  0.00     0.067 H 
ATOM     12  H   UNL     1     -49.870  29.653  25.933  1.00  0.00     0.166 HD
ATOM     13  H   UNL     1     -47.965  31.722  26.518  1.00  0.00     0.065 H 
ENDROOT
BRANCH   1  14
ATOM     14  C   UNL     1     -45.962  33.348  25.527  1.00  0.00     0.045 C 
ATOM     15  H   UNL     1     -45.467  32.909  26.401  1.00  0.00     0.054 H 
ATOM     16  H   UNL     1     -45.176  33.740  24.873  1.00  0.00     0.054 H 
BRANCH  14  17
ATOM     17  N   UNL     1     -46.800  34.418  26.005  1.00  0.00    -0.347 N 
ATOM     18  O   UNL     1     -46.521  34.009  28.251  1.00  0.00    -0.268 OA
ATOM     19  C   UNL     1     -46.964  34.697  27.340  1.00  0.00     0.270 C 
ATOM     20  H   UNL     1     -47.133  35.127  25.359  1.00  0.00     0.164 HD
BRANCH  19  21
ATOM     21  C   UNL     1     -47.747  35.967  27.567  1.00  0.00     0.136 A 
ATOM     22  C   UNL     1     -47.057  37.109  27.515  1.00  0.00     0.035 A 
ATOM     23  N   UNL     1     -49.100  35.877  27.805  1.00  0.00    -0.225 NA
ATOM     24  C   UNL     1     -47.781  38.369  27.724  1.00  0.00     0.258 A 
ATOM     25  H   UNL     1     -45.993  37.166  27.326  1.00  0.00     0.071 H 
ATOM     26  C   UNL     1     -49.737  36.994  27.984  1.00  0.00     0.140 A 
ATOM     27  O   UNL     1     -47.152  39.424  27.683  1.00  0.00    -0.269 OA
ATOM     28  N   UNL     1     -49.143  38.251  27.957  1.00  0.00    -0.268 N 
ATOM     29  C   UNL     1     -51.205  36.945  28.239  1.00  0.00    -0.019 A 
ATOM     30  C   UNL     1     -49.897  39.401  28.161  1.00  0.00     0.014 A 
ATOM     31  C   UNL     1     -51.888  38.081  28.429  1.00  0.00    -0.057 A 
ATOM     32  H   UNL     1     -51.678  35.971  28.260  1.00  0.00     0.066 H 
ATOM     33  C   UNL     1     -51.215  39.351  28.390  1.00  0.00    -0.045 A 
ATOM     34  H   UNL     1     -49.368  40.351  28.126  1.00  0.00     0.082 H 
ATOM     35  H   UNL     1     -52.958  38.066  28.615  1.00  0.00     0.062 H 
ATOM     36  H   UNL     1     -51.793  40.256  28.548  1.00  0.00     0.064 H 
ENDBRANCH  19  21
ENDBRANCH  14  17
ENDBRANCH   1  14
BRANCH   6  37
ATOM     37  C   UNL     1     -50.847  27.951  24.002  1.00  0.00     0.036 C 
ATOM     38  H   UNL     1     -51.467  28.119  24.891  1.00  0.00     0.049 H 
ATOM     39  H   UNL     1     -51.490  28.046  23.120  1.00  0.00     0.049 H 
BRANCH  37  40
ATOM     40  N   UNL     1     -50.217  26.631  24.064  1.00  0.00    -0.311 NA
ATOM     41  H   UNL     1     -49.258  26.749  23.728  1.00  0.00     0.123 HD
BRANCH  40  42
ATOM     42  C   UNL     1     -50.168  26.109  25.430  1.00  0.00     0.002 C 
ATOM     43  H   UNL     1     -50.779  26.770  26.056  1.00  0.00     0.043 H 
ATOM     44  H   UNL     1     -50.631  25.118  25.496  1.00  0.00     0.043 H 
BRANCH  42  45
ATOM     45  C   UNL     1     -48.780  26.103  25.960  1.00  0.00    -0.008 C 
ATOM     46  C   UNL     1     -47.921  24.999  26.712  1.00  0.00    -0.012 C 
ATOM     47  C   UNL     1     -47.420  26.423  25.208  1.00  0.00    -0.012 C 
ATOM     48  C   UNL     1     -48.206  27.075  27.073  1.00  0.00    -0.012 C 
ATOM     49  C   UNL     1     -46.975  26.225  26.678  1.00  0.00     0.112 C 
ATOM     50  H   UNL     1     -48.285  24.675  27.693  1.00  0.00     0.031 H 
ATOM     51  H   UNL     1     -47.611  24.124  26.133  1.00  0.00     0.031 H 
ATOM     52  H   UNL     1     -47.314  27.428  24.785  1.00  0.00     0.031 H 
ATOM     53  H   UNL     1     -47.074  25.686  24.477  1.00  0.00     0.031 H 
ATOM     54  H   UNL     1     -48.596  26.950  28.089  1.00  0.00     0.031 H 
ATOM     55  H   UNL     1     -48.174  28.143  26.828  1.00  0.00     0.031 H 
ATOM     56  F   UNL     1     -45.749  26.309  27.168  1.00  0.00    -0.244 F 
ENDBRANCH  42  45
ENDBRANCH  40  42
ENDBRANCH  37  40
ENDBRANCH   6  37
TORSDOF 7
ENDMDL
