MODEL 1
REMARK VINA RESULT:     -11.0      0.000      0.000
REMARK SMILES Nc1ncnc2c1c([C@@H]1CCCO1)cn2-c1cncc(CCc2ccc3ccc(N4CCC4)nc3c2)c1
REMARK SMILES IDX 21 1 20 4 16 5 17 6 37 7 18 8 19 11 15 13 2 14 3 15 7 16
REMARK SMILES IDX 4 17 6 18 8 19 5 20 14 22 1 24 9 27 10 28 13 29 11 31 12 34
REMARK SMILES IDX 22 39 23 42 24 43 36 44 25 45 35 47 26 49 34 51 27 52 29 53
REMARK SMILES IDX 28 54 30 57 31 58 33 59 32 60
REMARK H PARENT 21 2 21 3 17 9 37 10 19 12 4 21 14 23 1 25 1 26 9 30 10 32
REMARK H PARENT 10 33 11 35 11 36 12 37 12 38 22 40 22 41 24 46 36 48 25 50
REMARK H PARENT 27 55 28 56 31 61 31 62 33 63 33 64 32 65 32 66
REMARK Flexibility Score: inf
ROOT
ATOM      1  C   UNL     1     -46.698  34.693  26.552  1.00  0.00    -0.022 C 
ATOM      2  H   UNL     1     -46.143  34.188  27.352  1.00  0.00     0.032 H 
ATOM      3  H   UNL     1     -46.019  34.715  25.690  1.00  0.00     0.032 H 
ENDROOT
BRANCH   1   4
ATOM      4  C   UNL     1     -46.997  36.099  27.003  1.00  0.00    -0.027 A 
ATOM      5  C   UNL     1     -46.290  38.380  27.458  1.00  0.00     0.066 A 
ATOM      6  C   UNL     1     -47.598  38.619  27.873  1.00  0.00     0.051 A 
ATOM      7  C   UNL     1     -46.002  37.086  27.011  1.00  0.00    -0.032 A 
ATOM      8  N   UNL     1     -48.588  37.691  27.876  1.00  0.00    -0.262 NA
ATOM      9  H   UNL     1     -47.944  39.587  28.219  1.00  0.00     0.086 H 
ATOM     10  H   UNL     1     -45.007  36.801  26.684  1.00  0.00     0.065 H 
ATOM     11  C   UNL     1     -48.262  36.454  27.452  1.00  0.00     0.030 A 
ATOM     12  H   UNL     1     -49.074  35.733  27.489  1.00  0.00     0.084 H 
BRANCH   5  13
ATOM     13  N   UNL     1     -45.304  39.417  27.498  1.00  0.00    -0.299 N 
ATOM     14  C   UNL     1     -42.513  41.112  28.948  1.00  0.00     0.136 A 
ATOM     15  N   UNL     1     -42.264  40.377  30.044  1.00  0.00    -0.219 NA
ATOM     16  C   UNL     1     -43.576  40.749  28.100  1.00  0.00     0.067 A 
ATOM     17  C   UNL     1     -43.049  39.317  30.284  1.00  0.00     0.120 A 
ATOM     18  C   UNL     1     -44.316  39.626  28.462  1.00  0.00     0.150 A 
ATOM     19  C   UNL     1     -44.124  41.266  26.885  1.00  0.00     0.012 A 
ATOM     20  N   UNL     1     -44.080  38.870  29.554  1.00  0.00    -0.218 NA
ATOM     21  H   UNL     1     -42.817  38.749  31.180  1.00  0.00     0.106 H 
ATOM     22  C   UNL     1     -45.169  40.424  26.551  1.00  0.00     0.018 A 
ATOM     23  H   UNL     1     -45.848  40.491  25.715  1.00  0.00     0.083 H 
BRANCH  14  24
ATOM     24  N   UNL     1     -41.669  42.190  28.704  1.00  0.00    -0.383 N 
ATOM     25  H   UNL     1     -41.583  42.806  29.512  1.00  0.00     0.158 HD
ATOM     26  H   UNL     1     -41.930  42.646  27.838  1.00  0.00     0.158 HD
ENDBRANCH  14  24
BRANCH  19  27
ATOM     27  C   UNL     1     -43.639  42.500  26.165  1.00  0.00     0.085 C 
ATOM     28  C   UNL     1     -44.035  43.836  26.780  1.00  0.00    -0.020 C 
ATOM     29  O   UNL     1     -44.173  42.524  24.819  1.00  0.00    -0.373 OA
ATOM     30  H   UNL     1     -42.547  42.438  26.091  1.00  0.00     0.066 H 
ATOM     31  C   UNL     1     -45.357  44.125  26.111  1.00  0.00    -0.027 C 
ATOM     32  H   UNL     1     -44.082  43.855  27.870  1.00  0.00     0.030 H 
ATOM     33  H   UNL     1     -43.313  44.603  26.471  1.00  0.00     0.030 H 
ATOM     34  C   UNL     1     -45.116  43.601  24.713  1.00  0.00     0.048 C 
ATOM     35  H   UNL     1     -45.634  45.183  26.125  1.00  0.00     0.029 H 
ATOM     36  H   UNL     1     -46.159  43.556  26.594  1.00  0.00     0.029 H 
ATOM     37  H   UNL     1     -44.671  44.369  24.073  1.00  0.00     0.057 H 
ATOM     38  H   UNL     1     -46.033  43.240  24.237  1.00  0.00     0.057 H 
ENDBRANCH  19  27
ENDBRANCH   5  13
ENDBRANCH   1   4
BRANCH   1  39
ATOM     39  C   UNL     1     -47.952  33.873  26.223  1.00  0.00    -0.024 C 
ATOM     40  H   UNL     1     -48.445  33.583  27.160  1.00  0.00     0.032 H 
ATOM     41  H   UNL     1     -48.684  34.489  25.684  1.00  0.00     0.032 H 
BRANCH  39  42
ATOM     42  C   UNL     1     -47.661  32.617  25.436  1.00  0.00    -0.046 A 
ATOM     43  C   UNL     1     -46.759  32.636  24.369  1.00  0.00    -0.058 A 
ATOM     44  C   UNL     1     -48.309  31.412  25.755  1.00  0.00    -0.032 A 
ATOM     45  C   UNL     1     -46.516  31.472  23.642  1.00  0.00    -0.053 A 
ATOM     46  H   UNL     1     -46.243  33.554  24.096  1.00  0.00     0.063 H 
ATOM     47  C   UNL     1     -48.082  30.238  25.050  1.00  0.00     0.073 A 
ATOM     48  H   UNL     1     -49.023  31.382  26.577  1.00  0.00     0.065 H 
ATOM     49  C   UNL     1     -47.171  30.275  23.978  1.00  0.00     0.000 A 
ATOM     50  H   UNL     1     -45.813  31.502  22.813  1.00  0.00     0.063 H 
ATOM     51  N   UNL     1     -48.728  29.114  25.410  1.00  0.00    -0.231 NA
ATOM     52  C   UNL     1     -46.952  29.091  23.270  1.00  0.00    -0.049 A 
ATOM     53  C   UNL     1     -48.504  27.971  24.723  1.00  0.00     0.129 A 
ATOM     54  C   UNL     1     -47.626  27.933  23.645  1.00  0.00    -0.019 A 
ATOM     55  H   UNL     1     -46.267  29.062  22.428  1.00  0.00     0.063 H 
ATOM     56  H   UNL     1     -47.472  27.014  23.090  1.00  0.00     0.066 H 
BRANCH  53  57
ATOM     57  N   UNL     1     -49.198  26.807  25.105  1.00  0.00    -0.356 N 
ATOM     58  C   UNL     1     -48.705  25.764  25.955  1.00  0.00     0.021 C 
ATOM     59  C   UNL     1     -50.485  26.810  25.743  1.00  0.00     0.021 C 
ATOM     60  C   UNL     1     -50.171  25.375  26.180  1.00  0.00    -0.018 C 
ATOM     61  H   UNL     1     -48.094  25.024  25.433  1.00  0.00     0.049 H 
ATOM     62  H   UNL     1     -48.186  26.143  26.842  1.00  0.00     0.049 H 
ATOM     63  H   UNL     1     -51.316  26.925  25.044  1.00  0.00     0.049 H 
ATOM     64  H   UNL     1     -50.558  27.534  26.561  1.00  0.00     0.049 H 
ATOM     65  H   UNL     1     -50.444  25.118  27.206  1.00  0.00     0.030 H 
ATOM     66  H   UNL     1     -50.543  24.602  25.497  1.00  0.00     0.030 H 
ENDBRANCH  53  57
ENDBRANCH  39  42
ENDBRANCH   1  39
TORSDOF 7
ENDMDL
MODEL 2
REMARK VINA RESULT:     -10.8      3.370     12.417
REMARK SMILES Nc1ncnc2c1c([C@@H]1CCCO1)cn2-c1cncc(CCc2ccc3ccc(N4CCC4)nc3c2)c1
REMARK SMILES IDX 21 1 20 4 16 5 17 6 37 7 18 8 19 11 15 13 2 14 3 15 7 16
REMARK SMILES IDX 4 17 6 18 8 19 5 20 14 22 1 24 9 27 10 28 13 29 11 31 12 34
REMARK SMILES IDX 22 39 23 42 24 43 36 44 25 45 35 47 26 49 34 51 27 52 29 53
REMARK SMILES IDX 28 54 30 57 31 58 33 59 32 60
REMARK H PARENT 21 2 21 3 17 9 37 10 19 12 4 21 14 23 1 25 1 26 9 30 10 32
REMARK H PARENT 10 33 11 35 11 36 12 37 12 38 22 40 22 41 24 46 36 48 25 50
REMARK H PARENT 27 55 28 56 31 61 31 62 33 63 33 64 32 65 32 66
REMARK Flexibility Score: inf
ROOT
ATOM      1  C   UNL     1     -48.976  35.123  27.342  1.00  0.00    -0.022 C 
ATOM      2  H   UNL     1     -48.781  34.795  28.370  1.00  0.00     0.032 H 
ATOM      3  H   UNL     1     -50.043  34.939  27.170  1.00  0.00     0.032 H 
ENDROOT
BRANCH   1   4
ATOM      4  C   UNL     1     -48.154  34.266  26.414  1.00  0.00    -0.027 A 
ATOM      5  C   UNL     1     -47.812  32.207  25.168  1.00  0.00     0.066 A 
ATOM      6  C   UNL     1     -46.594  32.747  24.761  1.00  0.00     0.051 A 
ATOM      7  C   UNL     1     -48.599  33.000  26.009  1.00  0.00    -0.032 A 
ATOM      8  N   UNL     1     -46.133  33.969  25.127  1.00  0.00    -0.262 NA
ATOM      9  H   UNL     1     -45.911  32.236  24.092  1.00  0.00     0.086 H 
ATOM     10  H   UNL     1     -49.554  32.656  26.391  1.00  0.00     0.065 H 
ATOM     11  C   UNL     1     -46.916  34.693  25.951  1.00  0.00     0.030 A 
ATOM     12  H   UNL     1     -46.503  35.656  26.241  1.00  0.00     0.084 H 
BRANCH   5  13
ATOM     13  N   UNL     1     -48.217  30.902  24.740  1.00  0.00    -0.299 N 
ATOM     14  C   UNL     1     -49.146  28.500  22.264  1.00  0.00     0.136 A 
ATOM     15  N   UNL     1     -49.080  29.213  21.128  1.00  0.00    -0.219 NA
ATOM     16  C   UNL     1     -48.846  29.124  23.489  1.00  0.00     0.067 A 
ATOM     17  C   UNL     1     -48.727  30.505  21.214  1.00  0.00     0.120 A 
ATOM     18  C   UNL     1     -48.493  30.470  23.442  1.00  0.00     0.150 A 
ATOM     19  C   UNL     1     -48.805  28.704  24.855  1.00  0.00     0.012 A 
ATOM     20  N   UNL     1     -48.414  31.204  22.313  1.00  0.00    -0.218 NA
ATOM     21  H   UNL     1     -48.687  31.048  20.274  1.00  0.00     0.106 H 
ATOM     22  C   UNL     1     -48.413  29.814  25.581  1.00  0.00     0.018 A 
ATOM     23  H   UNL     1     -48.288  29.911  26.649  1.00  0.00     0.083 H 
BRANCH  14  24
ATOM     24  N   UNL     1     -49.487  27.157  22.148  1.00  0.00    -0.383 N 
ATOM     25  H   UNL     1     -49.252  26.774  21.232  1.00  0.00     0.158 HD
ATOM     26  H   UNL     1     -50.445  27.016  22.443  1.00  0.00     0.158 HD
ENDBRANCH  14  24
BRANCH  19  27
ATOM     27  C   UNL     1     -49.152  27.324  25.355  1.00  0.00     0.085 C 
ATOM     28  C   UNL     1     -48.975  27.085  26.849  1.00  0.00    -0.020 C 
ATOM     29  O   UNL     1     -48.310  26.340  24.707  1.00  0.00    -0.373 OA
ATOM     30  H   UNL     1     -50.191  27.116  25.069  1.00  0.00     0.066 H 
ATOM     31  C   UNL     1     -47.545  26.613  26.937  1.00  0.00    -0.027 C 
ATOM     32  H   UNL     1     -49.195  27.941  27.490  1.00  0.00     0.030 H 
ATOM     33  H   UNL     1     -49.633  26.265  27.163  1.00  0.00     0.030 H 
ATOM     34  C   UNL     1     -47.417  25.781  25.681  1.00  0.00     0.048 C 
ATOM     35  H   UNL     1     -47.325  26.045  27.845  1.00  0.00     0.029 H 
ATOM     36  H   UNL     1     -46.860  27.468  26.894  1.00  0.00     0.029 H 
ATOM     37  H   UNL     1     -47.726  24.746  25.858  1.00  0.00     0.057 H 
ATOM     38  H   UNL     1     -46.398  25.775  25.284  1.00  0.00     0.057 H 
ENDBRANCH  19  27
ENDBRANCH   5  13
ENDBRANCH   1   4
BRANCH   1  39
ATOM     39  C   UNL     1     -48.666  36.621  27.230  1.00  0.00    -0.024 C 
ATOM     40  H   UNL     1     -48.470  36.868  26.178  1.00  0.00     0.032 H 
ATOM     41  H   UNL     1     -49.543  37.217  27.514  1.00  0.00     0.032 H 
BRANCH  39  42
ATOM     42  C   UNL     1     -47.470  37.051  28.045  1.00  0.00    -0.046 A 
ATOM     43  C   UNL     1     -47.131  36.381  29.224  1.00  0.00    -0.058 A 
ATOM     44  C   UNL     1     -46.689  38.145  27.638  1.00  0.00    -0.032 A 
ATOM     45  C   UNL     1     -46.034  36.802  29.973  1.00  0.00    -0.053 A 
ATOM     46  H   UNL     1     -47.716  35.531  29.566  1.00  0.00     0.063 H 
ATOM     47  C   UNL     1     -45.588  38.583  28.364  1.00  0.00     0.073 A 
ATOM     48  H   UNL     1     -46.945  38.685  26.728  1.00  0.00     0.065 H 
ATOM     49  C   UNL     1     -45.262  37.897  29.548  1.00  0.00     0.000 A 
ATOM     50  H   UNL     1     -45.782  36.273  30.889  1.00  0.00     0.063 H 
ATOM     51  N   UNL     1     -44.876  39.632  27.917  1.00  0.00    -0.231 NA
ATOM     52  C   UNL     1     -44.157  38.346  30.276  1.00  0.00    -0.049 A 
ATOM     53  C   UNL     1     -43.803  40.056  28.624  1.00  0.00     0.129 A 
ATOM     54  C   UNL     1     -43.426  39.435  29.810  1.00  0.00    -0.019 A 
ATOM     55  H   UNL     1     -43.863  37.862  31.202  1.00  0.00     0.063 H 
ATOM     56  H   UNL     1     -42.577  39.798  30.378  1.00  0.00     0.066 H 
BRANCH  53  57
ATOM     57  N   UNL     1     -43.076  41.164  28.149  1.00  0.00    -0.356 N 
ATOM     58  C   UNL     1     -41.662  41.366  28.266  1.00  0.00     0.021 C 
ATOM     59  C   UNL     1     -43.095  41.614  26.785  1.00  0.00     0.021 C 
ATOM     60  C   UNL     1     -41.798  42.364  27.110  1.00  0.00    -0.018 C 
ATOM     61  H   UNL     1     -41.358  41.792  29.225  1.00  0.00     0.049 H 
ATOM     62  H   UNL     1     -41.080  40.468  28.036  1.00  0.00     0.049 H 
ATOM     63  H   UNL     1     -43.959  42.237  26.544  1.00  0.00     0.049 H 
ATOM     64  H   UNL     1     -42.987  40.800  26.061  1.00  0.00     0.049 H 
ATOM     65  H   UNL     1     -41.017  42.319  26.347  1.00  0.00     0.030 H 
ATOM     66  H   UNL     1     -41.944  43.404  27.425  1.00  0.00     0.030 H 
ENDBRANCH  53  57
ENDBRANCH  39  42
ENDBRANCH   1  39
TORSDOF 7
ENDMDL
MODEL 3
REMARK VINA RESULT:     -10.6      3.520     12.200
REMARK SMILES Nc1ncnc2c1c([C@@H]1CCCO1)cn2-c1cncc(CCc2ccc3ccc(N4CCC4)nc3c2)c1
REMARK SMILES IDX 21 1 20 4 16 5 17 6 37 7 18 8 19 11 15 13 2 14 3 15 7 16
REMARK SMILES IDX 4 17 6 18 8 19 5 20 14 22 1 24 9 27 10 28 13 29 11 31 12 34
REMARK SMILES IDX 22 39 23 42 24 43 36 44 25 45 35 47 26 49 34 51 27 52 29 53
REMARK SMILES IDX 28 54 30 57 31 58 33 59 32 60
REMARK H PARENT 21 2 21 3 17 9 37 10 19 12 4 21 14 23 1 25 1 26 9 30 10 32
REMARK H PARENT 10 33 11 35 11 36 12 37 12 38 22 40 22 41 24 46 36 48 25 50
REMARK H PARENT 27 55 28 56 31 61 31 62 33 63 33 64 32 65 32 66
REMARK Flexibility Score: inf
ROOT
ATOM      1  C   UNL     1     -46.683  36.278  27.044  1.00  0.00    -0.022 C 
ATOM      2  H   UNL     1     -47.600  36.680  26.595  1.00  0.00     0.032 H 
ATOM      3  H   UNL     1     -45.859  36.679  26.441  1.00  0.00     0.032 H 
ENDROOT
BRANCH   1   4
ATOM      4  C   UNL     1     -46.721  34.777  26.923  1.00  0.00    -0.027 A 
ATOM      5  C   UNL     1     -47.330  32.758  25.714  1.00  0.00     0.066 A 
ATOM      6  C   UNL     1     -46.794  32.048  26.786  1.00  0.00     0.051 A 
ATOM      7  C   UNL     1     -47.279  34.153  25.798  1.00  0.00    -0.032 A 
ATOM      8  N   UNL     1     -46.242  32.616  27.887  1.00  0.00    -0.262 NA
ATOM      9  H   UNL     1     -46.757  30.965  26.822  1.00  0.00     0.086 H 
ATOM     10  H   UNL     1     -47.687  34.789  25.020  1.00  0.00     0.065 H 
ATOM     11  C   UNL     1     -46.228  33.963  27.934  1.00  0.00     0.030 A 
ATOM     12  H   UNL     1     -45.800  34.381  28.841  1.00  0.00     0.084 H 
BRANCH   5  13
ATOM     13  N   UNL     1     -47.903  32.075  24.593  1.00  0.00    -0.299 N 
ATOM     14  C   UNL     1     -47.725  30.030  21.669  1.00  0.00     0.136 A 
ATOM     15  N   UNL     1     -46.411  29.767  21.578  1.00  0.00    -0.219 NA
ATOM     16  C   UNL     1     -48.196  30.836  22.721  1.00  0.00     0.067 A 
ATOM     17  C   UNL     1     -45.597  30.292  22.506  1.00  0.00     0.120 A 
ATOM     18  C   UNL     1     -47.248  31.320  23.619  1.00  0.00     0.150 A 
ATOM     19  C   UNL     1     -49.479  31.314  23.134  1.00  0.00     0.012 A 
ATOM     20  N   UNL     1     -45.925  31.063  23.551  1.00  0.00    -0.218 NA
ATOM     21  H   UNL     1     -44.542  30.059  22.397  1.00  0.00     0.106 H 
ATOM     22  C   UNL     1     -49.256  32.059  24.278  1.00  0.00     0.018 A 
ATOM     23  H   UNL     1     -49.970  32.605  24.877  1.00  0.00     0.083 H 
BRANCH  14  24
ATOM     24  N   UNL     1     -48.553  29.454  20.712  1.00  0.00    -0.383 N 
ATOM     25  H   UNL     1     -49.500  29.300  21.060  1.00  0.00     0.158 HD
ATOM     26  H   UNL     1     -48.103  28.641  20.309  1.00  0.00     0.158 HD
ENDBRANCH  14  24
BRANCH  19  27
ATOM     27  C   UNL     1     -50.780  31.052  22.418  1.00  0.00     0.085 C 
ATOM     28  C   UNL     1     -52.043  31.537  23.117  1.00  0.00    -0.020 C 
ATOM     29  O   UNL     1     -50.964  29.626  22.240  1.00  0.00    -0.373 OA
ATOM     30  H   UNL     1     -50.712  31.508  21.422  1.00  0.00     0.066 H 
ATOM     31  C   UNL     1     -52.424  30.349  23.966  1.00  0.00    -0.027 C 
ATOM     32  H   UNL     1     -51.938  32.465  23.682  1.00  0.00     0.030 H 
ATOM     33  H   UNL     1     -52.830  31.698  22.369  1.00  0.00     0.030 H 
ATOM     34  C   UNL     1     -52.058  29.194  23.061  1.00  0.00     0.048 C 
ATOM     35  H   UNL     1     -53.477  30.340  24.261  1.00  0.00     0.029 H 
ATOM     36  H   UNL     1     -51.814  30.323  24.876  1.00  0.00     0.029 H 
ATOM     37  H   UNL     1     -52.889  28.933  22.397  1.00  0.00     0.057 H 
ATOM     38  H   UNL     1     -51.767  28.300  23.620  1.00  0.00     0.057 H 
ENDBRANCH  19  27
ENDBRANCH   5  13
ENDBRANCH   1   4
BRANCH   1  39
ATOM     39  C   UNL     1     -46.579  36.776  28.491  1.00  0.00    -0.024 C 
ATOM     40  H   UNL     1     -47.548  37.193  28.796  1.00  0.00     0.032 H 
ATOM     41  H   UNL     1     -46.392  35.936  29.174  1.00  0.00     0.032 H 
BRANCH  39  42
ATOM     42  C   UNL     1     -45.526  37.840  28.687  1.00  0.00    -0.046 A 
ATOM     43  C   UNL     1     -44.767  37.886  29.860  1.00  0.00    -0.058 A 
ATOM     44  C   UNL     1     -45.306  38.813  27.698  1.00  0.00    -0.032 A 
ATOM     45  C   UNL     1     -43.812  38.887  30.031  1.00  0.00    -0.053 A 
ATOM     46  H   UNL     1     -44.915  37.148  30.645  1.00  0.00     0.063 H 
ATOM     47  C   UNL     1     -44.358  39.817  27.842  1.00  0.00     0.073 A 
ATOM     48  H   UNL     1     -45.896  38.798  26.783  1.00  0.00     0.065 H 
ATOM     49  C   UNL     1     -43.604  39.849  29.029  1.00  0.00     0.000 A 
ATOM     50  H   UNL     1     -43.230  38.912  30.950  1.00  0.00     0.063 H 
ATOM     51  N   UNL     1     -44.190  40.715  26.855  1.00  0.00    -0.231 NA
ATOM     52  C   UNL     1     -42.656  40.866  29.170  1.00  0.00    -0.049 A 
ATOM     53  C   UNL     1     -43.264  41.692  26.996  1.00  0.00     0.129 A 
ATOM     54  C   UNL     1     -42.489  41.794  28.146  1.00  0.00    -0.019 A 
ATOM     55  H   UNL     1     -42.051  40.946  30.068  1.00  0.00     0.063 H 
ATOM     56  H   UNL     1     -41.766  42.594  28.255  1.00  0.00     0.066 H 
BRANCH  53  57
ATOM     57  N   UNL     1     -43.110  42.630  25.959  1.00  0.00    -0.356 N 
ATOM     58  C   UNL     1     -43.821  43.867  25.819  1.00  0.00     0.021 C 
ATOM     59  C   UNL     1     -41.857  43.233  25.598  1.00  0.00     0.021 C 
ATOM     60  C   UNL     1     -42.684  44.314  24.893  1.00  0.00    -0.018 C 
ATOM     61  H   UNL     1     -44.800  43.759  25.347  1.00  0.00     0.049 H 
ATOM     62  H   UNL     1     -43.900  44.425  26.758  1.00  0.00     0.049 H 
ATOM     63  H   UNL     1     -41.243  42.605  24.950  1.00  0.00     0.049 H 
ATOM     64  H   UNL     1     -41.283  43.583  26.462  1.00  0.00     0.049 H 
ATOM     65  H   UNL     1     -42.338  45.342  25.027  1.00  0.00     0.030 H 
ATOM     66  H   UNL     1     -42.865  44.124  23.829  1.00  0.00     0.030 H 
ENDBRANCH  53  57
ENDBRANCH  39  42
ENDBRANCH   1  39
TORSDOF 7
ENDMDL
MODEL 4
REMARK VINA RESULT:     -10.6      3.344     12.354
REMARK SMILES Nc1ncnc2c1c([C@@H]1CCCO1)cn2-c1cncc(CCc2ccc3ccc(N4CCC4)nc3c2)c1
REMARK SMILES IDX 21 1 20 4 16 5 17 6 37 7 18 8 19 11 15 13 2 14 3 15 7 16
REMARK SMILES IDX 4 17 6 18 8 19 5 20 14 22 1 24 9 27 10 28 13 29 11 31 12 34
REMARK SMILES IDX 22 39 23 42 24 43 36 44 25 45 35 47 26 49 34 51 27 52 29 53
REMARK SMILES IDX 28 54 30 57 31 58 33 59 32 60
REMARK H PARENT 21 2 21 3 17 9 37 10 19 12 4 21 14 23 1 25 1 26 9 30 10 32
REMARK H PARENT 10 33 11 35 11 36 12 37 12 38 22 40 22 41 24 46 36 48 25 50
REMARK H PARENT 27 55 28 56 31 61 31 62 33 63 33 64 32 65 32 66
REMARK Flexibility Score: inf
ROOT
ATOM      1  C   UNL     1     -47.099  36.529  26.418  1.00  0.00    -0.022 C 
ATOM      2  H   UNL     1     -48.025  36.617  25.835  1.00  0.00     0.032 H 
ATOM      3  H   UNL     1     -46.301  36.904  25.764  1.00  0.00     0.032 H 
ENDROOT
BRANCH   1   4
ATOM      4  C   UNL     1     -46.871  35.070  26.718  1.00  0.00    -0.027 A 
ATOM      5  C   UNL     1     -47.055  32.723  26.114  1.00  0.00     0.066 A 
ATOM      6  C   UNL     1     -46.465  32.441  27.343  1.00  0.00     0.051 A 
ATOM      7  C   UNL     1     -47.251  34.074  25.808  1.00  0.00    -0.032 A 
ATOM      8  N   UNL     1     -46.081  33.377  28.246  1.00  0.00    -0.262 NA
ATOM      9  H   UNL     1     -46.244  31.433  27.679  1.00  0.00     0.086 H 
ATOM     10  H   UNL     1     -47.719  34.389  24.882  1.00  0.00     0.065 H 
ATOM     11  C   UNL     1     -46.301  34.665  27.918  1.00  0.00     0.030 A 
ATOM     12  H   UNL     1     -46.002  35.385  28.675  1.00  0.00     0.084 H 
BRANCH   5  13
ATOM     13  N   UNL     1     -47.440  31.670  25.224  1.00  0.00    -0.299 N 
ATOM     14  C   UNL     1     -47.374  29.956  22.089  1.00  0.00     0.136 A 
ATOM     15  N   UNL     1     -46.542  30.716  21.360  1.00  0.00    -0.219 NA
ATOM     16  C   UNL     1     -47.662  30.325  23.416  1.00  0.00     0.067 A 
ATOM     17  C   UNL     1     -46.015  31.807  21.936  1.00  0.00     0.120 A 
ATOM     18  C   UNL     1     -47.051  31.480  23.897  1.00  0.00     0.150 A 
ATOM     19  C   UNL     1     -48.468  29.783  24.465  1.00  0.00     0.012 A 
ATOM     20  N   UNL     1     -46.207  32.255  23.184  1.00  0.00    -0.218 NA
ATOM     21  H   UNL     1     -45.349  32.396  21.314  1.00  0.00     0.106 H 
ATOM     22  C   UNL     1     -48.301  30.628  25.547  1.00  0.00     0.018 A 
ATOM     23  H   UNL     1     -48.761  30.575  26.522  1.00  0.00     0.083 H 
BRANCH  14  24
ATOM     24  N   UNL     1     -47.886  28.815  21.481  1.00  0.00    -0.383 N 
ATOM     25  H   UNL     1     -47.280  28.465  20.739  1.00  0.00     0.158 HD
ATOM     26  H   UNL     1     -48.851  28.968  21.214  1.00  0.00     0.158 HD
ENDBRANCH  14  24
BRANCH  19  27
ATOM     27  C   UNL     1     -49.330  28.550  24.356  1.00  0.00     0.085 C 
ATOM     28  C   UNL     1     -50.061  28.125  25.623  1.00  0.00    -0.020 C 
ATOM     29  O   UNL     1     -48.515  27.412  23.984  1.00  0.00    -0.373 OA
ATOM     30  H   UNL     1     -50.056  28.719  23.551  1.00  0.00     0.066 H 
ATOM     31  C   UNL     1     -49.062  27.208  26.284  1.00  0.00    -0.027 C 
ATOM     32  H   UNL     1     -50.399  28.941  26.265  1.00  0.00     0.030 H 
ATOM     33  H   UNL     1     -50.946  27.537  25.348  1.00  0.00     0.030 H 
ATOM     34  C   UNL     1     -48.454  26.503  25.092  1.00  0.00     0.048 C 
ATOM     35  H   UNL     1     -49.510  26.516  27.003  1.00  0.00     0.029 H 
ATOM     36  H   UNL     1     -48.297  27.794  26.806  1.00  0.00     0.029 H 
ATOM     37  H   UNL     1     -49.031  25.613  24.822  1.00  0.00     0.057 H 
ATOM     38  H   UNL     1     -47.416  26.205  25.266  1.00  0.00     0.057 H 
ENDBRANCH  19  27
ENDBRANCH   5  13
ENDBRANCH   1   4
BRANCH   1  39
ATOM     39  C   UNL     1     -47.217  37.404  27.673  1.00  0.00    -0.024 C 
ATOM     40  H   UNL     1     -48.147  37.985  27.616  1.00  0.00     0.032 H 
ATOM     41  H   UNL     1     -47.314  36.778  28.570  1.00  0.00     0.032 H 
BRANCH  39  42
ATOM     42  C   UNL     1     -46.068  38.369  27.844  1.00  0.00    -0.046 A 
ATOM     43  C   UNL     1     -45.238  38.300  28.966  1.00  0.00    -0.058 A 
ATOM     44  C   UNL     1     -45.828  39.364  26.882  1.00  0.00    -0.032 A 
ATOM     45  C   UNL     1     -44.194  39.211  29.116  1.00  0.00    -0.053 A 
ATOM     46  H   UNL     1     -45.400  37.542  29.728  1.00  0.00     0.063 H 
ATOM     47  C   UNL     1     -44.792  40.281  27.006  1.00  0.00     0.073 A 
ATOM     48  H   UNL     1     -46.471  39.439  26.007  1.00  0.00     0.065 H 
ATOM     49  C   UNL     1     -43.967  40.198  28.142  1.00  0.00     0.000 A 
ATOM     50  H   UNL     1     -43.557  39.147  29.995  1.00  0.00     0.063 H 
ATOM     51  N   UNL     1     -44.609  41.206  26.047  1.00  0.00    -0.231 NA
ATOM     52  C   UNL     1     -42.930  41.126  28.262  1.00  0.00    -0.049 A 
ATOM     53  C   UNL     1     -43.598  42.097  26.167  1.00  0.00     0.129 A 
ATOM     54  C   UNL     1     -42.748  42.083  27.268  1.00  0.00    -0.019 A 
ATOM     55  H   UNL     1     -42.267  41.117  29.122  1.00  0.00     0.063 H 
ATOM     56  H   UNL     1     -41.955  42.816  27.363  1.00  0.00     0.066 H 
BRANCH  53  57
ATOM     57  N   UNL     1     -43.428  43.066  25.161  1.00  0.00    -0.356 N 
ATOM     58  C   UNL     1     -42.185  43.626  24.720  1.00  0.00     0.021 C 
ATOM     59  C   UNL     1     -43.918  42.926  23.817  1.00  0.00     0.021 C 
ATOM     60  C   UNL     1     -42.921  44.026  23.436  1.00  0.00    -0.018 C 
ATOM     61  H   UNL     1     -41.831  44.452  25.340  1.00  0.00     0.049 H 
ATOM     62  H   UNL     1     -41.399  42.874  24.588  1.00  0.00     0.049 H 
ATOM     63  H   UNL     1     -44.974  43.182  23.710  1.00  0.00     0.049 H 
ATOM     64  H   UNL     1     -43.707  41.943  23.383  1.00  0.00     0.049 H 
ATOM     65  H   UNL     1     -42.372  43.870  22.504  1.00  0.00     0.030 H 
ATOM     66  H   UNL     1     -43.338  45.039  23.451  1.00  0.00     0.030 H 
ENDBRANCH  53  57
ENDBRANCH  39  42
ENDBRANCH   1  39
TORSDOF 7
ENDMDL
MODEL 5
REMARK VINA RESULT:     -10.3      1.611      2.412
REMARK SMILES Nc1ncnc2c1c([C@@H]1CCCO1)cn2-c1cncc(CCc2ccc3ccc(N4CCC4)nc3c2)c1
REMARK SMILES IDX 21 1 20 4 16 5 17 6 37 7 18 8 19 11 15 13 2 14 3 15 7 16
REMARK SMILES IDX 4 17 6 18 8 19 5 20 14 22 1 24 9 27 10 28 13 29 11 31 12 34
REMARK SMILES IDX 22 39 23 42 24 43 36 44 25 45 35 47 26 49 34 51 27 52 29 53
REMARK SMILES IDX 28 54 30 57 31 58 33 59 32 60
REMARK H PARENT 21 2 21 3 17 9 37 10 19 12 4 21 14 23 1 25 1 26 9 30 10 32
REMARK H PARENT 10 33 11 35 11 36 12 37 12 38 22 40 22 41 24 46 36 48 25 50
REMARK H PARENT 27 55 28 56 31 61 31 62 33 63 33 64 32 65 32 66
REMARK Flexibility Score: inf
ROOT
ATOM      1  C   UNL     1     -47.951  36.776  28.252  1.00  0.00    -0.022 C 
ATOM      2  H   UNL     1     -48.253  36.677  29.302  1.00  0.00     0.032 H 
ATOM      3  H   UNL     1     -46.937  36.361  28.194  1.00  0.00     0.032 H 
ENDROOT
BRANCH   1   4
ATOM      4  C   UNL     1     -47.923  38.243  27.909  1.00  0.00    -0.027 A 
ATOM      5  C   UNL     1     -46.731  40.231  27.175  1.00  0.00     0.066 A 
ATOM      6  C   UNL     1     -47.930  40.917  27.344  1.00  0.00     0.051 A 
ATOM      7  C   UNL     1     -46.746  38.862  27.464  1.00  0.00    -0.032 A 
ATOM      8  N   UNL     1     -49.089  40.353  27.768  1.00  0.00    -0.262 NA
ATOM      9  H   UNL     1     -48.045  41.975  27.131  1.00  0.00     0.086 H 
ATOM     10  H   UNL     1     -45.856  38.249  27.379  1.00  0.00     0.065 H 
ATOM     11  C   UNL     1     -49.055  39.035  28.050  1.00  0.00     0.030 A 
ATOM     12  H   UNL     1     -49.995  38.623  28.408  1.00  0.00     0.084 H 
BRANCH   5  13
ATOM     13  N   UNL     1     -45.551  40.910  26.733  1.00  0.00    -0.299 N 
ATOM     14  C   UNL     1     -42.141  41.926  27.059  1.00  0.00     0.136 A 
ATOM     15  N   UNL     1     -41.783  41.373  28.229  1.00  0.00    -0.219 NA
ATOM     16  C   UNL     1     -43.453  41.747  26.583  1.00  0.00     0.067 A 
ATOM     17  C   UNL     1     -42.705  40.665  28.900  1.00  0.00     0.120 A 
ATOM     18  C   UNL     1     -44.313  40.990  27.374  1.00  0.00     0.150 A 
ATOM     19  C   UNL     1     -44.174  42.165  25.421  1.00  0.00     0.012 A 
ATOM     20  N   UNL     1     -43.974  40.420  28.548  1.00  0.00    -0.218 NA
ATOM     21  H   UNL     1     -42.378  40.234  29.841  1.00  0.00     0.106 H 
ATOM     22  C   UNL     1     -45.443  41.630  25.550  1.00  0.00     0.018 A 
ATOM     23  H   UNL     1     -46.290  41.739  24.890  1.00  0.00     0.083 H 
BRANCH  14  24
ATOM     24  N   UNL     1     -41.163  42.632  26.368  1.00  0.00    -0.383 N 
ATOM     25  H   UNL     1     -41.559  43.303  25.710  1.00  0.00     0.158 HD
ATOM     26  H   UNL     1     -40.483  41.992  25.978  1.00  0.00     0.158 HD
ENDBRANCH  14  24
BRANCH  19  27
ATOM     27  C   UNL     1     -43.624  43.035  24.318  1.00  0.00     0.085 C 
ATOM     28  C   UNL     1     -43.429  44.507  24.657  1.00  0.00    -0.020 C 
ATOM     29  O   UNL     1     -44.525  43.018  23.184  1.00  0.00    -0.373 OA
ATOM     30  H   UNL     1     -42.669  42.602  23.995  1.00  0.00     0.066 H 
ATOM     31  C   UNL     1     -44.763  45.107  24.286  1.00  0.00    -0.027 C 
ATOM     32  H   UNL     1     -43.125  44.715  25.685  1.00  0.00     0.030 H 
ATOM     33  H   UNL     1     -42.661  44.929  23.997  1.00  0.00     0.030 H 
ATOM     34  C   UNL     1     -45.124  44.315  23.049  1.00  0.00     0.048 C 
ATOM     35  H   UNL     1     -44.724  46.184  24.103  1.00  0.00     0.029 H 
ATOM     36  H   UNL     1     -45.496  44.922  25.079  1.00  0.00     0.029 H 
ATOM     37  H   UNL     1     -44.711  44.779  22.148  1.00  0.00     0.057 H 
ATOM     38  H   UNL     1     -46.205  44.208  22.921  1.00  0.00     0.057 H 
ENDBRANCH  19  27
ENDBRANCH   5  13
ENDBRANCH   1   4
BRANCH   1  39
ATOM     39  C   UNL     1     -48.914  35.960  27.379  1.00  0.00    -0.024 C 
ATOM     40  H   UNL     1     -49.668  35.489  28.023  1.00  0.00     0.032 H 
ATOM     41  H   UNL     1     -49.474  36.620  26.703  1.00  0.00     0.032 H 
BRANCH  39  42
ATOM     42  C   UNL     1     -48.230  34.874  26.583  1.00  0.00    -0.046 A 
ATOM     43  C   UNL     1     -46.923  35.043  26.119  1.00  0.00    -0.058 A 
ATOM     44  C   UNL     1     -48.908  33.681  26.281  1.00  0.00    -0.032 A 
ATOM     45  C   UNL     1     -46.314  34.038  25.371  1.00  0.00    -0.053 A 
ATOM     46  H   UNL     1     -46.373  35.956  26.335  1.00  0.00     0.063 H 
ATOM     47  C   UNL     1     -48.322  32.662  25.541  1.00  0.00     0.073 A 
ATOM     48  H   UNL     1     -49.930  33.536  26.626  1.00  0.00     0.065 H 
ATOM     49  C   UNL     1     -47.006  32.850  25.082  1.00  0.00     0.000 A 
ATOM     50  H   UNL     1     -45.297  34.184  25.015  1.00  0.00     0.063 H 
ATOM     51  N   UNL     1     -49.021  31.540  25.292  1.00  0.00    -0.231 NA
ATOM     52  C   UNL     1     -46.426  31.823  24.333  1.00  0.00    -0.049 A 
ATOM     53  C   UNL     1     -48.449  30.547  24.573  1.00  0.00     0.129 A 
ATOM     54  C   UNL     1     -47.155  30.665  24.076  1.00  0.00    -0.019 A 
ATOM     55  H   UNL     1     -45.416  31.915  23.945  1.00  0.00     0.063 H 
ATOM     56  H   UNL     1     -46.716  29.871  23.484  1.00  0.00     0.066 H 
BRANCH  53  57
ATOM     57  N   UNL     1     -49.199  29.385  24.311  1.00  0.00    -0.356 N 
ATOM     58  C   UNL     1     -49.342  28.252  25.178  1.00  0.00     0.021 C 
ATOM     59  C   UNL     1     -50.595  29.387  23.973  1.00  0.00     0.021 C 
ATOM     60  C   UNL     1     -50.600  27.907  24.373  1.00  0.00    -0.018 C 
ATOM     61  H   UNL     1     -48.521  27.536  25.103  1.00  0.00     0.049 H 
ATOM     62  H   UNL     1     -49.522  28.531  26.221  1.00  0.00     0.049 H 
ATOM     63  H   UNL     1     -50.786  29.596  22.918  1.00  0.00     0.049 H 
ATOM     64  H   UNL     1     -51.193  30.040  24.616  1.00  0.00     0.049 H 
ATOM     65  H   UNL     1     -51.463  27.575  24.956  1.00  0.00     0.030 H 
ATOM     66  H   UNL     1     -50.430  27.213  23.542  1.00  0.00     0.030 H 
ENDBRANCH  53  57
ENDBRANCH  39  42
ENDBRANCH   1  39
TORSDOF 7
ENDMDL
MODEL 6
REMARK VINA RESULT:     -10.1      2.934     11.971
REMARK SMILES Nc1ncnc2c1c([C@@H]1CCCO1)cn2-c1cncc(CCc2ccc3ccc(N4CCC4)nc3c2)c1
REMARK SMILES IDX 21 1 20 4 16 5 17 6 37 7 18 8 19 11 15 13 2 14 3 15 7 16
REMARK SMILES IDX 4 17 6 18 8 19 5 20 14 22 1 24 9 27 10 28 13 29 11 31 12 34
REMARK SMILES IDX 22 39 23 42 24 43 36 44 25 45 35 47 26 49 34 51 27 52 29 53
REMARK SMILES IDX 28 54 30 57 31 58 33 59 32 60
REMARK H PARENT 21 2 21 3 17 9 37 10 19 12 4 21 14 23 1 25 1 26 9 30 10 32
REMARK H PARENT 10 33 11 35 11 36 12 37 12 38 22 40 22 41 24 46 36 48 25 50
REMARK H PARENT 27 55 28 56 31 61 31 62 33 63 33 64 32 65 32 66
REMARK Flexibility Score: inf
ROOT
ATOM      1  C   UNL     1     -46.058  36.161  27.006  1.00  0.00    -0.022 C 
ATOM      2  H   UNL     1     -46.037  36.902  26.198  1.00  0.00     0.032 H 
ATOM      3  H   UNL     1     -45.077  35.670  26.983  1.00  0.00     0.032 H 
ENDROOT
BRANCH   1   4
ATOM      4  C   UNL     1     -47.139  35.158  26.694  1.00  0.00    -0.027 A 
ATOM      5  C   UNL     1     -47.914  33.157  25.552  1.00  0.00     0.066 A 
ATOM      6  C   UNL     1     -49.154  33.398  26.138  1.00  0.00     0.051 A 
ATOM      7  C   UNL     1     -46.893  34.065  25.852  1.00  0.00    -0.032 A 
ATOM      8  N   UNL     1     -49.428  34.441  26.961  1.00  0.00    -0.262 NA
ATOM      9  H   UNL     1     -50.014  32.752  25.997  1.00  0.00     0.086 H 
ATOM     10  H   UNL     1     -45.899  33.968  25.428  1.00  0.00     0.065 H 
ATOM     11  C   UNL     1     -48.420  35.300  27.211  1.00  0.00     0.030 A 
ATOM     12  H   UNL     1     -48.683  36.134  27.855  1.00  0.00     0.084 H 
BRANCH   5  13
ATOM     13  N   UNL     1     -47.716  32.035  24.685  1.00  0.00    -0.299 N 
ATOM     14  C   UNL     1     -47.891  28.561  23.871  1.00  0.00     0.136 A 
ATOM     15  N   UNL     1     -48.433  28.029  24.980  1.00  0.00    -0.219 NA
ATOM     16  C   UNL     1     -47.655  29.946  23.815  1.00  0.00     0.067 A 
ATOM     17  C   UNL     1     -48.727  28.855  25.996  1.00  0.00     0.120 A 
ATOM     18  C   UNL     1     -48.006  30.693  24.937  1.00  0.00     0.150 A 
ATOM     19  C   UNL     1     -47.118  30.843  22.839  1.00  0.00     0.012 A 
ATOM     20  N   UNL     1     -48.556  30.182  26.057  1.00  0.00    -0.218 NA
ATOM     21  H   UNL     1     -49.161  28.387  26.875  1.00  0.00     0.106 H 
ATOM     22  C   UNL     1     -47.177  32.102  23.406  1.00  0.00     0.018 A 
ATOM     23  H   UNL     1     -46.844  33.043  22.996  1.00  0.00     0.083 H 
BRANCH  14  24
ATOM     24  N   UNL     1     -47.620  27.691  22.821  1.00  0.00    -0.383 N 
ATOM     25  H   UNL     1     -46.870  27.036  23.043  1.00  0.00     0.158 HD
ATOM     26  H   UNL     1     -47.500  28.212  21.961  1.00  0.00     0.158 HD
ENDBRANCH  14  24
BRANCH  19  27
ATOM     27  C   UNL     1     -46.582  30.441  21.486  1.00  0.00     0.085 C 
ATOM     28  C   UNL     1     -45.768  31.495  20.746  1.00  0.00    -0.020 C 
ATOM     29  O   UNL     1     -47.680  30.113  20.601  1.00  0.00    -0.373 OA
ATOM     30  H   UNL     1     -45.978  29.536  21.621  1.00  0.00     0.066 H 
ATOM     31  C   UNL     1     -46.825  32.232  19.962  1.00  0.00    -0.027 C 
ATOM     32  H   UNL     1     -45.156  32.143  21.376  1.00  0.00     0.030 H 
ATOM     33  H   UNL     1     -45.093  30.996  20.039  1.00  0.00     0.030 H 
ATOM     34  C   UNL     1     -47.761  31.110  19.572  1.00  0.00     0.048 C 
ATOM     35  H   UNL     1     -46.432  32.776  19.098  1.00  0.00     0.029 H 
ATOM     36  H   UNL     1     -47.345  32.950  20.608  1.00  0.00     0.029 H 
ATOM     37  H   UNL     1     -47.449  30.643  18.633  1.00  0.00     0.057 H 
ATOM     38  H   UNL     1     -48.796  31.446  19.466  1.00  0.00     0.057 H 
ENDBRANCH  19  27
ENDBRANCH   5  13
ENDBRANCH   1   4
BRANCH   1  39
ATOM     39  C   UNL     1     -46.262  36.888  28.342  1.00  0.00    -0.024 C 
ATOM     40  H   UNL     1     -47.266  37.331  28.358  1.00  0.00     0.032 H 
ATOM     41  H   UNL     1     -46.242  36.173  29.176  1.00  0.00     0.032 H 
BRANCH  39  42
ATOM     42  C   UNL     1     -45.257  37.988  28.587  1.00  0.00    -0.046 A 
ATOM     43  C   UNL     1     -44.526  38.036  29.777  1.00  0.00    -0.058 A 
ATOM     44  C   UNL     1     -45.057  38.994  27.627  1.00  0.00    -0.032 A 
ATOM     45  C   UNL     1     -43.617  39.070  29.994  1.00  0.00    -0.053 A 
ATOM     46  H   UNL     1     -44.660  37.273  30.541  1.00  0.00     0.063 H 
ATOM     47  C   UNL     1     -44.154  40.032  27.817  1.00  0.00     0.073 A 
ATOM     48  H   UNL     1     -45.626  38.978  26.699  1.00  0.00     0.065 H 
ATOM     49  C   UNL     1     -43.427  40.065  29.020  1.00  0.00     0.000 A 
ATOM     50  H   UNL     1     -43.056  39.096  30.926  1.00  0.00     0.063 H 
ATOM     51  N   UNL     1     -44.002  40.960  26.855  1.00  0.00    -0.231 NA
ATOM     52  C   UNL     1     -42.525  41.115  29.207  1.00  0.00    -0.049 A 
ATOM     53  C   UNL     1     -43.121  41.970  27.041  1.00  0.00     0.129 A 
ATOM     54  C   UNL     1     -42.374  42.075  28.210  1.00  0.00    -0.019 A 
ATOM     55  H   UNL     1     -41.943  41.197  30.120  1.00  0.00     0.063 H 
ATOM     56  H   UNL     1     -41.687  42.900  28.354  1.00  0.00     0.066 H 
BRANCH  53  57
ATOM     57  N   UNL     1     -42.983  42.940  26.030  1.00  0.00    -0.356 N 
ATOM     58  C   UNL     1     -41.765  43.323  25.379  1.00  0.00     0.021 C 
ATOM     59  C   UNL     1     -43.716  42.925  24.795  1.00  0.00     0.021 C 
ATOM     60  C   UNL     1     -42.644  43.877  24.253  1.00  0.00    -0.018 C 
ATOM     61  H   UNL     1     -41.185  44.064  25.935  1.00  0.00     0.049 H 
ATOM     62  H   UNL     1     -41.140  42.467  25.102  1.00  0.00     0.049 H 
ATOM     63  H   UNL     1     -44.722  43.340  24.881  1.00  0.00     0.049 H 
ATOM     64  H   UNL     1     -43.739  41.938  24.319  1.00  0.00     0.049 H 
ATOM     65  H   UNL     1     -42.298  43.675  23.236  1.00  0.00     0.030 H 
ATOM     66  H   UNL     1     -42.890  44.940  24.352  1.00  0.00     0.030 H 
ENDBRANCH  53  57
ENDBRANCH  39  42
ENDBRANCH   1  39
TORSDOF 7
ENDMDL
MODEL 7
REMARK VINA RESULT:     -10.0      2.070      3.152
REMARK SMILES Nc1ncnc2c1c([C@@H]1CCCO1)cn2-c1cncc(CCc2ccc3ccc(N4CCC4)nc3c2)c1
REMARK SMILES IDX 21 1 20 4 16 5 17 6 37 7 18 8 19 11 15 13 2 14 3 15 7 16
REMARK SMILES IDX 4 17 6 18 8 19 5 20 14 22 1 24 9 27 10 28 13 29 11 31 12 34
REMARK SMILES IDX 22 39 23 42 24 43 36 44 25 45 35 47 26 49 34 51 27 52 29 53
REMARK SMILES IDX 28 54 30 57 31 58 33 59 32 60
REMARK H PARENT 21 2 21 3 17 9 37 10 19 12 4 21 14 23 1 25 1 26 9 30 10 32
REMARK H PARENT 10 33 11 35 11 36 12 37 12 38 22 40 22 41 24 46 36 48 25 50
REMARK H PARENT 27 55 28 56 31 61 31 62 33 63 33 64 32 65 32 66
REMARK Flexibility Score: inf
ROOT
ATOM      1  C   UNL     1     -47.409  35.761  26.461  1.00  0.00    -0.022 C 
ATOM      2  H   UNL     1     -47.192  35.704  25.387  1.00  0.00     0.032 H 
ATOM      3  H   UNL     1     -48.482  35.973  26.535  1.00  0.00     0.032 H 
ENDROOT
BRANCH   1   4
ATOM      4  C   UNL     1     -46.620  36.908  27.038  1.00  0.00    -0.027 A 
ATOM      5  C   UNL     1     -45.997  39.257  27.064  1.00  0.00     0.066 A 
ATOM      6  C   UNL     1     -45.128  38.935  28.103  1.00  0.00     0.051 A 
ATOM      7  C   UNL     1     -46.756  38.209  26.534  1.00  0.00    -0.032 A 
ATOM      8  N   UNL     1     -44.973  37.691  28.620  1.00  0.00    -0.262 NA
ATOM      9  H   UNL     1     -44.506  39.667  28.607  1.00  0.00     0.086 H 
ATOM     10  H   UNL     1     -47.447  38.361  25.711  1.00  0.00     0.065 H 
ATOM     11  C   UNL     1     -45.712  36.707  28.069  1.00  0.00     0.030 A 
ATOM     12  H   UNL     1     -45.544  35.721  28.493  1.00  0.00     0.084 H 
BRANCH   5  13
ATOM     13  N   UNL     1     -46.091  40.599  26.573  1.00  0.00    -0.299 N 
ATOM     14  C   UNL     1     -47.723  43.756  26.204  1.00  0.00     0.136 A 
ATOM     15  N   UNL     1     -48.858  43.580  26.900  1.00  0.00    -0.219 NA
ATOM     16  C   UNL     1     -46.799  42.699  26.111  1.00  0.00     0.067 A 
ATOM     17  C   UNL     1     -49.062  42.389  27.483  1.00  0.00     0.120 A 
ATOM     18  C   UNL     1     -47.129  41.513  26.762  1.00  0.00     0.150 A 
ATOM     19  C   UNL     1     -45.526  42.519  25.485  1.00  0.00     0.012 A 
ATOM     20  N   UNL     1     -48.259  41.316  27.472  1.00  0.00    -0.218 NA
ATOM     21  H   UNL     1     -49.991  42.285  28.034  1.00  0.00     0.106 H 
ATOM     22  C   UNL     1     -45.129  41.231  25.795  1.00  0.00     0.018 A 
ATOM     23  H   UNL     1     -44.236  40.709  25.488  1.00  0.00     0.083 H 
BRANCH  14  24
ATOM     24  N   UNL     1     -47.519  45.007  25.632  1.00  0.00    -0.383 N 
ATOM     25  H   UNL     1     -47.085  44.947  24.710  1.00  0.00     0.158 HD
ATOM     26  H   UNL     1     -47.053  45.618  26.290  1.00  0.00     0.158 HD
ENDBRANCH  14  24
BRANCH  19  27
ATOM     27  C   UNL     1     -44.813  43.550  24.644  1.00  0.00     0.085 C 
ATOM     28  C   UNL     1     -43.499  43.110  24.013  1.00  0.00    -0.020 C 
ATOM     29  O   UNL     1     -44.482  44.702  25.456  1.00  0.00    -0.373 OA
ATOM     30  H   UNL     1     -45.506  43.880  23.861  1.00  0.00     0.066 H 
ATOM     31  C   UNL     1     -42.489  43.471  25.075  1.00  0.00    -0.027 C 
ATOM     32  H   UNL     1     -43.455  42.064  23.702  1.00  0.00     0.030 H 
ATOM     33  H   UNL     1     -43.304  43.723  23.123  1.00  0.00     0.030 H 
ATOM     34  C   UNL     1     -43.057  44.765  25.613  1.00  0.00     0.048 C 
ATOM     35  H   UNL     1     -41.471  43.581  24.692  1.00  0.00     0.029 H 
ATOM     36  H   UNL     1     -42.478  42.707  25.861  1.00  0.00     0.029 H 
ATOM     37  H   UNL     1     -42.698  45.624  25.039  1.00  0.00     0.057 H 
ATOM     38  H   UNL     1     -42.810  44.924  26.667  1.00  0.00     0.057 H 
ENDBRANCH  19  27
ENDBRANCH   5  13
ENDBRANCH   1   4
BRANCH   1  39
ATOM     39  C   UNL     1     -47.086  34.407  27.106  1.00  0.00    -0.024 C 
ATOM     40  H   UNL     1     -46.090  34.459  27.565  1.00  0.00     0.032 H 
ATOM     41  H   UNL     1     -47.780  34.198  27.930  1.00  0.00     0.032 H 
BRANCH  39  42
ATOM     42  C   UNL     1     -47.093  33.257  26.127  1.00  0.00    -0.046 A 
ATOM     43  C   UNL     1     -46.323  33.307  24.962  1.00  0.00    -0.058 A 
ATOM     44  C   UNL     1     -47.890  32.126  26.366  1.00  0.00    -0.032 A 
ATOM     45  C   UNL     1     -46.356  32.244  24.060  1.00  0.00    -0.053 A 
ATOM     46  H   UNL     1     -45.697  34.170  24.748  1.00  0.00     0.063 H 
ATOM     47  C   UNL     1     -47.937  31.052  25.486  1.00  0.00     0.073 A 
ATOM     48  H   UNL     1     -48.504  32.075  27.263  1.00  0.00     0.065 H 
ATOM     49  C   UNL     1     -47.157  31.119  24.318  1.00  0.00     0.000 A 
ATOM     50  H   UNL     1     -45.753  32.297  23.156  1.00  0.00     0.063 H 
ATOM     51  N   UNL     1     -48.715  29.993  25.775  1.00  0.00    -0.231 NA
ATOM     52  C   UNL     1     -47.214  30.038  23.435  1.00  0.00    -0.049 A 
ATOM     53  C   UNL     1     -48.758  28.947  24.919  1.00  0.00     0.129 A 
ATOM     54  C   UNL     1     -48.023  28.947  23.738  1.00  0.00    -0.019 A 
ATOM     55  H   UNL     1     -46.640  30.037  22.513  1.00  0.00     0.063 H 
ATOM     56  H   UNL     1     -48.083  28.111  23.050  1.00  0.00     0.066 H 
BRANCH  53  57
ATOM     57  N   UNL     1     -49.587  27.853  25.231  1.00  0.00    -0.356 N 
ATOM     58  C   UNL     1     -49.953  26.784  24.348  1.00  0.00     0.021 C 
ATOM     59  C   UNL     1     -49.358  26.956  26.329  1.00  0.00     0.021 C 
ATOM     60  C   UNL     1     -50.291  25.978  25.607  1.00  0.00    -0.018 C 
ATOM     61  H   UNL     1     -50.797  27.022  23.697  1.00  0.00     0.049 H 
ATOM     62  H   UNL     1     -49.108  26.402  23.766  1.00  0.00     0.049 H 
ATOM     63  H   UNL     1     -49.717  27.340  27.286  1.00  0.00     0.049 H 
ATOM     64  H   UNL     1     -48.316  26.627  26.406  1.00  0.00     0.049 H 
ATOM     65  H   UNL     1     -49.974  24.932  25.602  1.00  0.00     0.030 H 
ATOM     66  H   UNL     1     -51.340  26.042  25.917  1.00  0.00     0.030 H 
ENDBRANCH  53  57
ENDBRANCH  39  42
ENDBRANCH   1  39
TORSDOF 7
ENDMDL
