MODEL 1
REMARK VINA RESULT:     -10.2      0.000      0.000
REMARK SMILES CNc1ccc2ccc(OCc3cccc(-n4cc(Br)c5c(N)ncnc54)c3)cc2n1
REMARK SMILES IDX 11 1 10 4 9 5 3 6 4 7 31 8 5 9 30 11 6 12 29 14 7 15 8 17
REMARK SMILES IDX 2 20 1 22 12 26 13 27 28 28 14 29 16 31 15 33 17 36 18 37
REMARK SMILES IDX 27 38 19 39 21 41 26 42 20 43 22 44 25 45 24 46 23 48
REMARK H PARENT 11 2 11 3 4 10 5 13 29 16 7 18 8 19 2 21 1 23 1 24 1 25 13 30
REMARK H PARENT 28 32 14 34 15 35 18 40 25 47 23 49 23 50
REMARK Flexibility Score: inf
ROOT
ATOM      1  C   UNL     1     -46.682  36.901  26.760  1.00  0.00     0.113 C 
ATOM      2  H   UNL     1     -47.633  37.146  26.274  1.00  0.00     0.076 H 
ATOM      3  H   UNL     1     -45.901  37.319  26.112  1.00  0.00     0.076 H 
ENDROOT
BRANCH   1   4
ATOM      4  O   UNL     1     -46.696  37.547  28.036  1.00  0.00    -0.489 OA
BRANCH   4   5
ATOM      5  C   UNL     1     -45.631  38.332  28.386  1.00  0.00     0.122 A 
ATOM      6  C   UNL     1     -42.471  41.835  27.751  1.00  0.00     0.126 A 
ATOM      7  C   UNL     1     -41.856  41.567  28.970  1.00  0.00    -0.019 A 
ATOM      8  N   UNL     1     -43.535  41.125  27.326  1.00  0.00    -0.231 NA
ATOM      9  C   UNL     1     -42.335  40.528  29.762  1.00  0.00    -0.049 A 
ATOM     10  H   UNL     1     -41.019  42.169  29.307  1.00  0.00     0.066 H 
ATOM     11  C   UNL     1     -44.005  40.119  28.087  1.00  0.00     0.076 A 
ATOM     12  C   UNL     1     -43.428  39.779  29.325  1.00  0.00     0.001 A 
ATOM     13  H   UNL     1     -41.855  40.318  30.713  1.00  0.00     0.063 H 
ATOM     14  C   UNL     1     -45.097  39.385  27.639  1.00  0.00     0.007 A 
ATOM     15  C   UNL     1     -43.952  38.720  30.081  1.00  0.00    -0.049 A 
ATOM     16  H   UNL     1     -45.508  39.665  26.676  1.00  0.00     0.069 H 
ATOM     17  C   UNL     1     -45.048  38.001  29.608  1.00  0.00    -0.019 A 
ATOM     18  H   UNL     1     -43.513  38.449  31.039  1.00  0.00     0.063 H 
ATOM     19  H   UNL     1     -45.451  37.180  30.195  1.00  0.00     0.066 H 
BRANCH   6  20
ATOM     20  N   UNL     1     -41.977  42.908  26.986  1.00  0.00    -0.373 N 
ATOM     21  H   UNL     1     -41.070  42.651  26.607  1.00  0.00     0.161 HD
BRANCH  20  22
ATOM     22  C   UNL     1     -42.886  43.366  25.948  1.00  0.00     0.005 C 
ATOM     23  H   UNL     1     -43.932  43.192  26.221  1.00  0.00     0.045 H 
ATOM     24  H   UNL     1     -42.686  42.802  25.030  1.00  0.00     0.045 H 
ATOM     25  H   UNL     1     -42.734  44.426  25.719  1.00  0.00     0.045 H 
ENDBRANCH  20  22
ENDBRANCH   6  20
ENDBRANCH   4   5
ENDBRANCH   1   4
BRANCH   1  26
ATOM     26  C   UNL     1     -46.608  35.393  26.870  1.00  0.00    -0.009 A 
ATOM     27  C   UNL     1     -45.892  34.789  27.908  1.00  0.00    -0.055 A 
ATOM     28  C   UNL     1     -47.292  34.583  25.946  1.00  0.00    -0.031 A 
ATOM     29  C   UNL     1     -45.843  33.402  28.009  1.00  0.00    -0.060 A 
ATOM     30  H   UNL     1     -45.363  35.399  28.638  1.00  0.00     0.063 H 
ATOM     31  C   UNL     1     -47.251  33.183  26.031  1.00  0.00     0.047 A 
ATOM     32  H   UNL     1     -47.828  35.086  25.148  1.00  0.00     0.065 H 
ATOM     33  C   UNL     1     -46.514  32.603  27.078  1.00  0.00    -0.038 A 
ATOM     34  H   UNL     1     -45.281  32.939  28.816  1.00  0.00     0.062 H 
ATOM     35  H   UNL     1     -46.450  31.529  27.221  1.00  0.00     0.064 H 
BRANCH  31  36
ATOM     36  N   UNL     1     -47.931  32.352  25.073  1.00  0.00    -0.300 N 
ATOM     37  C   UNL     1     -49.305  32.168  25.022  1.00  0.00     0.026 A 
ATOM     38  C   UNL     1     -47.376  31.585  24.039  1.00  0.00     0.151 A 
ATOM     39  C   UNL     1     -49.600  31.301  24.002  1.00  0.00     0.049 A 
ATOM     40  H   UNL     1     -49.973  32.640  25.727  1.00  0.00     0.084 H 
ATOM     41  C   UNL     1     -48.403  30.918  23.368  1.00  0.00     0.076 A 
ATOM     42  N   UNL     1     -46.070  31.503  23.710  1.00  0.00    -0.218 NA
ATOM     43  Br  UNL     1     -51.325  30.727  23.538  1.00  0.00    -0.048 Br
ATOM     44  C   UNL     1     -48.033  30.091  22.296  1.00  0.00     0.137 A 
ATOM     45  C   UNL     1     -45.840  30.689  22.673  1.00  0.00     0.120 A 
ATOM     46  N   UNL     1     -46.736  29.994  21.957  1.00  0.00    -0.219 NA
ATOM     47  H   UNL     1     -44.803  30.580  22.370  1.00  0.00     0.106 H 
BRANCH  44  48
ATOM     48  N   UNL     1     -48.927  29.358  21.531  1.00  0.00    -0.383 N 
ATOM     49  H   UNL     1     -48.714  28.368  21.559  1.00  0.00     0.158 HD
ATOM     50  H   UNL     1     -49.161  29.753  20.631  1.00  0.00     0.158 HD
ENDBRANCH  44  48
ENDBRANCH  31  36
ENDBRANCH   1  26
TORSDOF 7
ENDMDL
MODEL 2
REMARK VINA RESULT:     -10.0      2.839     10.362
REMARK SMILES CNc1ccc2ccc(OCc3cccc(-n4cc(Br)c5c(N)ncnc54)c3)cc2n1
REMARK SMILES IDX 11 1 10 4 9 5 3 6 4 7 31 8 5 9 30 11 6 12 29 14 7 15 8 17
REMARK SMILES IDX 2 20 1 22 12 26 13 27 28 28 14 29 16 31 15 33 17 36 18 37
REMARK SMILES IDX 27 38 19 39 21 41 26 42 20 43 22 44 25 45 24 46 23 48
REMARK H PARENT 11 2 11 3 4 10 5 13 29 16 7 18 8 19 2 21 1 23 1 24 1 25 13 30
REMARK H PARENT 28 32 14 34 15 35 18 40 25 47 23 49 23 50
REMARK Flexibility Score: inf
ROOT
ATOM      1  C   UNL     1     -45.934  34.536  27.659  1.00  0.00     0.113 C 
ATOM      2  H   UNL     1     -45.906  33.684  28.347  1.00  0.00     0.076 H 
ATOM      3  H   UNL     1     -45.073  34.408  26.991  1.00  0.00     0.076 H 
ENDROOT
BRANCH   1   4
ATOM      4  O   UNL     1     -47.166  34.440  26.939  1.00  0.00    -0.489 OA
BRANCH   4   5
ATOM      5  C   UNL     1     -47.343  33.390  26.079  1.00  0.00     0.122 A 
ATOM      6  C   UNL     1     -46.497  30.866  22.133  1.00  0.00     0.126 A 
ATOM      7  C   UNL     1     -47.437  29.904  22.487  1.00  0.00    -0.019 A 
ATOM      8  N   UNL     1     -46.243  31.929  22.921  1.00  0.00    -0.231 NA
ATOM      9  C   UNL     1     -48.150  30.052  23.673  1.00  0.00    -0.049 A 
ATOM     10  H   UNL     1     -47.607  29.041  21.853  1.00  0.00     0.066 H 
ATOM     11  C   UNL     1     -46.928  32.079  24.070  1.00  0.00     0.076 A 
ATOM     12  C   UNL     1     -47.904  31.156  24.490  1.00  0.00     0.001 A 
ATOM     13  H   UNL     1     -48.885  29.302  23.950  1.00  0.00     0.063 H 
ATOM     14  C   UNL     1     -46.667  33.183  24.874  1.00  0.00     0.007 A 
ATOM     15  C   UNL     1     -48.593  31.357  25.695  1.00  0.00    -0.049 A 
ATOM     16  H   UNL     1     -45.919  33.879  24.515  1.00  0.00     0.069 H 
ATOM     17  C   UNL     1     -48.312  32.472  26.482  1.00  0.00    -0.019 A 
ATOM     18  H   UNL     1     -49.350  30.650  26.027  1.00  0.00     0.063 H 
ATOM     19  H   UNL     1     -48.848  32.625  27.414  1.00  0.00     0.066 H 
BRANCH   6  20
ATOM     20  N   UNL     1     -45.776  30.673  20.939  1.00  0.00    -0.373 N 
ATOM     21  H   UNL     1     -45.986  29.748  20.576  1.00  0.00     0.161 HD
BRANCH  20  22
ATOM     22  C   UNL     1     -45.994  31.707  19.940  1.00  0.00     0.005 C 
ATOM     23  H   UNL     1     -45.054  32.026  19.478  1.00  0.00     0.045 H 
ATOM     24  H   UNL     1     -46.437  32.582  20.427  1.00  0.00     0.045 H 
ATOM     25  H   UNL     1     -46.694  31.376  19.165  1.00  0.00     0.045 H 
ENDBRANCH  20  22
ENDBRANCH   6  20
ENDBRANCH   4   5
ENDBRANCH   1   4
BRANCH   1  26
ATOM     26  C   UNL     1     -45.845  35.794  28.496  1.00  0.00    -0.009 A 
ATOM     27  C   UNL     1     -46.246  35.790  29.835  1.00  0.00    -0.055 A 
ATOM     28  C   UNL     1     -45.321  36.976  27.941  1.00  0.00    -0.031 A 
ATOM     29  C   UNL     1     -46.146  36.948  30.599  1.00  0.00    -0.060 A 
ATOM     30  H   UNL     1     -46.646  34.883  30.285  1.00  0.00     0.063 H 
ATOM     31  C   UNL     1     -45.216  38.154  28.696  1.00  0.00     0.047 A 
ATOM     32  H   UNL     1     -45.030  36.946  26.896  1.00  0.00     0.065 H 
ATOM     33  C   UNL     1     -45.638  38.122  30.036  1.00  0.00    -0.038 A 
ATOM     34  H   UNL     1     -46.463  36.938  31.639  1.00  0.00     0.062 H 
ATOM     35  H   UNL     1     -45.570  38.986  30.689  1.00  0.00     0.064 H 
BRANCH  31  36
ATOM     36  N   UNL     1     -44.701  39.370  28.124  1.00  0.00    -0.300 N 
ATOM     37  C   UNL     1     -45.189  39.968  26.971  1.00  0.00     0.026 A 
ATOM     38  C   UNL     1     -43.646  40.169  28.585  1.00  0.00     0.151 A 
ATOM     39  C   UNL     1     -44.452  41.094  26.709  1.00  0.00     0.049 A 
ATOM     40  H   UNL     1     -46.001  39.541  26.403  1.00  0.00     0.084 H 
ATOM     41  C   UNL     1     -43.474  41.243  27.710  1.00  0.00     0.076 A 
ATOM     42  N   UNL     1     -42.913  39.969  29.701  1.00  0.00    -0.218 NA
ATOM     43  Br  UNL     1     -44.718  42.242  25.248  1.00  0.00    -0.048 Br
ATOM     44  C   UNL     1     -42.449  42.154  28.011  1.00  0.00     0.137 A 
ATOM     45  C   UNL     1     -41.972  40.901  29.885  1.00  0.00     0.120 A 
ATOM     46  N   UNL     1     -41.707  41.967  29.116  1.00  0.00    -0.219 NA
ATOM     47  H   UNL     1     -41.347  40.784  30.766  1.00  0.00     0.106 H 
BRANCH  44  48
ATOM     48  N   UNL     1     -42.145  43.268  27.244  1.00  0.00    -0.383 N 
ATOM     49  H   UNL     1     -42.545  43.198  26.316  1.00  0.00     0.158 HD
ATOM     50  H   UNL     1     -41.193  43.599  27.311  1.00  0.00     0.158 HD
ENDBRANCH  44  48
ENDBRANCH  31  36
ENDBRANCH   1  26
TORSDOF 7
ENDMDL
MODEL 3
REMARK VINA RESULT:      -9.9      3.218     10.350
REMARK SMILES CNc1ccc2ccc(OCc3cccc(-n4cc(Br)c5c(N)ncnc54)c3)cc2n1
REMARK SMILES IDX 11 1 10 4 9 5 3 6 4 7 31 8 5 9 30 11 6 12 29 14 7 15 8 17
REMARK SMILES IDX 2 20 1 22 12 26 13 27 28 28 14 29 16 31 15 33 17 36 18 37
REMARK SMILES IDX 27 38 19 39 21 41 26 42 20 43 22 44 25 45 24 46 23 48
REMARK H PARENT 11 2 11 3 4 10 5 13 29 16 7 18 8 19 2 21 1 23 1 24 1 25 13 30
REMARK H PARENT 28 32 14 34 15 35 18 40 25 47 23 49 23 50
REMARK Flexibility Score: inf
ROOT
ATOM      1  C   UNL     1     -46.098  34.383  27.231  1.00  0.00     0.113 C 
ATOM      2  H   UNL     1     -45.416  34.098  28.040  1.00  0.00     0.076 H 
ATOM      3  H   UNL     1     -45.518  34.284  26.305  1.00  0.00     0.076 H 
ENDROOT
BRANCH   1   4
ATOM      4  O   UNL     1     -47.183  33.451  27.263  1.00  0.00    -0.489 OA
BRANCH   4   5
ATOM      5  C   UNL     1     -47.440  32.704  26.146  1.00  0.00     0.122 A 
ATOM      6  C   UNL     1     -46.565  31.077  21.759  1.00  0.00     0.126 A 
ATOM      7  C   UNL     1     -47.713  30.292  21.768  1.00  0.00    -0.019 A 
ATOM      8  N   UNL     1     -46.221  31.837  22.818  1.00  0.00    -0.231 NA
ATOM      9  C   UNL     1     -48.540  30.305  22.887  1.00  0.00    -0.049 A 
ATOM     10  H   UNL     1     -47.958  29.666  20.917  1.00  0.00     0.066 H 
ATOM     11  C   UNL     1     -47.015  31.855  23.904  1.00  0.00     0.076 A 
ATOM     12  C   UNL     1     -48.199  31.098  23.984  1.00  0.00     0.001 A 
ATOM     13  H   UNL     1     -49.437  29.693  22.895  1.00  0.00     0.063 H 
ATOM     14  C   UNL     1     -46.658  32.647  24.989  1.00  0.00     0.007 A 
ATOM     15  C   UNL     1     -48.995  31.152  25.137  1.00  0.00    -0.049 A 
ATOM     16  H   UNL     1     -45.747  33.225  24.889  1.00  0.00     0.069 H 
ATOM     17  C   UNL     1     -48.614  31.955  26.210  1.00  0.00    -0.019 A 
ATOM     18  H   UNL     1     -49.912  30.572  25.208  1.00  0.00     0.063 H 
ATOM     19  H   UNL     1     -49.233  31.996  27.102  1.00  0.00     0.066 H 
BRANCH   6  20
ATOM     20  N   UNL     1     -45.739  31.020  20.620  1.00  0.00    -0.373 N 
ATOM     21  H   UNL     1     -45.676  30.056  20.309  1.00  0.00     0.161 HD
BRANCH  20  22
ATOM     22  C   UNL     1     -46.149  31.909  19.545  1.00  0.00     0.005 C 
ATOM     23  H   UNL     1     -46.841  31.414  18.855  1.00  0.00     0.045 H 
ATOM     24  H   UNL     1     -45.263  32.201  18.971  1.00  0.00     0.045 H 
ATOM     25  H   UNL     1     -46.604  32.827  19.932  1.00  0.00     0.045 H 
ENDBRANCH  20  22
ENDBRANCH   6  20
ENDBRANCH   4   5
ENDBRANCH   1   4
BRANCH   1  26
ATOM     26  C   UNL     1     -46.543  35.805  27.495  1.00  0.00    -0.009 A 
ATOM     27  C   UNL     1     -47.899  36.113  27.637  1.00  0.00    -0.055 A 
ATOM     28  C   UNL     1     -45.588  36.828  27.638  1.00  0.00    -0.031 A 
ATOM     29  C   UNL     1     -48.296  37.422  27.895  1.00  0.00    -0.060 A 
ATOM     30  H   UNL     1     -48.652  35.334  27.539  1.00  0.00     0.063 H 
ATOM     31  C   UNL     1     -45.971  38.154  27.895  1.00  0.00     0.047 A 
ATOM     32  H   UNL     1     -44.546  36.555  27.510  1.00  0.00     0.065 H 
ATOM     33  C   UNL     1     -47.341  38.436  28.021  1.00  0.00    -0.038 A 
ATOM     34  H   UNL     1     -49.353  37.655  28.001  1.00  0.00     0.062 H 
ATOM     35  H   UNL     1     -47.715  39.432  28.239  1.00  0.00     0.064 H 
BRANCH  31  36
ATOM     36  N   UNL     1     -44.997  39.206  28.018  1.00  0.00    -0.300 N 
ATOM     37  C   UNL     1     -44.007  39.257  28.989  1.00  0.00     0.026 A 
ATOM     38  C   UNL     1     -44.850  40.352  27.223  1.00  0.00     0.151 A 
ATOM     39  C   UNL     1     -43.277  40.404  28.819  1.00  0.00     0.049 A 
ATOM     40  H   UNL     1     -43.908  38.495  29.747  1.00  0.00     0.084 H 
ATOM     41  C   UNL     1     -43.787  41.112  27.714  1.00  0.00     0.076 A 
ATOM     42  N   UNL     1     -45.587  40.680  26.141  1.00  0.00    -0.218 NA
ATOM     43  Br  UNL     1     -41.832  40.933  29.894  1.00  0.00    -0.048 Br
ATOM     44  C   UNL     1     -43.493  42.309  27.042  1.00  0.00     0.137 A 
ATOM     45  C   UNL     1     -45.212  41.836  25.582  1.00  0.00     0.120 A 
ATOM     46  N   UNL     1     -44.220  42.653  25.965  1.00  0.00    -0.219 NA
ATOM     47  H   UNL     1     -45.778  42.153  24.711  1.00  0.00     0.106 H 
BRANCH  44  48
ATOM     48  N   UNL     1     -42.476  43.178  27.404  1.00  0.00    -0.383 N 
ATOM     49  H   UNL     1     -42.743  43.751  28.196  1.00  0.00     0.158 HD
ATOM     50  H   UNL     1     -42.002  43.640  26.641  1.00  0.00     0.158 HD
ENDBRANCH  44  48
ENDBRANCH  31  36
ENDBRANCH   1  26
TORSDOF 7
ENDMDL
MODEL 4
REMARK VINA RESULT:      -9.8      3.484     10.891
REMARK SMILES CNc1ccc2ccc(OCc3cccc(-n4cc(Br)c5c(N)ncnc54)c3)cc2n1
REMARK SMILES IDX 11 1 10 4 9 5 3 6 4 7 31 8 5 9 30 11 6 12 29 14 7 15 8 17
REMARK SMILES IDX 2 20 1 22 12 26 13 27 28 28 14 29 16 31 15 33 17 36 18 37
REMARK SMILES IDX 27 38 19 39 21 41 26 42 20 43 22 44 25 45 24 46 23 48
REMARK H PARENT 11 2 11 3 4 10 5 13 29 16 7 18 8 19 2 21 1 23 1 24 1 25 13 30
REMARK H PARENT 28 32 14 34 15 35 18 40 25 47 23 49 23 50
REMARK Flexibility Score: inf
ROOT
ATOM      1  C   UNL     1     -44.441  38.569  29.299  1.00  0.00     0.113 C 
ATOM      2  H   UNL     1     -44.654  38.432  30.366  1.00  0.00     0.076 H 
ATOM      3  H   UNL     1     -43.963  37.638  28.970  1.00  0.00     0.076 H 
ENDROOT
BRANCH   1   4
ATOM      4  O   UNL     1     -45.702  38.758  28.651  1.00  0.00    -0.489 OA
BRANCH   4   5
ATOM      5  C   UNL     1     -46.330  37.671  28.107  1.00  0.00     0.122 A 
ATOM      6  C   UNL     1     -46.505  33.459  25.896  1.00  0.00     0.126 A 
ATOM      7  C   UNL     1     -47.895  33.437  25.942  1.00  0.00    -0.019 A 
ATOM      8  N   UNL     1     -45.798  34.480  26.418  1.00  0.00    -0.231 NA
ATOM      9  C   UNL     1     -48.575  34.504  26.520  1.00  0.00    -0.049 A 
ATOM     10  H   UNL     1     -48.446  32.593  25.542  1.00  0.00     0.066 H 
ATOM     11  C   UNL     1     -46.448  35.516  26.980  1.00  0.00     0.076 A 
ATOM     12  C   UNL     1     -47.852  35.573  27.052  1.00  0.00     0.001 A 
ATOM     13  H   UNL     1     -49.661  34.489  26.556  1.00  0.00     0.063 H 
ATOM     14  C   UNL     1     -45.712  36.571  27.508  1.00  0.00     0.007 A 
ATOM     15  C   UNL     1     -48.484  36.675  27.646  1.00  0.00    -0.049 A 
ATOM     16  H   UNL     1     -44.633  36.500  27.425  1.00  0.00     0.069 H 
ATOM     17  C   UNL     1     -47.722  37.719  28.167  1.00  0.00    -0.019 A 
ATOM     18  H   UNL     1     -49.569  36.729  27.705  1.00  0.00     0.063 H 
ATOM     19  H   UNL     1     -48.215  38.572  28.625  1.00  0.00     0.066 H 
BRANCH   6  20
ATOM     20  N   UNL     1     -45.849  32.352  25.327  1.00  0.00    -0.373 N 
ATOM     21  H   UNL     1     -45.613  31.695  26.065  1.00  0.00     0.161 HD
BRANCH  20  22
ATOM     22  C   UNL     1     -46.590  31.711  24.252  1.00  0.00     0.005 C 
ATOM     23  H   UNL     1     -46.182  30.723  24.014  1.00  0.00     0.045 H 
ATOM     24  H   UNL     1     -46.508  32.328  23.350  1.00  0.00     0.045 H 
ATOM     25  H   UNL     1     -47.655  31.625  24.493  1.00  0.00     0.045 H 
ENDBRANCH  20  22
ENDBRANCH   6  20
ENDBRANCH   4   5
ENDBRANCH   1   4
BRANCH   1  26
ATOM     26  C   UNL     1     -43.533  39.772  29.170  1.00  0.00    -0.009 A 
ATOM     27  C   UNL     1     -42.444  39.940  30.031  1.00  0.00    -0.055 A 
ATOM     28  C   UNL     1     -43.756  40.719  28.154  1.00  0.00    -0.031 A 
ATOM     29  C   UNL     1     -41.607  41.043  29.894  1.00  0.00    -0.060 A 
ATOM     30  H   UNL     1     -42.250  39.213  30.817  1.00  0.00     0.063 H 
ATOM     31  C   UNL     1     -42.924  41.839  28.004  1.00  0.00     0.047 A 
ATOM     32  H   UNL     1     -44.617  40.564  27.512  1.00  0.00     0.065 H 
ATOM     33  C   UNL     1     -41.844  41.987  28.891  1.00  0.00    -0.038 A 
ATOM     34  H   UNL     1     -40.764  41.168  30.570  1.00  0.00     0.062 H 
ATOM     35  H   UNL     1     -41.145  42.815  28.827  1.00  0.00     0.064 H 
BRANCH  31  36
ATOM     36  N   UNL     1     -43.163  42.821  26.980  1.00  0.00    -0.300 N 
ATOM     37  C   UNL     1     -42.796  42.682  25.649  1.00  0.00     0.026 A 
ATOM     38  C   UNL     1     -43.787  44.071  27.103  1.00  0.00     0.151 A 
ATOM     39  C   UNL     1     -43.160  43.813  24.967  1.00  0.00     0.049 A 
ATOM     40  H   UNL     1     -42.278  41.807  25.287  1.00  0.00     0.084 H 
ATOM     41  C   UNL     1     -43.786  44.704  25.859  1.00  0.00     0.076 A 
ATOM     42  N   UNL     1     -44.329  44.593  28.224  1.00  0.00    -0.218 NA
ATOM     43  Br  UNL     1     -42.867  44.110  23.137  1.00  0.00    -0.048 Br
ATOM     44  C   UNL     1     -44.369  45.979  25.790  1.00  0.00     0.137 A 
ATOM     45  C   UNL     1     -44.857  45.808  28.036  1.00  0.00     0.120 A 
ATOM     46  N   UNL     1     -44.908  46.516  26.898  1.00  0.00    -0.219 NA
ATOM     47  H   UNL     1     -45.300  46.278  28.909  1.00  0.00     0.106 H 
BRANCH  44  48
ATOM     48  N   UNL     1     -44.444  46.741  24.635  1.00  0.00    -0.383 N 
ATOM     49  H   UNL     1     -43.997  47.642  24.756  1.00  0.00     0.158 HD
ATOM     50  H   UNL     1     -45.336  46.731  24.160  1.00  0.00     0.158 HD
ENDBRANCH  44  48
ENDBRANCH  31  36
ENDBRANCH   1  26
TORSDOF 7
ENDMDL
MODEL 5
REMARK VINA RESULT:      -9.6      3.400     10.983
REMARK SMILES CNc1ccc2ccc(OCc3cccc(-n4cc(Br)c5c(N)ncnc54)c3)cc2n1
REMARK SMILES IDX 11 1 10 4 9 5 3 6 4 7 31 8 5 9 30 11 6 12 29 14 7 15 8 17
REMARK SMILES IDX 2 20 1 22 12 26 13 27 28 28 14 29 16 31 15 33 17 36 18 37
REMARK SMILES IDX 27 38 19 39 21 41 26 42 20 43 22 44 25 45 24 46 23 48
REMARK H PARENT 11 2 11 3 4 10 5 13 29 16 7 18 8 19 2 21 1 23 1 24 1 25 13 30
REMARK H PARENT 28 32 14 34 15 35 18 40 25 47 23 49 23 50
REMARK Flexibility Score: inf
ROOT
ATOM      1  C   UNL     1     -46.416  34.496  27.131  1.00  0.00     0.113 C 
ATOM      2  H   UNL     1     -45.836  34.126  27.985  1.00  0.00     0.076 H 
ATOM      3  H   UNL     1     -45.753  34.406  26.262  1.00  0.00     0.076 H 
ENDROOT
BRANCH   1   4
ATOM      4  O   UNL     1     -47.554  33.640  27.006  1.00  0.00    -0.489 OA
BRANCH   4   5
ATOM      5  C   UNL     1     -47.524  32.642  26.070  1.00  0.00     0.122 A 
ATOM      6  C   UNL     1     -48.910  28.530  24.113  1.00  0.00     0.126 A 
ATOM      7  C   UNL     1     -47.990  28.656  23.077  1.00  0.00    -0.019 A 
ATOM      8  N   UNL     1     -49.024  29.468  25.074  1.00  0.00    -0.231 NA
ATOM      9  C   UNL     1     -47.151  29.765  23.041  1.00  0.00    -0.049 A 
ATOM     10  H   UNL     1     -47.934  27.905  22.297  1.00  0.00     0.066 H 
ATOM     11  C   UNL     1     -48.216  30.544  25.047  1.00  0.00     0.076 A 
ATOM     12  C   UNL     1     -47.252  30.735  24.040  1.00  0.00     0.001 A 
ATOM     13  H   UNL     1     -46.432  29.865  22.233  1.00  0.00     0.063 H 
ATOM     14  C   UNL     1     -48.332  31.503  26.047  1.00  0.00     0.007 A 
ATOM     15  C   UNL     1     -46.431  31.873  24.055  1.00  0.00    -0.049 A 
ATOM     16  H   UNL     1     -49.076  31.317  26.813  1.00  0.00     0.069 H 
ATOM     17  C   UNL     1     -46.569  32.818  25.070  1.00  0.00    -0.019 A 
ATOM     18  H   UNL     1     -45.682  32.029  23.282  1.00  0.00     0.063 H 
ATOM     19  H   UNL     1     -45.931  33.697  25.080  1.00  0.00     0.066 H 
BRANCH   6  20
ATOM     20  N   UNL     1     -49.761  27.409  24.104  1.00  0.00    -0.373 N 
ATOM     21  H   UNL     1     -49.716  26.971  23.188  1.00  0.00     0.161 HD
BRANCH  20  22
ATOM     22  C   UNL     1     -49.498  26.456  25.171  1.00  0.00     0.005 C 
ATOM     23  H   UNL     1     -48.775  25.694  24.862  1.00  0.00     0.045 H 
ATOM     24  H   UNL     1     -50.432  25.942  25.423  1.00  0.00     0.045 H 
ATOM     25  H   UNL     1     -49.146  26.957  26.079  1.00  0.00     0.045 H 
ENDBRANCH  20  22
ENDBRANCH   6  20
ENDBRANCH   4   5
ENDBRANCH   1   4
BRANCH   1  26
ATOM     26  C   UNL     1     -46.795  35.930  27.432  1.00  0.00    -0.009 A 
ATOM     27  C   UNL     1     -48.135  36.293  27.600  1.00  0.00    -0.055 A 
ATOM     28  C   UNL     1     -45.796  36.908  27.583  1.00  0.00    -0.031 A 
ATOM     29  C   UNL     1     -48.472  37.611  27.892  1.00  0.00    -0.060 A 
ATOM     30  H   UNL     1     -48.922  35.548  27.496  1.00  0.00     0.063 H 
ATOM     31  C   UNL     1     -46.118  38.243  27.874  1.00  0.00     0.047 A 
ATOM     32  H   UNL     1     -44.768  36.594  27.435  1.00  0.00     0.065 H 
ATOM     33  C   UNL     1     -47.473  38.581  28.026  1.00  0.00    -0.038 A 
ATOM     34  H   UNL     1     -49.516  37.887  28.018  1.00  0.00     0.062 H 
ATOM     35  H   UNL     1     -47.800  39.586  28.270  1.00  0.00     0.064 H 
BRANCH  31  36
ATOM     36  N   UNL     1     -45.098  39.250  28.006  1.00  0.00    -0.300 N 
ATOM     37  C   UNL     1     -44.103  39.245  28.972  1.00  0.00     0.026 A 
ATOM     38  C   UNL     1     -44.905  40.399  27.225  1.00  0.00     0.151 A 
ATOM     39  C   UNL     1     -43.324  40.361  28.814  1.00  0.00     0.049 A 
ATOM     40  H   UNL     1     -44.034  38.469  29.719  1.00  0.00     0.084 H 
ATOM     41  C   UNL     1     -43.807  41.105  27.721  1.00  0.00     0.076 A 
ATOM     42  N   UNL     1     -45.632  40.773  26.151  1.00  0.00    -0.218 NA
ATOM     43  Br  UNL     1     -41.851  40.811  29.887  1.00  0.00    -0.048 Br
ATOM     44  C   UNL     1     -43.464  42.296  27.063  1.00  0.00     0.137 A 
ATOM     45  C   UNL     1     -45.209  41.919  25.606  1.00  0.00     0.120 A 
ATOM     46  N   UNL     1     -44.181  42.686  25.994  1.00  0.00    -0.219 NA
ATOM     47  H   UNL     1     -45.765  42.271  24.741  1.00  0.00     0.106 H 
BRANCH  44  48
ATOM     48  N   UNL     1     -42.408  43.115  27.431  1.00  0.00    -0.383 N 
ATOM     49  H   UNL     1     -42.090  43.681  26.653  1.00  0.00     0.158 HD
ATOM     50  H   UNL     1     -41.699  42.684  28.007  1.00  0.00     0.158 HD
ENDBRANCH  44  48
ENDBRANCH  31  36
ENDBRANCH   1  26
TORSDOF 7
ENDMDL
MODEL 6
REMARK VINA RESULT:      -9.6      3.391     11.071
REMARK SMILES CNc1ccc2ccc(OCc3cccc(-n4cc(Br)c5c(N)ncnc54)c3)cc2n1
REMARK SMILES IDX 11 1 10 4 9 5 3 6 4 7 31 8 5 9 30 11 6 12 29 14 7 15 8 17
REMARK SMILES IDX 2 20 1 22 12 26 13 27 28 28 14 29 16 31 15 33 17 36 18 37
REMARK SMILES IDX 27 38 19 39 21 41 26 42 20 43 22 44 25 45 24 46 23 48
REMARK H PARENT 11 2 11 3 4 10 5 13 29 16 7 18 8 19 2 21 1 23 1 24 1 25 13 30
REMARK H PARENT 28 32 14 34 15 35 18 40 25 47 23 49 23 50
REMARK Flexibility Score: inf
ROOT
ATOM      1  C   UNL     1     -46.597  34.594  26.249  1.00  0.00     0.113 C 
ATOM      2  H   UNL     1     -45.633  34.341  26.707  1.00  0.00     0.076 H 
ATOM      3  H   UNL     1     -46.414  34.617  25.168  1.00  0.00     0.076 H 
ENDROOT
BRANCH   1   4
ATOM      4  O   UNL     1     -47.504  33.544  26.598  1.00  0.00    -0.489 OA
BRANCH   4   5
ATOM      5  C   UNL     1     -47.575  32.443  25.789  1.00  0.00     0.122 A 
ATOM      6  C   UNL     1     -49.310  28.241  24.378  1.00  0.00     0.126 A 
ATOM      7  C   UNL     1     -48.418  28.175  23.313  1.00  0.00    -0.019 A 
ATOM      8  N   UNL     1     -49.325  29.292  25.222  1.00  0.00    -0.231 NA
ATOM      9  C   UNL     1     -47.504  29.207  23.123  1.00  0.00    -0.049 A 
ATOM     10  H   UNL     1     -48.440  27.334  22.628  1.00  0.00     0.066 H 
ATOM     11  C   UNL     1     -48.445  30.295  25.045  1.00  0.00     0.076 A 
ATOM     12  C   UNL     1     -47.504  30.294  23.999  1.00  0.00     0.001 A 
ATOM     13  H   UNL     1     -46.807  29.156  22.292  1.00  0.00     0.063 H 
ATOM     14  C   UNL     1     -48.461  31.372  25.924  1.00  0.00     0.007 A 
ATOM     15  C   UNL     1     -46.605  31.361  23.857  1.00  0.00    -0.049 A 
ATOM     16  H   UNL     1     -49.191  31.334  26.724  1.00  0.00     0.069 H 
ATOM     17  C   UNL     1     -46.643  32.428  24.752  1.00  0.00    -0.019 A 
ATOM     18  H   UNL     1     -45.873  31.369  23.052  1.00  0.00     0.063 H 
ATOM     19  H   UNL     1     -45.945  33.253  24.641  1.00  0.00     0.066 H 
BRANCH   6  20
ATOM     20  N   UNL     1     -50.237  27.192  24.526  1.00  0.00    -0.373 N 
ATOM     21  H   UNL     1     -50.629  26.971  23.615  1.00  0.00     0.161 HD
BRANCH  20  22
ATOM     22  C   UNL     1     -49.698  26.011  25.181  1.00  0.00     0.005 C 
ATOM     23  H   UNL     1     -48.609  26.069  25.286  1.00  0.00     0.045 H 
ATOM     24  H   UNL     1     -49.924  25.132  24.568  1.00  0.00     0.045 H 
ATOM     25  H   UNL     1     -50.157  25.851  26.163  1.00  0.00     0.045 H 
ENDBRANCH  20  22
ENDBRANCH   6  20
ENDBRANCH   4   5
ENDBRANCH   1   4
BRANCH   1  26
ATOM     26  C   UNL     1     -47.020  35.938  26.802  1.00  0.00    -0.009 A 
ATOM     27  C   UNL     1     -48.312  36.129  27.300  1.00  0.00    -0.055 A 
ATOM     28  C   UNL     1     -46.100  37.001  26.853  1.00  0.00    -0.031 A 
ATOM     29  C   UNL     1     -48.685  37.365  27.820  1.00  0.00    -0.060 A 
ATOM     30  H   UNL     1     -49.034  35.316  27.277  1.00  0.00     0.063 H 
ATOM     31  C   UNL     1     -46.460  38.254  27.371  1.00  0.00     0.047 A 
ATOM     32  H   UNL     1     -45.110  36.820  26.448  1.00  0.00     0.065 H 
ATOM     33  C   UNL     1     -47.770  38.421  27.854  1.00  0.00    -0.038 A 
ATOM     34  H   UNL     1     -49.693  37.507  28.202  1.00  0.00     0.062 H 
ATOM     35  H   UNL     1     -48.118  39.353  28.287  1.00  0.00     0.064 H 
BRANCH  31  36
ATOM     36  N   UNL     1     -45.528  39.350  27.404  1.00  0.00    -0.300 N 
ATOM     37  C   UNL     1     -45.492  40.384  26.480  1.00  0.00     0.026 A 
ATOM     38  C   UNL     1     -44.504  39.593  28.330  1.00  0.00     0.151 A 
ATOM     39  C   UNL     1     -44.469  41.236  26.806  1.00  0.00     0.049 A 
ATOM     40  H   UNL     1     -46.173  40.429  25.643  1.00  0.00     0.084 H 
ATOM     41  C   UNL     1     -43.831  40.760  27.967  1.00  0.00     0.076 A 
ATOM     42  N   UNL     1     -44.209  38.849  29.417  1.00  0.00    -0.218 NA
ATOM     43  Br  UNL     1     -44.007  42.784  25.850  1.00  0.00    -0.048 Br
ATOM     44  C   UNL     1     -42.761  41.161  28.782  1.00  0.00     0.137 A 
ATOM     45  C   UNL     1     -43.176  39.330  30.118  1.00  0.00     0.120 A 
ATOM     46  N   UNL     1     -42.450  40.429  29.866  1.00  0.00    -0.219 NA
ATOM     47  H   UNL     1     -42.891  38.764  31.000  1.00  0.00     0.106 H 
BRANCH  44  48
ATOM     48  N   UNL     1     -41.988  42.290  28.558  1.00  0.00    -0.383 N 
ATOM     49  H   UNL     1     -41.242  42.103  27.899  1.00  0.00     0.158 HD
ATOM     50  H   UNL     1     -41.753  42.830  29.378  1.00  0.00     0.158 HD
ENDBRANCH  44  48
ENDBRANCH  31  36
ENDBRANCH   1  26
TORSDOF 7
ENDMDL
MODEL 7
REMARK VINA RESULT:      -9.6      2.105      2.651
REMARK SMILES CNc1ccc2ccc(OCc3cccc(-n4cc(Br)c5c(N)ncnc54)c3)cc2n1
REMARK SMILES IDX 11 1 10 4 9 5 3 6 4 7 31 8 5 9 30 11 6 12 29 14 7 15 8 17
REMARK SMILES IDX 2 20 1 22 12 26 13 27 28 28 14 29 16 31 15 33 17 36 18 37
REMARK SMILES IDX 27 38 19 39 21 41 26 42 20 43 22 44 25 45 24 46 23 48
REMARK H PARENT 11 2 11 3 4 10 5 13 29 16 7 18 8 19 2 21 1 23 1 24 1 25 13 30
REMARK H PARENT 28 32 14 34 15 35 18 40 25 47 23 49 23 50
REMARK Flexibility Score: inf
ROOT
ATOM      1  C   UNL     1     -49.066  35.235  27.060  1.00  0.00     0.113 C 
ATOM      2  H   UNL     1     -49.970  34.675  27.327  1.00  0.00     0.076 H 
ATOM      3  H   UNL     1     -49.409  36.074  26.441  1.00  0.00     0.076 H 
ENDROOT
BRANCH   1   4
ATOM      4  O   UNL     1     -48.494  35.698  28.286  1.00  0.00    -0.489 OA
BRANCH   4   5
ATOM      5  C   UNL     1     -47.524  36.663  28.235  1.00  0.00     0.122 A 
ATOM      6  C   UNL     1     -45.427  40.571  26.509  1.00  0.00     0.126 A 
ATOM      7  C   UNL     1     -44.393  40.486  27.436  1.00  0.00    -0.019 A 
ATOM      8  N   UNL     1     -46.433  39.675  26.489  1.00  0.00    -0.231 NA
ATOM      9  C   UNL     1     -44.384  39.439  28.353  1.00  0.00    -0.049 A 
ATOM     10  H   UNL     1     -43.607  41.233  27.454  1.00  0.00     0.066 H 
ATOM     11  C   UNL     1     -46.433  38.660  27.373  1.00  0.00     0.076 A 
ATOM     12  C   UNL     1     -45.415  38.499  28.332  1.00  0.00     0.001 A 
ATOM     13  H   UNL     1     -43.577  39.370  29.077  1.00  0.00     0.063 H 
ATOM     14  C   UNL     1     -47.469  37.735  27.341  1.00  0.00     0.007 A 
ATOM     15  C   UNL     1     -45.457  37.423  29.231  1.00  0.00    -0.049 A 
ATOM     16  H   UNL     1     -48.229  37.883  26.582  1.00  0.00     0.069 H 
ATOM     17  C   UNL     1     -46.508  36.510  29.177  1.00  0.00    -0.019 A 
ATOM     18  H   UNL     1     -44.675  37.289  29.975  1.00  0.00     0.063 H 
ATOM     19  H   UNL     1     -46.537  35.676  29.874  1.00  0.00     0.066 H 
BRANCH   6  20
ATOM     20  N   UNL     1     -45.418  41.657  25.612  1.00  0.00    -0.373 N 
ATOM     21  H   UNL     1     -45.656  41.318  24.685  1.00  0.00     0.161 HD
BRANCH  20  22
ATOM     22  C   UNL     1     -46.266  42.766  26.016  1.00  0.00     0.005 C 
ATOM     23  H   UNL     1     -45.927  43.212  26.957  1.00  0.00     0.045 H 
ATOM     24  H   UNL     1     -47.284  42.394  26.175  1.00  0.00     0.045 H 
ATOM     25  H   UNL     1     -46.318  43.536  25.238  1.00  0.00     0.045 H 
ENDBRANCH  20  22
ENDBRANCH   6  20
ENDBRANCH   4   5
ENDBRANCH   1   4
BRANCH   1  26
ATOM     26  C   UNL     1     -48.154  34.288  26.311  1.00  0.00    -0.009 A 
ATOM     27  C   UNL     1     -46.823  34.631  26.058  1.00  0.00    -0.055 A 
ATOM     28  C   UNL     1     -48.630  33.033  25.893  1.00  0.00    -0.031 A 
ATOM     29  C   UNL     1     -45.988  33.746  25.381  1.00  0.00    -0.060 A 
ATOM     30  H   UNL     1     -46.434  35.594  26.382  1.00  0.00     0.063 H 
ATOM     31  C   UNL     1     -47.804  32.129  25.207  1.00  0.00     0.047 A 
ATOM     32  H   UNL     1     -49.671  32.804  26.096  1.00  0.00     0.065 H 
ATOM     33  C   UNL     1     -46.473  32.506  24.956  1.00  0.00    -0.038 A 
ATOM     34  H   UNL     1     -44.955  34.022  25.185  1.00  0.00     0.062 H 
ATOM     35  H   UNL     1     -45.768  31.856  24.449  1.00  0.00     0.064 H 
BRANCH  31  36
ATOM     36  N   UNL     1     -48.295  30.854  24.757  1.00  0.00    -0.300 N 
ATOM     37  C   UNL     1     -48.781  29.856  25.590  1.00  0.00     0.026 A 
ATOM     38  C   UNL     1     -48.380  30.368  23.445  1.00  0.00     0.151 A 
ATOM     39  C   UNL     1     -49.141  28.776  24.827  1.00  0.00     0.049 A 
ATOM     40  H   UNL     1     -48.811  29.970  26.663  1.00  0.00     0.084 H 
ATOM     41  C   UNL     1     -48.899  29.072  23.472  1.00  0.00     0.076 A 
ATOM     42  N   UNL     1     -48.044  31.032  22.318  1.00  0.00    -0.218 NA
ATOM     43  Br  UNL     1     -49.845  27.169  25.495  1.00  0.00    -0.048 Br
ATOM     44  C   UNL     1     -49.051  28.418  22.240  1.00  0.00     0.137 A 
ATOM     45  C   UNL     1     -48.236  30.311  21.208  1.00  0.00     0.120 A 
ATOM     46  N   UNL     1     -48.716  29.063  21.108  1.00  0.00    -0.219 NA
ATOM     47  H   UNL     1     -47.974  30.795  20.271  1.00  0.00     0.106 H 
BRANCH  44  48
ATOM     48  N   UNL     1     -49.545  27.132  22.094  1.00  0.00    -0.383 N 
ATOM     49  H   UNL     1     -50.443  27.131  21.626  1.00  0.00     0.158 HD
ATOM     50  H   UNL     1     -49.446  26.530  22.900  1.00  0.00     0.158 HD
ENDBRANCH  44  48
ENDBRANCH  31  36
ENDBRANCH   1  26
TORSDOF 7
ENDMDL
