MODEL 1
REMARK VINA RESULT:      -8.7      0.000      0.000
REMARK SMILES C=CC(=O)N(CCC(=O)O)c1nc(N)c2ccn(-c3cncc(COc4ccc5ccc(NC)nc5c4)c3)c2n1
REMARK SMILES IDX 11 1 12 2 13 3 15 4 16 5 17 6 18 7 39 8 40 9 5 12 3 13 4 14
REMARK SMILES IDX 2 15 1 16 6 20 7 23 8 26 9 27 10 28 14 30 19 33 20 34 38 35
REMARK SMILES IDX 21 36 23 38 22 40 24 42 25 45 26 46 27 47 37 48 28 49 36 51
REMARK SMILES IDX 29 53 35 55 30 56 32 57 31 58 33 61 34 63
REMARK H PARENT 16 10 17 11 1 17 1 18 2 19 6 21 6 22 7 24 7 25 10 29 14 31
REMARK H PARENT 14 32 20 37 38 39 22 41 24 43 24 44 27 50 37 52 28 54 30 59
REMARK H PARENT 31 60 33 62 34 64 34 65 34 66
REMARK Flexibility Score: inf
ROOT
ATOM      1  C   UNL     1     -44.553  41.679  26.975  1.00  0.00     0.236 A 
ATOM      2  N   UNL     1     -43.528  42.441  27.382  1.00  0.00    -0.195 NA
ATOM      3  C   UNL     1     -42.732  42.048  28.387  1.00  0.00     0.138 A 
ATOM      4  C   UNL     1     -42.973  40.819  28.999  1.00  0.00     0.062 A 
ATOM      5  C   UNL     1     -42.405  40.093  30.068  1.00  0.00    -0.031 A 
ATOM      6  C   UNL     1     -43.128  38.931  30.204  1.00  0.00     0.012 A 
ATOM      7  N   UNL     1     -44.129  38.893  29.242  1.00  0.00    -0.300 N 
ATOM      8  C   UNL     1     -44.032  40.073  28.498  1.00  0.00     0.152 A 
ATOM      9  N   UNL     1     -44.837  40.469  27.491  1.00  0.00    -0.194 NA
ATOM     10  H   UNL     1     -41.565  40.392  30.682  1.00  0.00     0.065 H 
ATOM     11  H   UNL     1     -42.978  38.120  30.902  1.00  0.00     0.082 H 
ENDROOT
BRANCH   1  12
ATOM     12  N   UNL     1     -45.402  42.152  25.922  1.00  0.00    -0.276 N 
BRANCH  12  13
ATOM     13  C   UNL     1     -46.776  42.288  26.127  1.00  0.00     0.252 C 
ATOM     14  O   UNL     1     -47.624  41.402  26.047  1.00  0.00    -0.269 OA
BRANCH  13  15
ATOM     15  C   UNL     1     -47.262  43.659  26.489  1.00  0.00    -0.004 C 
ATOM     16  C   UNL     1     -48.540  43.852  26.846  1.00  0.00    -0.094 C 
ATOM     17  H   UNL     1     -49.253  43.031  26.862  1.00  0.00     0.054 H 
ATOM     18  H   UNL     1     -48.897  44.833  27.137  1.00  0.00     0.054 H 
ATOM     19  H   UNL     1     -46.569  44.486  26.512  1.00  0.00     0.067 H 
ENDBRANCH  13  15
ENDBRANCH  12  13
BRANCH  12  20
ATOM     20  C   UNL     1     -44.732  42.447  24.642  1.00  0.00     0.040 C 
ATOM     21  H   UNL     1     -45.093  41.753  23.874  1.00  0.00     0.051 H 
ATOM     22  H   UNL     1     -43.660  42.216  24.714  1.00  0.00     0.051 H 
BRANCH  20  23
ATOM     23  C   UNL     1     -44.954  43.890  24.193  1.00  0.00     0.064 C 
ATOM     24  H   UNL     1     -45.651  44.406  24.861  1.00  0.00     0.040 H 
ATOM     25  H   UNL     1     -45.373  43.910  23.182  1.00  0.00     0.040 H 
BRANCH  23  26
ATOM     26  C   UNL     1     -43.656  44.639  24.191  1.00  0.00     0.305 C 
ATOM     27  O   UNL     1     -43.362  45.601  23.503  1.00  0.00    -0.252 OA
BRANCH  26  28
ATOM     28  O   UNL     1     -42.771  44.116  25.063  1.00  0.00    -0.481 OA
ATOM     29  H   UNL     1     -42.900  44.638  25.883  1.00  0.00     0.296 HD
ENDBRANCH  26  28
ENDBRANCH  23  26
ENDBRANCH  20  23
ENDBRANCH  12  20
ENDBRANCH   1  12
BRANCH   3  30
ATOM     30  N   UNL     1     -41.705  42.907  28.753  1.00  0.00    -0.383 N 
ATOM     31  H   UNL     1     -40.995  43.051  28.050  1.00  0.00     0.158 HD
ATOM     32  H   UNL     1     -42.099  43.746  29.173  1.00  0.00     0.158 HD
ENDBRANCH   3  30
BRANCH   7  33
ATOM     33  C   UNL     1     -45.066  37.827  29.081  1.00  0.00     0.066 A 
ATOM     34  C   UNL     1     -45.629  37.198  30.188  1.00  0.00     0.051 A 
ATOM     35  C   UNL     1     -45.457  37.362  27.823  1.00  0.00    -0.028 A 
ATOM     36  N   UNL     1     -46.523  36.181  30.118  1.00  0.00    -0.262 NA
ATOM     37  H   UNL     1     -45.414  37.495  31.209  1.00  0.00     0.086 H 
ATOM     38  C   UNL     1     -46.365  36.299  27.710  1.00  0.00     0.010 A 
ATOM     39  H   UNL     1     -45.046  37.775  26.909  1.00  0.00     0.065 H 
ATOM     40  C   UNL     1     -46.871  35.759  28.885  1.00  0.00     0.034 A 
ATOM     41  H   UNL     1     -47.588  34.942  28.874  1.00  0.00     0.084 H 
BRANCH  38  42
ATOM     42  C   UNL     1     -46.799  35.774  26.368  1.00  0.00     0.115 C 
ATOM     43  H   UNL     1     -45.986  35.146  25.981  1.00  0.00     0.076 H 
ATOM     44  H   UNL     1     -46.938  36.565  25.621  1.00  0.00     0.076 H 
BRANCH  42  45
ATOM     45  O   UNL     1     -47.957  34.938  26.466  1.00  0.00    -0.489 OA
BRANCH  45  46
ATOM     46  C   UNL     1     -47.938  33.704  25.879  1.00  0.00     0.122 A 
ATOM     47  C   UNL     1     -49.049  32.912  26.163  1.00  0.00    -0.019 A 
ATOM     48  C   UNL     1     -46.932  33.191  25.058  1.00  0.00     0.007 A 
ATOM     49  C   UNL     1     -49.156  31.629  25.632  1.00  0.00    -0.049 A 
ATOM     50  H   UNL     1     -49.844  33.296  26.798  1.00  0.00     0.066 H 
ATOM     51  C   UNL     1     -47.010  31.914  24.513  1.00  0.00     0.076 A 
ATOM     52  H   UNL     1     -46.047  33.766  24.811  1.00  0.00     0.069 H 
ATOM     53  C   UNL     1     -48.139  31.127  24.807  1.00  0.00     0.001 A 
ATOM     54  H   UNL     1     -50.032  31.028  25.863  1.00  0.00     0.063 H 
ATOM     55  N   UNL     1     -46.009  31.475  23.730  1.00  0.00    -0.231 NA
ATOM     56  C   UNL     1     -48.200  29.846  24.254  1.00  0.00    -0.049 A 
ATOM     57  C   UNL     1     -46.084  30.241  23.190  1.00  0.00     0.126 A 
ATOM     58  C   UNL     1     -47.162  29.400  23.445  1.00  0.00    -0.019 A 
ATOM     59  H   UNL     1     -49.042  29.189  24.454  1.00  0.00     0.063 H 
ATOM     60  H   UNL     1     -47.189  28.400  23.026  1.00  0.00     0.066 H 
BRANCH  57  61
ATOM     61  N   UNL     1     -45.040  29.748  22.387  1.00  0.00    -0.373 N 
ATOM     62  H   UNL     1     -44.229  30.350  22.497  1.00  0.00     0.161 HD
BRANCH  61  63
ATOM     63  C   UNL     1     -44.711  28.352  22.626  1.00  0.00     0.005 C 
ATOM     64  H   UNL     1     -43.650  28.225  22.871  1.00  0.00     0.045 H 
ATOM     65  H   UNL     1     -44.910  27.779  21.715  1.00  0.00     0.045 H 
ATOM     66  H   UNL     1     -45.328  27.924  23.422  1.00  0.00     0.045 H 
ENDBRANCH  61  63
ENDBRANCH  57  61
ENDBRANCH  45  46
ENDBRANCH  42  45
ENDBRANCH  38  42
ENDBRANCH   7  33
TORSDOF 14
ENDMDL
MODEL 2
REMARK VINA RESULT:      -8.6      2.558      4.099
REMARK SMILES C=CC(=O)N(CCC(=O)O)c1nc(N)c2ccn(-c3cncc(COc4ccc5ccc(NC)nc5c4)c3)c2n1
REMARK SMILES IDX 11 1 12 2 13 3 15 4 16 5 17 6 18 7 39 8 40 9 5 12 3 13 4 14
REMARK SMILES IDX 2 15 1 16 6 20 7 23 8 26 9 27 10 28 14 30 19 33 20 34 38 35
REMARK SMILES IDX 21 36 23 38 22 40 24 42 25 45 26 46 27 47 37 48 28 49 36 51
REMARK SMILES IDX 29 53 35 55 30 56 32 57 31 58 33 61 34 63
REMARK H PARENT 16 10 17 11 1 17 1 18 2 19 6 21 6 22 7 24 7 25 10 29 14 31
REMARK H PARENT 14 32 20 37 38 39 22 41 24 43 24 44 27 50 37 52 28 54 30 59
REMARK H PARENT 31 60 33 62 34 64 34 65 34 66
REMARK Flexibility Score: inf
ROOT
ATOM      1  C   UNL     1     -45.500  41.403  26.459  1.00  0.00     0.236 A 
ATOM      2  N   UNL     1     -46.382  42.407  26.552  1.00  0.00    -0.195 NA
ATOM      3  C   UNL     1     -47.651  42.180  26.919  1.00  0.00     0.138 A 
ATOM      4  C   UNL     1     -48.043  40.877  27.223  1.00  0.00     0.062 A 
ATOM      5  C   UNL     1     -49.248  40.246  27.602  1.00  0.00    -0.031 A 
ATOM      6  C   UNL     1     -48.983  38.902  27.729  1.00  0.00     0.012 A 
ATOM      7  N   UNL     1     -47.642  38.666  27.456  1.00  0.00    -0.300 N 
ATOM      8  C   UNL     1     -47.063  39.898  27.136  1.00  0.00     0.152 A 
ATOM      9  N   UNL     1     -45.787  40.124  26.762  1.00  0.00    -0.194 NA
ATOM     10  H   UNL     1     -50.209  40.719  27.753  1.00  0.00     0.065 H 
ATOM     11  H   UNL     1     -49.654  38.107  28.022  1.00  0.00     0.082 H 
ENDROOT
BRANCH   1  12
ATOM     12  N   UNL     1     -44.162  41.684  26.028  1.00  0.00    -0.276 N 
BRANCH  12  13
ATOM     13  C   UNL     1     -43.931  42.514  24.929  1.00  0.00     0.252 C 
ATOM     14  O   UNL     1     -44.320  42.335  23.777  1.00  0.00    -0.269 OA
BRANCH  13  15
ATOM     15  C   UNL     1     -43.131  43.754  25.188  1.00  0.00    -0.004 C 
ATOM     16  C   UNL     1     -43.705  44.823  25.758  1.00  0.00    -0.094 C 
ATOM     17  H   UNL     1     -44.759  44.824  26.025  1.00  0.00     0.054 H 
ATOM     18  H   UNL     1     -43.131  45.717  25.977  1.00  0.00     0.054 H 
ATOM     19  H   UNL     1     -42.076  43.770  24.962  1.00  0.00     0.067 H 
ENDBRANCH  13  15
ENDBRANCH  12  13
BRANCH  12  20
ATOM     20  C   UNL     1     -43.089  41.027  26.797  1.00  0.00     0.040 C 
ATOM     21  H   UNL     1     -42.165  41.028  26.207  1.00  0.00     0.051 H 
ATOM     22  H   UNL     1     -43.314  39.959  26.922  1.00  0.00     0.051 H 
BRANCH  20  23
ATOM     23  C   UNL     1     -42.851  41.700  28.147  1.00  0.00     0.064 C 
ATOM     24  H   UNL     1     -43.623  42.449  28.354  1.00  0.00     0.040 H 
ATOM     25  H   UNL     1     -41.879  42.203  28.152  1.00  0.00     0.040 H 
BRANCH  23  26
ATOM     26  C   UNL     1     -42.871  40.682  29.246  1.00  0.00     0.305 C 
ATOM     27  O   UNL     1     -42.084  40.582  30.172  1.00  0.00    -0.252 OA
BRANCH  26  28
ATOM     28  O   UNL     1     -43.892  39.813  29.110  1.00  0.00    -0.481 OA
ATOM     29  H   UNL     1     -44.101  39.536  30.027  1.00  0.00     0.296 HD
ENDBRANCH  26  28
ENDBRANCH  23  26
ENDBRANCH  20  23
ENDBRANCH  12  20
ENDBRANCH   1  12
BRANCH   3  30
ATOM     30  N   UNL     1     -48.501  43.276  26.973  1.00  0.00    -0.383 N 
ATOM     31  H   UNL     1     -48.158  44.108  26.515  1.00  0.00     0.158 HD
ATOM     32  H   UNL     1     -49.445  42.985  26.729  1.00  0.00     0.158 HD
ENDBRANCH   3  30
BRANCH   7  33
ATOM     33  C   UNL     1     -47.014  37.384  27.502  1.00  0.00     0.066 A 
ATOM     34  C   UNL     1     -45.977  37.129  28.395  1.00  0.00     0.051 A 
ATOM     35  C   UNL     1     -47.397  36.336  26.662  1.00  0.00    -0.028 A 
ATOM     36  N   UNL     1     -45.332  35.941  28.499  1.00  0.00    -0.262 NA
ATOM     37  H   UNL     1     -45.617  37.863  29.108  1.00  0.00     0.086 H 
ATOM     38  C   UNL     1     -46.740  35.098  26.726  1.00  0.00     0.010 A 
ATOM     39  H   UNL     1     -48.176  36.457  25.917  1.00  0.00     0.065 H 
ATOM     40  C   UNL     1     -45.729  34.956  27.667  1.00  0.00     0.034 A 
ATOM     41  H   UNL     1     -45.185  34.022  27.782  1.00  0.00     0.084 H 
BRANCH  38  42
ATOM     42  C   UNL     1     -47.128  33.954  25.829  1.00  0.00     0.115 C 
ATOM     43  H   UNL     1     -46.381  33.162  25.963  1.00  0.00     0.076 H 
ATOM     44  H   UNL     1     -47.093  34.211  24.763  1.00  0.00     0.076 H 
BRANCH  42  45
ATOM     45  O   UNL     1     -48.395  33.393  26.189  1.00  0.00    -0.489 OA
BRANCH  45  46
ATOM     46  C   UNL     1     -48.809  32.241  25.581  1.00  0.00     0.122 A 
ATOM     47  C   UNL     1     -49.792  32.421  24.610  1.00  0.00    -0.019 A 
ATOM     48  C   UNL     1     -48.349  30.951  25.849  1.00  0.00     0.007 A 
ATOM     49  C   UNL     1     -50.306  31.329  23.914  1.00  0.00    -0.049 A 
ATOM     50  H   UNL     1     -50.160  33.420  24.386  1.00  0.00     0.066 H 
ATOM     51  C   UNL     1     -48.842  29.841  25.172  1.00  0.00     0.076 A 
ATOM     52  H   UNL     1     -47.588  30.758  26.597  1.00  0.00     0.069 H 
ATOM     53  C   UNL     1     -49.833  30.038  24.192  1.00  0.00     0.001 A 
ATOM     54  H   UNL     1     -51.070  31.491  23.159  1.00  0.00     0.063 H 
ATOM     55  N   UNL     1     -48.360  28.622  25.474  1.00  0.00    -0.231 NA
ATOM     56  C   UNL     1     -50.320  28.913  23.524  1.00  0.00    -0.049 A 
ATOM     57  C   UNL     1     -48.828  27.543  24.813  1.00  0.00     0.126 A 
ATOM     58  C   UNL     1     -49.816  27.657  23.842  1.00  0.00    -0.019 A 
ATOM     59  H   UNL     1     -51.093  29.003  22.765  1.00  0.00     0.063 H 
ATOM     60  H   UNL     1     -50.201  26.774  23.343  1.00  0.00     0.066 H 
BRANCH  57  61
ATOM     61  N   UNL     1     -48.359  26.255  25.127  1.00  0.00    -0.373 N 
ATOM     62  H   UNL     1     -47.396  26.171  24.812  1.00  0.00     0.161 HD
BRANCH  61  63
ATOM     63  C   UNL     1     -48.501  25.892  26.527  1.00  0.00     0.005 C 
ATOM     64  H   UNL     1     -49.554  25.848  26.827  1.00  0.00     0.045 H 
ATOM     65  H   UNL     1     -48.015  26.656  27.143  1.00  0.00     0.045 H 
ATOM     66  H   UNL     1     -48.013  24.938  26.747  1.00  0.00     0.045 H 
ENDBRANCH  61  63
ENDBRANCH  57  61
ENDBRANCH  45  46
ENDBRANCH  42  45
ENDBRANCH  38  42
ENDBRANCH   7  33
TORSDOF 14
ENDMDL
MODEL 3
REMARK VINA RESULT:      -8.6      3.035     11.676
REMARK SMILES C=CC(=O)N(CCC(=O)O)c1nc(N)c2ccn(-c3cncc(COc4ccc5ccc(NC)nc5c4)c3)c2n1
REMARK SMILES IDX 11 1 12 2 13 3 15 4 16 5 17 6 18 7 39 8 40 9 5 12 3 13 4 14
REMARK SMILES IDX 2 15 1 16 6 20 7 23 8 26 9 27 10 28 14 30 19 33 20 34 38 35
REMARK SMILES IDX 21 36 23 38 22 40 24 42 25 45 26 46 27 47 37 48 28 49 36 51
REMARK SMILES IDX 29 53 35 55 30 56 32 57 31 58 33 61 34 63
REMARK H PARENT 16 10 17 11 1 17 1 18 2 19 6 21 6 22 7 24 7 25 10 29 14 31
REMARK H PARENT 14 32 20 37 38 39 22 41 24 43 24 44 27 50 37 52 28 54 30 59
REMARK H PARENT 31 60 33 62 34 64 34 65 34 66
REMARK Flexibility Score: inf
ROOT
ATOM      1  C   UNL     1     -48.408  30.134  23.928  1.00  0.00     0.236 A 
ATOM      2  N   UNL     1     -49.610  29.882  23.393  1.00  0.00    -0.195 NA
ATOM      3  C   UNL     1     -50.658  30.682  23.640  1.00  0.00     0.138 A 
ATOM      4  C   UNL     1     -50.477  31.799  24.453  1.00  0.00     0.062 A 
ATOM      5  C   UNL     1     -51.303  32.827  24.958  1.00  0.00    -0.031 A 
ATOM      6  C   UNL     1     -50.517  33.634  25.747  1.00  0.00     0.012 A 
ATOM      7  N   UNL     1     -49.213  33.156  25.744  1.00  0.00    -0.300 N 
ATOM      8  C   UNL     1     -49.194  32.011  24.942  1.00  0.00     0.152 A 
ATOM      9  N   UNL     1     -48.141  31.205  24.699  1.00  0.00    -0.194 NA
ATOM     10  H   UNL     1     -52.362  32.957  24.777  1.00  0.00     0.065 H 
ATOM     11  H   UNL     1     -50.794  34.529  26.285  1.00  0.00     0.082 H 
ENDROOT
BRANCH   1  12
ATOM     12  N   UNL     1     -47.323  29.234  23.668  1.00  0.00    -0.276 N 
BRANCH  12  13
ATOM     13  C   UNL     1     -47.264  27.993  24.307  1.00  0.00     0.252 C 
ATOM     14  O   UNL     1     -48.120  27.500  25.039  1.00  0.00    -0.269 OA
BRANCH  13  15
ATOM     15  C   UNL     1     -46.028  27.179  24.066  1.00  0.00    -0.004 C 
ATOM     16  C   UNL     1     -45.889  25.975  24.637  1.00  0.00    -0.094 C 
ATOM     17  H   UNL     1     -46.651  25.572  25.300  1.00  0.00     0.054 H 
ATOM     18  H   UNL     1     -45.013  25.365  24.449  1.00  0.00     0.054 H 
ATOM     19  H   UNL     1     -45.270  27.542  23.389  1.00  0.00     0.067 H 
ENDBRANCH  13  15
ENDBRANCH  12  13
BRANCH  12  20
ATOM     20  C   UNL     1     -46.299  29.719  22.725  1.00  0.00     0.040 C 
ATOM     21  H   UNL     1     -45.649  28.886  22.434  1.00  0.00     0.051 H 
ATOM     22  H   UNL     1     -45.616  30.413  23.233  1.00  0.00     0.051 H 
BRANCH  20  23
ATOM     23  C   UNL     1     -46.916  30.363  21.485  1.00  0.00     0.064 C 
ATOM     24  H   UNL     1     -47.880  30.825  21.720  1.00  0.00     0.040 H 
ATOM     25  H   UNL     1     -47.079  29.608  20.709  1.00  0.00     0.040 H 
BRANCH  23  26
ATOM     26  C   UNL     1     -46.003  31.421  20.941  1.00  0.00     0.305 C 
ATOM     27  O   UNL     1     -45.706  31.608  19.774  1.00  0.00    -0.252 OA
BRANCH  26  28
ATOM     28  O   UNL     1     -45.489  32.193  21.918  1.00  0.00    -0.481 OA
ATOM     29  H   UNL     1     -45.892  31.845  22.742  1.00  0.00     0.296 HD
ENDBRANCH  26  28
ENDBRANCH  23  26
ENDBRANCH  20  23
ENDBRANCH  12  20
ENDBRANCH   1  12
BRANCH   3  30
ATOM     30  N   UNL     1     -51.869  30.337  23.057  1.00  0.00    -0.383 N 
ATOM     31  H   UNL     1     -51.825  29.577  22.394  1.00  0.00     0.158 HD
ATOM     32  H   UNL     1     -52.583  30.263  23.779  1.00  0.00     0.158 HD
ENDBRANCH   3  30
BRANCH   7  33
ATOM     33  C   UNL     1     -48.123  33.753  26.448  1.00  0.00     0.066 A 
ATOM     34  C   UNL     1     -47.126  32.968  27.021  1.00  0.00     0.051 A 
ATOM     35  C   UNL     1     -48.005  35.137  26.603  1.00  0.00    -0.028 A 
ATOM     36  N   UNL     1     -46.063  33.459  27.703  1.00  0.00    -0.262 NA
ATOM     37  H   UNL     1     -47.107  31.886  26.941  1.00  0.00     0.086 H 
ATOM     38  C   UNL     1     -46.929  35.681  27.319  1.00  0.00     0.010 A 
ATOM     39  H   UNL     1     -48.751  35.820  26.214  1.00  0.00     0.065 H 
ATOM     40  C   UNL     1     -45.988  34.800  27.833  1.00  0.00     0.034 A 
ATOM     41  H   UNL     1     -45.121  35.151  28.388  1.00  0.00     0.084 H 
BRANCH  38  42
ATOM     42  C   UNL     1     -46.780  37.167  27.506  1.00  0.00     0.115 C 
ATOM     43  H   UNL     1     -47.772  37.617  27.379  1.00  0.00     0.076 H 
ATOM     44  H   UNL     1     -46.148  37.636  26.742  1.00  0.00     0.076 H 
BRANCH  42  45
ATOM     45  O   UNL     1     -46.338  37.503  28.826  1.00  0.00    -0.489 OA
BRANCH  45  46
ATOM     46  C   UNL     1     -45.289  38.366  28.976  1.00  0.00     0.122 A 
ATOM     47  C   UNL     1     -44.458  38.081  30.059  1.00  0.00    -0.019 A 
ATOM     48  C   UNL     1     -44.999  39.468  28.170  1.00  0.00     0.007 A 
ATOM     49  C   UNL     1     -43.352  38.883  30.329  1.00  0.00    -0.049 A 
ATOM     50  H   UNL     1     -44.667  37.225  30.696  1.00  0.00     0.066 H 
ATOM     51  C   UNL     1     -43.902  40.287  28.415  1.00  0.00     0.076 A 
ATOM     52  H   UNL     1     -45.617  39.733  27.319  1.00  0.00     0.069 H 
ATOM     53  C   UNL     1     -43.071  39.987  29.510  1.00  0.00     0.001 A 
ATOM     54  H   UNL     1     -42.714  38.644  31.176  1.00  0.00     0.063 H 
ATOM     55  N   UNL     1     -43.675  41.335  27.603  1.00  0.00    -0.231 NA
ATOM     56  C   UNL     1     -41.977  40.821  29.744  1.00  0.00    -0.049 A 
ATOM     57  C   UNL     1     -42.607  42.128  27.830  1.00  0.00     0.126 A 
ATOM     58  C   UNL     1     -41.748  41.902  28.899  1.00  0.00    -0.019 A 
ATOM     59  H   UNL     1     -41.305  40.645  30.580  1.00  0.00     0.063 H 
ATOM     60  H   UNL     1     -40.912  42.568  29.083  1.00  0.00     0.066 H 
BRANCH  57  61
ATOM     61  N   UNL     1     -42.360  43.245  27.011  1.00  0.00    -0.373 N 
ATOM     62  H   UNL     1     -41.756  42.962  26.244  1.00  0.00     0.161 HD
BRANCH  61  63
ATOM     63  C   UNL     1     -43.560  43.912  26.533  1.00  0.00     0.005 C 
ATOM     64  H   UNL     1     -43.478  45.001  26.623  1.00  0.00     0.045 H 
ATOM     65  H   UNL     1     -44.411  43.593  27.145  1.00  0.00     0.045 H 
ATOM     66  H   UNL     1     -43.785  43.642  25.497  1.00  0.00     0.045 H 
ENDBRANCH  61  63
ENDBRANCH  57  61
ENDBRANCH  45  46
ENDBRANCH  42  45
ENDBRANCH  38  42
ENDBRANCH   7  33
TORSDOF 14
ENDMDL
MODEL 4
REMARK VINA RESULT:      -8.4      1.822      2.360
REMARK SMILES C=CC(=O)N(CCC(=O)O)c1nc(N)c2ccn(-c3cncc(COc4ccc5ccc(NC)nc5c4)c3)c2n1
REMARK SMILES IDX 11 1 12 2 13 3 15 4 16 5 17 6 18 7 39 8 40 9 5 12 3 13 4 14
REMARK SMILES IDX 2 15 1 16 6 20 7 23 8 26 9 27 10 28 14 30 19 33 20 34 38 35
REMARK SMILES IDX 21 36 23 38 22 40 24 42 25 45 26 46 27 47 37 48 28 49 36 51
REMARK SMILES IDX 29 53 35 55 30 56 32 57 31 58 33 61 34 63
REMARK H PARENT 16 10 17 11 1 17 1 18 2 19 6 21 6 22 7 24 7 25 10 29 14 31
REMARK H PARENT 14 32 20 37 38 39 22 41 24 43 24 44 27 50 37 52 28 54 30 59
REMARK H PARENT 31 60 33 62 34 64 34 65 34 66
REMARK Flexibility Score: inf
ROOT
ATOM      1  C   UNL     1     -44.198  41.289  27.357  1.00  0.00     0.236 A 
ATOM      2  N   UNL     1     -43.131  41.603  28.104  1.00  0.00    -0.195 NA
ATOM      3  C   UNL     1     -42.773  40.845  29.150  1.00  0.00     0.138 A 
ATOM      4  C   UNL     1     -43.521  39.707  29.447  1.00  0.00     0.062 A 
ATOM      5  C   UNL     1     -43.489  38.707  30.444  1.00  0.00    -0.031 A 
ATOM      6  C   UNL     1     -44.538  37.852  30.200  1.00  0.00     0.012 A 
ATOM      7  N   UNL     1     -45.225  38.273  29.068  1.00  0.00    -0.300 N 
ATOM      8  C   UNL     1     -44.590  39.430  28.606  1.00  0.00     0.152 A 
ATOM      9  N   UNL     1     -44.955  40.193  27.556  1.00  0.00    -0.194 NA
ATOM     10  H   UNL     1     -42.784  38.627  31.261  1.00  0.00     0.065 H 
ATOM     11  H   UNL     1     -44.822  36.960  30.740  1.00  0.00     0.082 H 
ENDROOT
BRANCH   1  12
ATOM     12  N   UNL     1     -44.568  42.145  26.269  1.00  0.00    -0.276 N 
BRANCH  12  13
ATOM     13  C   UNL     1     -45.534  43.137  26.445  1.00  0.00     0.252 C 
ATOM     14  O   UNL     1     -45.377  44.231  26.984  1.00  0.00    -0.269 OA
BRANCH  13  15
ATOM     15  C   UNL     1     -46.903  42.835  25.914  1.00  0.00    -0.004 C 
ATOM     16  C   UNL     1     -47.862  42.384  26.733  1.00  0.00    -0.094 C 
ATOM     17  H   UNL     1     -47.669  42.209  27.789  1.00  0.00     0.054 H 
ATOM     18  H   UNL     1     -48.864  42.188  26.368  1.00  0.00     0.054 H 
ATOM     19  H   UNL     1     -47.131  43.028  24.877  1.00  0.00     0.067 H 
ENDBRANCH  13  15
ENDBRANCH  12  13
BRANCH  12  20
ATOM     20  C   UNL     1     -43.887  41.883  24.987  1.00  0.00     0.040 C 
ATOM     21  H   UNL     1     -44.251  40.938  24.569  1.00  0.00     0.051 H 
ATOM     22  H   UNL     1     -42.818  41.694  25.159  1.00  0.00     0.051 H 
BRANCH  20  23
ATOM     23  C   UNL     1     -44.090  43.016  23.984  1.00  0.00     0.064 C 
ATOM     24  H   UNL     1     -45.085  43.459  24.088  1.00  0.00     0.040 H 
ATOM     25  H   UNL     1     -43.991  42.637  22.961  1.00  0.00     0.040 H 
BRANCH  23  26
ATOM     26  C   UNL     1     -43.067  44.090  24.199  1.00  0.00     0.305 C 
ATOM     27  O   UNL     1     -43.243  45.295  24.147  1.00  0.00    -0.252 OA
BRANCH  26  28
ATOM     28  O   UNL     1     -41.847  43.580  24.456  1.00  0.00    -0.481 OA
ATOM     29  H   UNL     1     -41.677  42.966  23.710  1.00  0.00     0.296 HD
ENDBRANCH  26  28
ENDBRANCH  23  26
ENDBRANCH  20  23
ENDBRANCH  12  20
ENDBRANCH   1  12
BRANCH   3  30
ATOM     30  N   UNL     1     -41.664  41.254  29.878  1.00  0.00    -0.383 N 
ATOM     31  H   UNL     1     -41.543  42.253  29.952  1.00  0.00     0.158 HD
ATOM     32  H   UNL     1     -41.619  40.730  30.749  1.00  0.00     0.158 HD
ENDBRANCH   3  30
BRANCH   7  33
ATOM     33  C   UNL     1     -46.366  37.615  28.515  1.00  0.00     0.066 A 
ATOM     34  C   UNL     1     -47.575  38.288  28.366  1.00  0.00     0.051 A 
ATOM     35  C   UNL     1     -46.331  36.280  28.106  1.00  0.00    -0.028 A 
ATOM     36  N   UNL     1     -48.700  37.734  27.851  1.00  0.00    -0.262 NA
ATOM     37  H   UNL     1     -47.707  39.333  28.629  1.00  0.00     0.086 H 
ATOM     38  C   UNL     1     -47.480  35.667  27.586  1.00  0.00     0.010 A 
ATOM     39  H   UNL     1     -45.438  35.674  28.212  1.00  0.00     0.065 H 
ATOM     40  C   UNL     1     -48.626  36.442  27.471  1.00  0.00     0.034 A 
ATOM     41  H   UNL     1     -49.550  36.037  27.065  1.00  0.00     0.084 H 
BRANCH  38  42
ATOM     42  C   UNL     1     -47.472  34.229  27.142  1.00  0.00     0.115 C 
ATOM     43  H   UNL     1     -48.424  33.782  27.456  1.00  0.00     0.076 H 
ATOM     44  H   UNL     1     -46.694  33.631  27.632  1.00  0.00     0.076 H 
BRANCH  42  45
ATOM     45  O   UNL     1     -47.406  34.105  25.717  1.00  0.00    -0.489 OA
BRANCH  45  46
ATOM     46  C   UNL     1     -47.360  32.857  25.160  1.00  0.00     0.122 A 
ATOM     47  C   UNL     1     -46.346  32.682  24.220  1.00  0.00    -0.019 A 
ATOM     48  C   UNL     1     -48.217  31.791  25.441  1.00  0.00     0.007 A 
ATOM     49  C   UNL     1     -46.187  31.459  23.573  1.00  0.00    -0.049 A 
ATOM     50  H   UNL     1     -45.667  33.501  23.991  1.00  0.00     0.066 H 
ATOM     51  C   UNL     1     -48.084  30.558  24.811  1.00  0.00     0.076 A 
ATOM     52  H   UNL     1     -49.022  31.879  26.161  1.00  0.00     0.069 H 
ATOM     53  C   UNL     1     -47.054  30.395  23.866  1.00  0.00     0.001 A 
ATOM     54  H   UNL     1     -45.389  31.341  22.845  1.00  0.00     0.063 H 
ATOM     55  N   UNL     1     -48.940  29.569  25.123  1.00  0.00    -0.231 NA
ATOM     56  C   UNL     1     -46.936  29.153  23.240  1.00  0.00    -0.049 A 
ATOM     57  C   UNL     1     -48.809  28.368  24.522  1.00  0.00     0.126 A 
ATOM     58  C   UNL     1     -47.825  28.135  23.569  1.00  0.00    -0.019 A 
ATOM     59  H   UNL     1     -46.167  28.971  22.495  1.00  0.00     0.063 H 
ATOM     60  H   UNL     1     -47.755  27.171  23.075  1.00  0.00     0.066 H 
BRANCH  57  61
ATOM     61  N   UNL     1     -49.706  27.324  24.812  1.00  0.00    -0.373 N 
ATOM     62  H   UNL     1     -49.472  26.521  24.234  1.00  0.00     0.161 HD
BRANCH  61  63
ATOM     63  C   UNL     1     -49.777  26.972  26.220  1.00  0.00     0.005 C 
ATOM     64  H   UNL     1     -50.801  26.723  26.523  1.00  0.00     0.045 H 
ATOM     65  H   UNL     1     -49.456  27.832  26.818  1.00  0.00     0.045 H 
ATOM     66  H   UNL     1     -49.108  26.140  26.461  1.00  0.00     0.045 H 
ENDBRANCH  61  63
ENDBRANCH  57  61
ENDBRANCH  45  46
ENDBRANCH  42  45
ENDBRANCH  38  42
ENDBRANCH   7  33
TORSDOF 14
ENDMDL
MODEL 5
REMARK VINA RESULT:      -8.4      1.592      2.847
REMARK SMILES C=CC(=O)N(CCC(=O)O)c1nc(N)c2ccn(-c3cncc(COc4ccc5ccc(NC)nc5c4)c3)c2n1
REMARK SMILES IDX 11 1 12 2 13 3 15 4 16 5 17 6 18 7 39 8 40 9 5 12 3 13 4 14
REMARK SMILES IDX 2 15 1 16 6 20 7 23 8 26 9 27 10 28 14 30 19 33 20 34 38 35
REMARK SMILES IDX 21 36 23 38 22 40 24 42 25 45 26 46 27 47 37 48 28 49 36 51
REMARK SMILES IDX 29 53 35 55 30 56 32 57 31 58 33 61 34 63
REMARK H PARENT 16 10 17 11 1 17 1 18 2 19 6 21 6 22 7 24 7 25 10 29 14 31
REMARK H PARENT 14 32 20 37 38 39 22 41 24 43 24 44 27 50 37 52 28 54 30 59
REMARK H PARENT 31 60 33 62 34 64 34 65 34 66
REMARK Flexibility Score: inf
ROOT
ATOM      1  C   UNL     1     -43.977  41.913  26.816  1.00  0.00     0.236 A 
ATOM      2  N   UNL     1     -42.801  42.196  27.392  1.00  0.00    -0.195 NA
ATOM      3  C   UNL     1     -42.347  41.475  28.426  1.00  0.00     0.138 A 
ATOM      4  C   UNL     1     -43.110  40.405  28.890  1.00  0.00     0.062 A 
ATOM      5  C   UNL     1     -42.999  39.461  29.934  1.00  0.00    -0.031 A 
ATOM      6  C   UNL     1     -44.119  38.664  29.887  1.00  0.00     0.012 A 
ATOM      7  N   UNL     1     -44.930  39.067  28.833  1.00  0.00    -0.300 N 
ATOM      8  C   UNL     1     -44.300  40.154  28.220  1.00  0.00     0.152 A 
ATOM      9  N   UNL     1     -44.761  40.882  27.182  1.00  0.00    -0.194 NA
ATOM     10  H   UNL     1     -42.194  39.379  30.653  1.00  0.00     0.065 H 
ATOM     11  H   UNL     1     -44.377  37.823  30.515  1.00  0.00     0.082 H 
ENDROOT
BRANCH   1  12
ATOM     12  N   UNL     1     -44.444  42.732  25.736  1.00  0.00    -0.276 N 
BRANCH  12  13
ATOM     13  C   UNL     1     -43.562  43.572  25.053  1.00  0.00     0.252 C 
ATOM     14  O   UNL     1     -43.160  44.673  25.422  1.00  0.00    -0.269 OA
BRANCH  13  15
ATOM     15  C   UNL     1     -43.051  43.071  23.736  1.00  0.00    -0.004 C 
ATOM     16  C   UNL     1     -42.169  43.795  23.033  1.00  0.00    -0.094 C 
ATOM     17  H   UNL     1     -41.821  44.762  23.386  1.00  0.00     0.054 H 
ATOM     18  H   UNL     1     -41.771  43.431  22.092  1.00  0.00     0.054 H 
ATOM     19  H   UNL     1     -43.357  42.101  23.375  1.00  0.00     0.067 H 
ENDBRANCH  13  15
ENDBRANCH  12  13
BRANCH  12  20
ATOM     20  C   UNL     1     -45.883  42.635  25.434  1.00  0.00     0.040 C 
ATOM     21  H   UNL     1     -46.318  41.801  25.997  1.00  0.00     0.051 H 
ATOM     22  H   UNL     1     -46.031  42.343  24.385  1.00  0.00     0.051 H 
BRANCH  20  23
ATOM     23  C   UNL     1     -46.629  43.929  25.754  1.00  0.00     0.064 C 
ATOM     24  H   UNL     1     -47.033  44.385  24.844  1.00  0.00     0.040 H 
ATOM     25  H   UNL     1     -45.951  44.649  26.223  1.00  0.00     0.040 H 
BRANCH  23  26
ATOM     26  C   UNL     1     -47.765  43.656  26.693  1.00  0.00     0.305 C 
ATOM     27  O   UNL     1     -47.968  42.633  27.324  1.00  0.00    -0.252 OA
BRANCH  26  28
ATOM     28  O   UNL     1     -48.611  44.700  26.776  1.00  0.00    -0.481 OA
ATOM     29  H   UNL     1     -49.385  44.349  27.267  1.00  0.00     0.296 HD
ENDBRANCH  26  28
ENDBRANCH  23  26
ENDBRANCH  20  23
ENDBRANCH  12  20
ENDBRANCH   1  12
BRANCH   3  30
ATOM     30  N   UNL     1     -41.126  41.848  28.972  1.00  0.00    -0.383 N 
ATOM     31  H   UNL     1     -40.580  42.483  28.407  1.00  0.00     0.158 HD
ATOM     32  H   UNL     1     -41.257  42.112  29.946  1.00  0.00     0.158 HD
ENDBRANCH   3  30
BRANCH   7  33
ATOM     33  C   UNL     1     -46.172  38.457  28.480  1.00  0.00     0.066 A 
ATOM     34  C   UNL     1     -47.334  39.216  28.366  1.00  0.00     0.051 A 
ATOM     35  C   UNL     1     -46.287  37.085  28.241  1.00  0.00    -0.028 A 
ATOM     36  N   UNL     1     -48.548  38.711  28.035  1.00  0.00    -0.262 NA
ATOM     37  H   UNL     1     -47.353  40.291  28.507  1.00  0.00     0.086 H 
ATOM     38  C   UNL     1     -47.531  36.524  27.916  1.00  0.00     0.010 A 
ATOM     39  H   UNL     1     -45.439  36.416  28.336  1.00  0.00     0.065 H 
ATOM     40  C   UNL     1     -48.617  37.382  27.816  1.00  0.00     0.034 A 
ATOM     41  H   UNL     1     -49.608  37.019  27.555  1.00  0.00     0.084 H 
BRANCH  38  42
ATOM     42  C   UNL     1     -47.684  35.049  27.658  1.00  0.00     0.115 C 
ATOM     43  H   UNL     1     -48.621  34.906  27.106  1.00  0.00     0.076 H 
ATOM     44  H   UNL     1     -47.794  34.460  28.577  1.00  0.00     0.076 H 
BRANCH  42  45
ATOM     45  O   UNL     1     -46.634  34.534  26.832  1.00  0.00    -0.489 OA
BRANCH  45  46
ATOM     46  C   UNL     1     -46.900  33.487  25.994  1.00  0.00     0.122 A 
ATOM     47  C   UNL     1     -47.817  32.565  26.496  1.00  0.00    -0.019 A 
ATOM     48  C   UNL     1     -46.344  33.273  24.732  1.00  0.00     0.007 A 
ATOM     49  C   UNL     1     -48.177  31.448  25.746  1.00  0.00    -0.049 A 
ATOM     50  H   UNL     1     -48.263  32.718  27.477  1.00  0.00     0.066 H 
ATOM     51  C   UNL     1     -46.683  32.166  23.960  1.00  0.00     0.076 A 
ATOM     52  H   UNL     1     -45.624  33.958  24.300  1.00  0.00     0.069 H 
ATOM     53  C   UNL     1     -47.612  31.245  24.478  1.00  0.00     0.001 A 
ATOM     54  H   UNL     1     -48.896  30.742  26.154  1.00  0.00     0.063 H 
ATOM     55  N   UNL     1     -46.114  32.013  22.751  1.00  0.00    -0.231 NA
ATOM     56  C   UNL     1     -47.939  30.139  23.692  1.00  0.00    -0.049 A 
ATOM     57  C   UNL     1     -46.446  30.948  21.994  1.00  0.00     0.126 A 
ATOM     58  C   UNL     1     -47.346  29.988  22.443  1.00  0.00    -0.019 A 
ATOM     59  H   UNL     1     -48.642  29.389  24.044  1.00  0.00     0.063 H 
ATOM     60  H   UNL     1     -47.578  29.123  21.832  1.00  0.00     0.066 H 
BRANCH  57  61
ATOM     61  N   UNL     1     -45.847  30.751  20.736  1.00  0.00    -0.373 N 
ATOM     62  H   UNL     1     -46.133  29.845  20.375  1.00  0.00     0.161 HD
BRANCH  61  63
ATOM     63  C   UNL     1     -46.102  31.816  19.781  1.00  0.00     0.005 C 
ATOM     64  H   UNL     1     -45.203  32.064  19.204  1.00  0.00     0.045 H 
ATOM     65  H   UNL     1     -46.404  32.717  20.325  1.00  0.00     0.045 H 
ATOM     66  H   UNL     1     -46.919  31.558  19.100  1.00  0.00     0.045 H 
ENDBRANCH  61  63
ENDBRANCH  57  61
ENDBRANCH  45  46
ENDBRANCH  42  45
ENDBRANCH  38  42
ENDBRANCH   7  33
TORSDOF 14
ENDMDL
MODEL 6
REMARK VINA RESULT:      -8.3      2.246      4.264
REMARK SMILES C=CC(=O)N(CCC(=O)O)c1nc(N)c2ccn(-c3cncc(COc4ccc5ccc(NC)nc5c4)c3)c2n1
REMARK SMILES IDX 11 1 12 2 13 3 15 4 16 5 17 6 18 7 39 8 40 9 5 12 3 13 4 14
REMARK SMILES IDX 2 15 1 16 6 20 7 23 8 26 9 27 10 28 14 30 19 33 20 34 38 35
REMARK SMILES IDX 21 36 23 38 22 40 24 42 25 45 26 46 27 47 37 48 28 49 36 51
REMARK SMILES IDX 29 53 35 55 30 56 32 57 31 58 33 61 34 63
REMARK H PARENT 16 10 17 11 1 17 1 18 2 19 6 21 6 22 7 24 7 25 10 29 14 31
REMARK H PARENT 14 32 20 37 38 39 22 41 24 43 24 44 27 50 37 52 28 54 30 59
REMARK H PARENT 31 60 33 62 34 64 34 65 34 66
REMARK Flexibility Score: inf
ROOT
ATOM      1  C   UNL     1     -46.305  43.271  25.827  1.00  0.00     0.236 A 
ATOM      2  N   UNL     1     -45.747  44.115  24.948  1.00  0.00    -0.195 NA
ATOM      3  C   UNL     1     -44.415  44.183  24.806  1.00  0.00     0.138 A 
ATOM      4  C   UNL     1     -43.611  43.346  25.577  1.00  0.00     0.062 A 
ATOM      5  C   UNL     1     -42.222  43.145  25.738  1.00  0.00    -0.031 A 
ATOM      6  C   UNL     1     -42.058  42.171  26.695  1.00  0.00     0.012 A 
ATOM      7  N   UNL     1     -43.302  41.738  27.134  1.00  0.00    -0.300 N 
ATOM      8  C   UNL     1     -44.265  42.476  26.439  1.00  0.00     0.152 A 
ATOM      9  N   UNL     1     -45.604  42.410  26.587  1.00  0.00    -0.194 NA
ATOM     10  H   UNL     1     -41.426  43.665  25.222  1.00  0.00     0.065 H 
ATOM     11  H   UNL     1     -41.140  41.740  27.070  1.00  0.00     0.082 H 
ENDROOT
BRANCH   1  12
ATOM     12  N   UNL     1     -47.731  43.255  25.974  1.00  0.00    -0.276 N 
BRANCH  12  13
ATOM     13  C   UNL     1     -48.498  44.344  25.555  1.00  0.00     0.252 C 
ATOM     14  O   UNL     1     -49.162  44.424  24.523  1.00  0.00    -0.269 OA
BRANCH  13  15
ATOM     15  C   UNL     1     -48.515  45.535  26.465  1.00  0.00    -0.004 C 
ATOM     16  C   UNL     1     -48.511  46.775  25.957  1.00  0.00    -0.094 C 
ATOM     17  H   UNL     1     -48.475  46.947  24.884  1.00  0.00     0.054 H 
ATOM     18  H   UNL     1     -48.551  47.645  26.603  1.00  0.00     0.054 H 
ATOM     19  H   UNL     1     -48.582  45.394  27.533  1.00  0.00     0.067 H 
ENDBRANCH  13  15
ENDBRANCH  12  13
BRANCH  12  20
ATOM     20  C   UNL     1     -48.297  42.049  26.604  1.00  0.00     0.040 C 
ATOM     21  H   UNL     1     -47.617  41.696  27.388  1.00  0.00     0.051 H 
ATOM     22  H   UNL     1     -48.313  41.219  25.885  1.00  0.00     0.051 H 
BRANCH  20  23
ATOM     23  C   UNL     1     -49.686  42.299  27.186  1.00  0.00     0.064 C 
ATOM     24  H   UNL     1     -50.406  41.560  26.818  1.00  0.00     0.040 H 
ATOM     25  H   UNL     1     -50.043  43.293  26.899  1.00  0.00     0.040 H 
BRANCH  23  26
ATOM     26  C   UNL     1     -49.645  42.218  28.682  1.00  0.00     0.305 C 
ATOM     27  O   UNL     1     -50.080  41.320  29.383  1.00  0.00    -0.252 OA
BRANCH  26  28
ATOM     28  O   UNL     1     -49.061  43.301  29.230  1.00  0.00    -0.481 OA
ATOM     29  H   UNL     1     -49.705  43.612  29.901  1.00  0.00     0.296 HD
ENDBRANCH  26  28
ENDBRANCH  23  26
ENDBRANCH  20  23
ENDBRANCH  12  20
ENDBRANCH   1  12
BRANCH   3  30
ATOM     30  N   UNL     1     -43.923  45.097  23.885  1.00  0.00    -0.383 N 
ATOM     31  H   UNL     1     -43.864  46.049  24.214  1.00  0.00     0.158 HD
ATOM     32  H   UNL     1     -43.084  44.719  23.449  1.00  0.00     0.158 HD
ENDBRANCH   3  30
BRANCH   7  33
ATOM     33  C   UNL     1     -43.513  40.725  28.118  1.00  0.00     0.066 A 
ATOM     34  C   UNL     1     -42.687  40.632  29.236  1.00  0.00     0.051 A 
ATOM     35  C   UNL     1     -44.539  39.783  28.012  1.00  0.00    -0.028 A 
ATOM     36  N   UNL     1     -42.822  39.701  30.211  1.00  0.00    -0.262 NA
ATOM     37  H   UNL     1     -41.875  41.325  29.430  1.00  0.00     0.086 H 
ATOM     38  C   UNL     1     -44.699  38.792  28.992  1.00  0.00     0.010 A 
ATOM     39  H   UNL     1     -45.211  39.765  27.160  1.00  0.00     0.065 H 
ATOM     40  C   UNL     1     -43.823  38.808  30.069  1.00  0.00     0.034 A 
ATOM     41  H   UNL     1     -43.895  38.078  30.872  1.00  0.00     0.084 H 
BRANCH  38  42
ATOM     42  C   UNL     1     -45.792  37.763  28.899  1.00  0.00     0.115 C 
ATOM     43  H   UNL     1     -46.480  38.083  28.106  1.00  0.00     0.076 H 
ATOM     44  H   UNL     1     -46.403  37.700  29.807  1.00  0.00     0.076 H 
BRANCH  42  45
ATOM     45  O   UNL     1     -45.291  36.477  28.517  1.00  0.00    -0.489 OA
BRANCH  45  46
ATOM     46  C   UNL     1     -46.093  35.638  27.795  1.00  0.00     0.122 A 
ATOM     47  C   UNL     1     -47.449  35.956  27.841  1.00  0.00    -0.019 A 
ATOM     48  C   UNL     1     -45.680  34.531  27.052  1.00  0.00     0.007 A 
ATOM     49  C   UNL     1     -48.379  35.181  27.150  1.00  0.00    -0.049 A 
ATOM     50  H   UNL     1     -47.789  36.817  28.412  1.00  0.00     0.066 H 
ATOM     51  C   UNL     1     -46.584  33.738  26.354  1.00  0.00     0.076 A 
ATOM     52  H   UNL     1     -44.637  34.241  26.989  1.00  0.00     0.069 H 
ATOM     53  C   UNL     1     -47.950  34.072  26.407  1.00  0.00     0.001 A 
ATOM     54  H   UNL     1     -49.432  35.446  27.196  1.00  0.00     0.063 H 
ATOM     55  N   UNL     1     -46.126  32.684  25.656  1.00  0.00    -0.231 NA
ATOM     56  C   UNL     1     -48.845  33.264  25.702  1.00  0.00    -0.049 A 
ATOM     57  C   UNL     1     -46.997  31.917  24.968  1.00  0.00     0.126 A 
ATOM     58  C   UNL     1     -48.363  32.176  24.983  1.00  0.00    -0.019 A 
ATOM     59  H   UNL     1     -49.913  33.466  25.714  1.00  0.00     0.063 H 
ATOM     60  H   UNL     1     -49.051  31.530  24.448  1.00  0.00     0.066 H 
BRANCH  57  61
ATOM     61  N   UNL     1     -46.548  30.794  24.250  1.00  0.00    -0.373 N 
ATOM     62  H   UNL     1     -46.880  29.953  24.714  1.00  0.00     0.161 HD
BRANCH  61  63
ATOM     63  C   UNL     1     -46.902  30.806  22.840  1.00  0.00     0.005 C 
ATOM     64  H   UNL     1     -47.713  30.102  22.622  1.00  0.00     0.045 H 
ATOM     65  H   UNL     1     -46.031  30.498  22.253  1.00  0.00     0.045 H 
ATOM     66  H   UNL     1     -47.183  31.809  22.505  1.00  0.00     0.045 H 
ENDBRANCH  61  63
ENDBRANCH  57  61
ENDBRANCH  45  46
ENDBRANCH  42  45
ENDBRANCH  38  42
ENDBRANCH   7  33
TORSDOF 14
ENDMDL
MODEL 7
REMARK VINA RESULT:      -8.3      4.042     12.962
REMARK SMILES C=CC(=O)N(CCC(=O)O)c1nc(N)c2ccn(-c3cncc(COc4ccc5ccc(NC)nc5c4)c3)c2n1
REMARK SMILES IDX 11 1 12 2 13 3 15 4 16 5 17 6 18 7 39 8 40 9 5 12 3 13 4 14
REMARK SMILES IDX 2 15 1 16 6 20 7 23 8 26 9 27 10 28 14 30 19 33 20 34 38 35
REMARK SMILES IDX 21 36 23 38 22 40 24 42 25 45 26 46 27 47 37 48 28 49 36 51
REMARK SMILES IDX 29 53 35 55 30 56 32 57 31 58 33 61 34 63
REMARK H PARENT 16 10 17 11 1 17 1 18 2 19 6 21 6 22 7 24 7 25 10 29 14 31
REMARK H PARENT 14 32 20 37 38 39 22 41 24 43 24 44 27 50 37 52 28 54 30 59
REMARK H PARENT 31 60 33 62 34 64 34 65 34 66
REMARK Flexibility Score: inf
ROOT
ATOM      1  C   UNL     1     -49.867  27.883  24.905  1.00  0.00     0.236 A 
ATOM      2  N   UNL     1     -50.697  27.472  23.937  1.00  0.00    -0.195 NA
ATOM      3  C   UNL     1     -51.043  28.288  22.932  1.00  0.00     0.138 A 
ATOM      4  C   UNL     1     -50.511  29.576  22.894  1.00  0.00     0.062 A 
ATOM      5  C   UNL     1     -50.649  30.702  22.054  1.00  0.00    -0.031 A 
ATOM      6  C   UNL     1     -49.864  31.703  22.579  1.00  0.00     0.012 A 
ATOM      7  N   UNL     1     -49.221  31.237  23.719  1.00  0.00    -0.300 N 
ATOM      8  C   UNL     1     -49.632  29.915  23.913  1.00  0.00     0.152 A 
ATOM      9  N   UNL     1     -49.287  29.097  24.929  1.00  0.00    -0.194 NA
ATOM     10  H   UNL     1     -51.265  30.781  21.167  1.00  0.00     0.065 H 
ATOM     11  H   UNL     1     -49.701  32.702  22.200  1.00  0.00     0.082 H 
ENDROOT
BRANCH   1  12
ATOM     12  N   UNL     1     -49.550  26.991  25.982  1.00  0.00    -0.276 N 
BRANCH  12  13
ATOM     13  C   UNL     1     -50.287  25.820  26.171  1.00  0.00     0.252 C 
ATOM     14  O   UNL     1     -49.844  24.676  26.250  1.00  0.00    -0.269 OA
BRANCH  13  15
ATOM     15  C   UNL     1     -51.772  25.981  26.296  1.00  0.00    -0.004 C 
ATOM     16  C   UNL     1     -52.421  25.476  27.354  1.00  0.00    -0.094 C 
ATOM     17  H   UNL     1     -51.895  24.925  28.130  1.00  0.00     0.054 H 
ATOM     18  H   UNL     1     -53.490  25.609  27.471  1.00  0.00     0.054 H 
ATOM     19  H   UNL     1     -52.315  26.549  25.556  1.00  0.00     0.067 H 
ENDBRANCH  13  15
ENDBRANCH  12  13
BRANCH  12  20
ATOM     20  C   UNL     1     -48.440  27.410  26.857  1.00  0.00     0.040 C 
ATOM     21  H   UNL     1     -48.818  27.565  27.874  1.00  0.00     0.051 H 
ATOM     22  H   UNL     1     -48.081  28.406  26.561  1.00  0.00     0.051 H 
BRANCH  20  23
ATOM     23  C   UNL     1     -47.299  26.396  26.868  1.00  0.00     0.064 C 
ATOM     24  H   UNL     1     -47.643  25.421  27.228  1.00  0.00     0.040 H 
ATOM     25  H   UNL     1     -46.495  26.739  27.528  1.00  0.00     0.040 H 
BRANCH  23  26
ATOM     26  C   UNL     1     -46.745  26.222  25.486  1.00  0.00     0.305 C 
ATOM     27  O   UNL     1     -46.352  27.098  24.735  1.00  0.00    -0.252 OA
BRANCH  26  28
ATOM     28  O   UNL     1     -46.730  24.929  25.108  1.00  0.00    -0.481 OA
ATOM     29  H   UNL     1     -46.062  24.892  24.391  1.00  0.00     0.296 HD
ENDBRANCH  26  28
ENDBRANCH  23  26
ENDBRANCH  20  23
ENDBRANCH  12  20
ENDBRANCH   1  12
BRANCH   3  30
ATOM     30  N   UNL     1     -51.921  27.785  21.981  1.00  0.00    -0.383 N 
ATOM     31  H   UNL     1     -52.621  28.436  21.657  1.00  0.00     0.158 HD
ATOM     32  H   UNL     1     -51.395  27.295  21.261  1.00  0.00     0.158 HD
ENDBRANCH   3  30
BRANCH   7  33
ATOM     33  C   UNL     1     -48.319  32.004  24.517  1.00  0.00     0.066 A 
ATOM     34  C   UNL     1     -46.947  31.773  24.466  1.00  0.00     0.051 A 
ATOM     35  C   UNL     1     -48.758  33.008  25.383  1.00  0.00    -0.028 A 
ATOM     36  N   UNL     1     -46.028  32.457  25.191  1.00  0.00    -0.262 NA
ATOM     37  H   UNL     1     -46.496  31.034  23.811  1.00  0.00     0.086 H 
ATOM     38  C   UNL     1     -47.839  33.724  26.164  1.00  0.00     0.010 A 
ATOM     39  H   UNL     1     -49.811  33.235  25.506  1.00  0.00     0.065 H 
ATOM     40  C   UNL     1     -46.494  33.415  26.017  1.00  0.00     0.034 A 
ATOM     41  H   UNL     1     -45.725  33.938  26.581  1.00  0.00     0.084 H 
BRANCH  38  42
ATOM     42  C   UNL     1     -48.285  34.807  27.109  1.00  0.00     0.115 C 
ATOM     43  H   UNL     1     -47.844  34.591  28.090  1.00  0.00     0.076 H 
ATOM     44  H   UNL     1     -49.370  34.816  27.272  1.00  0.00     0.076 H 
BRANCH  42  45
ATOM     45  O   UNL     1     -47.806  36.098  26.714  1.00  0.00    -0.489 OA
BRANCH  45  46
ATOM     46  C   UNL     1     -46.891  36.737  27.503  1.00  0.00     0.122 A 
ATOM     47  C   UNL     1     -46.643  36.110  28.723  1.00  0.00    -0.019 A 
ATOM     48  C   UNL     1     -46.217  37.921  27.200  1.00  0.00     0.007 A 
ATOM     49  C   UNL     1     -45.733  36.656  29.626  1.00  0.00    -0.049 A 
ATOM     50  H   UNL     1     -47.156  35.184  28.975  1.00  0.00     0.066 H 
ATOM     51  C   UNL     1     -45.303  38.491  28.080  1.00  0.00     0.076 A 
ATOM     52  H   UNL     1     -46.378  38.447  26.266  1.00  0.00     0.069 H 
ATOM     53  C   UNL     1     -45.062  37.846  29.307  1.00  0.00     0.001 A 
ATOM     54  H   UNL     1     -45.552  36.151  30.571  1.00  0.00     0.063 H 
ATOM     55  N   UNL     1     -44.686  39.634  27.732  1.00  0.00    -0.231 NA
ATOM     56  C   UNL     1     -44.144  38.433  30.181  1.00  0.00    -0.049 A 
ATOM     57  C   UNL     1     -43.792  40.185  28.578  1.00  0.00     0.126 A 
ATOM     58  C   UNL     1     -43.509  39.614  29.814  1.00  0.00    -0.019 A 
ATOM     59  H   UNL     1     -43.924  37.986  31.147  1.00  0.00     0.063 H 
ATOM     60  H   UNL     1     -42.809  40.089  30.492  1.00  0.00     0.066 H 
BRANCH  57  61
ATOM     61  N   UNL     1     -43.149  41.394  28.249  1.00  0.00    -0.373 N 
ATOM     62  H   UNL     1     -43.554  42.142  28.806  1.00  0.00     0.161 HD
BRANCH  61  63
ATOM     63  C   UNL     1     -41.702  41.353  28.374  1.00  0.00     0.005 C 
ATOM     64  H   UNL     1     -41.209  41.705  27.460  1.00  0.00     0.045 H 
ATOM     65  H   UNL     1     -41.389  40.316  28.538  1.00  0.00     0.045 H 
ATOM     66  H   UNL     1     -41.355  41.938  29.231  1.00  0.00     0.045 H 
ENDBRANCH  61  63
ENDBRANCH  57  61
ENDBRANCH  45  46
ENDBRANCH  42  45
ENDBRANCH  38  42
ENDBRANCH   7  33
TORSDOF 14
ENDMDL
