MODEL 1
REMARK VINA RESULT:      -9.9      0.000      0.000
REMARK SMILES CNc1ccc2ccc(OC[C@H]3O[C@@H](n4cc(Br)c5c(N)nc(N)nc54)[C@@H](F)[C@@H]3O)cc2n1
REMARK SMILES IDX 11 1 10 4 9 5 3 6 4 7 33 8 5 9 32 11 6 12 31 14 7 15 8 17
REMARK SMILES IDX 2 20 1 22 12 26 13 27 29 28 14 30 27 31 28 34 30 36 15 38
REMARK SMILES IDX 16 39 26 40 17 41 19 43 25 44 18 45 20 46 23 47 22 48 21 49
REMARK SMILES IDX 24 52
REMARK H PARENT 11 2 11 3 4 10 5 13 31 16 7 18 8 19 2 21 1 23 1 24 1 25 12 29
REMARK H PARENT 29 32 14 33 27 35 30 37 16 42 21 50 21 51 24 53 24 54
REMARK Flexibility Score: inf
ROOT
ATOM      1  C   UNL     1     -47.011  36.391  27.309  1.00  0.00     0.117 C 
ATOM      2  H   UNL     1     -47.060  37.465  27.102  1.00  0.00     0.073 H 
ATOM      3  H   UNL     1     -48.008  35.994  27.530  1.00  0.00     0.073 H 
ENDROOT
BRANCH   1   4
ATOM      4  O   UNL     1     -46.482  35.718  26.160  1.00  0.00    -0.491 OA
BRANCH   4   5
ATOM      5  C   UNL     1     -47.057  34.525  25.817  1.00  0.00     0.121 A 
ATOM      6  C   UNL     1     -47.339  30.424  23.418  1.00  0.00     0.126 A 
ATOM      7  C   UNL     1     -48.523  30.076  24.059  1.00  0.00    -0.019 A 
ATOM      8  N   UNL     1     -46.698  31.578  23.697  1.00  0.00    -0.231 NA
ATOM      9  C   UNL     1     -49.073  30.943  24.996  1.00  0.00    -0.049 A 
ATOM     10  H   UNL     1     -49.007  29.130  23.842  1.00  0.00     0.066 H 
ATOM     11  C   UNL     1     -47.221  32.421  24.605  1.00  0.00     0.076 A 
ATOM     12  C   UNL     1     -48.423  32.145  25.284  1.00  0.00     0.001 A 
ATOM     13  H   UNL     1     -49.998  30.672  25.498  1.00  0.00     0.063 H 
ATOM     14  C   UNL     1     -46.559  33.611  24.885  1.00  0.00     0.007 A 
ATOM     15  C   UNL     1     -48.933  33.057  26.221  1.00  0.00    -0.049 A 
ATOM     16  H   UNL     1     -45.636  33.796  24.346  1.00  0.00     0.069 H 
ATOM     17  C   UNL     1     -48.249  34.243  26.480  1.00  0.00    -0.019 A 
ATOM     18  H   UNL     1     -49.859  32.851  26.751  1.00  0.00     0.063 H 
ATOM     19  H   UNL     1     -48.644  34.948  27.208  1.00  0.00     0.066 H 
BRANCH   6  20
ATOM     20  N   UNL     1     -46.798  29.510  22.496  1.00  0.00    -0.373 N 
ATOM     21  H   UNL     1     -47.205  29.683  21.582  1.00  0.00     0.161 HD
BRANCH  20  22
ATOM     22  C   UNL     1     -45.345  29.498  22.450  1.00  0.00     0.005 C 
ATOM     23  H   UNL     1     -45.024  29.113  21.476  1.00  0.00     0.045 H 
ATOM     24  H   UNL     1     -44.923  28.839  23.216  1.00  0.00     0.045 H 
ATOM     25  H   UNL     1     -44.929  30.506  22.560  1.00  0.00     0.045 H 
ENDBRANCH  20  22
ENDBRANCH   6  20
ENDBRANCH   4   5
ENDBRANCH   1   4
BRANCH   1  26
ATOM     26  C   UNL     1     -46.072  36.111  28.494  1.00  0.00     0.123 C 
ATOM     27  O   UNL     1     -44.846  36.864  28.334  1.00  0.00    -0.345 OA
ATOM     28  C   UNL     1     -46.640  36.563  29.838  1.00  0.00     0.119 C 
ATOM     29  H   UNL     1     -45.793  35.051  28.504  1.00  0.00     0.067 H 
ATOM     30  C   UNL     1     -44.922  38.039  29.183  1.00  0.00     0.169 C 
ATOM     31  C   UNL     1     -46.289  38.034  29.860  1.00  0.00     0.173 C 
ATOM     32  H   UNL     1     -47.715  36.383  29.921  1.00  0.00     0.066 H 
ATOM     33  H   UNL     1     -44.118  37.924  29.921  1.00  0.00     0.088 H 
ATOM     34  F   UNL     1     -47.214  38.700  29.114  1.00  0.00    -0.239 F 
ATOM     35  H   UNL     1     -46.265  38.480  30.859  1.00  0.00     0.074 H 
BRANCH  28  36
ATOM     36  O   UNL     1     -46.000  35.891  30.930  1.00  0.00    -0.387 OA
ATOM     37  H   UNL     1     -46.468  36.105  31.757  1.00  0.00     0.211 HD
ENDBRANCH  28  36
BRANCH  30  38
ATOM     38  N   UNL     1     -44.637  39.238  28.416  1.00  0.00    -0.302 N 
ATOM     39  C   UNL     1     -45.283  39.684  27.289  1.00  0.00     0.023 A 
ATOM     40  C   UNL     1     -43.635  40.120  28.747  1.00  0.00     0.151 A 
ATOM     41  C   UNL     1     -44.689  40.868  26.921  1.00  0.00     0.049 A 
ATOM     42  H   UNL     1     -46.104  39.130  26.850  1.00  0.00     0.083 H 
ATOM     43  C   UNL     1     -43.645  41.162  27.830  1.00  0.00     0.076 A 
ATOM     44  N   UNL     1     -42.804  39.980  29.792  1.00  0.00    -0.195 NA
ATOM     45  Br  UNL     1     -45.188  41.922  25.451  1.00  0.00    -0.048 Br
ATOM     46  C   UNL     1     -42.684  42.160  28.030  1.00  0.00     0.139 A 
ATOM     47  C   UNL     1     -41.943  40.998  29.900  1.00  0.00     0.223 A 
ATOM     48  N   UNL     1     -41.842  42.053  29.080  1.00  0.00    -0.196 NA
BRANCH  46  49
ATOM     49  N   UNL     1     -42.538  43.276  27.219  1.00  0.00    -0.383 N 
ATOM     50  H   UNL     1     -42.570  43.091  26.225  1.00  0.00     0.158 HD
ATOM     51  H   UNL     1     -43.099  44.050  27.555  1.00  0.00     0.158 HD
ENDBRANCH  46  49
BRANCH  47  52
ATOM     52  N   UNL     1     -41.033  40.939  30.938  1.00  0.00    -0.368 N 
ATOM     53  H   UNL     1     -41.205  41.708  31.571  1.00  0.00     0.159 HD
ATOM     54  H   UNL     1     -40.096  40.845  30.572  1.00  0.00     0.159 HD
ENDBRANCH  47  52
ENDBRANCH  30  38
ENDBRANCH   1  26
TORSDOF 9
ENDMDL
MODEL 2
REMARK VINA RESULT:      -9.5      3.245      9.990
REMARK SMILES CNc1ccc2ccc(OC[C@H]3O[C@@H](n4cc(Br)c5c(N)nc(N)nc54)[C@@H](F)[C@@H]3O)cc2n1
REMARK SMILES IDX 11 1 10 4 9 5 3 6 4 7 33 8 5 9 32 11 6 12 31 14 7 15 8 17
REMARK SMILES IDX 2 20 1 22 12 26 13 27 29 28 14 30 27 31 28 34 30 36 15 38
REMARK SMILES IDX 16 39 26 40 17 41 19 43 25 44 18 45 20 46 23 47 22 48 21 49
REMARK SMILES IDX 24 52
REMARK H PARENT 11 2 11 3 4 10 5 13 31 16 7 18 8 19 2 21 1 23 1 24 1 25 12 29
REMARK H PARENT 29 32 14 33 27 35 30 37 16 42 21 50 21 51 24 53 24 54
REMARK Flexibility Score: inf
ROOT
ATOM      1  C   UNL     1     -47.997  35.250  26.350  1.00  0.00     0.117 C 
ATOM      2  H   UNL     1     -48.880  35.026  25.744  1.00  0.00     0.073 H 
ATOM      3  H   UNL     1     -47.147  35.514  25.711  1.00  0.00     0.073 H 
ENDROOT
BRANCH   1   4
ATOM      4  O   UNL     1     -48.292  36.350  27.218  1.00  0.00    -0.491 OA
BRANCH   4   5
ATOM      5  C   UNL     1     -47.262  37.196  27.525  1.00  0.00     0.121 A 
ATOM      6  C   UNL     1     -44.299  40.831  26.712  1.00  0.00     0.126 A 
ATOM      7  C   UNL     1     -43.655  40.641  27.930  1.00  0.00    -0.019 A 
ATOM      8  N   UNL     1     -45.330  40.050  26.329  1.00  0.00    -0.231 NA
ATOM      9  C   UNL     1     -44.067  39.609  28.766  1.00  0.00    -0.049 A 
ATOM     10  H   UNL     1     -42.848  41.298  28.233  1.00  0.00     0.066 H 
ATOM     11  C   UNL     1     -45.738  39.052  27.134  1.00  0.00     0.076 A 
ATOM     12  C   UNL     1     -45.126  38.788  28.374  1.00  0.00     0.001 A 
ATOM     13  H   UNL     1     -43.565  39.459  29.718  1.00  0.00     0.063 H 
ATOM     14  C   UNL     1     -46.797  38.247  26.731  1.00  0.00     0.007 A 
ATOM     15  C   UNL     1     -45.583  37.732  29.178  1.00  0.00    -0.049 A 
ATOM     16  H   UNL     1     -47.247  38.475  25.771  1.00  0.00     0.069 H 
ATOM     17  C   UNL     1     -46.646  36.941  28.749  1.00  0.00    -0.019 A 
ATOM     18  H   UNL     1     -45.118  37.523  30.138  1.00  0.00     0.063 H 
ATOM     19  H   UNL     1     -47.001  36.125  29.374  1.00  0.00     0.066 H 
BRANCH   6  20
ATOM     20  N   UNL     1     -43.873  41.901  25.905  1.00  0.00    -0.373 N 
ATOM     21  H   UNL     1     -44.664  42.511  25.721  1.00  0.00     0.161 HD
BRANCH  20  22
ATOM     22  C   UNL     1     -42.736  42.634  26.436  1.00  0.00     0.005 C 
ATOM     23  H   UNL     1     -41.974  41.920  26.763  1.00  0.00     0.045 H 
ATOM     24  H   UNL     1     -43.015  43.235  27.308  1.00  0.00     0.045 H 
ATOM     25  H   UNL     1     -42.279  43.278  25.674  1.00  0.00     0.045 H 
ENDBRANCH  20  22
ENDBRANCH   6  20
ENDBRANCH   4   5
ENDBRANCH   1   4
BRANCH   1  26
ATOM     26  C   UNL     1     -47.623  34.043  27.228  1.00  0.00     0.123 C 
ATOM     27  O   UNL     1     -48.453  32.909  26.877  1.00  0.00    -0.345 OA
ATOM     28  C   UNL     1     -46.189  33.563  27.019  1.00  0.00     0.119 C 
ATOM     29  H   UNL     1     -47.828  34.272  28.280  1.00  0.00     0.067 H 
ATOM     30  C   UNL     1     -47.676  32.027  26.025  1.00  0.00     0.169 C 
ATOM     31  C   UNL     1     -46.317  32.680  25.797  1.00  0.00     0.173 C 
ATOM     32  H   UNL     1     -45.486  34.388  26.874  1.00  0.00     0.066 H 
ATOM     33  H   UNL     1     -47.573  31.090  26.585  1.00  0.00     0.088 H 
ATOM     34  F   UNL     1     -46.330  33.483  24.697  1.00  0.00    -0.239 F 
ATOM     35  H   UNL     1     -45.512  31.948  25.680  1.00  0.00     0.074 H 
BRANCH  28  36
ATOM     36  O   UNL     1     -45.728  32.789  28.135  1.00  0.00    -0.387 OA
ATOM     37  H   UNL     1     -46.498  32.426  28.612  1.00  0.00     0.211 HD
ENDBRANCH  28  36
BRANCH  30  38
ATOM     38  N   UNL     1     -48.408  31.726  24.807  1.00  0.00    -0.302 N 
ATOM     39  C   UNL     1     -49.693  32.091  24.491  1.00  0.00     0.023 A 
ATOM     40  C   UNL     1     -47.869  31.004  23.768  1.00  0.00     0.151 A 
ATOM     41  C   UNL     1     -49.955  31.606  23.232  1.00  0.00     0.049 A 
ATOM     42  H   UNL     1     -50.306  32.662  25.179  1.00  0.00     0.083 H 
ATOM     43  C   UNL     1     -48.815  30.916  22.756  1.00  0.00     0.076 A 
ATOM     44  N   UNL     1     -46.630  30.487  23.754  1.00  0.00    -0.195 NA
ATOM     45  Br  UNL     1     -51.566  31.829  22.295  1.00  0.00    -0.048 Br
ATOM     46  C   UNL     1     -48.420  30.214  21.611  1.00  0.00     0.139 A 
ATOM     47  C   UNL     1     -46.353  29.857  22.607  1.00  0.00     0.223 A 
ATOM     48  N   UNL     1     -47.176  29.693  21.563  1.00  0.00    -0.196 NA
BRANCH  46  49
ATOM     49  N   UNL     1     -49.227  30.019  20.499  1.00  0.00    -0.383 N 
ATOM     50  H   UNL     1     -50.199  30.272  20.624  1.00  0.00     0.158 HD
ATOM     51  H   UNL     1     -48.775  30.352  19.656  1.00  0.00     0.158 HD
ENDBRANCH  46  49
BRANCH  47  52
ATOM     52  N   UNL     1     -45.103  29.275  22.501  1.00  0.00    -0.368 N 
ATOM     53  H   UNL     1     -45.047  28.776  21.623  1.00  0.00     0.159 HD
ATOM     54  H   UNL     1     -44.891  28.755  23.340  1.00  0.00     0.159 HD
ENDBRANCH  47  52
ENDBRANCH  30  38
ENDBRANCH   1  26
TORSDOF 9
ENDMDL
MODEL 3
REMARK VINA RESULT:      -8.9      1.879      2.140
REMARK SMILES CNc1ccc2ccc(OC[C@H]3O[C@@H](n4cc(Br)c5c(N)nc(N)nc54)[C@@H](F)[C@@H]3O)cc2n1
REMARK SMILES IDX 11 1 10 4 9 5 3 6 4 7 33 8 5 9 32 11 6 12 31 14 7 15 8 17
REMARK SMILES IDX 2 20 1 22 12 26 13 27 29 28 14 30 27 31 28 34 30 36 15 38
REMARK SMILES IDX 16 39 26 40 17 41 19 43 25 44 18 45 20 46 23 47 22 48 21 49
REMARK SMILES IDX 24 52
REMARK H PARENT 11 2 11 3 4 10 5 13 31 16 7 18 8 19 2 21 1 23 1 24 1 25 12 29
REMARK H PARENT 29 32 14 33 27 35 30 37 16 42 21 50 21 51 24 53 24 54
REMARK Flexibility Score: inf
ROOT
ATOM      1  C   UNL     1     -46.689  37.575  26.638  1.00  0.00     0.117 C 
ATOM      2  H   UNL     1     -45.939  38.124  26.061  1.00  0.00     0.073 H 
ATOM      3  H   UNL     1     -47.589  37.402  26.036  1.00  0.00     0.073 H 
ENDROOT
BRANCH   1   4
ATOM      4  O   UNL     1     -46.141  36.312  27.037  1.00  0.00    -0.491 OA
BRANCH   4   5
ATOM      5  C   UNL     1     -46.761  35.187  26.565  1.00  0.00     0.121 A 
ATOM      6  C   UNL     1     -46.943  31.037  24.244  1.00  0.00     0.126 A 
ATOM      7  C   UNL     1     -48.293  30.879  24.534  1.00  0.00    -0.019 A 
ATOM      8  N   UNL     1     -46.248  32.110  24.673  1.00  0.00    -0.231 NA
ATOM      9  C   UNL     1     -48.953  31.859  25.267  1.00  0.00    -0.049 A 
ATOM     10  H   UNL     1     -48.827  29.994  24.205  1.00  0.00     0.066 H 
ATOM     11  C   UNL     1     -46.878  33.062  25.387  1.00  0.00     0.076 A 
ATOM     12  C   UNL     1     -48.246  32.980  25.707  1.00  0.00     0.001 A 
ATOM     13  H   UNL     1     -50.008  31.737  25.495  1.00  0.00     0.063 H 
ATOM     14  C   UNL     1     -46.158  34.169  25.823  1.00  0.00     0.007 A 
ATOM     15  C   UNL     1     -48.861  34.000  26.450  1.00  0.00    -0.049 A 
ATOM     16  H   UNL     1     -45.107  34.203  25.560  1.00  0.00     0.069 H 
ATOM     17  C   UNL     1     -48.116  35.098  26.873  1.00  0.00    -0.019 A 
ATOM     18  H   UNL     1     -49.916  33.943  26.704  1.00  0.00     0.063 H 
ATOM     19  H   UNL     1     -48.593  35.887  27.450  1.00  0.00     0.066 H 
BRANCH   6  20
ATOM     20  N   UNL     1     -46.302  30.012  23.524  1.00  0.00    -0.373 N 
ATOM     21  H   UNL     1     -46.902  29.192  23.513  1.00  0.00     0.161 HD
BRANCH  20  22
ATOM     22  C   UNL     1     -45.883  30.394  22.186  1.00  0.00     0.005 C 
ATOM     23  H   UNL     1     -44.972  30.997  22.257  1.00  0.00     0.045 H 
ATOM     24  H   UNL     1     -46.640  31.006  21.686  1.00  0.00     0.045 H 
ATOM     25  H   UNL     1     -45.650  29.517  21.570  1.00  0.00     0.045 H 
ENDBRANCH  20  22
ENDBRANCH   6  20
ENDBRANCH   4   5
ENDBRANCH   1   4
BRANCH   1  26
ATOM     26  C   UNL     1     -47.065  38.349  27.913  1.00  0.00     0.123 C 
ATOM     27  O   UNL     1     -45.991  39.253  28.269  1.00  0.00    -0.345 OA
ATOM     28  C   UNL     1     -48.292  39.243  27.739  1.00  0.00     0.119 C 
ATOM     29  H   UNL     1     -47.182  37.652  28.750  1.00  0.00     0.067 H 
ATOM     30  C   UNL     1     -46.357  40.587  27.826  1.00  0.00     0.169 C 
ATOM     31  C   UNL     1     -47.701  40.487  27.114  1.00  0.00     0.173 C 
ATOM     32  H   UNL     1     -49.063  38.780  27.118  1.00  0.00     0.066 H 
ATOM     33  H   UNL     1     -46.439  41.189  28.738  1.00  0.00     0.088 H 
ATOM     34  F   UNL     1     -47.541  40.253  25.781  1.00  0.00    -0.239 F 
ATOM     35  H   UNL     1     -48.310  41.388  27.235  1.00  0.00     0.074 H 
BRANCH  28  36
ATOM     36  O   UNL     1     -48.886  39.566  29.003  1.00  0.00    -0.387 OA
ATOM     37  H   UNL     1     -49.213  38.748  29.422  1.00  0.00     0.211 HD
ENDBRANCH  28  36
BRANCH  30  38
ATOM     38  N   UNL     1     -45.293  41.162  27.021  1.00  0.00    -0.302 N 
ATOM     39  C   UNL     1     -45.385  41.655  25.742  1.00  0.00     0.023 A 
ATOM     40  C   UNL     1     -44.001  41.293  27.471  1.00  0.00     0.151 A 
ATOM     41  C   UNL     1     -44.137  42.116  25.395  1.00  0.00     0.049 A 
ATOM     42  H   UNL     1     -46.319  41.640  25.195  1.00  0.00     0.083 H 
ATOM     43  C   UNL     1     -43.247  41.897  26.474  1.00  0.00     0.076 A 
ATOM     44  N   UNL     1     -43.564  40.903  28.679  1.00  0.00    -0.195 NA
ATOM     45  Br  UNL     1     -43.691  42.909  23.754  1.00  0.00    -0.048 Br
ATOM     46  C   UNL     1     -41.897  42.114  26.775  1.00  0.00     0.139 A 
ATOM     47  C   UNL     1     -42.269  41.176  28.867  1.00  0.00     0.223 A 
ATOM     48  N   UNL     1     -41.433  41.743  27.987  1.00  0.00    -0.196 NA
BRANCH  46  49
ATOM     49  N   UNL     1     -40.989  42.701  25.906  1.00  0.00    -0.383 N 
ATOM     50  H   UNL     1     -41.063  43.707  25.824  1.00  0.00     0.158 HD
ATOM     51  H   UNL     1     -40.058  42.323  26.037  1.00  0.00     0.158 HD
ENDBRANCH  46  49
BRANCH  47  52
ATOM     52  N   UNL     1     -41.720  40.797  30.078  1.00  0.00    -0.368 N 
ATOM     53  H   UNL     1     -41.739  39.789  30.146  1.00  0.00     0.159 HD
ATOM     54  H   UNL     1     -42.150  41.317  30.830  1.00  0.00     0.159 HD
ENDBRANCH  47  52
ENDBRANCH  30  38
ENDBRANCH   1  26
TORSDOF 9
ENDMDL
MODEL 4
REMARK VINA RESULT:      -8.8      2.720      9.637
REMARK SMILES CNc1ccc2ccc(OC[C@H]3O[C@@H](n4cc(Br)c5c(N)nc(N)nc54)[C@@H](F)[C@@H]3O)cc2n1
REMARK SMILES IDX 11 1 10 4 9 5 3 6 4 7 33 8 5 9 32 11 6 12 31 14 7 15 8 17
REMARK SMILES IDX 2 20 1 22 12 26 13 27 29 28 14 30 27 31 28 34 30 36 15 38
REMARK SMILES IDX 16 39 26 40 17 41 19 43 25 44 18 45 20 46 23 47 22 48 21 49
REMARK SMILES IDX 24 52
REMARK H PARENT 11 2 11 3 4 10 5 13 31 16 7 18 8 19 2 21 1 23 1 24 1 25 12 29
REMARK H PARENT 29 32 14 33 27 35 30 37 16 42 21 50 21 51 24 53 24 54
REMARK Flexibility Score: inf
ROOT
ATOM      1  C   UNL     1     -48.121  35.948  27.721  1.00  0.00     0.117 C 
ATOM      2  H   UNL     1     -49.116  35.547  27.943  1.00  0.00     0.073 H 
ATOM      3  H   UNL     1     -48.027  36.175  26.653  1.00  0.00     0.073 H 
ENDROOT
BRANCH   1   4
ATOM      4  O   UNL     1     -47.921  37.149  28.476  1.00  0.00    -0.491 OA
BRANCH   4   5
ATOM      5  C   UNL     1     -47.037  38.062  27.971  1.00  0.00     0.121 A 
ATOM      6  C   UNL     1     -43.248  40.935  28.166  1.00  0.00     0.126 A 
ATOM      7  C   UNL     1     -43.440  41.356  26.855  1.00  0.00    -0.019 A 
ATOM      8  N   UNL     1     -44.066  40.032  28.745  1.00  0.00    -0.231 NA
ATOM      9  C   UNL     1     -44.511  40.851  26.126  1.00  0.00    -0.049 A 
ATOM     10  H   UNL     1     -42.754  42.061  26.398  1.00  0.00     0.066 H 
ATOM     11  C   UNL     1     -45.103  39.536  28.046  1.00  0.00     0.076 A 
ATOM     12  C   UNL     1     -45.370  39.924  26.719  1.00  0.00     0.001 A 
ATOM     13  H   UNL     1     -44.662  41.179  25.101  1.00  0.00     0.063 H 
ATOM     14  C   UNL     1     -45.945  38.609  28.649  1.00  0.00     0.007 A 
ATOM     15  C   UNL     1     -46.466  39.383  26.030  1.00  0.00    -0.049 A 
ATOM     16  H   UNL     1     -45.713  38.331  29.671  1.00  0.00     0.069 H 
ATOM     17  C   UNL     1     -47.295  38.457  26.660  1.00  0.00    -0.019 A 
ATOM     18  H   UNL     1     -46.678  39.675  25.005  1.00  0.00     0.063 H 
ATOM     19  H   UNL     1     -48.142  38.036  26.125  1.00  0.00     0.066 H 
BRANCH   6  20
ATOM     20  N   UNL     1     -42.139  41.447  28.864  1.00  0.00    -0.373 N 
ATOM     21  H   UNL     1     -42.306  42.425  29.078  1.00  0.00     0.161 HD
BRANCH  20  22
ATOM     22  C   UNL     1     -41.776  40.686  30.049  1.00  0.00     0.005 C 
ATOM     23  H   UNL     1     -42.576  40.779  30.789  1.00  0.00     0.045 H 
ATOM     24  H   UNL     1     -40.860  41.071  30.509  1.00  0.00     0.045 H 
ATOM     25  H   UNL     1     -41.657  39.620  29.823  1.00  0.00     0.045 H 
ENDBRANCH  20  22
ENDBRANCH   6  20
ENDBRANCH   4   5
ENDBRANCH   1   4
BRANCH   1  26
ATOM     26  C   UNL     1     -47.030  34.945  28.131  1.00  0.00     0.123 C 
ATOM     27  O   UNL     1     -47.475  33.596  27.845  1.00  0.00    -0.345 OA
ATOM     28  C   UNL     1     -45.731  35.106  27.344  1.00  0.00     0.119 C 
ATOM     29  H   UNL     1     -46.863  35.000  29.212  1.00  0.00     0.067 H 
ATOM     30  C   UNL     1     -46.849  33.166  26.608  1.00  0.00     0.169 C 
ATOM     31  C   UNL     1     -46.019  34.331  26.078  1.00  0.00     0.173 C 
ATOM     32  H   UNL     1     -45.484  36.154  27.153  1.00  0.00     0.066 H 
ATOM     33  H   UNL     1     -46.208  32.319  26.879  1.00  0.00     0.088 H 
ATOM     34  F   UNL     1     -46.753  35.128  25.253  1.00  0.00    -0.239 F 
ATOM     35  H   UNL     1     -45.128  34.001  25.536  1.00  0.00     0.074 H 
BRANCH  28  36
ATOM     36  O   UNL     1     -44.623  34.518  28.037  1.00  0.00    -0.387 OA
ATOM     37  H   UNL     1     -44.665  33.548  27.944  1.00  0.00     0.211 HD
ENDBRANCH  28  36
BRANCH  30  38
ATOM     38  N   UNL     1     -47.851  32.672  25.679  1.00  0.00    -0.302 N 
ATOM     39  C   UNL     1     -49.205  32.895  25.713  1.00  0.00     0.023 A 
ATOM     40  C   UNL     1     -47.543  31.884  24.595  1.00  0.00     0.151 A 
ATOM     41  C   UNL     1     -49.749  32.253  24.626  1.00  0.00     0.049 A 
ATOM     42  H   UNL     1     -49.663  33.488  26.495  1.00  0.00     0.083 H 
ATOM     43  C   UNL     1     -48.716  31.608  23.906  1.00  0.00     0.076 A 
ATOM     44  N   UNL     1     -46.308  31.470  24.272  1.00  0.00    -0.195 NA
ATOM     45  Br  UNL     1     -51.570  32.239  24.172  1.00  0.00    -0.048 Br
ATOM     46  C   UNL     1     -48.578  30.816  22.759  1.00  0.00     0.139 A 
ATOM     47  C   UNL     1     -46.290  30.740  23.152  1.00  0.00     0.223 A 
ATOM     48  N   UNL     1     -47.346  30.395  22.403  1.00  0.00    -0.196 NA
BRANCH  46  49
ATOM     49  N   UNL     1     -49.633  30.434  21.944  1.00  0.00    -0.383 N 
ATOM     50  H   UNL     1     -49.759  29.435  21.844  1.00  0.00     0.158 HD
ATOM     51  H   UNL     1     -50.465  30.979  22.141  1.00  0.00     0.158 HD
ENDBRANCH  46  49
BRANCH  47  52
ATOM     52  N   UNL     1     -45.062  30.253  22.743  1.00  0.00    -0.368 N 
ATOM     53  H   UNL     1     -44.381  30.431  23.468  1.00  0.00     0.159 HD
ATOM     54  H   UNL     1     -44.848  30.591  21.816  1.00  0.00     0.159 HD
ENDBRANCH  47  52
ENDBRANCH  30  38
ENDBRANCH   1  26
TORSDOF 9
ENDMDL
MODEL 5
REMARK VINA RESULT:      -8.7      4.664     11.358
REMARK SMILES CNc1ccc2ccc(OC[C@H]3O[C@@H](n4cc(Br)c5c(N)nc(N)nc54)[C@@H](F)[C@@H]3O)cc2n1
REMARK SMILES IDX 11 1 10 4 9 5 3 6 4 7 33 8 5 9 32 11 6 12 31 14 7 15 8 17
REMARK SMILES IDX 2 20 1 22 12 26 13 27 29 28 14 30 27 31 28 34 30 36 15 38
REMARK SMILES IDX 16 39 26 40 17 41 19 43 25 44 18 45 20 46 23 47 22 48 21 49
REMARK SMILES IDX 24 52
REMARK H PARENT 11 2 11 3 4 10 5 13 31 16 7 18 8 19 2 21 1 23 1 24 1 25 12 29
REMARK H PARENT 29 32 14 33 27 35 30 37 16 42 21 50 21 51 24 53 24 54
REMARK Flexibility Score: inf
ROOT
ATOM      1  C   UNL     1     -47.458  32.031  24.321  1.00  0.00     0.117 C 
ATOM      2  H   UNL     1     -48.366  31.477  24.580  1.00  0.00     0.073 H 
ATOM      3  H   UNL     1     -47.709  32.961  23.799  1.00  0.00     0.073 H 
ENDROOT
BRANCH   1   4
ATOM      4  O   UNL     1     -46.744  32.345  25.523  1.00  0.00    -0.491 OA
BRANCH   4   5
ATOM      5  C   UNL     1     -47.023  33.544  26.119  1.00  0.00     0.121 A 
ATOM      6  C   UNL     1     -45.899  37.632  28.280  1.00  0.00     0.126 A 
ATOM      7  C   UNL     1     -47.236  38.002  28.380  1.00  0.00    -0.019 A 
ATOM      8  N   UNL     1     -45.529  36.471  27.702  1.00  0.00    -0.231 NA
ATOM      9  C   UNL     1     -48.219  37.148  27.891  1.00  0.00    -0.049 A 
ATOM     10  H   UNL     1     -47.512  38.953  28.822  1.00  0.00     0.066 H 
ATOM     11  C   UNL     1     -46.473  35.641  27.223  1.00  0.00     0.076 A 
ATOM     12  C   UNL     1     -47.847  35.939  27.300  1.00  0.00     0.001 A 
ATOM     13  H   UNL     1     -49.264  37.436  27.968  1.00  0.00     0.063 H 
ATOM     14  C   UNL     1     -46.086  34.444  26.632  1.00  0.00     0.007 A 
ATOM     15  C   UNL     1     -48.797  35.040  26.791  1.00  0.00    -0.049 A 
ATOM     16  H   UNL     1     -45.021  34.242  26.587  1.00  0.00     0.069 H 
ATOM     17  C   UNL     1     -48.380  33.847  26.205  1.00  0.00    -0.019 A 
ATOM     18  H   UNL     1     -49.858  35.264  26.845  1.00  0.00     0.063 H 
ATOM     19  H   UNL     1     -49.116  33.152  25.809  1.00  0.00     0.066 H 
BRANCH   6  20
ATOM     20  N   UNL     1     -44.932  38.533  28.761  1.00  0.00    -0.373 N 
ATOM     21  H   UNL     1     -45.271  39.481  28.631  1.00  0.00     0.161 HD
BRANCH  20  22
ATOM     22  C   UNL     1     -44.516  38.288  30.132  1.00  0.00     0.005 C 
ATOM     23  H   UNL     1     -45.166  37.523  30.569  1.00  0.00     0.045 H 
ATOM     24  H   UNL     1     -44.612  39.187  30.749  1.00  0.00     0.045 H 
ATOM     25  H   UNL     1     -43.487  37.914  30.181  1.00  0.00     0.045 H 
ENDBRANCH  20  22
ENDBRANCH   6  20
ENDBRANCH   4   5
ENDBRANCH   1   4
BRANCH   1  26
ATOM     26  C   UNL     1     -46.537  31.176  23.435  1.00  0.00     0.123 C 
ATOM     27  O   UNL     1     -46.667  29.780  23.800  1.00  0.00    -0.345 OA
ATOM     28  C   UNL     1     -46.901  31.231  21.952  1.00  0.00     0.119 C 
ATOM     29  H   UNL     1     -45.492  31.453  23.609  1.00  0.00     0.067 H 
ATOM     30  C   UNL     1     -47.538  29.138  22.831  1.00  0.00     0.169 C 
ATOM     31  C   UNL     1     -48.010  30.207  21.852  1.00  0.00     0.173 C 
ATOM     32  H   UNL     1     -47.215  32.229  21.634  1.00  0.00     0.066 H 
ATOM     33  H   UNL     1     -46.917  28.389  22.326  1.00  0.00     0.088 H 
ATOM     34  F   UNL     1     -49.164  30.793  22.275  1.00  0.00    -0.239 F 
ATOM     35  H   UNL     1     -48.173  29.813  20.844  1.00  0.00     0.074 H 
BRANCH  28  36
ATOM     36  O   UNL     1     -45.796  30.838  21.128  1.00  0.00    -0.387 OA
ATOM     37  H   UNL     1     -45.259  31.624  20.917  1.00  0.00     0.211 HD
ENDBRANCH  28  36
BRANCH  30  38
ATOM     38  N   UNL     1     -48.610  28.428  23.507  1.00  0.00    -0.302 N 
ATOM     39  C   UNL     1     -49.948  28.446  23.200  1.00  0.00     0.023 A 
ATOM     40  C   UNL     1     -48.399  27.607  24.589  1.00  0.00     0.151 A 
ATOM     41  C   UNL     1     -50.580  27.611  24.091  1.00  0.00     0.049 A 
ATOM     42  H   UNL     1     -50.334  29.041  22.381  1.00  0.00     0.083 H 
ATOM     43  C   UNL     1     -49.619  27.070  24.978  1.00  0.00     0.076 A 
ATOM     44  N   UNL     1     -47.204  27.372  25.154  1.00  0.00    -0.195 NA
ATOM     45  Br  UNL     1     -52.421  27.248  24.121  1.00  0.00    -0.048 Br
ATOM     46  C   UNL     1     -49.581  26.196  26.071  1.00  0.00     0.139 A 
ATOM     47  C   UNL     1     -47.281  26.510  26.173  1.00  0.00     0.223 A 
ATOM     48  N   UNL     1     -48.391  25.931  26.652  1.00  0.00    -0.196 NA
BRANCH  46  49
ATOM     49  N   UNL     1     -50.695  25.565  26.604  1.00  0.00    -0.383 N 
ATOM     50  H   UNL     1     -51.027  24.766  26.080  1.00  0.00     0.158 HD
ATOM     51  H   UNL     1     -50.605  25.446  27.606  1.00  0.00     0.158 HD
ENDBRANCH  46  49
BRANCH  47  52
ATOM     52  N   UNL     1     -46.102  26.214  26.832  1.00  0.00    -0.368 N 
ATOM     53  H   UNL     1     -45.838  25.262  26.620  1.00  0.00     0.159 HD
ATOM     54  H   UNL     1     -46.180  26.465  27.807  1.00  0.00     0.159 HD
ENDBRANCH  47  52
ENDBRANCH  30  38
ENDBRANCH   1  26
TORSDOF 9
ENDMDL
MODEL 6
REMARK VINA RESULT:      -8.5      5.977     11.673
REMARK SMILES CNc1ccc2ccc(OC[C@H]3O[C@@H](n4cc(Br)c5c(N)nc(N)nc54)[C@@H](F)[C@@H]3O)cc2n1
REMARK SMILES IDX 11 1 10 4 9 5 3 6 4 7 33 8 5 9 32 11 6 12 31 14 7 15 8 17
REMARK SMILES IDX 2 20 1 22 12 26 13 27 29 28 14 30 27 31 28 34 30 36 15 38
REMARK SMILES IDX 16 39 26 40 17 41 19 43 25 44 18 45 20 46 23 47 22 48 21 49
REMARK SMILES IDX 24 52
REMARK H PARENT 11 2 11 3 4 10 5 13 31 16 7 18 8 19 2 21 1 23 1 24 1 25 12 29
REMARK H PARENT 29 32 14 33 27 35 30 37 16 42 21 50 21 51 24 53 24 54
REMARK Flexibility Score: inf
ROOT
ATOM      1  C   UNL     1     -50.474  31.761  23.346  1.00  0.00     0.117 C 
ATOM      2  H   UNL     1     -51.514  31.576  23.634  1.00  0.00     0.073 H 
ATOM      3  H   UNL     1     -50.296  32.834  23.210  1.00  0.00     0.073 H 
ENDROOT
BRANCH   1   4
ATOM      4  O   UNL     1     -49.608  31.268  24.374  1.00  0.00    -0.491 OA
BRANCH   4   5
ATOM      5  C   UNL     1     -48.761  32.167  24.961  1.00  0.00     0.121 A 
ATOM      6  C   UNL     1     -47.687  35.847  27.782  1.00  0.00     0.126 A 
ATOM      7  C   UNL     1     -46.334  35.750  27.473  1.00  0.00    -0.019 A 
ATOM      8  N   UNL     1     -48.594  34.999  27.256  1.00  0.00    -0.231 NA
ATOM      9  C   UNL     1     -45.905  34.770  26.585  1.00  0.00    -0.049 A 
ATOM     10  H   UNL     1     -45.617  36.423  27.929  1.00  0.00     0.066 H 
ATOM     11  C   UNL     1     -48.187  34.044  26.399  1.00  0.00     0.076 A 
ATOM     12  C   UNL     1     -46.838  33.893  26.026  1.00  0.00     0.001 A 
ATOM     13  H   UNL     1     -44.849  34.693  26.343  1.00  0.00     0.063 H 
ATOM     14  C   UNL     1     -49.127  33.176  25.857  1.00  0.00     0.007 A 
ATOM     15  C   UNL     1     -46.460  32.885  25.126  1.00  0.00    -0.049 A 
ATOM     16  H   UNL     1     -50.158  33.318  26.163  1.00  0.00     0.069 H 
ATOM     17  C   UNL     1     -47.424  32.030  24.596  1.00  0.00    -0.019 A 
ATOM     18  H   UNL     1     -45.421  32.760  24.835  1.00  0.00     0.063 H 
ATOM     19  H   UNL     1     -47.130  31.248  23.900  1.00  0.00     0.066 H 
BRANCH   6  20
ATOM     20  N   UNL     1     -48.080  36.834  28.704  1.00  0.00    -0.373 N 
ATOM     21  H   UNL     1     -47.299  37.039  29.321  1.00  0.00     0.161 HD
BRANCH  20  22
ATOM     22  C   UNL     1     -48.622  38.038  28.096  1.00  0.00     0.005 C 
ATOM     23  H   UNL     1     -47.826  38.545  27.541  1.00  0.00     0.045 H 
ATOM     24  H   UNL     1     -48.991  38.740  28.851  1.00  0.00     0.045 H 
ATOM     25  H   UNL     1     -49.423  37.805  27.385  1.00  0.00     0.045 H 
ENDBRANCH  20  22
ENDBRANCH   6  20
ENDBRANCH   4   5
ENDBRANCH   1   4
BRANCH   1  26
ATOM     26  C   UNL     1     -50.133  31.016  22.044  1.00  0.00     0.123 C 
ATOM     27  O   UNL     1     -49.423  29.793  22.354  1.00  0.00    -0.345 OA
ATOM     28  C   UNL     1     -51.366  30.569  21.261  1.00  0.00     0.119 C 
ATOM     29  H   UNL     1     -49.460  31.627  21.433  1.00  0.00     0.067 H 
ATOM     30  C   UNL     1     -50.364  28.690  22.272  1.00  0.00     0.169 C 
ATOM     31  C   UNL     1     -51.735  29.274  21.948  1.00  0.00     0.173 C 
ATOM     32  H   UNL     1     -52.171  31.309  21.288  1.00  0.00     0.066 H 
ATOM     33  H   UNL     1     -50.005  28.054  21.455  1.00  0.00     0.088 H 
ATOM     34  F   UNL     1     -52.425  29.580  23.082  1.00  0.00    -0.239 F 
ATOM     35  H   UNL     1     -52.348  28.599  21.344  1.00  0.00     0.074 H 
BRANCH  28  36
ATOM     36  O   UNL     1     -51.049  30.320  19.885  1.00  0.00    -0.387 OA
ATOM     37  H   UNL     1     -50.582  29.467  19.813  1.00  0.00     0.211 HD
ENDBRANCH  28  36
BRANCH  30  38
ATOM     38  N   UNL     1     -50.323  27.898  23.489  1.00  0.00    -0.302 N 
ATOM     39  C   UNL     1     -51.387  27.440  24.227  1.00  0.00     0.023 A 
ATOM     40  C   UNL     1     -49.149  27.487  24.076  1.00  0.00     0.151 A 
ATOM     41  C   UNL     1     -50.872  26.719  25.277  1.00  0.00     0.049 A 
ATOM     42  H   UNL     1     -52.409  27.660  23.944  1.00  0.00     0.083 H 
ATOM     43  C   UNL     1     -49.459  26.735  25.201  1.00  0.00     0.076 A 
ATOM     44  N   UNL     1     -47.920  27.769  23.615  1.00  0.00    -0.195 NA
ATOM     45  Br  UNL     1     -51.885  25.851  26.598  1.00  0.00    -0.048 Br
ATOM     46  C   UNL     1     -48.368  26.228  25.916  1.00  0.00     0.139 A 
ATOM     47  C   UNL     1     -46.956  27.219  24.360  1.00  0.00     0.223 A 
ATOM     48  N   UNL     1     -47.120  26.485  25.470  1.00  0.00    -0.196 NA
BRANCH  46  49
ATOM     49  N   UNL     1     -48.478  25.458  27.065  1.00  0.00    -0.383 N 
ATOM     50  H   UNL     1     -49.091  25.835  27.776  1.00  0.00     0.158 HD
ATOM     51  H   UNL     1     -48.592  24.477  26.840  1.00  0.00     0.158 HD
ENDBRANCH  46  49
BRANCH  47  52
ATOM     52  N   UNL     1     -45.651  27.466  23.976  1.00  0.00    -0.368 N 
ATOM     53  H   UNL     1     -45.420  26.866  23.196  1.00  0.00     0.159 HD
ATOM     54  H   UNL     1     -45.041  27.431  24.780  1.00  0.00     0.159 HD
ENDBRANCH  47  52
ENDBRANCH  30  38
ENDBRANCH   1  26
TORSDOF 9
ENDMDL
MODEL 7
REMARK VINA RESULT:      -8.4      6.062     11.358
REMARK SMILES CNc1ccc2ccc(OC[C@H]3O[C@@H](n4cc(Br)c5c(N)nc(N)nc54)[C@@H](F)[C@@H]3O)cc2n1
REMARK SMILES IDX 11 1 10 4 9 5 3 6 4 7 33 8 5 9 32 11 6 12 31 14 7 15 8 17
REMARK SMILES IDX 2 20 1 22 12 26 13 27 29 28 14 30 27 31 28 34 30 36 15 38
REMARK SMILES IDX 16 39 26 40 17 41 19 43 25 44 18 45 20 46 23 47 22 48 21 49
REMARK SMILES IDX 24 52
REMARK H PARENT 11 2 11 3 4 10 5 13 31 16 7 18 8 19 2 21 1 23 1 24 1 25 12 29
REMARK H PARENT 29 32 14 33 27 35 30 37 16 42 21 50 21 51 24 53 24 54
REMARK Flexibility Score: inf
ROOT
ATOM      1  C   UNL     1     -47.379  31.960  24.552  1.00  0.00     0.117 C 
ATOM      2  H   UNL     1     -48.130  31.322  25.029  1.00  0.00     0.073 H 
ATOM      3  H   UNL     1     -47.861  32.742  23.954  1.00  0.00     0.073 H 
ENDROOT
BRANCH   1   4
ATOM      4  O   UNL     1     -46.573  32.573  25.565  1.00  0.00    -0.491 OA
BRANCH   4   5
ATOM      5  C   UNL     1     -47.035  33.742  26.107  1.00  0.00     0.121 A 
ATOM      6  C   UNL     1     -50.391  36.663  27.795  1.00  0.00     0.126 A 
ATOM      7  C   UNL     1     -49.458  37.659  28.061  1.00  0.00    -0.019 A 
ATOM      8  N   UNL     1     -50.027  35.476  27.268  1.00  0.00    -0.231 NA
ATOM      9  C   UNL     1     -48.119  37.438  27.759  1.00  0.00    -0.049 A 
ATOM     10  H   UNL     1     -49.767  38.595  28.512  1.00  0.00     0.066 H 
ATOM     11  C   UNL     1     -48.733  35.252  26.977  1.00  0.00     0.076 A 
ATOM     12  C   UNL     1     -47.732  36.216  27.204  1.00  0.00     0.001 A 
ATOM     13  H   UNL     1     -47.389  38.215  27.967  1.00  0.00     0.063 H 
ATOM     14  C   UNL     1     -48.363  34.029  26.430  1.00  0.00     0.007 A 
ATOM     15  C   UNL     1     -46.395  35.939  26.880  1.00  0.00    -0.049 A 
ATOM     16  H   UNL     1     -49.156  33.307  26.267  1.00  0.00     0.069 H 
ATOM     17  C   UNL     1     -46.054  34.705  26.331  1.00  0.00    -0.019 A 
ATOM     18  H   UNL     1     -45.617  36.677  27.054  1.00  0.00     0.063 H 
ATOM     19  H   UNL     1     -45.018  34.491  26.083  1.00  0.00     0.066 H 
BRANCH   6  20
ATOM     20  N   UNL     1     -51.733  36.912  28.138  1.00  0.00    -0.373 N 
ATOM     21  H   UNL     1     -52.122  36.081  28.572  1.00  0.00     0.161 HD
BRANCH  20  22
ATOM     22  C   UNL     1     -51.929  38.096  28.959  1.00  0.00     0.005 C 
ATOM     23  H   UNL     1     -51.742  38.986  28.351  1.00  0.00     0.045 H 
ATOM     24  H   UNL     1     -51.229  38.123  29.801  1.00  0.00     0.045 H 
ATOM     25  H   UNL     1     -52.958  38.161  29.332  1.00  0.00     0.045 H 
ENDBRANCH  20  22
ENDBRANCH   6  20
ENDBRANCH   4   5
ENDBRANCH   1   4
BRANCH   1  26
ATOM     26  C   UNL     1     -46.452  31.124  23.653  1.00  0.00     0.123 C 
ATOM     27  O   UNL     1     -46.620  29.718  23.953  1.00  0.00    -0.345 OA
ATOM     28  C   UNL     1     -46.773  31.252  22.165  1.00  0.00     0.119 C 
ATOM     29  H   UNL     1     -45.406  31.371  23.868  1.00  0.00     0.067 H 
ATOM     30  C   UNL     1     -47.477  29.137  22.934  1.00  0.00     0.169 C 
ATOM     31  C   UNL     1     -47.899  30.258  21.990  1.00  0.00     0.173 C 
ATOM     32  H   UNL     1     -47.057  32.269  21.883  1.00  0.00     0.066 H 
ATOM     33  H   UNL     1     -46.858  28.398  22.413  1.00  0.00     0.088 H 
ATOM     34  F   UNL     1     -49.053  30.850  22.408  1.00  0.00    -0.239 F 
ATOM     35  H   UNL     1     -48.042  29.911  20.962  1.00  0.00     0.074 H 
BRANCH  28  36
ATOM     36  O   UNL     1     -45.654  30.872  21.354  1.00  0.00    -0.387 OA
ATOM     37  H   UNL     1     -45.687  29.910  21.192  1.00  0.00     0.211 HD
ENDBRANCH  28  36
BRANCH  30  38
ATOM     38  N   UNL     1     -48.582  28.423  23.548  1.00  0.00    -0.302 N 
ATOM     39  C   UNL     1     -49.903  28.443  23.174  1.00  0.00     0.023 A 
ATOM     40  C   UNL     1     -48.427  27.593  24.634  1.00  0.00     0.151 A 
ATOM     41  C   UNL     1     -50.579  27.601  24.025  1.00  0.00     0.049 A 
ATOM     42  H   UNL     1     -50.247  29.044  22.341  1.00  0.00     0.083 H 
ATOM     43  C   UNL     1     -49.664  27.053  24.956  1.00  0.00     0.076 A 
ATOM     44  N   UNL     1     -47.262  27.354  25.257  1.00  0.00    -0.195 NA
ATOM     45  Br  UNL     1     -52.419  27.238  23.958  1.00  0.00    -0.048 Br
ATOM     46  C   UNL     1     -49.682  26.171  26.043  1.00  0.00     0.139 A 
ATOM     47  C   UNL     1     -47.391  26.484  26.265  1.00  0.00     0.223 A 
ATOM     48  N   UNL     1     -48.523  25.902  26.682  1.00  0.00    -0.196 NA
BRANCH  46  49
ATOM     49  N   UNL     1     -50.822  25.536  26.514  1.00  0.00    -0.383 N 
ATOM     50  H   UNL     1     -51.319  26.031  27.243  1.00  0.00     0.158 HD
ATOM     51  H   UNL     1     -51.379  25.170  25.751  1.00  0.00     0.158 HD
ENDBRANCH  46  49
BRANCH  47  52
ATOM     52  N   UNL     1     -46.247  26.183  26.981  1.00  0.00    -0.368 N 
ATOM     53  H   UNL     1     -45.587  25.724  26.368  1.00  0.00     0.159 HD
ATOM     54  H   UNL     1     -46.491  25.705  27.836  1.00  0.00     0.159 HD
ENDBRANCH  47  52
ENDBRANCH  30  38
ENDBRANCH   1  26
TORSDOF 9
ENDMDL
