MODEL 1
REMARK VINA RESULT:     -10.6      0.000      0.000
REMARK SMILES O[C@@H]1[C@@H](CCc2ccc3[nH]ncc3c2)C[C@@H](n2ccc3c(NCCc4ccccc4)ncnc32)[C@@H]1O
REMARK SMILES IDX 17 1 18 2 19 3 20 4 21 5 31 6 32 7 33 8 34 9 16 13 2 14 3 15
REMARK SMILES IDX 35 16 15 18 1 24 4 26 5 29 6 32 7 33 14 34 8 35 13 37 9 39
REMARK SMILES IDX 12 41 10 42 11 43 36 46 22 48 23 50 24 53 25 56 26 57 30 58
REMARK SMILES IDX 27 59 29 61 28 63
REMARK H PARENT 18 10 19 11 32 12 2 17 3 19 35 20 15 21 15 22 16 23 1 25 4 27
REMARK H PARENT 4 28 5 30 5 31 7 36 14 38 8 40 12 44 10 45 36 47 22 49 23 51
REMARK H PARENT 23 52 24 54 24 55 26 60 30 62 27 64 29 65 28 66
REMARK Flexibility Score: inf
ROOT
ATOM      1  N   UNL     1     -47.195  34.082  26.561  1.00  0.00    -0.327 N 
ATOM      2  C   UNL     1     -45.973  33.960  25.944  1.00  0.00     0.007 A 
ATOM      3  C   UNL     1     -46.110  33.091  24.882  1.00  0.00    -0.031 A 
ATOM      4  C   UNL     1     -47.447  32.612  24.883  1.00  0.00     0.061 A 
ATOM      5  C   UNL     1     -48.211  31.737  24.087  1.00  0.00     0.138 A 
ATOM      6  N   UNL     1     -49.506  31.537  24.426  1.00  0.00    -0.219 NA
ATOM      7  C   UNL     1     -49.991  32.160  25.520  1.00  0.00     0.120 A 
ATOM      8  N   UNL     1     -49.353  32.996  26.351  1.00  0.00    -0.218 NA
ATOM      9  C   UNL     1     -48.081  33.205  25.965  1.00  0.00     0.145 A 
ATOM     10  H   UNL     1     -45.096  34.490  26.289  1.00  0.00     0.082 H 
ATOM     11  H   UNL     1     -45.324  32.817  24.190  1.00  0.00     0.065 H 
ATOM     12  H   UNL     1     -51.036  31.967  25.747  1.00  0.00     0.106 H 
ENDROOT
BRANCH   1  13
ATOM     13  C   UNL     1     -47.549  34.948  27.686  1.00  0.00     0.064 C 
ATOM     14  C   UNL     1     -46.770  36.878  28.958  1.00  0.00     0.085 C 
ATOM     15  C   UNL     1     -47.423  37.438  27.690  1.00  0.00    -0.010 C 
ATOM     16  C   UNL     1     -46.375  35.450  28.559  1.00  0.00     0.101 C 
ATOM     17  H   UNL     1     -45.914  37.457  29.317  1.00  0.00     0.063 H 
ATOM     18  C   UNL     1     -48.277  36.242  27.238  1.00  0.00    -0.024 C 
ATOM     19  H   UNL     1     -48.078  38.283  27.932  1.00  0.00     0.033 H 
ATOM     20  H   UNL     1     -45.429  35.489  28.014  1.00  0.00     0.065 H 
ATOM     21  H   UNL     1     -49.240  36.286  27.763  1.00  0.00     0.029 H 
ATOM     22  H   UNL     1     -48.513  36.267  26.177  1.00  0.00     0.029 H 
ATOM     23  H   UNL     1     -48.230  34.339  28.296  1.00  0.00     0.056 H 
BRANCH  14  24
ATOM     24  O   UNL     1     -47.724  36.803  30.024  1.00  0.00    -0.390 OA
ATOM     25  H   UNL     1     -47.253  36.467  30.808  1.00  0.00     0.211 HD
ENDBRANCH  14  24
BRANCH  15  26
ATOM     26  C   UNL     1     -46.357  37.897  26.670  1.00  0.00    -0.044 C 
ATOM     27  H   UNL     1     -45.375  37.620  27.078  1.00  0.00     0.027 H 
ATOM     28  H   UNL     1     -46.457  37.348  25.728  1.00  0.00     0.027 H 
BRANCH  26  29
ATOM     29  C   UNL     1     -46.306  39.414  26.402  1.00  0.00    -0.027 C 
ATOM     30  H   UNL     1     -47.114  39.898  26.968  1.00  0.00     0.032 H 
ATOM     31  H   UNL     1     -46.524  39.607  25.345  1.00  0.00     0.032 H 
BRANCH  29  32
ATOM     32  C   UNL     1     -45.016  40.084  26.808  1.00  0.00    -0.047 A 
ATOM     33  C   UNL     1     -44.410  41.026  25.960  1.00  0.00    -0.057 A 
ATOM     34  C   UNL     1     -44.433  39.794  28.057  1.00  0.00    -0.048 A 
ATOM     35  C   UNL     1     -43.273  41.742  26.350  1.00  0.00    -0.036 A 
ATOM     36  H   UNL     1     -44.843  41.241  24.985  1.00  0.00     0.063 H 
ATOM     37  C   UNL     1     -43.299  40.517  28.467  1.00  0.00     0.020 A 
ATOM     38  H   UNL     1     -44.877  39.061  28.722  1.00  0.00     0.063 H 
ATOM     39  C   UNL     1     -42.762  41.476  27.621  1.00  0.00     0.065 A 
ATOM     40  H   UNL     1     -42.837  42.499  25.707  1.00  0.00     0.065 H 
ATOM     41  C   UNL     1     -42.481  40.566  29.618  1.00  0.00     0.057 A 
ATOM     42  N   UNL     1     -41.737  42.051  28.326  1.00  0.00    -0.278 N 
ATOM     43  N   UNL     1     -41.522  41.493  29.535  1.00  0.00    -0.183 NA
ATOM     44  H   UNL     1     -42.555  39.969  30.517  1.00  0.00     0.087 H 
ATOM     45  H   UNL     1     -41.172  42.846  28.049  1.00  0.00     0.190 HD
ENDBRANCH  29  32
ENDBRANCH  26  29
ENDBRANCH  15  26
BRANCH  16  46
ATOM     46  O   UNL     1     -46.182  34.644  29.718  1.00  0.00    -0.388 OA
ATOM     47  H   UNL     1     -47.069  34.285  29.931  1.00  0.00     0.211 HD
ENDBRANCH  16  46
ENDBRANCH   1  13
BRANCH   5  48
ATOM     48  N   UNL     1     -47.680  31.121  22.947  1.00  0.00    -0.369 N 
ATOM     49  H   UNL     1     -47.145  31.798  22.407  1.00  0.00     0.162 HD
BRANCH  48  50
ATOM     50  C   UNL     1     -46.931  29.894  23.219  1.00  0.00     0.020 C 
ATOM     51  H   UNL     1     -46.491  29.937  24.224  1.00  0.00     0.049 H 
ATOM     52  H   UNL     1     -46.115  29.779  22.495  1.00  0.00     0.049 H 
BRANCH  50  53
ATOM     53  C   UNL     1     -47.859  28.671  23.169  1.00  0.00    -0.010 C 
ATOM     54  H   UNL     1     -48.903  29.008  23.187  1.00  0.00     0.033 H 
ATOM     55  H   UNL     1     -47.725  28.146  22.215  1.00  0.00     0.033 H 
BRANCH  53  56
ATOM     56  C   UNL     1     -47.649  27.708  24.316  1.00  0.00    -0.046 A 
ATOM     57  C   UNL     1     -48.662  27.501  25.263  1.00  0.00    -0.059 A 
ATOM     58  C   UNL     1     -46.448  26.994  24.438  1.00  0.00    -0.059 A 
ATOM     59  C   UNL     1     -48.477  26.597  26.309  1.00  0.00    -0.062 A 
ATOM     60  H   UNL     1     -49.603  28.043  25.188  1.00  0.00     0.063 H 
ATOM     61  C   UNL     1     -46.267  26.090  25.485  1.00  0.00    -0.062 A 
ATOM     62  H   UNL     1     -45.646  27.137  23.718  1.00  0.00     0.063 H 
ATOM     63  C   UNL     1     -47.282  25.891  26.420  1.00  0.00    -0.062 A 
ATOM     64  H   UNL     1     -49.268  26.444  27.040  1.00  0.00     0.062 H 
ATOM     65  H   UNL     1     -45.333  25.541  25.573  1.00  0.00     0.062 H 
ATOM     66  H   UNL     1     -47.138  25.188  27.237  1.00  0.00     0.062 H 
ENDBRANCH  53  56
ENDBRANCH  50  53
ENDBRANCH  48  50
ENDBRANCH   5  48
TORSDOF 10
ENDMDL
MODEL 2
REMARK VINA RESULT:     -10.4      1.352      2.169
REMARK SMILES O[C@@H]1[C@@H](CCc2ccc3[nH]ncc3c2)C[C@@H](n2ccc3c(NCCc4ccccc4)ncnc32)[C@@H]1O
REMARK SMILES IDX 17 1 18 2 19 3 20 4 21 5 31 6 32 7 33 8 34 9 16 13 2 14 3 15
REMARK SMILES IDX 35 16 15 18 1 24 4 26 5 29 6 32 7 33 14 34 8 35 13 37 9 39
REMARK SMILES IDX 12 41 10 42 11 43 36 46 22 48 23 50 24 53 25 56 26 57 30 58
REMARK SMILES IDX 27 59 29 61 28 63
REMARK H PARENT 18 10 19 11 32 12 2 17 3 19 35 20 15 21 15 22 16 23 1 25 4 27
REMARK H PARENT 4 28 5 30 5 31 7 36 14 38 8 40 12 44 10 45 36 47 22 49 23 51
REMARK H PARENT 23 52 24 54 24 55 26 60 30 62 27 64 29 65 28 66
REMARK Flexibility Score: inf
ROOT
ATOM      1  N   UNL     1     -47.248  35.113  26.529  1.00  0.00    -0.327 N 
ATOM      2  C   UNL     1     -45.948  34.718  26.326  1.00  0.00     0.007 A 
ATOM      3  C   UNL     1     -45.958  33.427  25.842  1.00  0.00    -0.031 A 
ATOM      4  C   UNL     1     -47.309  32.988  25.805  1.00  0.00     0.061 A 
ATOM      5  C   UNL     1     -47.984  31.816  25.417  1.00  0.00     0.138 A 
ATOM      6  N   UNL     1     -49.332  31.790  25.533  1.00  0.00    -0.219 NA
ATOM      7  C   UNL     1     -49.957  32.874  26.038  1.00  0.00     0.120 A 
ATOM      8  N   UNL     1     -49.415  34.029  26.450  1.00  0.00    -0.218 NA
ATOM      9  C   UNL     1     -48.080  34.038  26.285  1.00  0.00     0.145 A 
ATOM     10  H   UNL     1     -45.107  35.367  26.532  1.00  0.00     0.082 H 
ATOM     11  H   UNL     1     -45.084  32.855  25.560  1.00  0.00     0.065 H 
ATOM     12  H   UNL     1     -51.039  32.802  26.110  1.00  0.00     0.106 H 
ENDROOT
BRANCH   1  13
ATOM     13  C   UNL     1     -47.729  36.424  26.967  1.00  0.00     0.064 C 
ATOM     14  C   UNL     1     -47.599  38.012  28.814  1.00  0.00     0.085 C 
ATOM     15  C   UNL     1     -46.324  38.212  27.989  1.00  0.00    -0.010 C 
ATOM     16  C   UNL     1     -48.024  36.576  28.477  1.00  0.00     0.101 C 
ATOM     17  H   UNL     1     -47.468  38.160  29.890  1.00  0.00     0.063 H 
ATOM     18  C   UNL     1     -46.724  37.563  26.654  1.00  0.00    -0.024 C 
ATOM     19  H   UNL     1     -46.128  39.279  27.832  1.00  0.00     0.033 H 
ATOM     20  H   UNL     1     -47.442  35.886  29.093  1.00  0.00     0.065 H 
ATOM     21  H   UNL     1     -47.245  38.314  26.045  1.00  0.00     0.029 H 
ATOM     22  H   UNL     1     -45.868  37.243  26.065  1.00  0.00     0.029 H 
ATOM     23  H   UNL     1     -48.651  36.582  26.391  1.00  0.00     0.056 H 
BRANCH  14  24
ATOM     24  O   UNL     1     -48.630  38.903  28.372  1.00  0.00    -0.390 OA
ATOM     25  H   UNL     1     -48.753  38.752  27.417  1.00  0.00     0.211 HD
ENDBRANCH  14  24
BRANCH  15  26
ATOM     26  C   UNL     1     -45.103  37.568  28.684  1.00  0.00    -0.044 C 
ATOM     27  H   UNL     1     -45.463  36.673  29.210  1.00  0.00     0.027 H 
ATOM     28  H   UNL     1     -44.378  37.212  27.945  1.00  0.00     0.027 H 
BRANCH  26  29
ATOM     29  C   UNL     1     -44.405  38.443  29.742  1.00  0.00    -0.027 C 
ATOM     30  H   UNL     1     -43.659  37.831  30.267  1.00  0.00     0.032 H 
ATOM     31  H   UNL     1     -45.133  38.746  30.504  1.00  0.00     0.032 H 
BRANCH  29  32
ATOM     32  C   UNL     1     -43.683  39.648  29.189  1.00  0.00    -0.047 A 
ATOM     33  C   UNL     1     -42.563  40.170  29.857  1.00  0.00    -0.057 A 
ATOM     34  C   UNL     1     -44.108  40.231  27.980  1.00  0.00    -0.048 A 
ATOM     35  C   UNL     1     -41.809  41.218  29.318  1.00  0.00    -0.036 A 
ATOM     36  H   UNL     1     -42.240  39.738  30.802  1.00  0.00     0.063 H 
ATOM     37  C   UNL     1     -43.350  41.274  27.420  1.00  0.00     0.020 A 
ATOM     38  H   UNL     1     -44.978  39.851  27.453  1.00  0.00     0.063 H 
ATOM     39  C   UNL     1     -42.221  41.726  28.086  1.00  0.00     0.065 A 
ATOM     40  H   UNL     1     -40.919  41.587  29.819  1.00  0.00     0.065 H 
ATOM     41  C   UNL     1     -43.404  42.058  26.245  1.00  0.00     0.057 A 
ATOM     42  N   UNL     1     -41.666  42.671  27.262  1.00  0.00    -0.278 N 
ATOM     43  N   UNL     1     -42.385  42.917  26.147  1.00  0.00    -0.183 NA
ATOM     44  H   UNL     1     -44.140  42.028  25.454  1.00  0.00     0.087 H 
ATOM     45  H   UNL     1     -40.785  43.156  27.390  1.00  0.00     0.190 HD
ENDBRANCH  29  32
ENDBRANCH  26  29
ENDBRANCH  15  26
BRANCH  16  46
ATOM     46  O   UNL     1     -49.403  36.380  28.779  1.00  0.00    -0.388 OA
ATOM     47  H   UNL     1     -49.434  36.227  29.746  1.00  0.00     0.211 HD
ENDBRANCH  16  46
ENDBRANCH   1  13
BRANCH   5  48
ATOM     48  N   UNL     1     -47.304  30.716  24.878  1.00  0.00    -0.369 N 
ATOM     49  H   UNL     1     -47.206  29.991  25.586  1.00  0.00     0.162 HD
BRANCH  48  50
ATOM     50  C   UNL     1     -47.872  30.212  23.627  1.00  0.00     0.020 C 
ATOM     51  H   UNL     1     -47.067  29.909  22.944  1.00  0.00     0.049 H 
ATOM     52  H   UNL     1     -48.459  30.996  23.134  1.00  0.00     0.049 H 
BRANCH  50  53
ATOM     53  C   UNL     1     -48.749  28.979  23.888  1.00  0.00    -0.010 C 
ATOM     54  H   UNL     1     -49.674  29.293  24.388  1.00  0.00     0.033 H 
ATOM     55  H   UNL     1     -49.056  28.535  22.932  1.00  0.00     0.033 H 
BRANCH  53  56
ATOM     56  C   UNL     1     -48.076  27.931  24.746  1.00  0.00    -0.046 A 
ATOM     57  C   UNL     1     -46.906  27.298  24.305  1.00  0.00    -0.059 A 
ATOM     58  C   UNL     1     -48.601  27.591  26.001  1.00  0.00    -0.059 A 
ATOM     59  C   UNL     1     -46.273  26.346  25.105  1.00  0.00    -0.062 A 
ATOM     60  H   UNL     1     -46.479  27.545  23.334  1.00  0.00     0.063 H 
ATOM     61  C   UNL     1     -47.965  26.639  26.798  1.00  0.00    -0.062 A 
ATOM     62  H   UNL     1     -49.509  28.066  26.365  1.00  0.00     0.063 H 
ATOM     63  C   UNL     1     -46.801  26.018  26.351  1.00  0.00    -0.062 A 
ATOM     64  H   UNL     1     -45.366  25.859  24.754  1.00  0.00     0.062 H 
ATOM     65  H   UNL     1     -48.379  26.381  27.770  1.00  0.00     0.062 H 
ATOM     66  H   UNL     1     -46.307  25.275  26.973  1.00  0.00     0.062 H 
ENDBRANCH  53  56
ENDBRANCH  50  53
ENDBRANCH  48  50
ENDBRANCH   5  48
TORSDOF 10
ENDMDL
MODEL 3
REMARK VINA RESULT:      -9.6      2.447      3.885
REMARK SMILES O[C@@H]1[C@@H](CCc2ccc3[nH]ncc3c2)C[C@@H](n2ccc3c(NCCc4ccccc4)ncnc32)[C@@H]1O
REMARK SMILES IDX 17 1 18 2 19 3 20 4 21 5 31 6 32 7 33 8 34 9 16 13 2 14 3 15
REMARK SMILES IDX 35 16 15 18 1 24 4 26 5 29 6 32 7 33 14 34 8 35 13 37 9 39
REMARK SMILES IDX 12 41 10 42 11 43 36 46 22 48 23 50 24 53 25 56 26 57 30 58
REMARK SMILES IDX 27 59 29 61 28 63
REMARK H PARENT 18 10 19 11 32 12 2 17 3 19 35 20 15 21 15 22 16 23 1 25 4 27
REMARK H PARENT 4 28 5 30 5 31 7 36 14 38 8 40 12 44 10 45 36 47 22 49 23 51
REMARK H PARENT 23 52 24 54 24 55 26 60 30 62 27 64 29 65 28 66
REMARK Flexibility Score: inf
ROOT
ATOM      1  N   UNL     1     -46.850  35.710  27.422  1.00  0.00    -0.327 N 
ATOM      2  C   UNL     1     -45.557  35.271  27.268  1.00  0.00     0.007 A 
ATOM      3  C   UNL     1     -45.585  34.070  26.592  1.00  0.00    -0.031 A 
ATOM      4  C   UNL     1     -46.946  33.725  26.378  1.00  0.00     0.061 A 
ATOM      5  C   UNL     1     -47.639  32.666  25.760  1.00  0.00     0.138 A 
ATOM      6  N   UNL     1     -48.992  32.706  25.761  1.00  0.00    -0.219 NA
ATOM      7  C   UNL     1     -49.608  33.738  26.373  1.00  0.00     0.120 A 
ATOM      8  N   UNL     1     -49.050  34.784  27.000  1.00  0.00    -0.218 NA
ATOM      9  C   UNL     1     -47.707  34.736  26.948  1.00  0.00     0.145 A 
ATOM     10  H   UNL     1     -44.708  35.830  27.639  1.00  0.00     0.082 H 
ATOM     11  H   UNL     1     -44.717  33.494  26.298  1.00  0.00     0.065 H 
ATOM     12  H   UNL     1     -50.693  33.723  26.344  1.00  0.00     0.106 H 
ENDROOT
BRANCH   1  13
ATOM     13  C   UNL     1     -47.304  36.968  28.015  1.00  0.00     0.064 C 
ATOM     14  C   UNL     1     -46.502  39.125  28.823  1.00  0.00     0.085 C 
ATOM     15  C   UNL     1     -46.590  39.247  27.298  1.00  0.00    -0.010 C 
ATOM     16  C   UNL     1     -46.362  37.614  29.056  1.00  0.00     0.101 C 
ATOM     17  H   UNL     1     -45.680  39.689  29.273  1.00  0.00     0.063 H 
ATOM     18  C   UNL     1     -47.530  38.079  26.957  1.00  0.00    -0.024 C 
ATOM     19  H   UNL     1     -47.063  40.192  27.011  1.00  0.00     0.033 H 
ATOM     20  H   UNL     1     -45.315  37.335  28.911  1.00  0.00     0.065 H 
ATOM     21  H   UNL     1     -48.567  38.430  27.052  1.00  0.00     0.029 H 
ATOM     22  H   UNL     1     -47.424  37.736  25.931  1.00  0.00     0.029 H 
ATOM     23  H   UNL     1     -48.263  36.715  28.489  1.00  0.00     0.056 H 
BRANCH  14  24
ATOM     24  O   UNL     1     -47.720  39.566  29.433  1.00  0.00    -0.390 OA
ATOM     25  H   UNL     1     -48.373  38.851  29.323  1.00  0.00     0.211 HD
ENDBRANCH  14  24
BRANCH  15  26
ATOM     26  C   UNL     1     -45.189  39.162  26.650  1.00  0.00    -0.044 C 
ATOM     27  H   UNL     1     -44.850  38.121  26.743  1.00  0.00     0.027 H 
ATOM     28  H   UNL     1     -45.243  39.367  25.576  1.00  0.00     0.027 H 
BRANCH  26  29
ATOM     29  C   UNL     1     -44.102  40.034  27.307  1.00  0.00    -0.027 C 
ATOM     30  H   UNL     1     -43.206  39.418  27.465  1.00  0.00     0.032 H 
ATOM     31  H   UNL     1     -44.433  40.340  28.307  1.00  0.00     0.032 H 
BRANCH  29  32
ATOM     32  C   UNL     1     -43.680  41.235  26.498  1.00  0.00    -0.047 A 
ATOM     33  C   UNL     1     -42.469  41.889  26.779  1.00  0.00    -0.057 A 
ATOM     34  C   UNL     1     -44.483  41.684  25.431  1.00  0.00    -0.048 A 
ATOM     35  C   UNL     1     -41.998  42.938  25.982  1.00  0.00    -0.036 A 
ATOM     36  H   UNL     1     -41.853  41.561  27.614  1.00  0.00     0.063 H 
ATOM     37  C   UNL     1     -44.014  42.727  24.613  1.00  0.00     0.020 A 
ATOM     38  H   UNL     1     -45.428  41.201  25.204  1.00  0.00     0.063 H 
ATOM     39  C   UNL     1     -42.788  43.312  24.894  1.00  0.00     0.065 A 
ATOM     40  H   UNL     1     -41.041  43.409  26.180  1.00  0.00     0.065 H 
ATOM     41  C   UNL     1     -44.471  43.404  23.460  1.00  0.00     0.057 A 
ATOM     42  N   UNL     1     -42.580  44.221  23.890  1.00  0.00    -0.278 N 
ATOM     43  N   UNL     1     -43.605  44.321  23.019  1.00  0.00    -0.183 NA
ATOM     44  H   UNL     1     -45.396  43.256  22.920  1.00  0.00     0.087 H 
ATOM     45  H   UNL     1     -41.747  44.775  23.727  1.00  0.00     0.190 HD
ENDBRANCH  29  32
ENDBRANCH  26  29
ENDBRANCH  15  26
BRANCH  16  46
ATOM     46  O   UNL     1     -46.726  37.281  30.393  1.00  0.00    -0.388 OA
ATOM     47  H   UNL     1     -46.328  36.401  30.555  1.00  0.00     0.211 HD
ENDBRANCH  16  46
ENDBRANCH   1  13
BRANCH   5  48
ATOM     48  N   UNL     1     -46.967  31.619  25.116  1.00  0.00    -0.369 N 
ATOM     49  H   UNL     1     -46.333  31.163  25.769  1.00  0.00     0.162 HD
BRANCH  48  50
ATOM     50  C   UNL     1     -47.846  30.674  24.426  1.00  0.00     0.020 C 
ATOM     51  H   UNL     1     -48.655  31.216  23.919  1.00  0.00     0.049 H 
ATOM     52  H   UNL     1     -48.298  29.981  25.147  1.00  0.00     0.049 H 
BRANCH  50  53
ATOM     53  C   UNL     1     -47.068  29.892  23.358  1.00  0.00    -0.010 C 
ATOM     54  H   UNL     1     -46.020  29.798  23.670  1.00  0.00     0.033 H 
ATOM     55  H   UNL     1     -47.459  28.869  23.291  1.00  0.00     0.033 H 
BRANCH  53  56
ATOM     56  C   UNL     1     -47.101  30.542  21.992  1.00  0.00    -0.046 A 
ATOM     57  C   UNL     1     -48.284  30.551  21.240  1.00  0.00    -0.059 A 
ATOM     58  C   UNL     1     -45.957  31.159  21.468  1.00  0.00    -0.059 A 
ATOM     59  C   UNL     1     -48.321  31.168  19.989  1.00  0.00    -0.062 A 
ATOM     60  H   UNL     1     -49.185  30.079  21.626  1.00  0.00     0.063 H 
ATOM     61  C   UNL     1     -45.998  31.776  20.216  1.00  0.00    -0.062 A 
ATOM     62  H   UNL     1     -45.026  31.164  22.030  1.00  0.00     0.063 H 
ATOM     63  C   UNL     1     -47.180  31.781  19.478  1.00  0.00    -0.062 A 
ATOM     64  H   UNL     1     -49.243  31.170  19.411  1.00  0.00     0.062 H 
ATOM     65  H   UNL     1     -45.106  32.252  19.817  1.00  0.00     0.062 H 
ATOM     66  H   UNL     1     -47.209  32.260  18.502  1.00  0.00     0.062 H 
ENDBRANCH  53  56
ENDBRANCH  50  53
ENDBRANCH  48  50
ENDBRANCH   5  48
TORSDOF 10
ENDMDL
MODEL 4
REMARK VINA RESULT:      -9.3      2.937     11.160
REMARK SMILES O[C@@H]1[C@@H](CCc2ccc3[nH]ncc3c2)C[C@@H](n2ccc3c(NCCc4ccccc4)ncnc32)[C@@H]1O
REMARK SMILES IDX 17 1 18 2 19 3 20 4 21 5 31 6 32 7 33 8 34 9 16 13 2 14 3 15
REMARK SMILES IDX 35 16 15 18 1 24 4 26 5 29 6 32 7 33 14 34 8 35 13 37 9 39
REMARK SMILES IDX 12 41 10 42 11 43 36 46 22 48 23 50 24 53 25 56 26 57 30 58
REMARK SMILES IDX 27 59 29 61 28 63
REMARK H PARENT 18 10 19 11 32 12 2 17 3 19 35 20 15 21 15 22 16 23 1 25 4 27
REMARK H PARENT 4 28 5 30 5 31 7 36 14 38 8 40 12 44 10 45 36 47 22 49 23 51
REMARK H PARENT 23 52 24 54 24 55 26 60 30 62 27 64 29 65 28 66
REMARK Flexibility Score: inf
ROOT
ATOM      1  N   UNL     1     -45.115  39.266  27.733  1.00  0.00    -0.327 N 
ATOM      2  C   UNL     1     -44.008  39.750  27.078  1.00  0.00     0.007 A 
ATOM      3  C   UNL     1     -44.371  40.897  26.404  1.00  0.00    -0.031 A 
ATOM      4  C   UNL     1     -45.765  41.092  26.599  1.00  0.00     0.061 A 
ATOM      5  C   UNL     1     -46.720  42.047  26.202  1.00  0.00     0.138 A 
ATOM      6  N   UNL     1     -47.998  41.876  26.614  1.00  0.00    -0.219 NA
ATOM      7  C   UNL     1     -48.298  40.791  27.357  1.00  0.00     0.120 A 
ATOM      8  N   UNL     1     -47.476  39.819  27.776  1.00  0.00    -0.218 NA
ATOM      9  C   UNL     1     -46.208  40.037  27.385  1.00  0.00     0.145 A 
ATOM     10  H   UNL     1     -43.046  39.260  27.130  1.00  0.00     0.082 H 
ATOM     11  H   UNL     1     -43.706  41.519  25.820  1.00  0.00     0.065 H 
ATOM     12  H   UNL     1     -49.337  40.702  27.662  1.00  0.00     0.106 H 
ENDROOT
BRANCH   1  13
ATOM     13  C   UNL     1     -45.193  38.112  28.628  1.00  0.00     0.064 C 
ATOM     14  C   UNL     1     -46.748  36.451  29.509  1.00  0.00     0.085 C 
ATOM     15  C   UNL     1     -46.341  35.959  28.117  1.00  0.00    -0.010 C 
ATOM     16  C   UNL     1     -46.500  37.964  29.443  1.00  0.00     0.101 C 
ATOM     17  H   UNL     1     -47.779  36.215  29.788  1.00  0.00     0.063 H 
ATOM     18  C   UNL     1     -45.053  36.763  27.877  1.00  0.00    -0.024 C 
ATOM     19  H   UNL     1     -46.106  34.889  28.136  1.00  0.00     0.033 H 
ATOM     20  H   UNL     1     -47.357  38.437  28.957  1.00  0.00     0.065 H 
ATOM     21  H   UNL     1     -44.213  36.214  28.324  1.00  0.00     0.029 H 
ATOM     22  H   UNL     1     -44.811  36.871  26.823  1.00  0.00     0.029 H 
ATOM     23  H   UNL     1     -44.343  38.239  29.313  1.00  0.00     0.056 H 
BRANCH  14  24
ATOM     24  O   UNL     1     -45.887  35.895  30.510  1.00  0.00    -0.390 OA
ATOM     25  H   UNL     1     -44.970  36.055  30.222  1.00  0.00     0.211 HD
ENDBRANCH  14  24
BRANCH  15  26
ATOM     26  C   UNL     1     -47.465  36.212  27.086  1.00  0.00    -0.044 C 
ATOM     27  H   UNL     1     -48.026  37.093  27.425  1.00  0.00     0.027 H 
ATOM     28  H   UNL     1     -47.046  36.480  26.110  1.00  0.00     0.027 H 
BRANCH  26  29
ATOM     29  C   UNL     1     -48.493  35.074  26.933  1.00  0.00    -0.027 C 
ATOM     30  H   UNL     1     -49.395  35.478  26.454  1.00  0.00     0.032 H 
ATOM     31  H   UNL     1     -48.809  34.732  27.926  1.00  0.00     0.032 H 
BRANCH  29  32
ATOM     32  C   UNL     1     -48.026  33.909  26.095  1.00  0.00    -0.047 A 
ATOM     33  C   UNL     1     -46.788  33.961  25.435  1.00  0.00    -0.057 A 
ATOM     34  C   UNL     1     -48.817  32.748  26.001  1.00  0.00    -0.048 A 
ATOM     35  C   UNL     1     -46.278  32.861  24.738  1.00  0.00    -0.036 A 
ATOM     36  H   UNL     1     -46.180  34.863  25.487  1.00  0.00     0.063 H 
ATOM     37  C   UNL     1     -48.311  31.629  25.316  1.00  0.00     0.020 A 
ATOM     38  H   UNL     1     -49.783  32.689  26.492  1.00  0.00     0.063 H 
ATOM     39  C   UNL     1     -47.060  31.705  24.722  1.00  0.00     0.065 A 
ATOM     40  H   UNL     1     -45.301  32.895  24.268  1.00  0.00     0.065 H 
ATOM     41  C   UNL     1     -48.747  30.311  25.051  1.00  0.00     0.057 A 
ATOM     42  N   UNL     1     -46.820  30.454  24.216  1.00  0.00    -0.278 N 
ATOM     43  N   UNL     1     -47.847  29.592  24.373  1.00  0.00    -0.183 NA
ATOM     44  H   UNL     1     -49.681  29.846  25.334  1.00  0.00     0.087 H 
ATOM     45  H   UNL     1     -45.966  30.120  23.784  1.00  0.00     0.190 HD
ENDBRANCH  29  32
ENDBRANCH  26  29
ENDBRANCH  15  26
BRANCH  16  46
ATOM     46  O   UNL     1     -46.382  38.508  30.755  1.00  0.00    -0.388 OA
ATOM     47  H   UNL     1     -46.939  39.313  30.750  1.00  0.00     0.211 HD
ENDBRANCH  16  46
ENDBRANCH   1  13
BRANCH   5  48
ATOM     48  N   UNL     1     -46.370  43.173  25.446  1.00  0.00    -0.369 N 
ATOM     49  H   UNL     1     -47.090  43.359  24.751  1.00  0.00     0.162 HD
BRANCH  48  50
ATOM     50  C   UNL     1     -46.035  44.353  26.244  1.00  0.00     0.020 C 
ATOM     51  H   UNL     1     -46.364  44.211  27.282  1.00  0.00     0.049 H 
ATOM     52  H   UNL     1     -46.543  45.239  25.844  1.00  0.00     0.049 H 
BRANCH  50  53
ATOM     53  C   UNL     1     -44.516  44.579  26.264  1.00  0.00    -0.010 C 
ATOM     54  H   UNL     1     -44.298  45.530  26.766  1.00  0.00     0.033 H 
ATOM     55  H   UNL     1     -44.034  43.799  26.867  1.00  0.00     0.033 H 
BRANCH  53  56
ATOM     56  C   UNL     1     -43.894  44.616  24.885  1.00  0.00    -0.046 A 
ATOM     57  C   UNL     1     -42.861  43.729  24.550  1.00  0.00    -0.059 A 
ATOM     58  C   UNL     1     -44.354  45.521  23.919  1.00  0.00    -0.059 A 
ATOM     59  C   UNL     1     -42.301  43.748  23.272  1.00  0.00    -0.062 A 
ATOM     60  H   UNL     1     -42.487  43.017  25.283  1.00  0.00     0.063 H 
ATOM     61  C   UNL     1     -43.792  45.537  22.642  1.00  0.00    -0.062 A 
ATOM     62  H   UNL     1     -45.153  46.221  24.154  1.00  0.00     0.063 H 
ATOM     63  C   UNL     1     -42.767  44.650  22.318  1.00  0.00    -0.062 A 
ATOM     64  H   UNL     1     -41.499  43.058  23.021  1.00  0.00     0.062 H 
ATOM     65  H   UNL     1     -44.154  46.243  21.898  1.00  0.00     0.062 H 
ATOM     66  H   UNL     1     -42.329  44.665  21.323  1.00  0.00     0.062 H 
ENDBRANCH  53  56
ENDBRANCH  50  53
ENDBRANCH  48  50
ENDBRANCH   5  48
TORSDOF 10
ENDMDL
MODEL 5
REMARK VINA RESULT:      -9.3      2.596     11.250
REMARK SMILES O[C@@H]1[C@@H](CCc2ccc3[nH]ncc3c2)C[C@@H](n2ccc3c(NCCc4ccccc4)ncnc32)[C@@H]1O
REMARK SMILES IDX 17 1 18 2 19 3 20 4 21 5 31 6 32 7 33 8 34 9 16 13 2 14 3 15
REMARK SMILES IDX 35 16 15 18 1 24 4 26 5 29 6 32 7 33 14 34 8 35 13 37 9 39
REMARK SMILES IDX 12 41 10 42 11 43 36 46 22 48 23 50 24 53 25 56 26 57 30 58
REMARK SMILES IDX 27 59 29 61 28 63
REMARK H PARENT 18 10 19 11 32 12 2 17 3 19 35 20 15 21 15 22 16 23 1 25 4 27
REMARK H PARENT 4 28 5 30 5 31 7 36 14 38 8 40 12 44 10 45 36 47 22 49 23 51
REMARK H PARENT 23 52 24 54 24 55 26 60 30 62 27 64 29 65 28 66
REMARK Flexibility Score: inf
ROOT
ATOM      1  N   UNL     1     -45.907  38.453  28.923  1.00  0.00    -0.327 N 
ATOM      2  C   UNL     1     -44.760  38.247  29.651  1.00  0.00     0.007 A 
ATOM      3  C   UNL     1     -43.816  39.164  29.238  1.00  0.00    -0.031 A 
ATOM      4  C   UNL     1     -44.380  39.920  28.176  1.00  0.00     0.061 A 
ATOM      5  C   UNL     1     -43.960  40.981  27.352  1.00  0.00     0.138 A 
ATOM      6  N   UNL     1     -44.827  41.445  26.422  1.00  0.00    -0.219 NA
ATOM      7  C   UNL     1     -46.034  40.853  26.312  1.00  0.00     0.120 A 
ATOM      8  N   UNL     1     -46.528  39.834  27.029  1.00  0.00    -0.218 NA
ATOM      9  C   UNL     1     -45.659  39.422  27.970  1.00  0.00     0.145 A 
ATOM     10  H   UNL     1     -44.685  37.477  30.406  1.00  0.00     0.082 H 
ATOM     11  H   UNL     1     -42.820  39.267  29.649  1.00  0.00     0.065 H 
ATOM     12  H   UNL     1     -46.692  41.264  25.551  1.00  0.00     0.106 H 
ENDROOT
BRANCH   1  13
ATOM     13  C   UNL     1     -47.192  37.767  29.063  1.00  0.00     0.064 C 
ATOM     14  C   UNL     1     -49.017  36.799  27.765  1.00  0.00     0.085 C 
ATOM     15  C   UNL     1     -47.901  35.749  27.781  1.00  0.00    -0.010 C 
ATOM     16  C   UNL     1     -48.274  38.119  28.014  1.00  0.00     0.101 C 
ATOM     17  H   UNL     1     -49.599  36.824  26.839  1.00  0.00     0.063 H 
ATOM     18  C   UNL     1     -47.058  36.225  28.976  1.00  0.00    -0.024 C 
ATOM     19  H   UNL     1     -48.307  34.754  27.994  1.00  0.00     0.033 H 
ATOM     20  H   UNL     1     -47.850  38.464  27.068  1.00  0.00     0.065 H 
ATOM     21  H   UNL     1     -47.484  35.797  29.893  1.00  0.00     0.029 H 
ATOM     22  H   UNL     1     -46.029  35.876  28.933  1.00  0.00     0.029 H 
ATOM     23  H   UNL     1     -47.544  38.047  30.066  1.00  0.00     0.056 H 
BRANCH  14  24
ATOM     24  O   UNL     1     -49.928  36.581  28.849  1.00  0.00    -0.390 OA
ATOM     25  H   UNL     1     -50.229  35.656  28.791  1.00  0.00     0.211 HD
ENDBRANCH  14  24
BRANCH  15  26
ATOM     26  C   UNL     1     -47.150  35.713  26.431  1.00  0.00    -0.044 C 
ATOM     27  H   UNL     1     -47.909  35.662  25.638  1.00  0.00     0.027 H 
ATOM     28  H   UNL     1     -46.602  36.645  26.264  1.00  0.00     0.027 H 
BRANCH  26  29
ATOM     29  C   UNL     1     -46.221  34.501  26.222  1.00  0.00    -0.027 C 
ATOM     30  H   UNL     1     -45.855  34.167  27.203  1.00  0.00     0.032 H 
ATOM     31  H   UNL     1     -45.332  34.814  25.662  1.00  0.00     0.032 H 
BRANCH  29  32
ATOM     32  C   UNL     1     -46.873  33.311  25.561  1.00  0.00    -0.047 A 
ATOM     33  C   UNL     1     -48.227  33.024  25.795  1.00  0.00    -0.057 A 
ATOM     34  C   UNL     1     -46.132  32.503  24.677  1.00  0.00    -0.048 A 
ATOM     35  C   UNL     1     -48.889  31.994  25.118  1.00  0.00    -0.036 A 
ATOM     36  H   UNL     1     -48.801  33.632  26.493  1.00  0.00     0.063 H 
ATOM     37  C   UNL     1     -46.787  31.474  23.978  1.00  0.00     0.020 A 
ATOM     38  H   UNL     1     -45.081  32.699  24.490  1.00  0.00     0.063 H 
ATOM     39  C   UNL     1     -48.140  31.258  24.199  1.00  0.00     0.065 A 
ATOM     40  H   UNL     1     -49.946  31.807  25.272  1.00  0.00     0.065 H 
ATOM     41  C   UNL     1     -46.433  30.516  23.002  1.00  0.00     0.057 A 
ATOM     42  N   UNL     1     -48.496  30.262  23.327  1.00  0.00    -0.278 N 
ATOM     43  N   UNL     1     -47.468  29.768  22.608  1.00  0.00    -0.183 NA
ATOM     44  H   UNL     1     -45.462  30.342  22.558  1.00  0.00     0.087 H 
ATOM     45  H   UNL     1     -49.428  29.902  23.155  1.00  0.00     0.190 HD
ENDBRANCH  29  32
ENDBRANCH  26  29
ENDBRANCH  15  26
BRANCH  16  46
ATOM     46  O   UNL     1     -49.176  39.117  28.484  1.00  0.00    -0.388 OA
ATOM     47  H   UNL     1     -49.198  39.005  29.457  1.00  0.00     0.211 HD
ENDBRANCH  16  46
ENDBRANCH   1  13
BRANCH   5  48
ATOM     48  N   UNL     1     -42.706  41.586  27.507  1.00  0.00    -0.369 N 
ATOM     49  H   UNL     1     -41.982  40.979  27.128  1.00  0.00     0.162 HD
BRANCH  48  50
ATOM     50  C   UNL     1     -42.629  42.952  26.990  1.00  0.00     0.020 C 
ATOM     51  H   UNL     1     -42.141  43.605  27.725  1.00  0.00     0.049 H 
ATOM     52  H   UNL     1     -43.636  43.343  26.800  1.00  0.00     0.049 H 
BRANCH  50  53
ATOM     53  C   UNL     1     -41.793  42.996  25.702  1.00  0.00    -0.010 C 
ATOM     54  H   UNL     1     -40.820  43.456  25.917  1.00  0.00     0.033 H 
ATOM     55  H   UNL     1     -41.580  41.974  25.365  1.00  0.00     0.033 H 
BRANCH  53  56
ATOM     56  C   UNL     1     -42.450  43.775  24.583  1.00  0.00    -0.046 A 
ATOM     57  C   UNL     1     -43.528  44.630  24.852  1.00  0.00    -0.059 A 
ATOM     58  C   UNL     1     -41.979  43.668  23.267  1.00  0.00    -0.059 A 
ATOM     59  C   UNL     1     -44.121  45.365  23.825  1.00  0.00    -0.062 A 
ATOM     60  H   UNL     1     -43.911  44.730  25.866  1.00  0.00     0.063 H 
ATOM     61  C   UNL     1     -42.574  44.405  22.242  1.00  0.00    -0.062 A 
ATOM     62  H   UNL     1     -41.146  43.011  23.032  1.00  0.00     0.063 H 
ATOM     63  C   UNL     1     -43.644  45.253  22.521  1.00  0.00    -0.062 A 
ATOM     64  H   UNL     1     -44.958  46.024  24.042  1.00  0.00     0.062 H 
ATOM     65  H   UNL     1     -42.203  44.315  21.224  1.00  0.00     0.062 H 
ATOM     66  H   UNL     1     -44.108  45.825  21.721  1.00  0.00     0.062 H 
ENDBRANCH  53  56
ENDBRANCH  50  53
ENDBRANCH  48  50
ENDBRANCH   5  48
TORSDOF 10
ENDMDL
MODEL 6
REMARK VINA RESULT:      -9.3      1.446      2.111
REMARK SMILES O[C@@H]1[C@@H](CCc2ccc3[nH]ncc3c2)C[C@@H](n2ccc3c(NCCc4ccccc4)ncnc32)[C@@H]1O
REMARK SMILES IDX 17 1 18 2 19 3 20 4 21 5 31 6 32 7 33 8 34 9 16 13 2 14 3 15
REMARK SMILES IDX 35 16 15 18 1 24 4 26 5 29 6 32 7 33 14 34 8 35 13 37 9 39
REMARK SMILES IDX 12 41 10 42 11 43 36 46 22 48 23 50 24 53 25 56 26 57 30 58
REMARK SMILES IDX 27 59 29 61 28 63
REMARK H PARENT 18 10 19 11 32 12 2 17 3 19 35 20 15 21 15 22 16 23 1 25 4 27
REMARK H PARENT 4 28 5 30 5 31 7 36 14 38 8 40 12 44 10 45 36 47 22 49 23 51
REMARK H PARENT 23 52 24 54 24 55 26 60 30 62 27 64 29 65 28 66
REMARK Flexibility Score: inf
ROOT
ATOM      1  N   UNL     1     -47.207  33.928  26.400  1.00  0.00    -0.327 N 
ATOM      2  C   UNL     1     -45.961  33.809  25.833  1.00  0.00     0.007 A 
ATOM      3  C   UNL     1     -46.059  32.966  24.746  1.00  0.00    -0.031 A 
ATOM      4  C   UNL     1     -47.399  32.499  24.679  1.00  0.00     0.061 A 
ATOM      5  C   UNL     1     -48.135  31.650  23.831  1.00  0.00     0.138 A 
ATOM      6  N   UNL     1     -49.445  31.453  24.110  1.00  0.00    -0.219 NA
ATOM      7  C   UNL     1     -49.971  32.055  25.196  1.00  0.00     0.120 A 
ATOM      8  N   UNL     1     -49.362  32.866  26.073  1.00  0.00    -0.218 NA
ATOM      9  C   UNL     1     -48.074  33.073  25.747  1.00  0.00     0.145 A 
ATOM     10  H   UNL     1     -45.095  34.323  26.227  1.00  0.00     0.082 H 
ATOM     11  H   UNL     1     -45.247  32.702  24.081  1.00  0.00     0.065 H 
ATOM     12  H   UNL     1     -51.026  31.866  25.375  1.00  0.00     0.106 H 
ENDROOT
BRANCH   1  13
ATOM     13  C   UNL     1     -47.601  34.770  27.529  1.00  0.00     0.064 C 
ATOM     14  C   UNL     1     -46.896  36.707  28.834  1.00  0.00     0.085 C 
ATOM     15  C   UNL     1     -47.547  37.263  27.563  1.00  0.00    -0.010 C 
ATOM     16  C   UNL     1     -46.455  35.295  28.425  1.00  0.00     0.101 C 
ATOM     17  H   UNL     1     -46.062  37.306  29.212  1.00  0.00     0.063 H 
ATOM     18  C   UNL     1     -48.359  36.048  27.085  1.00  0.00    -0.024 C 
ATOM     19  H   UNL     1     -48.229  38.086  27.804  1.00  0.00     0.033 H 
ATOM     20  H   UNL     1     -45.502  35.367  27.894  1.00  0.00     0.065 H 
ATOM     21  H   UNL     1     -49.331  36.058  27.596  1.00  0.00     0.029 H 
ATOM     22  H   UNL     1     -48.580  36.079  26.021  1.00  0.00     0.029 H 
ATOM     23  H   UNL     1     -48.273  34.135  28.123  1.00  0.00     0.056 H 
BRANCH  14  24
ATOM     24  O   UNL     1     -47.863  36.592  29.885  1.00  0.00    -0.390 OA
ATOM     25  H   UNL     1     -47.462  36.048  30.587  1.00  0.00     0.211 HD
ENDBRANCH  14  24
BRANCH  15  26
ATOM     26  C   UNL     1     -46.480  37.763  26.564  1.00  0.00    -0.044 C 
ATOM     27  H   UNL     1     -46.134  36.891  25.993  1.00  0.00     0.027 H 
ATOM     28  H   UNL     1     -46.921  38.447  25.831  1.00  0.00     0.027 H 
BRANCH  26  29
ATOM     29  C   UNL     1     -45.224  38.395  27.196  1.00  0.00    -0.027 C 
ATOM     30  H   UNL     1     -44.335  37.901  26.780  1.00  0.00     0.032 H 
ATOM     31  H   UNL     1     -45.210  38.182  28.271  1.00  0.00     0.032 H 
BRANCH  29  32
ATOM     32  C   UNL     1     -45.068  39.876  26.947  1.00  0.00    -0.047 A 
ATOM     33  C   UNL     1     -43.803  40.478  27.031  1.00  0.00    -0.057 A 
ATOM     34  C   UNL     1     -46.188  40.653  26.594  1.00  0.00    -0.048 A 
ATOM     35  C   UNL     1     -43.606  41.824  26.704  1.00  0.00    -0.036 A 
ATOM     36  H   UNL     1     -42.935  39.888  27.323  1.00  0.00     0.063 H 
ATOM     37  C   UNL     1     -46.003  42.003  26.248  1.00  0.00     0.020 A 
ATOM     38  H   UNL     1     -47.178  40.211  26.535  1.00  0.00     0.063 H 
ATOM     39  C   UNL     1     -44.727  42.546  26.294  1.00  0.00     0.065 A 
ATOM     40  H   UNL     1     -42.617  42.271  26.729  1.00  0.00     0.065 H 
ATOM     41  C   UNL     1     -46.822  43.065  25.804  1.00  0.00     0.057 A 
ATOM     42  N   UNL     1     -44.862  43.830  25.831  1.00  0.00    -0.278 N 
ATOM     43  N   UNL     1     -46.134  44.183  25.556  1.00  0.00    -0.183 NA
ATOM     44  H   UNL     1     -47.891  43.062  25.641  1.00  0.00     0.087 H 
ATOM     45  H   UNL     1     -44.120  44.498  25.651  1.00  0.00     0.190 HD
ENDBRANCH  29  32
ENDBRANCH  26  29
ENDBRANCH  15  26
BRANCH  16  46
ATOM     46  O   UNL     1     -46.256  34.482  29.578  1.00  0.00    -0.388 OA
ATOM     47  H   UNL     1     -46.640  33.611  29.347  1.00  0.00     0.211 HD
ENDBRANCH  16  46
ENDBRANCH   1  13
BRANCH   5  48
ATOM     48  N   UNL     1     -47.561  31.056  22.700  1.00  0.00    -0.369 N 
ATOM     49  H   UNL     1     -46.936  31.716  22.244  1.00  0.00     0.162 HD
BRANCH  48  50
ATOM     50  C   UNL     1     -46.929  29.761  22.955  1.00  0.00     0.020 C 
ATOM     51  H   UNL     1     -46.458  29.762  23.947  1.00  0.00     0.049 H 
ATOM     52  H   UNL     1     -46.151  29.565  22.208  1.00  0.00     0.049 H 
BRANCH  50  53
ATOM     53  C   UNL     1     -47.975  28.636  22.937  1.00  0.00    -0.010 C 
ATOM     54  H   UNL     1     -48.972  29.066  23.096  1.00  0.00     0.033 H 
ATOM     55  H   UNL     1     -47.999  28.171  21.943  1.00  0.00     0.033 H 
BRANCH  53  56
ATOM     56  C   UNL     1     -47.739  27.577  23.991  1.00  0.00    -0.046 A 
ATOM     57  C   UNL     1     -46.437  27.151  24.291  1.00  0.00    -0.059 A 
ATOM     58  C   UNL     1     -48.816  27.020  24.695  1.00  0.00    -0.059 A 
ATOM     59  C   UNL     1     -46.218  26.190  25.278  1.00  0.00    -0.062 A 
ATOM     60  H   UNL     1     -45.586  27.569  23.757  1.00  0.00     0.063 H 
ATOM     61  C   UNL     1     -48.593  26.059  25.682  1.00  0.00    -0.062 A 
ATOM     62  H   UNL     1     -49.835  27.331  24.481  1.00  0.00     0.063 H 
ATOM     63  C   UNL     1     -47.294  25.645  25.974  1.00  0.00    -0.062 A 
ATOM     64  H   UNL     1     -45.205  25.865  25.503  1.00  0.00     0.062 H 
ATOM     65  H   UNL     1     -49.433  25.632  26.224  1.00  0.00     0.062 H 
ATOM     66  H   UNL     1     -47.122  24.894  26.742  1.00  0.00     0.062 H 
ENDBRANCH  53  56
ENDBRANCH  50  53
ENDBRANCH  48  50
ENDBRANCH   5  48
TORSDOF 10
ENDMDL
MODEL 7
REMARK VINA RESULT:      -9.2      1.979      2.841
REMARK SMILES O[C@@H]1[C@@H](CCc2ccc3[nH]ncc3c2)C[C@@H](n2ccc3c(NCCc4ccccc4)ncnc32)[C@@H]1O
REMARK SMILES IDX 17 1 18 2 19 3 20 4 21 5 31 6 32 7 33 8 34 9 16 13 2 14 3 15
REMARK SMILES IDX 35 16 15 18 1 24 4 26 5 29 6 32 7 33 14 34 8 35 13 37 9 39
REMARK SMILES IDX 12 41 10 42 11 43 36 46 22 48 23 50 24 53 25 56 26 57 30 58
REMARK SMILES IDX 27 59 29 61 28 63
REMARK H PARENT 18 10 19 11 32 12 2 17 3 19 35 20 15 21 15 22 16 23 1 25 4 27
REMARK H PARENT 4 28 5 30 5 31 7 36 14 38 8 40 12 44 10 45 36 47 22 49 23 51
REMARK H PARENT 23 52 24 54 24 55 26 60 30 62 27 64 29 65 28 66
REMARK Flexibility Score: inf
ROOT
ATOM      1  N   UNL     1     -47.187  35.901  27.284  1.00  0.00    -0.327 N 
ATOM      2  C   UNL     1     -45.949  35.395  26.966  1.00  0.00     0.007 A 
ATOM      3  C   UNL     1     -46.129  34.213  26.280  1.00  0.00    -0.031 A 
ATOM      4  C   UNL     1     -47.523  33.948  26.229  1.00  0.00     0.061 A 
ATOM      5  C   UNL     1     -48.345  32.943  25.685  1.00  0.00     0.138 A 
ATOM      6  N   UNL     1     -49.684  33.058  25.851  1.00  0.00    -0.219 NA
ATOM      7  C   UNL     1     -50.160  34.108  26.551  1.00  0.00     0.120 A 
ATOM      8  N   UNL     1     -49.472  35.107  27.121  1.00  0.00    -0.218 NA
ATOM      9  C   UNL     1     -48.150  34.987  26.904  1.00  0.00     0.145 A 
ATOM     10  H   UNL     1     -45.031  35.898  27.239  1.00  0.00     0.082 H 
ATOM     11  H   UNL     1     -45.337  33.596  25.874  1.00  0.00     0.065 H 
ATOM     12  H   UNL     1     -51.241  34.154  26.654  1.00  0.00     0.106 H 
ENDROOT
BRANCH   1  13
ATOM     13  C   UNL     1     -47.493  37.169  27.947  1.00  0.00     0.064 C 
ATOM     14  C   UNL     1     -46.458  39.217  28.774  1.00  0.00     0.085 C 
ATOM     15  C   UNL     1     -46.630  39.406  27.263  1.00  0.00    -0.010 C 
ATOM     16  C   UNL     1     -46.435  37.692  28.946  1.00  0.00     0.101 C 
ATOM     17  H   UNL     1     -45.564  39.692  29.188  1.00  0.00     0.063 H 
ATOM     18  C   UNL     1     -47.688  38.336  26.945  1.00  0.00    -0.024 C 
ATOM     19  H   UNL     1     -47.037  40.398  27.039  1.00  0.00     0.033 H 
ATOM     20  H   UNL     1     -45.428  37.332  28.724  1.00  0.00     0.065 H 
ATOM     21  H   UNL     1     -48.682  38.768  27.119  1.00  0.00     0.029 H 
ATOM     22  H   UNL     1     -47.675  38.025  25.903  1.00  0.00     0.029 H 
ATOM     23  H   UNL     1     -48.438  36.979  28.475  1.00  0.00     0.056 H 
BRANCH  14  24
ATOM     24  O   UNL     1     -47.593  39.735  29.477  1.00  0.00    -0.390 OA
ATOM     25  H   UNL     1     -47.294  40.522  29.968  1.00  0.00     0.211 HD
ENDBRANCH  14  24
BRANCH  15  26
ATOM     26  C   UNL     1     -45.285  39.229  26.522  1.00  0.00    -0.044 C 
ATOM     27  H   UNL     1     -45.025  38.163  26.570  1.00  0.00     0.027 H 
ATOM     28  H   UNL     1     -45.392  39.466  25.459  1.00  0.00     0.027 H 
BRANCH  26  29
ATOM     29  C   UNL     1     -44.092  39.996  27.124  1.00  0.00    -0.027 C 
ATOM     30  H   UNL     1     -43.218  39.330  27.139  1.00  0.00     0.032 H 
ATOM     31  H   UNL     1     -44.303  40.235  28.174  1.00  0.00     0.032 H 
BRANCH  29  32
ATOM     32  C   UNL     1     -43.692  41.238  26.367  1.00  0.00    -0.047 A 
ATOM     33  C   UNL     1     -42.507  41.917  26.694  1.00  0.00    -0.057 A 
ATOM     34  C   UNL     1     -44.490  41.703  25.303  1.00  0.00    -0.048 A 
ATOM     35  C   UNL     1     -42.053  43.008  25.946  1.00  0.00    -0.036 A 
ATOM     36  H   UNL     1     -41.895  41.576  27.528  1.00  0.00     0.063 H 
ATOM     37  C   UNL     1     -44.038  42.789  24.533  1.00  0.00     0.020 A 
ATOM     38  H   UNL     1     -45.416  41.201  25.041  1.00  0.00     0.063 H 
ATOM     39  C   UNL     1     -42.835  43.398  24.858  1.00  0.00     0.065 A 
ATOM     40  H   UNL     1     -41.114  43.499  26.179  1.00  0.00     0.065 H 
ATOM     41  C   UNL     1     -44.495  43.495  23.398  1.00  0.00     0.057 A 
ATOM     42  N   UNL     1     -42.637  44.350  23.892  1.00  0.00    -0.278 N 
ATOM     43  N   UNL     1     -43.649  44.453  23.006  1.00  0.00    -0.183 NA
ATOM     44  H   UNL     1     -45.406  43.340  22.835  1.00  0.00     0.087 H 
ATOM     45  H   UNL     1     -41.818  44.934  23.765  1.00  0.00     0.190 HD
ENDBRANCH  29  32
ENDBRANCH  26  29
ENDBRANCH  15  26
BRANCH  16  46
ATOM     46  O   UNL     1     -46.742  37.339  30.292  1.00  0.00    -0.388 OA
ATOM     47  H   UNL     1     -47.689  37.566  30.407  1.00  0.00     0.211 HD
ENDBRANCH  16  46
ENDBRANCH   1  13
BRANCH   5  48
ATOM     48  N   UNL     1     -47.818  31.876  24.947  1.00  0.00    -0.369 N 
ATOM     49  H   UNL     1     -46.804  31.866  25.032  1.00  0.00     0.162 HD
BRANCH  48  50
ATOM     50  C   UNL     1     -48.425  30.579  25.248  1.00  0.00     0.020 C 
ATOM     51  H   UNL     1     -49.519  30.672  25.271  1.00  0.00     0.049 H 
ATOM     52  H   UNL     1     -48.092  30.223  26.231  1.00  0.00     0.049 H 
BRANCH  50  53
ATOM     53  C   UNL     1     -48.068  29.550  24.165  1.00  0.00    -0.010 C 
ATOM     54  H   UNL     1     -48.917  29.436  23.479  1.00  0.00     0.033 H 
ATOM     55  H   UNL     1     -47.235  29.927  23.558  1.00  0.00     0.033 H 
BRANCH  53  56
ATOM     56  C   UNL     1     -47.719  28.187  24.720  1.00  0.00    -0.046 A 
ATOM     57  C   UNL     1     -48.549  27.573  25.669  1.00  0.00    -0.059 A 
ATOM     58  C   UNL     1     -46.573  27.510  24.281  1.00  0.00    -0.059 A 
ATOM     59  C   UNL     1     -48.239  26.307  26.166  1.00  0.00    -0.062 A 
ATOM     60  H   UNL     1     -49.445  28.079  26.025  1.00  0.00     0.063 H 
ATOM     61  C   UNL     1     -46.266  26.243  24.779  1.00  0.00    -0.062 A 
ATOM     62  H   UNL     1     -45.911  27.964  23.547  1.00  0.00     0.063 H 
ATOM     63  C   UNL     1     -47.100  25.641  25.721  1.00  0.00    -0.062 A 
ATOM     64  H   UNL     1     -48.888  25.839  26.902  1.00  0.00     0.062 H 
ATOM     65  H   UNL     1     -45.375  25.725  24.434  1.00  0.00     0.062 H 
ATOM     66  H   UNL     1     -46.858  24.655  26.109  1.00  0.00     0.062 H 
ENDBRANCH  53  56
ENDBRANCH  50  53
ENDBRANCH  48  50
ENDBRANCH   5  48
TORSDOF 10
ENDMDL
