MODEL 1
REMARK VINA RESULT:      -9.5      0.000      0.000
REMARK SMILES Cn1ccc(-c2cn([C@@H]3O[C@H](CCC4CCNCC4)[C@@H](O)[C@@H]3F)c3ncnc(N)c23)n1
REMARK SMILES IDX 9 1 10 2 11 3 20 4 22 5 23 6 8 11 6 12 7 13 30 14 24 16
REMARK SMILES IDX 28 17 25 18 27 19 26 20 5 22 2 23 3 24 31 25 4 26 1 29 29 33
REMARK SMILES IDX 12 36 13 39 14 42 15 43 19 44 16 46 18 49 17 52 21 58
REMARK H PARENT 9 7 11 8 20 9 22 10 7 15 26 21 3 27 4 28 1 30 1 31 1 32 29 34
REMARK H PARENT 29 35 12 37 12 38 13 40 13 41 14 45 15 47 15 48 19 50 19 51
REMARK H PARENT 16 53 16 54 18 55 18 56 17 57 21 59
REMARK Flexibility Score: inf
ROOT
ATOM      1  C   UNL     1     -44.999  37.836  28.956  1.00  0.00     0.169 C 
ATOM      2  O   UNL     1     -44.966  36.805  27.936  1.00  0.00    -0.349 OA
ATOM      3  C   UNL     1     -46.154  36.004  28.071  1.00  0.00     0.089 C 
ATOM      4  C   UNL     1     -46.782  36.371  29.421  1.00  0.00     0.116 C 
ATOM      5  C   UNL     1     -46.382  37.818  29.590  1.00  0.00     0.173 C 
ATOM      6  F   UNL     1     -47.264  38.589  28.894  1.00  0.00    -0.239 F 
ATOM      7  H   UNL     1     -44.225  37.563  29.684  1.00  0.00     0.088 H 
ATOM      8  H   UNL     1     -45.846  34.953  28.056  1.00  0.00     0.063 H 
ATOM      9  H   UNL     1     -47.866  36.223  29.440  1.00  0.00     0.066 H 
ATOM     10  H   UNL     1     -46.372  38.165  30.628  1.00  0.00     0.074 H 
ENDROOT
BRANCH   1  11
ATOM     11  N   UNL     1     -44.630  39.121  28.385  1.00  0.00    -0.302 N 
ATOM     12  C   UNL     1     -44.567  40.962  27.137  1.00  0.00     0.033 A 
ATOM     13  C   UNL     1     -45.202  39.748  27.310  1.00  0.00     0.019 A 
ATOM     14  C   UNL     1     -43.529  41.058  28.112  1.00  0.00     0.071 A 
ATOM     15  H   UNL     1     -46.021  39.301  26.762  1.00  0.00     0.083 H 
ATOM     16  C   UNL     1     -43.618  39.904  28.885  1.00  0.00     0.148 A 
ATOM     17  C   UNL     1     -42.501  41.950  28.456  1.00  0.00     0.137 A 
ATOM     18  N   UNL     1     -42.854  39.583  29.944  1.00  0.00    -0.218 NA
ATOM     19  N   UNL     1     -41.711  41.667  29.512  1.00  0.00    -0.219 NA
ATOM     20  C   UNL     1     -41.932  40.527  30.191  1.00  0.00     0.120 A 
ATOM     21  H   UNL     1     -41.279  40.346  31.038  1.00  0.00     0.106 H 
BRANCH  12  22
ATOM     22  C   UNL     1     -44.915  41.957  26.127  1.00  0.00     0.095 A 
ATOM     23  N   UNL     1     -45.875  43.573  25.166  1.00  0.00    -0.275 N 
ATOM     24  C   UNL     1     -44.870  43.220  24.315  1.00  0.00     0.025 A 
ATOM     25  N   UNL     1     -45.926  42.821  26.279  1.00  0.00    -0.173 NA
ATOM     26  C   UNL     1     -44.214  42.173  24.921  1.00  0.00    -0.016 A 
ATOM     27  H   UNL     1     -44.697  43.735  23.381  1.00  0.00     0.084 H 
ATOM     28  H   UNL     1     -43.346  41.647  24.550  1.00  0.00     0.066 H 
BRANCH  23  29
ATOM     29  C   UNL     1     -46.835  44.636  24.985  1.00  0.00     0.030 C 
ATOM     30  H   UNL     1     -46.393  45.391  24.331  1.00  0.00     0.048 H 
ATOM     31  H   UNL     1     -47.065  45.061  25.964  1.00  0.00     0.048 H 
ATOM     32  H   UNL     1     -47.743  44.232  24.530  1.00  0.00     0.048 H 
ENDBRANCH  23  29
ENDBRANCH  12  22
BRANCH  17  33
ATOM     33  N   UNL     1     -42.193  43.112  27.758  1.00  0.00    -0.383 N 
ATOM     34  H   UNL     1     -42.824  43.298  26.987  1.00  0.00     0.158 HD
ATOM     35  H   UNL     1     -41.207  43.117  27.521  1.00  0.00     0.158 HD
ENDBRANCH  17  33
ENDBRANCH   1  11
BRANCH   3  36
ATOM     36  C   UNL     1     -47.081  36.288  26.880  1.00  0.00    -0.024 C 
ATOM     37  H   UNL     1     -48.084  36.510  27.258  1.00  0.00     0.029 H 
ATOM     38  H   UNL     1     -46.730  37.168  26.329  1.00  0.00     0.029 H 
BRANCH  36  39
ATOM     39  C   UNL     1     -47.138  35.102  25.905  1.00  0.00    -0.048 C 
ATOM     40  H   UNL     1     -46.271  35.148  25.237  1.00  0.00     0.027 H 
ATOM     41  H   UNL     1     -48.024  35.209  25.267  1.00  0.00     0.027 H 
BRANCH  39  42
ATOM     42  C   UNL     1     -47.217  33.733  26.616  1.00  0.00    -0.039 C 
ATOM     43  C   UNL     1     -46.153  32.729  26.144  1.00  0.00    -0.038 C 
ATOM     44  C   UNL     1     -48.607  33.099  26.433  1.00  0.00    -0.038 C 
ATOM     45  H   UNL     1     -47.070  33.910  27.689  1.00  0.00     0.030 H 
ATOM     46  C   UNL     1     -46.438  32.190  24.741  1.00  0.00    -0.005 C 
ATOM     47  H   UNL     1     -46.135  31.885  26.847  1.00  0.00     0.028 H 
ATOM     48  H   UNL     1     -45.150  33.166  26.176  1.00  0.00     0.028 H 
ATOM     49  C   UNL     1     -48.818  32.547  25.022  1.00  0.00    -0.005 C 
ATOM     50  H   UNL     1     -48.719  32.279  27.155  1.00  0.00     0.028 H 
ATOM     51  H   UNL     1     -49.395  33.825  26.667  1.00  0.00     0.028 H 
ATOM     52  N   UNL     1     -47.770  31.594  24.656  1.00  0.00    -0.317 NA
ATOM     53  H   UNL     1     -46.327  32.981  23.991  1.00  0.00     0.043 H 
ATOM     54  H   UNL     1     -45.696  31.422  24.499  1.00  0.00     0.043 H 
ATOM     55  H   UNL     1     -48.861  33.360  24.289  1.00  0.00     0.043 H 
ATOM     56  H   UNL     1     -49.786  32.035  24.982  1.00  0.00     0.043 H 
ATOM     57  H   UNL     1     -47.934  31.259  23.708  1.00  0.00     0.122 HD
ENDBRANCH  39  42
ENDBRANCH  36  39
ENDBRANCH   3  36
BRANCH   4  58
ATOM     58  O   UNL     1     -46.209  35.596  30.479  1.00  0.00    -0.387 OA
ATOM     59  H   UNL     1     -46.801  34.843  30.652  1.00  0.00     0.211 HD
ENDBRANCH   4  58
TORSDOF 8
ENDMDL
MODEL 2
REMARK VINA RESULT:      -8.3      1.487      1.973
REMARK SMILES Cn1ccc(-c2cn([C@@H]3O[C@H](CCC4CCNCC4)[C@@H](O)[C@@H]3F)c3ncnc(N)c23)n1
REMARK SMILES IDX 9 1 10 2 11 3 20 4 22 5 23 6 8 11 6 12 7 13 30 14 24 16
REMARK SMILES IDX 28 17 25 18 27 19 26 20 5 22 2 23 3 24 31 25 4 26 1 29 29 33
REMARK SMILES IDX 12 36 13 39 14 42 15 43 19 44 16 46 18 49 17 52 21 58
REMARK H PARENT 9 7 11 8 20 9 22 10 7 15 26 21 3 27 4 28 1 30 1 31 1 32 29 34
REMARK H PARENT 29 35 12 37 12 38 13 40 13 41 14 45 15 47 15 48 19 50 19 51
REMARK H PARENT 16 53 16 54 18 55 18 56 17 57 21 59
REMARK Flexibility Score: inf
ROOT
ATOM      1  C   UNL     1     -46.843  38.295  28.624  1.00  0.00     0.169 C 
ATOM      2  O   UNL     1     -46.229  37.129  29.227  1.00  0.00    -0.349 OA
ATOM      3  C   UNL     1     -46.835  35.957  28.651  1.00  0.00     0.089 C 
ATOM      4  C   UNL     1     -48.081  36.431  27.895  1.00  0.00     0.116 C 
ATOM      5  C   UNL     1     -47.691  37.822  27.452  1.00  0.00     0.173 C 
ATOM      6  F   UNL     1     -46.955  37.716  26.310  1.00  0.00    -0.239 F 
ATOM      7  H   UNL     1     -47.465  38.747  29.407  1.00  0.00     0.088 H 
ATOM      8  H   UNL     1     -47.108  35.288  29.476  1.00  0.00     0.063 H 
ATOM      9  H   UNL     1     -48.347  35.777  27.060  1.00  0.00     0.066 H 
ATOM     10  H   UNL     1     -48.537  38.485  27.252  1.00  0.00     0.074 H 
ENDROOT
BRANCH   1  11
ATOM     11  N   UNL     1     -45.825  39.267  28.258  1.00  0.00    -0.302 N 
ATOM     12  C   UNL     1     -44.709  40.918  27.268  1.00  0.00     0.033 A 
ATOM     13  C   UNL     1     -45.866  40.165  27.226  1.00  0.00     0.019 A 
ATOM     14  C   UNL     1     -43.902  40.423  28.336  1.00  0.00     0.071 A 
ATOM     15  H   UNL     1     -46.712  40.219  26.553  1.00  0.00     0.083 H 
ATOM     16  C   UNL     1     -44.644  39.414  28.944  1.00  0.00     0.148 A 
ATOM     17  C   UNL     1     -42.632  40.667  28.884  1.00  0.00     0.137 A 
ATOM     18  N   UNL     1     -44.286  38.686  30.018  1.00  0.00    -0.218 NA
ATOM     19  N   UNL     1     -42.234  39.960  29.962  1.00  0.00    -0.219 NA
ATOM     20  C   UNL     1     -43.070  39.034  30.466  1.00  0.00     0.120 A 
ATOM     21  H   UNL     1     -42.711  38.498  31.338  1.00  0.00     0.106 H 
BRANCH  12  22
ATOM     22  C   UNL     1     -44.389  42.021  26.367  1.00  0.00     0.095 A 
ATOM     23  N   UNL     1     -44.096  43.126  24.592  1.00  0.00    -0.275 N 
ATOM     24  C   UNL     1     -43.906  44.033  25.593  1.00  0.00     0.025 A 
ATOM     25  N   UNL     1     -44.394  41.893  25.035  1.00  0.00    -0.173 NA
ATOM     26  C   UNL     1     -44.103  43.344  26.767  1.00  0.00    -0.016 A 
ATOM     27  H   UNL     1     -43.666  45.068  25.395  1.00  0.00     0.084 H 
ATOM     28  H   UNL     1     -44.058  43.742  27.771  1.00  0.00     0.066 H 
BRANCH  23  29
ATOM     29  C   UNL     1     -44.018  43.369  23.172  1.00  0.00     0.030 C 
ATOM     30  H   UNL     1     -43.030  43.060  22.824  1.00  0.00     0.048 H 
ATOM     31  H   UNL     1     -44.171  44.437  22.996  1.00  0.00     0.048 H 
ATOM     32  H   UNL     1     -44.792  42.792  22.661  1.00  0.00     0.048 H 
ENDBRANCH  23  29
ENDBRANCH  12  22
BRANCH  17  33
ATOM     33  N   UNL     1     -41.708  41.570  28.371  1.00  0.00    -0.383 N 
ATOM     34  H   UNL     1     -41.830  42.513  28.722  1.00  0.00     0.158 HD
ATOM     35  H   UNL     1     -41.673  41.486  27.362  1.00  0.00     0.158 HD
ENDBRANCH  17  33
ENDBRANCH   1  11
BRANCH   3  36
ATOM     36  C   UNL     1     -45.808  35.263  27.743  1.00  0.00    -0.024 C 
ATOM     37  H   UNL     1     -45.612  35.904  26.878  1.00  0.00     0.029 H 
ATOM     38  H   UNL     1     -44.862  35.126  28.279  1.00  0.00     0.029 H 
BRANCH  36  39
ATOM     39  C   UNL     1     -46.299  33.885  27.274  1.00  0.00    -0.048 C 
ATOM     40  H   UNL     1     -46.831  33.397  28.099  1.00  0.00     0.027 H 
ATOM     41  H   UNL     1     -45.429  33.255  27.052  1.00  0.00     0.027 H 
BRANCH  39  42
ATOM     42  C   UNL     1     -47.183  33.951  26.009  1.00  0.00    -0.039 C 
ATOM     43  C   UNL     1     -48.488  33.146  26.123  1.00  0.00    -0.038 C 
ATOM     44  C   UNL     1     -46.409  33.461  24.772  1.00  0.00    -0.038 C 
ATOM     45  H   UNL     1     -47.443  35.005  25.844  1.00  0.00     0.030 H 
ATOM     46  C   UNL     1     -48.250  31.636  26.065  1.00  0.00    -0.005 C 
ATOM     47  H   UNL     1     -49.145  33.430  25.289  1.00  0.00     0.028 H 
ATOM     48  H   UNL     1     -49.035  33.400  27.036  1.00  0.00     0.028 H 
ATOM     49  C   UNL     1     -46.236  31.942  24.754  1.00  0.00    -0.005 C 
ATOM     50  H   UNL     1     -46.955  33.767  23.870  1.00  0.00     0.028 H 
ATOM     51  H   UNL     1     -45.426  33.946  24.718  1.00  0.00     0.028 H 
ATOM     52  N   UNL     1     -47.523  31.254  24.856  1.00  0.00    -0.317 NA
ATOM     53  H   UNL     1     -47.713  31.293  26.956  1.00  0.00     0.043 H 
ATOM     54  H   UNL     1     -49.219  31.125  26.065  1.00  0.00     0.043 H 
ATOM     55  H   UNL     1     -45.569  31.617  25.561  1.00  0.00     0.043 H 
ATOM     56  H   UNL     1     -45.757  31.651  23.813  1.00  0.00     0.043 H 
ATOM     57  H   UNL     1     -47.368  30.246  24.856  1.00  0.00     0.122 HD
ENDBRANCH  39  42
ENDBRANCH  36  39
ENDBRANCH   3  36
BRANCH   4  58
ATOM     58  O   UNL     1     -49.210  36.514  28.771  1.00  0.00    -0.387 OA
ATOM     59  H   UNL     1     -48.929  36.203  29.650  1.00  0.00     0.211 HD
ENDBRANCH   4  58
TORSDOF 8
ENDMDL
MODEL 3
REMARK VINA RESULT:      -8.3      2.609      3.649
REMARK SMILES Cn1ccc(-c2cn([C@@H]3O[C@H](CCC4CCNCC4)[C@@H](O)[C@@H]3F)c3ncnc(N)c23)n1
REMARK SMILES IDX 9 1 10 2 11 3 20 4 22 5 23 6 8 11 6 12 7 13 30 14 24 16
REMARK SMILES IDX 28 17 25 18 27 19 26 20 5 22 2 23 3 24 31 25 4 26 1 29 29 33
REMARK SMILES IDX 12 36 13 39 14 42 15 43 19 44 16 46 18 49 17 52 21 58
REMARK H PARENT 9 7 11 8 20 9 22 10 7 15 26 21 3 27 4 28 1 30 1 31 1 32 29 34
REMARK H PARENT 29 35 12 37 12 38 13 40 13 41 14 45 15 47 15 48 19 50 19 51
REMARK H PARENT 16 53 16 54 18 55 18 56 17 57 21 59
REMARK Flexibility Score: inf
ROOT
ATOM      1  C   UNL     1     -45.221  37.765  28.348  1.00  0.00     0.169 C 
ATOM      2  O   UNL     1     -45.993  37.089  27.324  1.00  0.00    -0.349 OA
ATOM      3  C   UNL     1     -47.132  36.476  27.954  1.00  0.00     0.089 C 
ATOM      4  C   UNL     1     -46.877  36.519  29.465  1.00  0.00     0.116 C 
ATOM      5  C   UNL     1     -46.049  37.773  29.626  1.00  0.00     0.173 C 
ATOM      6  F   UNL     1     -46.894  38.840  29.669  1.00  0.00    -0.239 F 
ATOM      7  H   UNL     1     -44.305  37.174  28.473  1.00  0.00     0.088 H 
ATOM      8  H   UNL     1     -47.189  35.442  27.596  1.00  0.00     0.063 H 
ATOM      9  H   UNL     1     -47.800  36.540  30.053  1.00  0.00     0.066 H 
ATOM     10  H   UNL     1     -45.429  37.792  30.527  1.00  0.00     0.074 H 
ENDROOT
BRANCH   1  11
ATOM     11  N   UNL     1     -44.830  39.089  27.893  1.00  0.00    -0.302 N 
ATOM     12  C   UNL     1     -44.699  41.008  26.774  1.00  0.00     0.033 A 
ATOM     13  C   UNL     1     -45.322  39.776  26.816  1.00  0.00     0.019 A 
ATOM     14  C   UNL     1     -43.747  41.054  27.837  1.00  0.00     0.071 A 
ATOM     15  H   UNL     1     -46.084  39.355  26.173  1.00  0.00     0.083 H 
ATOM     16  C   UNL     1     -43.879  39.852  28.525  1.00  0.00     0.148 A 
ATOM     17  C   UNL     1     -42.768  41.937  28.322  1.00  0.00     0.137 A 
ATOM     18  N   UNL     1     -43.199  39.473  29.623  1.00  0.00    -0.218 NA
ATOM     19  N   UNL     1     -42.064  41.596  29.421  1.00  0.00    -0.219 NA
ATOM     20  C   UNL     1     -42.319  40.412  30.005  1.00  0.00     0.120 A 
ATOM     21  H   UNL     1     -41.735  40.185  30.892  1.00  0.00     0.106 H 
BRANCH  12  22
ATOM     22  C   UNL     1     -44.980  42.061  25.803  1.00  0.00     0.095 A 
ATOM     23  N   UNL     1     -45.862  43.746  24.886  1.00  0.00    -0.275 N 
ATOM     24  C   UNL     1     -44.826  43.415  24.064  1.00  0.00     0.025 A 
ATOM     25  N   UNL     1     -45.979  42.939  25.955  1.00  0.00    -0.173 NA
ATOM     26  C   UNL     1     -44.220  42.324  24.643  1.00  0.00    -0.016 A 
ATOM     27  H   UNL     1     -44.600  43.974  23.167  1.00  0.00     0.084 H 
ATOM     28  H   UNL     1     -43.347  41.798  24.284  1.00  0.00     0.066 H 
BRANCH  23  29
ATOM     29  C   UNL     1     -46.791  44.838  24.719  1.00  0.00     0.030 C 
ATOM     30  H   UNL     1     -46.318  45.751  25.086  1.00  0.00     0.048 H 
ATOM     31  H   UNL     1     -47.693  44.613  25.293  1.00  0.00     0.048 H 
ATOM     32  H   UNL     1     -47.039  44.945  23.660  1.00  0.00     0.048 H 
ENDBRANCH  23  29
ENDBRANCH  12  22
BRANCH  17  33
ATOM     33  N   UNL     1     -42.425  43.145  27.728  1.00  0.00    -0.383 N 
ATOM     34  H   UNL     1     -42.285  43.076  26.726  1.00  0.00     0.158 HD
ATOM     35  H   UNL     1     -41.665  43.575  28.243  1.00  0.00     0.158 HD
ENDBRANCH  17  33
ENDBRANCH   1  11
BRANCH   3  36
ATOM     36  C   UNL     1     -48.400  37.237  27.537  1.00  0.00    -0.024 C 
ATOM     37  H   UNL     1     -48.195  38.311  27.575  1.00  0.00     0.029 H 
ATOM     38  H   UNL     1     -48.670  36.984  26.506  1.00  0.00     0.029 H 
BRANCH  36  39
ATOM     39  C   UNL     1     -49.594  36.899  28.442  1.00  0.00    -0.048 C 
ATOM     40  H   UNL     1     -49.416  37.319  29.439  1.00  0.00     0.027 H 
ATOM     41  H   UNL     1     -49.645  35.811  28.571  1.00  0.00     0.027 H 
BRANCH  39  42
ATOM     42  C   UNL     1     -50.946  37.382  27.873  1.00  0.00    -0.039 C 
ATOM     43  C   UNL     1     -51.089  38.912  27.831  1.00  0.00    -0.038 C 
ATOM     44  C   UNL     1     -52.121  36.800  28.680  1.00  0.00    -0.038 C 
ATOM     45  H   UNL     1     -51.027  37.001  26.846  1.00  0.00     0.030 H 
ATOM     46  C   UNL     1     -51.282  39.520  29.221  1.00  0.00    -0.005 C 
ATOM     47  H   UNL     1     -51.963  39.163  27.214  1.00  0.00     0.028 H 
ATOM     48  H   UNL     1     -50.231  39.380  27.338  1.00  0.00     0.028 H 
ATOM     49  C   UNL     1     -52.284  37.473  30.044  1.00  0.00    -0.005 C 
ATOM     50  H   UNL     1     -53.046  36.936  28.104  1.00  0.00     0.028 H 
ATOM     51  H   UNL     1     -51.996  35.719  28.814  1.00  0.00     0.028 H 
ATOM     52  N   UNL     1     -52.423  38.924  29.913  1.00  0.00    -0.317 NA
ATOM     53  H   UNL     1     -50.373  39.411  29.822  1.00  0.00     0.043 H 
ATOM     54  H   UNL     1     -51.461  40.595  29.115  1.00  0.00     0.043 H 
ATOM     55  H   UNL     1     -51.440  37.232  30.700  1.00  0.00     0.043 H 
ATOM     56  H   UNL     1     -53.183  37.078  30.529  1.00  0.00     0.043 H 
ATOM     57  H   UNL     1     -52.515  39.339  30.840  1.00  0.00     0.122 HD
ENDBRANCH  39  42
ENDBRANCH  36  39
ENDBRANCH   3  36
BRANCH   4  58
ATOM     58  O   UNL     1     -46.107  35.388  29.886  1.00  0.00    -0.387 OA
ATOM     59  H   UNL     1     -46.278  35.246  30.834  1.00  0.00     0.211 HD
ENDBRANCH   4  58
TORSDOF 8
ENDMDL
MODEL 4
REMARK VINA RESULT:      -7.9      2.572      8.814
REMARK SMILES Cn1ccc(-c2cn([C@@H]3O[C@H](CCC4CCNCC4)[C@@H](O)[C@@H]3F)c3ncnc(N)c23)n1
REMARK SMILES IDX 9 1 10 2 11 3 20 4 22 5 23 6 8 11 6 12 7 13 30 14 24 16
REMARK SMILES IDX 28 17 25 18 27 19 26 20 5 22 2 23 3 24 31 25 4 26 1 29 29 33
REMARK SMILES IDX 12 36 13 39 14 42 15 43 19 44 16 46 18 49 17 52 21 58
REMARK H PARENT 9 7 11 8 20 9 22 10 7 15 26 21 3 27 4 28 1 30 1 31 1 32 29 34
REMARK H PARENT 29 35 12 37 12 38 13 40 13 41 14 45 15 47 15 48 19 50 19 51
REMARK H PARENT 16 53 16 54 18 55 18 56 17 57 21 59
REMARK Flexibility Score: inf
ROOT
ATOM      1  C   UNL     1     -46.866  37.198  28.939  1.00  0.00     0.169 C 
ATOM      2  O   UNL     1     -47.123  38.540  28.456  1.00  0.00    -0.349 OA
ATOM      3  C   UNL     1     -45.869  39.245  28.406  1.00  0.00     0.089 C 
ATOM      4  C   UNL     1     -44.855  38.397  29.182  1.00  0.00     0.116 C 
ATOM      5  C   UNL     1     -45.358  36.990  28.957  1.00  0.00     0.173 C 
ATOM      6  F   UNL     1     -44.897  36.560  27.750  1.00  0.00    -0.239 F 
ATOM      7  H   UNL     1     -47.284  37.158  29.953  1.00  0.00     0.088 H 
ATOM      8  H   UNL     1     -46.019  40.218  28.889  1.00  0.00     0.063 H 
ATOM      9  H   UNL     1     -43.827  38.542  28.838  1.00  0.00     0.066 H 
ATOM     10  H   UNL     1     -45.043  36.272  29.719  1.00  0.00     0.074 H 
ENDROOT
BRANCH   1  11
ATOM     11  N   UNL     1     -47.584  36.226  28.131  1.00  0.00    -0.302 N 
ATOM     12  C   UNL     1     -48.099  34.485  26.844  1.00  0.00     0.033 A 
ATOM     13  C   UNL     1     -47.057  35.167  27.442  1.00  0.00     0.019 A 
ATOM     14  C   UNL     1     -49.307  35.187  27.135  1.00  0.00     0.071 A 
ATOM     15  H   UNL     1     -45.993  34.965  27.438  1.00  0.00     0.083 H 
ATOM     16  C   UNL     1     -48.947  36.249  27.960  1.00  0.00     0.148 A 
ATOM     17  C   UNL     1     -50.670  35.095  26.811  1.00  0.00     0.137 A 
ATOM     18  N   UNL     1     -49.772  37.160  28.506  1.00  0.00    -0.218 NA
ATOM     19  N   UNL     1     -51.532  35.989  27.338  1.00  0.00    -0.219 NA
ATOM     20  C   UNL     1     -51.047  36.947  28.148  1.00  0.00     0.120 A 
ATOM     21  H   UNL     1     -51.779  37.637  28.556  1.00  0.00     0.106 H 
BRANCH  12  22
ATOM     22  C   UNL     1     -47.963  33.263  26.057  1.00  0.00     0.095 A 
ATOM     23  N   UNL     1     -48.393  31.379  25.208  1.00  0.00    -0.275 N 
ATOM     24  C   UNL     1     -47.229  31.763  24.611  1.00  0.00     0.025 A 
ATOM     25  N   UNL     1     -48.864  32.274  26.093  1.00  0.00    -0.173 NA
ATOM     26  C   UNL     1     -46.927  32.999  25.135  1.00  0.00    -0.016 A 
ATOM     27  H   UNL     1     -46.730  31.152  23.872  1.00  0.00     0.084 H 
ATOM     28  H   UNL     1     -46.084  33.626  24.881  1.00  0.00     0.066 H 
BRANCH  23  29
ATOM     29  C   UNL     1     -49.127  30.159  24.976  1.00  0.00     0.030 C 
ATOM     30  H   UNL     1     -49.848  30.031  25.788  1.00  0.00     0.048 H 
ATOM     31  H   UNL     1     -48.418  29.328  24.957  1.00  0.00     0.048 H 
ATOM     32  H   UNL     1     -49.651  30.226  24.019  1.00  0.00     0.048 H 
ENDBRANCH  23  29
ENDBRANCH  12  22
BRANCH  17  33
ATOM     33  N   UNL     1     -51.216  34.161  25.938  1.00  0.00    -0.383 N 
ATOM     34  H   UNL     1     -50.972  34.326  24.968  1.00  0.00     0.158 HD
ATOM     35  H   UNL     1     -52.208  34.060  26.124  1.00  0.00     0.158 HD
ENDBRANCH  17  33
ENDBRANCH   1  11
BRANCH   3  36
ATOM     36  C   UNL     1     -45.477  39.455  26.935  1.00  0.00    -0.024 C 
ATOM     37  H   UNL     1     -45.525  38.493  26.417  1.00  0.00     0.029 H 
ATOM     38  H   UNL     1     -46.186  40.134  26.448  1.00  0.00     0.029 H 
BRANCH  36  39
ATOM     39  C   UNL     1     -44.069  40.054  26.800  1.00  0.00    -0.048 C 
ATOM     40  H   UNL     1     -43.834  40.176  25.736  1.00  0.00     0.027 H 
ATOM     41  H   UNL     1     -43.339  39.339  27.197  1.00  0.00     0.027 H 
BRANCH  39  42
ATOM     42  C   UNL     1     -43.899  41.390  27.558  1.00  0.00    -0.039 C 
ATOM     43  C   UNL     1     -44.200  42.631  26.701  1.00  0.00    -0.038 C 
ATOM     44  C   UNL     1     -42.476  41.520  28.129  1.00  0.00    -0.038 C 
ATOM     45  H   UNL     1     -44.598  41.379  28.404  1.00  0.00     0.030 H 
ATOM     46  C   UNL     1     -43.111  42.904  25.664  1.00  0.00    -0.005 C 
ATOM     47  H   UNL     1     -44.278  43.501  27.367  1.00  0.00     0.028 H 
ATOM     48  H   UNL     1     -45.172  42.546  26.204  1.00  0.00     0.028 H 
ATOM     49  C   UNL     1     -41.438  41.829  27.049  1.00  0.00    -0.005 C 
ATOM     50  H   UNL     1     -42.467  42.328  28.872  1.00  0.00     0.028 H 
ATOM     51  H   UNL     1     -42.192  40.605  28.664  1.00  0.00     0.028 H 
ATOM     52  N   UNL     1     -41.795  43.027  26.289  1.00  0.00    -0.317 NA
ATOM     53  H   UNL     1     -43.096  42.119  24.900  1.00  0.00     0.043 H 
ATOM     54  H   UNL     1     -43.340  43.842  25.148  1.00  0.00     0.043 H 
ATOM     55  H   UNL     1     -41.315  40.975  26.373  1.00  0.00     0.043 H 
ATOM     56  H   UNL     1     -40.467  41.994  27.528  1.00  0.00     0.043 H 
ATOM     57  H   UNL     1     -41.091  43.193  25.571  1.00  0.00     0.122 HD
ENDBRANCH  39  42
ENDBRANCH  36  39
ENDBRANCH   3  36
BRANCH   4  58
ATOM     58  O   UNL     1     -44.902  38.698  30.581  1.00  0.00    -0.387 OA
ATOM     59  H   UNL     1     -45.730  39.180  30.755  1.00  0.00     0.211 HD
ENDBRANCH   4  58
TORSDOF 8
ENDMDL
MODEL 5
REMARK VINA RESULT:      -7.9      1.916      2.611
REMARK SMILES Cn1ccc(-c2cn([C@@H]3O[C@H](CCC4CCNCC4)[C@@H](O)[C@@H]3F)c3ncnc(N)c23)n1
REMARK SMILES IDX 9 1 10 2 11 3 20 4 22 5 23 6 8 11 6 12 7 13 30 14 24 16
REMARK SMILES IDX 28 17 25 18 27 19 26 20 5 22 2 23 3 24 31 25 4 26 1 29 29 33
REMARK SMILES IDX 12 36 13 39 14 42 15 43 19 44 16 46 18 49 17 52 21 58
REMARK H PARENT 9 7 11 8 20 9 22 10 7 15 26 21 3 27 4 28 1 30 1 31 1 32 29 34
REMARK H PARENT 29 35 12 37 12 38 13 40 13 41 14 45 15 47 15 48 19 50 19 51
REMARK H PARENT 16 53 16 54 18 55 18 56 17 57 21 59
REMARK Flexibility Score: inf
ROOT
ATOM      1  C   UNL     1     -46.448  39.943  27.847  1.00  0.00     0.169 C 
ATOM      2  O   UNL     1     -45.777  39.082  28.801  1.00  0.00    -0.349 OA
ATOM      3  C   UNL     1     -46.319  37.755  28.663  1.00  0.00     0.089 C 
ATOM      4  C   UNL     1     -47.584  37.882  27.807  1.00  0.00     0.116 C 
ATOM      5  C   UNL     1     -47.265  39.059  26.915  1.00  0.00     0.173 C 
ATOM      6  F   UNL     1     -46.518  38.611  25.867  1.00  0.00    -0.239 F 
ATOM      7  H   UNL     1     -47.097  40.600  28.440  1.00  0.00     0.088 H 
ATOM      8  H   UNL     1     -46.560  37.392  29.668  1.00  0.00     0.063 H 
ATOM      9  H   UNL     1     -47.811  36.971  27.245  1.00  0.00     0.066 H 
ATOM     10  H   UNL     1     -48.143  39.572  26.513  1.00  0.00     0.074 H 
ENDROOT
BRANCH   1  11
ATOM     11  N   UNL     1     -45.480  40.784  27.162  1.00  0.00    -0.302 N 
ATOM     12  C   UNL     1     -44.499  42.177  25.731  1.00  0.00     0.033 A 
ATOM     13  C   UNL     1     -45.664  41.486  26.001  1.00  0.00     0.019 A 
ATOM     14  C   UNL     1     -43.546  41.841  26.738  1.00  0.00     0.071 A 
ATOM     15  H   UNL     1     -46.604  41.460  25.464  1.00  0.00     0.083 H 
ATOM     16  C   UNL     1     -44.204  40.993  27.624  1.00  0.00     0.148 A 
ATOM     17  C   UNL     1     -42.201  42.117  27.035  1.00  0.00     0.137 A 
ATOM     18  N   UNL     1     -43.698  40.451  28.747  1.00  0.00    -0.218 NA
ATOM     19  N   UNL     1     -41.654  41.594  28.152  1.00  0.00    -0.219 NA
ATOM     20  C   UNL     1     -42.419  40.814  28.936  1.00  0.00     0.120 A 
ATOM     21  H   UNL     1     -41.940  40.424  29.828  1.00  0.00     0.106 H 
BRANCH  12  22
ATOM     22  C   UNL     1     -44.302  43.086  24.605  1.00  0.00     0.095 A 
ATOM     23  N   UNL     1     -43.409  44.054  22.955  1.00  0.00    -0.275 N 
ATOM     24  C   UNL     1     -44.667  44.576  23.016  1.00  0.00     0.025 A 
ATOM     25  N   UNL     1     -43.160  43.142  23.911  1.00  0.00    -0.173 NA
ATOM     26  C   UNL     1     -45.282  43.953  24.077  1.00  0.00    -0.016 A 
ATOM     27  H   UNL     1     -45.019  45.316  22.311  1.00  0.00     0.084 H 
ATOM     28  H   UNL     1     -46.298  44.097  24.416  1.00  0.00     0.066 H 
BRANCH  23  29
ATOM     29  C   UNL     1     -42.379  44.375  21.997  1.00  0.00     0.030 C 
ATOM     30  H   UNL     1     -42.255  45.460  21.975  1.00  0.00     0.048 H 
ATOM     31  H   UNL     1     -42.692  44.003  21.018  1.00  0.00     0.048 H 
ATOM     32  H   UNL     1     -41.443  43.897  22.296  1.00  0.00     0.048 H 
ENDBRANCH  23  29
ENDBRANCH  12  22
BRANCH  17  33
ATOM     33  N   UNL     1     -41.351  42.870  26.233  1.00  0.00    -0.383 N 
ATOM     34  H   UNL     1     -41.773  43.725  25.890  1.00  0.00     0.158 HD
ATOM     35  H   UNL     1     -40.938  42.276  25.523  1.00  0.00     0.158 HD
ENDBRANCH  17  33
ENDBRANCH   1  11
BRANCH   3  36
ATOM     36  C   UNL     1     -45.252  36.848  28.029  1.00  0.00    -0.024 C 
ATOM     37  H   UNL     1     -45.001  37.238  27.039  1.00  0.00     0.029 H 
ATOM     38  H   UNL     1     -44.339  36.858  28.635  1.00  0.00     0.029 H 
BRANCH  36  39
ATOM     39  C   UNL     1     -45.735  35.394  27.913  1.00  0.00    -0.048 C 
ATOM     40  H   UNL     1     -46.609  35.256  28.559  1.00  0.00     0.027 H 
ATOM     41  H   UNL     1     -44.955  34.729  28.302  1.00  0.00     0.027 H 
BRANCH  39  42
ATOM     42  C   UNL     1     -46.050  34.971  26.461  1.00  0.00    -0.039 C 
ATOM     43  C   UNL     1     -47.508  35.225  26.044  1.00  0.00    -0.038 C 
ATOM     44  C   UNL     1     -45.728  33.482  26.241  1.00  0.00    -0.038 C 
ATOM     45  H   UNL     1     -45.397  35.555  25.799  1.00  0.00     0.030 H 
ATOM     46  C   UNL     1     -48.483  34.249  26.703  1.00  0.00    -0.005 C 
ATOM     47  H   UNL     1     -47.582  35.113  24.954  1.00  0.00     0.028 H 
ATOM     48  H   UNL     1     -47.811  36.254  26.261  1.00  0.00     0.028 H 
ATOM     49  C   UNL     1     -46.758  32.558  26.892  1.00  0.00    -0.005 C 
ATOM     50  H   UNL     1     -45.704  33.282  25.162  1.00  0.00     0.028 H 
ATOM     51  H   UNL     1     -44.726  33.246  26.621  1.00  0.00     0.028 H 
ATOM     52  N   UNL     1     -48.114  32.860  26.435  1.00  0.00    -0.317 NA
ATOM     53  H   UNL     1     -48.539  34.425  27.783  1.00  0.00     0.043 H 
ATOM     54  H   UNL     1     -49.487  34.427  26.303  1.00  0.00     0.043 H 
ATOM     55  H   UNL     1     -46.704  32.625  27.985  1.00  0.00     0.043 H 
ATOM     56  H   UNL     1     -46.522  31.522  26.628  1.00  0.00     0.043 H 
ATOM     57  H   UNL     1     -48.774  32.237  26.900  1.00  0.00     0.122 HD
ENDBRANCH  39  42
ENDBRANCH  36  39
ENDBRANCH   3  36
BRANCH   4  58
ATOM     58  O   UNL     1     -48.720  38.198  28.618  1.00  0.00    -0.387 OA
ATOM     59  H   UNL     1     -49.518  37.912  28.139  1.00  0.00     0.211 HD
ENDBRANCH   4  58
TORSDOF 8
ENDMDL
MODEL 6
REMARK VINA RESULT:      -7.7      3.437     10.571
REMARK SMILES Cn1ccc(-c2cn([C@@H]3O[C@H](CCC4CCNCC4)[C@@H](O)[C@@H]3F)c3ncnc(N)c23)n1
REMARK SMILES IDX 9 1 10 2 11 3 20 4 22 5 23 6 8 11 6 12 7 13 30 14 24 16
REMARK SMILES IDX 28 17 25 18 27 19 26 20 5 22 2 23 3 24 31 25 4 26 1 29 29 33
REMARK SMILES IDX 12 36 13 39 14 42 15 43 19 44 16 46 18 49 17 52 21 58
REMARK H PARENT 9 7 11 8 20 9 22 10 7 15 26 21 3 27 4 28 1 30 1 31 1 32 29 34
REMARK H PARENT 29 35 12 37 12 38 13 40 13 41 14 45 15 47 15 48 19 50 19 51
REMARK H PARENT 16 53 16 54 18 55 18 56 17 57 21 59
REMARK Flexibility Score: inf
ROOT
ATOM      1  C   UNL     1     -47.889  32.054  26.606  1.00  0.00     0.169 C 
ATOM      2  O   UNL     1     -48.440  33.303  27.095  1.00  0.00    -0.349 OA
ATOM      3  C   UNL     1     -47.366  34.255  27.200  1.00  0.00     0.089 C 
ATOM      4  C   UNL     1     -46.060  33.464  27.065  1.00  0.00     0.116 C 
ATOM      5  C   UNL     1     -46.457  32.320  26.161  1.00  0.00     0.173 C 
ATOM      6  F   UNL     1     -46.406  32.757  24.871  1.00  0.00    -0.239 F 
ATOM      7  H   UNL     1     -47.917  31.360  27.455  1.00  0.00     0.088 H 
ATOM      8  H   UNL     1     -47.439  34.726  28.187  1.00  0.00     0.063 H 
ATOM      9  H   UNL     1     -45.240  34.063  26.658  1.00  0.00     0.066 H 
ATOM     10  H   UNL     1     -45.820  31.436  26.246  1.00  0.00     0.074 H 
ENDROOT
BRANCH   1  11
ATOM     11  N   UNL     1     -48.737  31.504  25.561  1.00  0.00    -0.302 N 
ATOM     12  C   UNL     1     -50.095  31.280  23.813  1.00  0.00     0.033 A 
ATOM     13  C   UNL     1     -49.469  32.197  24.635  1.00  0.00     0.019 A 
ATOM     14  C   UNL     1     -49.775  29.973  24.289  1.00  0.00     0.071 A 
ATOM     15  H   UNL     1     -49.482  33.279  24.614  1.00  0.00     0.083 H 
ATOM     16  C   UNL     1     -48.906  30.156  25.362  1.00  0.00     0.148 A 
ATOM     17  C   UNL     1     -50.102  28.642  23.983  1.00  0.00     0.137 A 
ATOM     18  N   UNL     1     -48.322  29.193  26.099  1.00  0.00    -0.218 NA
ATOM     19  N   UNL     1     -49.537  27.646  24.697  1.00  0.00    -0.219 NA
ATOM     20  C   UNL     1     -48.689  27.969  25.689  1.00  0.00     0.120 A 
ATOM     21  H   UNL     1     -48.252  27.135  26.229  1.00  0.00     0.106 H 
BRANCH  12  22
ATOM     22  C   UNL     1     -50.932  31.613  22.664  1.00  0.00     0.095 A 
ATOM     23  N   UNL     1     -51.876  31.488  20.780  1.00  0.00    -0.275 N 
ATOM     24  C   UNL     1     -52.424  32.592  21.362  1.00  0.00     0.025 A 
ATOM     25  N   UNL     1     -50.965  30.870  21.551  1.00  0.00    -0.173 NA
ATOM     26  C   UNL     1     -51.837  32.694  22.602  1.00  0.00    -0.016 A 
ATOM     27  H   UNL     1     -53.176  33.191  20.868  1.00  0.00     0.084 H 
ATOM     28  H   UNL     1     -52.040  33.439  23.359  1.00  0.00     0.066 H 
BRANCH  23  29
ATOM     29  C   UNL     1     -52.182  30.949  19.477  1.00  0.00     0.030 C 
ATOM     30  H   UNL     1     -51.281  31.003  18.861  1.00  0.00     0.048 H 
ATOM     31  H   UNL     1     -52.985  31.545  19.038  1.00  0.00     0.048 H 
ATOM     32  H   UNL     1     -52.503  29.909  19.579  1.00  0.00     0.048 H 
ENDBRANCH  23  29
ENDBRANCH  12  22
BRANCH  17  33
ATOM     33  N   UNL     1     -51.012  28.254  23.007  1.00  0.00    -0.383 N 
ATOM     34  H   UNL     1     -51.830  27.787  23.383  1.00  0.00     0.158 HD
ATOM     35  H   UNL     1     -50.529  27.755  22.269  1.00  0.00     0.158 HD
ENDBRANCH  17  33
ENDBRANCH   1  11
BRANCH   3  36
ATOM     36  C   UNL     1     -47.540  35.321  26.106  1.00  0.00    -0.024 C 
ATOM     37  H   UNL     1     -47.181  34.913  25.157  1.00  0.00     0.029 H 
ATOM     38  H   UNL     1     -48.600  35.569  25.985  1.00  0.00     0.029 H 
BRANCH  36  39
ATOM     39  C   UNL     1     -46.781  36.613  26.443  1.00  0.00    -0.048 C 
ATOM     40  H   UNL     1     -47.096  37.403  25.751  1.00  0.00     0.027 H 
ATOM     41  H   UNL     1     -45.711  36.454  26.262  1.00  0.00     0.027 H 
BRANCH  39  42
ATOM     42  C   UNL     1     -46.961  37.061  27.910  1.00  0.00    -0.039 C 
ATOM     43  C   UNL     1     -47.941  38.233  28.084  1.00  0.00    -0.038 C 
ATOM     44  C   UNL     1     -45.610  37.454  28.534  1.00  0.00    -0.038 C 
ATOM     45  H   UNL     1     -47.349  36.202  28.472  1.00  0.00     0.030 H 
ATOM     46  C   UNL     1     -47.362  39.559  27.589  1.00  0.00    -0.005 C 
ATOM     47  H   UNL     1     -48.180  38.331  29.152  1.00  0.00     0.028 H 
ATOM     48  H   UNL     1     -48.893  38.034  27.582  1.00  0.00     0.028 H 
ATOM     49  C   UNL     1     -45.102  38.805  28.027  1.00  0.00    -0.005 C 
ATOM     50  H   UNL     1     -45.726  37.505  29.625  1.00  0.00     0.028 H 
ATOM     51  H   UNL     1     -44.858  36.680  28.340  1.00  0.00     0.028 H 
ATOM     52  N   UNL     1     -46.089  39.864  28.239  1.00  0.00    -0.317 NA
ATOM     53  H   UNL     1     -47.240  39.547  26.501  1.00  0.00     0.043 H 
ATOM     54  H   UNL     1     -48.071  40.362  27.817  1.00  0.00     0.043 H 
ATOM     55  H   UNL     1     -44.833  38.746  26.966  1.00  0.00     0.043 H 
ATOM     56  H   UNL     1     -44.187  39.066  28.570  1.00  0.00     0.043 H 
ATOM     57  H   UNL     1     -45.724  40.743  27.877  1.00  0.00     0.122 HD
ENDBRANCH  39  42
ENDBRANCH  36  39
ENDBRANCH   3  36
BRANCH   4  58
ATOM     58  O   UNL     1     -45.645  32.943  28.331  1.00  0.00    -0.387 OA
ATOM     59  H   UNL     1     -44.709  32.687  28.256  1.00  0.00     0.211 HD
ENDBRANCH   4  58
TORSDOF 8
ENDMDL
MODEL 7
REMARK VINA RESULT:      -7.6      2.223      3.036
REMARK SMILES Cn1ccc(-c2cn([C@@H]3O[C@H](CCC4CCNCC4)[C@@H](O)[C@@H]3F)c3ncnc(N)c23)n1
REMARK SMILES IDX 9 1 10 2 11 3 20 4 22 5 23 6 8 11 6 12 7 13 30 14 24 16
REMARK SMILES IDX 28 17 25 18 27 19 26 20 5 22 2 23 3 24 31 25 4 26 1 29 29 33
REMARK SMILES IDX 12 36 13 39 14 42 15 43 19 44 16 46 18 49 17 52 21 58
REMARK H PARENT 9 7 11 8 20 9 22 10 7 15 26 21 3 27 4 28 1 30 1 31 1 32 29 34
REMARK H PARENT 29 35 12 37 12 38 13 40 13 41 14 45 15 47 15 48 19 50 19 51
REMARK H PARENT 16 53 16 54 18 55 18 56 17 57 21 59
REMARK Flexibility Score: inf
ROOT
ATOM      1  C   UNL     1     -46.353  37.716  28.485  1.00  0.00     0.169 C 
ATOM      2  O   UNL     1     -45.551  36.960  27.543  1.00  0.00    -0.349 OA
ATOM      3  C   UNL     1     -46.061  35.614  27.501  1.00  0.00     0.089 C 
ATOM      4  C   UNL     1     -47.012  35.466  28.694  1.00  0.00     0.116 C 
ATOM      5  C   UNL     1     -47.558  36.865  28.859  1.00  0.00     0.173 C 
ATOM      6  F   UNL     1     -48.583  37.030  27.975  1.00  0.00    -0.239 F 
ATOM      7  H   UNL     1     -45.708  37.893  29.354  1.00  0.00     0.088 H 
ATOM      8  H   UNL     1     -45.206  34.935  27.596  1.00  0.00     0.063 H 
ATOM      9  H   UNL     1     -47.795  34.720  28.525  1.00  0.00     0.066 H 
ATOM     10  H   UNL     1     -47.934  37.088  29.861  1.00  0.00     0.074 H 
ENDROOT
BRANCH   1  11
ATOM     11  N   UNL     1     -46.699  39.012  27.924  1.00  0.00    -0.302 N 
ATOM     12  C   UNL     1     -47.795  40.853  27.325  1.00  0.00     0.033 A 
ATOM     13  C   UNL     1     -47.926  39.618  27.930  1.00  0.00     0.019 A 
ATOM     14  C   UNL     1     -46.444  40.984  26.883  1.00  0.00     0.071 A 
ATOM     15  H   UNL     1     -48.793  39.144  28.372  1.00  0.00     0.083 H 
ATOM     16  C   UNL     1     -45.789  39.829  27.299  1.00  0.00     0.148 A 
ATOM     17  C   UNL     1     -45.665  41.911  26.171  1.00  0.00     0.137 A 
ATOM     18  N   UNL     1     -44.488  39.534  27.126  1.00  0.00    -0.218 NA
ATOM     19  N   UNL     1     -44.355  41.655  25.976  1.00  0.00    -0.219 NA
ATOM     20  C   UNL     1     -43.846  40.509  26.463  1.00  0.00     0.120 A 
ATOM     21  H   UNL     1     -42.786  40.351  26.291  1.00  0.00     0.106 H 
BRANCH  12  22
ATOM     22  C   UNL     1     -48.865  41.835  27.175  1.00  0.00     0.095 A 
ATOM     23  N   UNL     1     -49.884  43.683  27.116  1.00  0.00    -0.275 N 
ATOM     24  C   UNL     1     -50.808  42.772  26.699  1.00  0.00     0.025 A 
ATOM     25  N   UNL     1     -48.690  43.140  27.411  1.00  0.00    -0.173 NA
ATOM     26  C   UNL     1     -50.169  41.554  26.713  1.00  0.00    -0.016 A 
ATOM     27  H   UNL     1     -51.813  43.057  26.419  1.00  0.00     0.084 H 
ATOM     28  H   UNL     1     -50.583  40.599  26.421  1.00  0.00     0.066 H 
BRANCH  23  29
ATOM     29  C   UNL     1     -50.066  45.108  27.253  1.00  0.00     0.030 C 
ATOM     30  H   UNL     1     -49.302  45.612  26.658  1.00  0.00     0.048 H 
ATOM     31  H   UNL     1     -49.966  45.368  28.310  1.00  0.00     0.048 H 
ATOM     32  H   UNL     1     -51.061  45.383  26.894  1.00  0.00     0.048 H 
ENDBRANCH  23  29
ENDBRANCH  12  22
BRANCH  17  33
ATOM     33  N   UNL     1     -46.150  43.082  25.600  1.00  0.00    -0.383 N 
ATOM     34  H   UNL     1     -45.419  43.718  25.303  1.00  0.00     0.158 HD
ATOM     35  H   UNL     1     -46.858  43.487  26.203  1.00  0.00     0.158 HD
ENDBRANCH  17  33
ENDBRANCH   1  11
BRANCH   3  36
ATOM     36  C   UNL     1     -46.753  35.387  26.148  1.00  0.00    -0.024 C 
ATOM     37  H   UNL     1     -47.172  36.337  25.803  1.00  0.00     0.029 H 
ATOM     38  H   UNL     1     -46.024  35.052  25.403  1.00  0.00     0.029 H 
BRANCH  36  39
ATOM     39  C   UNL     1     -47.862  34.328  26.245  1.00  0.00    -0.048 C 
ATOM     40  H   UNL     1     -48.526  34.427  25.378  1.00  0.00     0.027 H 
ATOM     41  H   UNL     1     -48.476  34.536  27.129  1.00  0.00     0.027 H 
BRANCH  39  42
ATOM     42  C   UNL     1     -47.319  32.887  26.362  1.00  0.00    -0.039 C 
ATOM     43  C   UNL     1     -46.138  32.591  25.423  1.00  0.00    -0.038 C 
ATOM     44  C   UNL     1     -48.431  31.858  26.092  1.00  0.00    -0.038 C 
ATOM     45  H   UNL     1     -46.979  32.746  27.397  1.00  0.00     0.030 H 
ATOM     46  C   UNL     1     -46.568  32.474  23.961  1.00  0.00    -0.005 C 
ATOM     47  H   UNL     1     -45.678  31.642  25.731  1.00  0.00     0.028 H 
ATOM     48  H   UNL     1     -45.353  33.349  25.518  1.00  0.00     0.028 H 
ATOM     49  C   UNL     1     -48.791  31.761  24.609  1.00  0.00    -0.005 C 
ATOM     50  H   UNL     1     -48.092  30.873  26.440  1.00  0.00     0.028 H 
ATOM     51  H   UNL     1     -49.328  32.100  26.675  1.00  0.00     0.028 H 
ATOM     52  N   UNL     1     -47.615  31.469  23.789  1.00  0.00    -0.317 NA
ATOM     53  H   UNL     1     -46.905  33.443  23.576  1.00  0.00     0.043 H 
ATOM     54  H   UNL     1     -45.701  32.182  23.358  1.00  0.00     0.043 H 
ATOM     55  H   UNL     1     -49.272  32.683  24.265  1.00  0.00     0.043 H 
ATOM     56  H   UNL     1     -49.521  30.956  24.473  1.00  0.00     0.043 H 
ATOM     57  H   UNL     1     -47.890  31.426  22.808  1.00  0.00     0.122 HD
ENDBRANCH  39  42
ENDBRANCH  36  39
ENDBRANCH   3  36
BRANCH   4  58
ATOM     58  O   UNL     1     -46.296  35.097  29.877  1.00  0.00    -0.387 OA
ATOM     59  H   UNL     1     -46.103  34.144  29.824  1.00  0.00     0.211 HD
ENDBRANCH   4  58
TORSDOF 8
ENDMDL
