MODEL 1
REMARK VINA RESULT:      -9.9      0.000      0.000
REMARK SMILES Nc1ccc2ccc(OC[C@H]3O[C@H](n4ccc5c(N)ncnc54)[C@H](O)[C@@H]3O)cc2n1
REMARK SMILES IDX 10 1 9 4 8 5 2 6 3 7 30 8 4 9 29 11 5 12 28 14 6 15 7 17
REMARK SMILES IDX 1 20 11 23 12 24 26 25 13 27 24 28 27 32 14 34 15 35 23 36
REMARK SMILES IDX 16 37 17 39 22 40 18 42 21 43 20 44 19 46 25 49
REMARK H PARENT 10 2 10 3 3 10 4 13 28 16 6 18 7 19 1 21 1 22 11 26 26 29
REMARK H PARENT 13 30 24 31 27 33 15 38 16 41 21 45 19 47 19 48 25 50
REMARK Flexibility Score: inf
ROOT
ATOM      1  C   UNL     1     -46.064  34.912  27.420  1.00  0.00     0.117 C 
ATOM      2  H   UNL     1     -46.353  34.111  28.112  1.00  0.00     0.073 H 
ATOM      3  H   UNL     1     -45.039  34.688  27.106  1.00  0.00     0.073 H 
ENDROOT
BRANCH   1   4
ATOM      4  O   UNL     1     -46.989  34.840  26.329  1.00  0.00    -0.491 OA
BRANCH   4   5
ATOM      5  C   UNL     1     -47.231  33.641  25.721  1.00  0.00     0.121 A 
ATOM      6  C   UNL     1     -46.286  30.005  22.820  1.00  0.00     0.124 A 
ATOM      7  C   UNL     1     -47.475  29.365  23.122  1.00  0.00    -0.019 A 
ATOM      8  N   UNL     1     -45.926  31.178  23.365  1.00  0.00    -0.231 NA
ATOM      9  C   UNL     1     -48.345  29.969  24.022  1.00  0.00    -0.049 A 
ATOM     10  H   UNL     1     -47.718  28.406  22.677  1.00  0.00     0.066 H 
ATOM     11  C   UNL     1     -46.761  31.767  24.240  1.00  0.00     0.076 A 
ATOM     12  C   UNL     1     -47.997  31.194  24.599  1.00  0.00     0.001 A 
ATOM     13  H   UNL     1     -49.282  29.478  24.271  1.00  0.00     0.063 H 
ATOM     14  C   UNL     1     -46.402  32.984  24.811  1.00  0.00     0.007 A 
ATOM     15  C   UNL     1     -48.839  31.846  25.511  1.00  0.00    -0.049 A 
ATOM     16  H   UNL     1     -45.451  33.404  24.501  1.00  0.00     0.069 H 
ATOM     17  C   UNL     1     -48.454  33.066  26.064  1.00  0.00    -0.019 A 
ATOM     18  H   UNL     1     -49.794  31.410  25.797  1.00  0.00     0.063 H 
ATOM     19  H   UNL     1     -49.109  33.567  26.773  1.00  0.00     0.066 H 
BRANCH   6  20
ATOM     20  N   UNL     1     -45.376  29.427  21.937  1.00  0.00    -0.384 N 
ATOM     21  H   UNL     1     -45.680  29.518  20.975  1.00  0.00     0.158 HD
ATOM     22  H   UNL     1     -44.482  29.887  22.096  1.00  0.00     0.158 HD
ENDBRANCH   6  20
ENDBRANCH   4   5
ENDBRANCH   1   4
BRANCH   1  23
ATOM     23  C   UNL     1     -46.155  36.250  28.164  1.00  0.00     0.123 C 
ATOM     24  O   UNL     1     -45.246  37.217  27.592  1.00  0.00    -0.345 OA
ATOM     25  C   UNL     1     -47.559  36.871  28.130  1.00  0.00     0.114 C 
ATOM     26  H   UNL     1     -45.831  36.086  29.200  1.00  0.00     0.067 H 
ATOM     27  C   UNL     1     -46.019  38.394  27.278  1.00  0.00     0.164 C 
ATOM     28  C   UNL     1     -47.247  38.360  28.196  1.00  0.00     0.128 C 
ATOM     29  H   UNL     1     -48.088  36.641  27.199  1.00  0.00     0.066 H 
ATOM     30  H   UNL     1     -46.347  38.272  26.237  1.00  0.00     0.088 H 
ATOM     31  H   UNL     1     -48.068  38.988  27.839  1.00  0.00     0.068 H 
BRANCH  25  32
ATOM     32  O   UNL     1     -48.362  36.445  29.226  1.00  0.00    -0.387 OA
ATOM     33  H   UNL     1     -48.765  35.599  28.936  1.00  0.00     0.211 HD
ENDBRANCH  25  32
BRANCH  27  34
ATOM     34  N   UNL     1     -45.174  39.571  27.320  1.00  0.00    -0.303 N 
ATOM     35  C   UNL     1     -45.189  40.569  26.370  1.00  0.00     0.009 A 
ATOM     36  C   UNL     1     -44.221  39.861  28.266  1.00  0.00     0.147 A 
ATOM     37  C   UNL     1     -44.231  41.499  26.713  1.00  0.00    -0.031 A 
ATOM     38  H   UNL     1     -45.867  40.533  25.526  1.00  0.00     0.082 H 
ATOM     39  C   UNL     1     -43.607  41.055  27.910  1.00  0.00     0.061 A 
ATOM     40  N   UNL     1     -43.944  39.120  29.356  1.00  0.00    -0.218 NA
ATOM     41  H   UNL     1     -44.003  42.402  26.161  1.00  0.00     0.065 H 
ATOM     42  C   UNL     1     -42.590  41.521  28.754  1.00  0.00     0.136 A 
ATOM     43  C   UNL     1     -42.947  39.663  30.081  1.00  0.00     0.120 A 
ATOM     44  N   UNL     1     -42.266  40.799  29.844  1.00  0.00    -0.219 NA
ATOM     45  H   UNL     1     -42.655  39.116  30.973  1.00  0.00     0.106 H 
BRANCH  42  46
ATOM     46  N   UNL     1     -41.873  42.687  28.526  1.00  0.00    -0.383 N 
ATOM     47  H   UNL     1     -41.046  42.791  29.098  1.00  0.00     0.158 HD
ATOM     48  H   UNL     1     -42.497  43.484  28.489  1.00  0.00     0.158 HD
ENDBRANCH  42  46
ENDBRANCH  27  34
BRANCH  28  49
ATOM     49  O   UNL     1     -47.037  38.671  29.584  1.00  0.00    -0.386 OA
ATOM     50  H   UNL     1     -47.904  38.911  29.982  1.00  0.00     0.211 HD
ENDBRANCH  28  49
ENDBRANCH   1  23
TORSDOF 8
ENDMDL
MODEL 2
REMARK VINA RESULT:      -9.5      1.568      2.383
REMARK SMILES Nc1ccc2ccc(OC[C@H]3O[C@H](n4ccc5c(N)ncnc54)[C@H](O)[C@@H]3O)cc2n1
REMARK SMILES IDX 10 1 9 4 8 5 2 6 3 7 30 8 4 9 29 11 5 12 28 14 6 15 7 17
REMARK SMILES IDX 1 20 11 23 12 24 26 25 13 27 24 28 27 32 14 34 15 35 23 36
REMARK SMILES IDX 16 37 17 39 22 40 18 42 21 43 20 44 19 46 25 49
REMARK H PARENT 10 2 10 3 3 10 4 13 28 16 6 18 7 19 1 21 1 22 11 26 26 29
REMARK H PARENT 13 30 24 31 27 33 15 38 16 41 21 45 19 47 19 48 25 50
REMARK Flexibility Score: inf
ROOT
ATOM      1  C   UNL     1     -46.709  34.914  28.170  1.00  0.00     0.117 C 
ATOM      2  H   UNL     1     -46.702  34.250  29.043  1.00  0.00     0.073 H 
ATOM      3  H   UNL     1     -45.785  34.707  27.622  1.00  0.00     0.073 H 
ENDROOT
BRANCH   1   4
ATOM      4  O   UNL     1     -47.873  34.557  27.416  1.00  0.00    -0.491 OA
BRANCH   4   5
ATOM      5  C   UNL     1     -47.778  33.636  26.413  1.00  0.00     0.121 A 
ATOM      6  C   UNL     1     -49.260  30.020  23.719  1.00  0.00     0.124 A 
ATOM      7  C   UNL     1     -48.096  30.008  22.972  1.00  0.00    -0.019 A 
ATOM      8  N   UNL     1     -49.481  30.887  24.720  1.00  0.00    -0.231 NA
ATOM      9  C   UNL     1     -47.101  30.929  23.278  1.00  0.00    -0.049 A 
ATOM     10  H   UNL     1     -47.967  29.306  22.156  1.00  0.00     0.066 H 
ATOM     11  C   UNL     1     -48.524  31.784  25.019  1.00  0.00     0.076 A 
ATOM     12  C   UNL     1     -47.301  31.839  24.321  1.00  0.00     0.001 A 
ATOM     13  H   UNL     1     -46.181  30.934  22.699  1.00  0.00     0.063 H 
ATOM     14  C   UNL     1     -48.737  32.688  26.056  1.00  0.00     0.007 A 
ATOM     15  C   UNL     1     -46.330  32.787  24.671  1.00  0.00    -0.049 A 
ATOM     16  H   UNL     1     -49.683  32.607  26.583  1.00  0.00     0.069 H 
ATOM     17  C   UNL     1     -46.571  33.676  25.716  1.00  0.00    -0.019 A 
ATOM     18  H   UNL     1     -45.384  32.839  24.135  1.00  0.00     0.063 H 
ATOM     19  H   UNL     1     -45.815  34.411  25.983  1.00  0.00     0.066 H 
BRANCH   6  20
ATOM     20  N   UNL     1     -50.292  29.127  23.434  1.00  0.00    -0.384 N 
ATOM     21  H   UNL     1     -50.231  28.292  24.005  1.00  0.00     0.158 HD
ATOM     22  H   UNL     1     -51.164  29.628  23.590  1.00  0.00     0.158 HD
ENDBRANCH   6  20
ENDBRANCH   4   5
ENDBRANCH   1   4
BRANCH   1  23
ATOM     23  C   UNL     1     -46.768  36.363  28.668  1.00  0.00     0.123 C 
ATOM     24  O   UNL     1     -45.497  37.025  28.469  1.00  0.00    -0.345 OA
ATOM     25  C   UNL     1     -47.834  37.208  27.957  1.00  0.00     0.114 C 
ATOM     26  H   UNL     1     -46.948  36.345  29.750  1.00  0.00     0.067 H 
ATOM     27  C   UNL     1     -45.760  38.239  27.737  1.00  0.00     0.164 C 
ATOM     28  C   UNL     1     -47.223  38.602  28.014  1.00  0.00     0.128 C 
ATOM     29  H   UNL     1     -47.973  36.904  26.915  1.00  0.00     0.066 H 
ATOM     30  H   UNL     1     -45.650  37.982  26.674  1.00  0.00     0.088 H 
ATOM     31  H   UNL     1     -47.645  39.287  27.274  1.00  0.00     0.068 H 
BRANCH  25  32
ATOM     32  O   UNL     1     -49.094  37.151  28.619  1.00  0.00    -0.387 OA
ATOM     33  H   UNL     1     -48.956  36.551  29.383  1.00  0.00     0.211 HD
ENDBRANCH  25  32
BRANCH  27  34
ATOM     34  N   UNL     1     -44.747  39.231  28.037  1.00  0.00    -0.303 N 
ATOM     35  C   UNL     1     -43.982  39.235  29.183  1.00  0.00     0.009 A 
ATOM     36  C   UNL     1     -44.417  40.322  27.269  1.00  0.00     0.147 A 
ATOM     37  C   UNL     1     -43.162  40.343  29.146  1.00  0.00    -0.031 A 
ATOM     38  H   UNL     1     -44.089  38.462  29.934  1.00  0.00     0.082 H 
ATOM     39  C   UNL     1     -43.435  41.042  27.939  1.00  0.00     0.061 A 
ATOM     40  N   UNL     1     -44.945  40.627  26.069  1.00  0.00    -0.218 NA
ATOM     41  H   UNL     1     -42.443  40.621  29.906  1.00  0.00     0.065 H 
ATOM     42  C   UNL     1     -42.967  42.206  27.316  1.00  0.00     0.136 A 
ATOM     43  C   UNL     1     -44.424  41.768  25.577  1.00  0.00     0.120 A 
ATOM     44  N   UNL     1     -43.485  42.561  26.124  1.00  0.00    -0.219 NA
ATOM     45  H   UNL     1     -44.809  42.089  24.613  1.00  0.00     0.106 H 
BRANCH  42  46
ATOM     46  N   UNL     1     -42.002  43.040  27.865  1.00  0.00    -0.383 N 
ATOM     47  H   UNL     1     -42.352  43.689  28.555  1.00  0.00     0.158 HD
ATOM     48  H   UNL     1     -41.418  43.430  27.136  1.00  0.00     0.158 HD
ENDBRANCH  42  46
ENDBRANCH  27  34
BRANCH  28  49
ATOM     49  O   UNL     1     -47.532  39.130  29.316  1.00  0.00    -0.386 OA
ATOM     50  H   UNL     1     -48.283  38.615  29.687  1.00  0.00     0.211 HD
ENDBRANCH  28  49
ENDBRANCH   1  23
TORSDOF 8
ENDMDL
MODEL 3
REMARK VINA RESULT:      -9.4      1.857      9.715
REMARK SMILES Nc1ccc2ccc(OC[C@H]3O[C@H](n4ccc5c(N)ncnc54)[C@H](O)[C@@H]3O)cc2n1
REMARK SMILES IDX 10 1 9 4 8 5 2 6 3 7 30 8 4 9 29 11 5 12 28 14 6 15 7 17
REMARK SMILES IDX 1 20 11 23 12 24 26 25 13 27 24 28 27 32 14 34 15 35 23 36
REMARK SMILES IDX 16 37 17 39 22 40 18 42 21 43 20 44 19 46 25 49
REMARK H PARENT 10 2 10 3 3 10 4 13 28 16 6 18 7 19 1 21 1 22 11 26 26 29
REMARK H PARENT 13 30 24 31 27 33 15 38 16 41 21 45 19 47 19 48 25 50
REMARK Flexibility Score: inf
ROOT
ATOM      1  C   UNL     1     -47.891  36.254  27.630  1.00  0.00     0.117 C 
ATOM      2  H   UNL     1     -47.507  36.607  28.595  1.00  0.00     0.073 H 
ATOM      3  H   UNL     1     -48.969  36.445  27.644  1.00  0.00     0.073 H 
ENDROOT
BRANCH   1   4
ATOM      4  O   UNL     1     -47.219  37.033  26.634  1.00  0.00    -0.491 OA
BRANCH   4   5
ATOM      5  C   UNL     1     -46.324  37.993  27.009  1.00  0.00     0.121 A 
ATOM      6  C   UNL     1     -43.828  41.999  26.509  1.00  0.00     0.124 A 
ATOM      7  C   UNL     1     -43.180  41.829  27.719  1.00  0.00    -0.019 A 
ATOM      8  N   UNL     1     -44.741  41.135  26.038  1.00  0.00    -0.231 NA
ATOM      9  C   UNL     1     -43.478  40.704  28.480  1.00  0.00    -0.049 A 
ATOM     10  H   UNL     1     -42.466  42.563  28.075  1.00  0.00     0.066 H 
ATOM     11  C   UNL     1     -45.037  40.046  26.771  1.00  0.00     0.076 A 
ATOM     12  C   UNL     1     -44.420  39.785  28.010  1.00  0.00     0.001 A 
ATOM     13  H   UNL     1     -42.980  40.557  29.435  1.00  0.00     0.063 H 
ATOM     14  C   UNL     1     -45.981  39.140  26.294  1.00  0.00     0.007 A 
ATOM     15  C   UNL     1     -44.757  38.634  28.737  1.00  0.00    -0.049 A 
ATOM     16  H   UNL     1     -46.425  39.364  25.329  1.00  0.00     0.069 H 
ATOM     17  C   UNL     1     -45.702  37.744  28.232  1.00  0.00    -0.019 A 
ATOM     18  H   UNL     1     -44.287  38.425  29.696  1.00  0.00     0.063 H 
ATOM     19  H   UNL     1     -45.961  36.853  28.801  1.00  0.00     0.066 H 
BRANCH   6  20
ATOM     20  N   UNL     1     -43.573  43.121  25.723  1.00  0.00    -0.384 N 
ATOM     21  H   UNL     1     -43.329  42.864  24.774  1.00  0.00     0.158 HD
ATOM     22  H   UNL     1     -44.412  43.696  25.754  1.00  0.00     0.158 HD
ENDBRANCH   6  20
ENDBRANCH   4   5
ENDBRANCH   1   4
BRANCH   1  23
ATOM     23  C   UNL     1     -47.575  34.759  27.502  1.00  0.00     0.123 C 
ATOM     24  O   UNL     1     -48.327  34.168  26.418  1.00  0.00    -0.345 OA
ATOM     25  C   UNL     1     -46.091  34.471  27.234  1.00  0.00     0.114 C 
ATOM     26  H   UNL     1     -47.905  34.262  28.423  1.00  0.00     0.067 H 
ATOM     27  C   UNL     1     -47.381  33.498  25.560  1.00  0.00     0.164 C 
ATOM     28  C   UNL     1     -46.160  33.179  26.430  1.00  0.00     0.128 C 
ATOM     29  H   UNL     1     -45.621  35.258  26.637  1.00  0.00     0.066 H 
ATOM     30  H   UNL     1     -47.093  34.232  24.794  1.00  0.00     0.088 H 
ATOM     31  H   UNL     1     -45.255  32.986  25.849  1.00  0.00     0.068 H 
BRANCH  25  32
ATOM     32  O   UNL     1     -45.349  34.311  28.439  1.00  0.00    -0.387 OA
ATOM     33  H   UNL     1     -44.693  35.041  28.436  1.00  0.00     0.211 HD
ENDBRANCH  25  32
BRANCH  27  34
ATOM     34  N   UNL     1     -48.026  32.399  24.870  1.00  0.00    -0.303 N 
ATOM     35  C   UNL     1     -49.270  31.902  25.195  1.00  0.00     0.009 A 
ATOM     36  C   UNL     1     -47.504  31.666  23.830  1.00  0.00     0.147 A 
ATOM     37  C   UNL     1     -49.538  30.839  24.359  1.00  0.00    -0.031 A 
ATOM     38  H   UNL     1     -49.856  32.333  25.998  1.00  0.00     0.082 H 
ATOM     39  C   UNL     1     -48.421  30.678  23.494  1.00  0.00     0.061 A 
ATOM     40  N   UNL     1     -46.316  31.883  23.235  1.00  0.00    -0.218 NA
ATOM     41  H   UNL     1     -50.440  30.242  24.368  1.00  0.00     0.065 H 
ATOM     42  C   UNL     1     -48.066  29.813  22.451  1.00  0.00     0.136 A 
ATOM     43  C   UNL     1     -46.084  30.985  22.258  1.00  0.00     0.120 A 
ATOM     44  N   UNL     1     -46.876  29.980  21.842  1.00  0.00    -0.219 NA
ATOM     45  H   UNL     1     -45.137  31.086  21.735  1.00  0.00     0.106 H 
BRANCH  42  46
ATOM     46  N   UNL     1     -48.866  28.768  22.010  1.00  0.00    -0.383 N 
ATOM     47  H   UNL     1     -49.486  28.389  22.711  1.00  0.00     0.158 HD
ATOM     48  H   UNL     1     -48.314  28.098  21.488  1.00  0.00     0.158 HD
ENDBRANCH  42  46
ENDBRANCH  27  34
BRANCH  28  49
ATOM     49  O   UNL     1     -46.296  32.112  27.385  1.00  0.00    -0.386 OA
ATOM     50  H   UNL     1     -45.409  31.923  27.765  1.00  0.00     0.211 HD
ENDBRANCH  28  49
ENDBRANCH   1  23
TORSDOF 8
ENDMDL
MODEL 4
REMARK VINA RESULT:      -9.4      1.739      9.721
REMARK SMILES Nc1ccc2ccc(OC[C@H]3O[C@H](n4ccc5c(N)ncnc54)[C@H](O)[C@@H]3O)cc2n1
REMARK SMILES IDX 10 1 9 4 8 5 2 6 3 7 30 8 4 9 29 11 5 12 28 14 6 15 7 17
REMARK SMILES IDX 1 20 11 23 12 24 26 25 13 27 24 28 27 32 14 34 15 35 23 36
REMARK SMILES IDX 16 37 17 39 22 40 18 42 21 43 20 44 19 46 25 49
REMARK H PARENT 10 2 10 3 3 10 4 13 28 16 6 18 7 19 1 21 1 22 11 26 26 29
REMARK H PARENT 13 30 24 31 27 33 15 38 16 41 21 45 19 47 19 48 25 50
REMARK Flexibility Score: inf
ROOT
ATOM      1  C   UNL     1     -47.711  36.205  27.048  1.00  0.00     0.117 C 
ATOM      2  H   UNL     1     -48.785  36.416  27.119  1.00  0.00     0.073 H 
ATOM      3  H   UNL     1     -47.372  36.662  26.113  1.00  0.00     0.073 H 
ENDROOT
BRANCH   1   4
ATOM      4  O   UNL     1     -47.114  36.821  28.195  1.00  0.00    -0.491 OA
BRANCH   4   5
ATOM      5  C   UNL     1     -46.250  37.865  28.034  1.00  0.00     0.121 A 
ATOM      6  C   UNL     1     -42.664  40.727  29.252  1.00  0.00     0.124 A 
ATOM      7  C   UNL     1     -42.808  41.506  28.117  1.00  0.00    -0.019 A 
ATOM      8  N   UNL     1     -43.441  39.664  29.516  1.00  0.00    -0.231 NA
ATOM      9  C   UNL     1     -43.811  41.181  27.211  1.00  0.00    -0.049 A 
ATOM     10  H   UNL     1     -42.144  42.342  27.930  1.00  0.00     0.066 H 
ATOM     11  C   UNL     1     -44.411  39.342  28.641  1.00  0.00     0.076 A 
ATOM     12  C   UNL     1     -44.639  40.083  27.465  1.00  0.00     0.001 A 
ATOM     13  H   UNL     1     -43.935  41.781  26.314  1.00  0.00     0.063 H 
ATOM     14  C   UNL     1     -45.226  38.243  28.903  1.00  0.00     0.007 A 
ATOM     15  C   UNL     1     -45.665  39.713  26.585  1.00  0.00    -0.049 A 
ATOM     16  H   UNL     1     -45.033  37.705  29.825  1.00  0.00     0.069 H 
ATOM     17  C   UNL     1     -46.466  38.611  26.875  1.00  0.00    -0.019 A 
ATOM     18  H   UNL     1     -45.846  40.277  25.673  1.00  0.00     0.063 H 
ATOM     19  H   UNL     1     -47.261  38.326  26.189  1.00  0.00     0.066 H 
BRANCH   6  20
ATOM     20  N   UNL     1     -41.660  41.006  30.178  1.00  0.00    -0.384 N 
ATOM     21  H   UNL     1     -40.742  40.791  29.808  1.00  0.00     0.158 HD
ATOM     22  H   UNL     1     -41.750  41.991  30.418  1.00  0.00     0.158 HD
ENDBRANCH   6  20
ENDBRANCH   4   5
ENDBRANCH   1   4
BRANCH   1  23
ATOM     23  C   UNL     1     -47.517  34.684  27.046  1.00  0.00     0.123 C 
ATOM     24  O   UNL     1     -47.567  34.164  25.697  1.00  0.00    -0.345 OA
ATOM     25  C   UNL     1     -46.180  34.239  27.654  1.00  0.00     0.114 C 
ATOM     26  H   UNL     1     -48.357  34.233  27.589  1.00  0.00     0.067 H 
ATOM     27  C   UNL     1     -46.368  33.389  25.496  1.00  0.00     0.164 C 
ATOM     28  C   UNL     1     -45.896  32.953  26.888  1.00  0.00     0.128 C 
ATOM     29  H   UNL     1     -45.383  34.967  27.470  1.00  0.00     0.066 H 
ATOM     30  H   UNL     1     -45.629  34.080  25.068  1.00  0.00     0.088 H 
ATOM     31  H   UNL     1     -44.844  32.660  26.915  1.00  0.00     0.068 H 
BRANCH  25  32
ATOM     32  O   UNL     1     -46.276  34.015  29.056  1.00  0.00    -0.387 OA
ATOM     33  H   UNL     1     -46.467  33.056  29.151  1.00  0.00     0.211 HD
ENDBRANCH  25  32
BRANCH  27  34
ATOM     34  N   UNL     1     -46.602  32.356  24.506  1.00  0.00    -0.303 N 
ATOM     35  C   UNL     1     -45.780  32.117  23.426  1.00  0.00     0.009 A 
ATOM     36  C   UNL     1     -47.670  31.492  24.462  1.00  0.00     0.147 A 
ATOM     37  C   UNL     1     -46.335  31.096  22.684  1.00  0.00    -0.031 A 
ATOM     38  H   UNL     1     -44.879  32.696  23.266  1.00  0.00     0.082 H 
ATOM     39  C   UNL     1     -47.537  30.698  23.330  1.00  0.00     0.061 A 
ATOM     40  N   UNL     1     -48.663  31.422  25.369  1.00  0.00    -0.218 NA
ATOM     41  H   UNL     1     -45.921  30.681  21.775  1.00  0.00     0.065 H 
ATOM     42  C   UNL     1     -48.542  29.749  23.100  1.00  0.00     0.136 A 
ATOM     43  C   UNL     1     -49.569  30.483  25.036  1.00  0.00     0.120 A 
ATOM     44  N   UNL     1     -49.566  29.660  23.971  1.00  0.00    -0.219 NA
ATOM     45  H   UNL     1     -50.410  30.373  25.714  1.00  0.00     0.106 H 
BRANCH  42  46
ATOM     46  N   UNL     1     -48.560  28.894  22.007  1.00  0.00    -0.383 N 
ATOM     47  H   UNL     1     -47.984  28.070  22.108  1.00  0.00     0.158 HD
ATOM     48  H   UNL     1     -48.447  29.419  21.147  1.00  0.00     0.158 HD
ENDBRANCH  42  46
ENDBRANCH  27  34
BRANCH  28  49
ATOM     49  O   UNL     1     -46.650  31.916  27.541  1.00  0.00    -0.386 OA
ATOM     50  H   UNL     1     -46.631  31.116  26.970  1.00  0.00     0.211 HD
ENDBRANCH  28  49
ENDBRANCH   1  23
TORSDOF 8
ENDMDL
MODEL 5
REMARK VINA RESULT:      -9.1      1.887      2.613
REMARK SMILES Nc1ccc2ccc(OC[C@H]3O[C@H](n4ccc5c(N)ncnc54)[C@H](O)[C@@H]3O)cc2n1
REMARK SMILES IDX 10 1 9 4 8 5 2 6 3 7 30 8 4 9 29 11 5 12 28 14 6 15 7 17
REMARK SMILES IDX 1 20 11 23 12 24 26 25 13 27 24 28 27 32 14 34 15 35 23 36
REMARK SMILES IDX 16 37 17 39 22 40 18 42 21 43 20 44 19 46 25 49
REMARK H PARENT 10 2 10 3 3 10 4 13 28 16 6 18 7 19 1 21 1 22 11 26 26 29
REMARK H PARENT 13 30 24 31 27 33 15 38 16 41 21 45 19 47 19 48 25 50
REMARK Flexibility Score: inf
ROOT
ATOM      1  C   UNL     1     -46.224  35.077  27.939  1.00  0.00     0.117 C 
ATOM      2  H   UNL     1     -47.171  34.956  28.480  1.00  0.00     0.073 H 
ATOM      3  H   UNL     1     -45.615  34.203  28.193  1.00  0.00     0.073 H 
ENDROOT
BRANCH   1   4
ATOM      4  O   UNL     1     -46.568  35.108  26.549  1.00  0.00    -0.491 OA
BRANCH   4   5
ATOM      5  C   UNL     1     -47.004  33.971  25.931  1.00  0.00     0.121 A 
ATOM      6  C   UNL     1     -46.676  30.267  22.980  1.00  0.00     0.124 A 
ATOM      7  C   UNL     1     -47.949  29.821  23.287  1.00  0.00    -0.019 A 
ATOM      8  N   UNL     1     -46.128  31.361  23.534  1.00  0.00    -0.231 NA
ATOM      9  C   UNL     1     -48.703  30.544  24.203  1.00  0.00    -0.049 A 
ATOM     10  H   UNL     1     -48.345  28.919  22.835  1.00  0.00     0.066 H 
ATOM     11  C   UNL     1     -46.852  32.064  24.424  1.00  0.00     0.076 A 
ATOM     12  C   UNL     1     -48.160  31.692  24.790  1.00  0.00     0.001 A 
ATOM     13  H   UNL     1     -49.705  30.206  24.457  1.00  0.00     0.063 H 
ATOM     14  C   UNL     1     -46.298  33.202  25.005  1.00  0.00     0.007 A 
ATOM     15  C   UNL     1     -48.879  32.458  25.718  1.00  0.00    -0.049 A 
ATOM     16  H   UNL     1     -45.295  33.468  24.689  1.00  0.00     0.069 H 
ATOM     17  C   UNL     1     -48.300  33.593  26.280  1.00  0.00    -0.019 A 
ATOM     18  H   UNL     1     -49.889  32.176  26.009  1.00  0.00     0.063 H 
ATOM     19  H   UNL     1     -48.860  34.184  27.001  1.00  0.00     0.066 H 
BRANCH   6  20
ATOM     20  N   UNL     1     -45.877  29.562  22.082  1.00  0.00    -0.384 N 
ATOM     21  H   UNL     1     -45.526  30.162  21.345  1.00  0.00     0.158 HD
ATOM     22  H   UNL     1     -45.123  29.147  22.624  1.00  0.00     0.158 HD
ENDBRANCH   6  20
ENDBRANCH   4   5
ENDBRANCH   1   4
BRANCH   1  23
ATOM     23  C   UNL     1     -45.569  36.384  28.399  1.00  0.00     0.123 C 
ATOM     24  O   UNL     1     -45.580  37.364  27.335  1.00  0.00    -0.345 OA
ATOM     25  C   UNL     1     -46.266  37.022  29.609  1.00  0.00     0.114 C 
ATOM     26  H   UNL     1     -44.516  36.176  28.625  1.00  0.00     0.067 H 
ATOM     27  C   UNL     1     -46.187  38.560  27.865  1.00  0.00     0.164 C 
ATOM     28  C   UNL     1     -45.995  38.504  29.385  1.00  0.00     0.128 C 
ATOM     29  H   UNL     1     -47.344  36.835  29.609  1.00  0.00     0.066 H 
ATOM     30  H   UNL     1     -47.258  38.484  27.636  1.00  0.00     0.088 H 
ATOM     31  H   UNL     1     -46.685  39.154  29.931  1.00  0.00     0.068 H 
BRANCH  25  32
ATOM     32  O   UNL     1     -45.725  36.562  30.844  1.00  0.00    -0.387 OA
ATOM     33  H   UNL     1     -45.800  37.325  31.457  1.00  0.00     0.211 HD
ENDBRANCH  25  32
BRANCH  27  34
ATOM     34  N   UNL     1     -45.687  39.726  27.163  1.00  0.00    -0.303 N 
ATOM     35  C   UNL     1     -44.388  39.869  26.725  1.00  0.00     0.009 A 
ATOM     36  C   UNL     1     -46.396  40.863  26.857  1.00  0.00     0.147 A 
ATOM     37  C   UNL     1     -44.269  41.113  26.142  1.00  0.00    -0.031 A 
ATOM     38  H   UNL     1     -43.654  39.086  26.873  1.00  0.00     0.082 H 
ATOM     39  C   UNL     1     -45.535  41.753  26.227  1.00  0.00     0.061 A 
ATOM     40  N   UNL     1     -47.702  41.068  27.113  1.00  0.00    -0.218 NA
ATOM     41  H   UNL     1     -43.367  41.519  25.702  1.00  0.00     0.065 H 
ATOM     42  C   UNL     1     -46.072  42.988  25.841  1.00  0.00     0.136 A 
ATOM     43  C   UNL     1     -48.098  42.289  26.706  1.00  0.00     0.120 A 
ATOM     44  N   UNL     1     -47.369  43.243  26.098  1.00  0.00    -0.219 NA
ATOM     45  H   UNL     1     -49.140  42.536  26.888  1.00  0.00     0.106 H 
BRANCH  42  46
ATOM     46  N   UNL     1     -45.337  43.987  25.217  1.00  0.00    -0.383 N 
ATOM     47  H   UNL     1     -44.383  44.070  25.539  1.00  0.00     0.158 HD
ATOM     48  H   UNL     1     -45.873  44.845  25.176  1.00  0.00     0.158 HD
ENDBRANCH  42  46
ENDBRANCH  27  34
BRANCH  28  49
ATOM     49  O   UNL     1     -44.672  38.758  29.889  1.00  0.00    -0.386 OA
ATOM     50  H   UNL     1     -44.050  38.136  29.450  1.00  0.00     0.211 HD
ENDBRANCH  28  49
ENDBRANCH   1  23
TORSDOF 8
ENDMDL
MODEL 6
REMARK VINA RESULT:      -8.9      4.077      6.412
REMARK SMILES Nc1ccc2ccc(OC[C@H]3O[C@H](n4ccc5c(N)ncnc54)[C@H](O)[C@@H]3O)cc2n1
REMARK SMILES IDX 10 1 9 4 8 5 2 6 3 7 30 8 4 9 29 11 5 12 28 14 6 15 7 17
REMARK SMILES IDX 1 20 11 23 12 24 26 25 13 27 24 28 27 32 14 34 15 35 23 36
REMARK SMILES IDX 16 37 17 39 22 40 18 42 21 43 20 44 19 46 25 49
REMARK H PARENT 10 2 10 3 3 10 4 13 28 16 6 18 7 19 1 21 1 22 11 26 26 29
REMARK H PARENT 13 30 24 31 27 33 15 38 16 41 21 45 19 47 19 48 25 50
REMARK Flexibility Score: inf
ROOT
ATOM      1  C   UNL     1     -46.572  30.957  22.777  1.00  0.00     0.117 C 
ATOM      2  H   UNL     1     -45.497  31.160  22.851  1.00  0.00     0.073 H 
ATOM      3  H   UNL     1     -46.968  31.672  22.049  1.00  0.00     0.073 H 
ENDROOT
BRANCH   1   4
ATOM      4  O   UNL     1     -46.685  29.605  22.320  1.00  0.00    -0.491 OA
BRANCH   4   5
ATOM      5  C   UNL     1     -46.916  28.601  23.215  1.00  0.00     0.121 A 
ATOM      6  C   UNL     1     -49.546  25.963  26.158  1.00  0.00     0.124 A 
ATOM      7  C   UNL     1     -48.469  25.178  26.529  1.00  0.00    -0.019 A 
ATOM      8  N   UNL     1     -49.451  26.969  25.274  1.00  0.00    -0.231 NA
ATOM      9  C   UNL     1     -47.225  25.450  25.971  1.00  0.00    -0.049 A 
ATOM     10  H   UNL     1     -48.593  24.360  27.229  1.00  0.00     0.066 H 
ATOM     11  C   UNL     1     -48.251  27.235  24.727  1.00  0.00     0.076 A 
ATOM     12  C   UNL     1     -47.096  26.497  25.053  1.00  0.00     0.001 A 
ATOM     13  H   UNL     1     -46.369  24.842  26.251  1.00  0.00     0.063 H 
ATOM     14  C   UNL     1     -48.136  28.277  23.811  1.00  0.00     0.007 A 
ATOM     15  C   UNL     1     -45.865  26.814  24.462  1.00  0.00    -0.049 A 
ATOM     16  H   UNL     1     -49.041  28.835  23.594  1.00  0.00     0.069 H 
ATOM     17  C   UNL     1     -45.781  27.864  23.551  1.00  0.00    -0.019 A 
ATOM     18  H   UNL     1     -44.969  26.247  24.706  1.00  0.00     0.063 H 
ATOM     19  H   UNL     1     -44.824  28.105  23.093  1.00  0.00     0.066 H 
BRANCH   6  20
ATOM     20  N   UNL     1     -50.815  25.714  26.679  1.00  0.00    -0.384 N 
ATOM     21  H   UNL     1     -51.542  25.930  26.009  1.00  0.00     0.158 HD
ATOM     22  H   UNL     1     -50.831  24.733  26.951  1.00  0.00     0.158 HD
ENDBRANCH   6  20
ENDBRANCH   4   5
ENDBRANCH   1   4
BRANCH   1  23
ATOM     23  C   UNL     1     -47.196  31.149  24.165  1.00  0.00     0.123 C 
ATOM     24  O   UNL     1     -46.381  32.028  24.975  1.00  0.00    -0.345 OA
ATOM     25  C   UNL     1     -48.607  31.753  24.121  1.00  0.00     0.114 C 
ATOM     26  H   UNL     1     -47.208  30.175  24.670  1.00  0.00     0.067 H 
ATOM     27  C   UNL     1     -47.241  33.079  25.460  1.00  0.00     0.164 C 
ATOM     28  C   UNL     1     -48.667  32.514  25.439  1.00  0.00     0.128 C 
ATOM     29  H   UNL     1     -48.731  32.446  23.283  1.00  0.00     0.066 H 
ATOM     30  H   UNL     1     -47.169  33.893  24.726  1.00  0.00     0.088 H 
ATOM     31  H   UNL     1     -49.438  33.289  25.453  1.00  0.00     0.068 H 
BRANCH  25  32
ATOM     32  O   UNL     1     -49.616  30.752  24.036  1.00  0.00    -0.387 OA
ATOM     33  H   UNL     1     -49.295  30.120  23.358  1.00  0.00     0.211 HD
ENDBRANCH  25  32
BRANCH  27  34
ATOM     34  N   UNL     1     -46.737  33.596  26.716  1.00  0.00    -0.303 N 
ATOM     35  C   UNL     1     -46.007  32.857  27.622  1.00  0.00     0.009 A 
ATOM     36  C   UNL     1     -46.929  34.862  27.216  1.00  0.00     0.147 A 
ATOM     37  C   UNL     1     -45.738  33.660  28.710  1.00  0.00    -0.031 A 
ATOM     38  H   UNL     1     -45.749  31.823  27.427  1.00  0.00     0.082 H 
ATOM     39  C   UNL     1     -46.324  34.931  28.464  1.00  0.00     0.061 A 
ATOM     40  N   UNL     1     -47.578  35.864  26.592  1.00  0.00    -0.218 NA
ATOM     41  H   UNL     1     -45.179  33.364  29.589  1.00  0.00     0.065 H 
ATOM     42  C   UNL     1     -46.417  36.151  29.147  1.00  0.00     0.136 A 
ATOM     43  C   UNL     1     -47.609  36.977  27.348  1.00  0.00     0.120 A 
ATOM     44  N   UNL     1     -47.078  37.172  28.569  1.00  0.00    -0.219 NA
ATOM     45  H   UNL     1     -48.128  37.830  26.918  1.00  0.00     0.106 H 
BRANCH  42  46
ATOM     46  N   UNL     1     -45.880  36.372  30.408  1.00  0.00    -0.383 N 
ATOM     47  H   UNL     1     -46.408  35.964  31.167  1.00  0.00     0.158 HD
ATOM     48  H   UNL     1     -45.618  37.344  30.514  1.00  0.00     0.158 HD
ENDBRANCH  42  46
ENDBRANCH  27  34
BRANCH  28  49
ATOM     49  O   UNL     1     -49.005  31.549  26.451  1.00  0.00    -0.386 OA
ATOM     50  H   UNL     1     -49.493  32.013  27.168  1.00  0.00     0.211 HD
ENDBRANCH  28  49
ENDBRANCH   1  23
TORSDOF 8
ENDMDL
MODEL 7
REMARK VINA RESULT:      -8.8      2.347     10.188
REMARK SMILES Nc1ccc2ccc(OC[C@H]3O[C@H](n4ccc5c(N)ncnc54)[C@H](O)[C@@H]3O)cc2n1
REMARK SMILES IDX 10 1 9 4 8 5 2 6 3 7 30 8 4 9 29 11 5 12 28 14 6 15 7 17
REMARK SMILES IDX 1 20 11 23 12 24 26 25 13 27 24 28 27 32 14 34 15 35 23 36
REMARK SMILES IDX 16 37 17 39 22 40 18 42 21 43 20 44 19 46 25 49
REMARK H PARENT 10 2 10 3 3 10 4 13 28 16 6 18 7 19 1 21 1 22 11 26 26 29
REMARK H PARENT 13 30 24 31 27 33 15 38 16 41 21 45 19 47 19 48 25 50
REMARK Flexibility Score: inf
ROOT
ATOM      1  C   UNL     1     -48.753  34.536  26.801  1.00  0.00     0.117 C 
ATOM      2  H   UNL     1     -49.759  34.117  26.932  1.00  0.00     0.073 H 
ATOM      3  H   UNL     1     -48.845  35.315  26.038  1.00  0.00     0.073 H 
ENDROOT
BRANCH   1   4
ATOM      4  O   UNL     1     -48.385  35.074  28.077  1.00  0.00    -0.491 OA
BRANCH   4   5
ATOM      5  C   UNL     1     -47.488  36.101  28.149  1.00  0.00     0.121 A 
ATOM      6  C   UNL     1     -45.348  40.074  26.677  1.00  0.00     0.124 A 
ATOM      7  C   UNL     1     -44.477  40.086  27.751  1.00  0.00    -0.019 A 
ATOM      8  N   UNL     1     -46.287  39.129  26.504  1.00  0.00    -0.231 NA
ATOM      9  C   UNL     1     -44.566  39.064  28.690  1.00  0.00    -0.049 A 
ATOM     10  H   UNL     1     -43.748  40.880  27.867  1.00  0.00     0.066 H 
ATOM     11  C   UNL     1     -46.381  38.140  27.411  1.00  0.00     0.076 A 
ATOM     12  C   UNL     1     -45.529  38.063  28.530  1.00  0.00     0.001 A 
ATOM     13  H   UNL     1     -43.889  39.060  29.541  1.00  0.00     0.063 H 
ATOM     14  C   UNL     1     -47.347  37.152  27.243  1.00  0.00     0.007 A 
ATOM     15  C   UNL     1     -45.660  37.011  29.447  1.00  0.00    -0.049 A 
ATOM     16  H   UNL     1     -47.976  37.233  26.362  1.00  0.00     0.069 H 
ATOM     17  C   UNL     1     -46.634  36.035  29.250  1.00  0.00    -0.019 A 
ATOM     18  H   UNL     1     -45.008  36.945  30.316  1.00  0.00     0.063 H 
ATOM     19  H   UNL     1     -46.734  35.221  29.965  1.00  0.00     0.066 H 
BRANCH   6  20
ATOM     20  N   UNL     1     -45.306  41.088  25.722  1.00  0.00    -0.384 N 
ATOM     21  H   UNL     1     -44.550  40.949  25.064  1.00  0.00     0.158 HD
ATOM     22  H   UNL     1     -46.214  41.093  25.261  1.00  0.00     0.158 HD
ENDBRANCH   6  20
ENDBRANCH   4   5
ENDBRANCH   1   4
BRANCH   1  23
ATOM     23  C   UNL     1     -47.813  33.409  26.359  1.00  0.00     0.123 C 
ATOM     24  O   UNL     1     -48.550  32.365  25.681  1.00  0.00    -0.345 OA
ATOM     25  C   UNL     1     -46.708  33.877  25.403  1.00  0.00     0.114 C 
ATOM     26  H   UNL     1     -47.380  32.955  27.259  1.00  0.00     0.067 H 
ATOM     27  C   UNL     1     -47.907  32.149  24.408  1.00  0.00     0.164 C 
ATOM     28  C   UNL     1     -46.459  32.627  24.570  1.00  0.00     0.128 C 
ATOM     29  H   UNL     1     -47.041  34.696  24.758  1.00  0.00     0.066 H 
ATOM     30  H   UNL     1     -48.422  32.805  23.693  1.00  0.00     0.088 H 
ATOM     31  H   UNL     1     -45.965  32.836  23.617  1.00  0.00     0.068 H 
BRANCH  25  32
ATOM     32  O   UNL     1     -45.538  34.295  26.099  1.00  0.00    -0.387 OA
ATOM     33  H   UNL     1     -45.814  34.382  27.037  1.00  0.00     0.211 HD
ENDBRANCH  25  32
BRANCH  27  34
ATOM     34  N   UNL     1     -48.125  30.787  23.964  1.00  0.00    -0.303 N 
ATOM     35  C   UNL     1     -47.115  29.895  23.675  1.00  0.00     0.009 A 
ATOM     36  C   UNL     1     -49.339  30.187  23.729  1.00  0.00     0.147 A 
ATOM     37  C   UNL     1     -47.693  28.719  23.246  1.00  0.00    -0.031 A 
ATOM     38  H   UNL     1     -46.073  30.169  23.786  1.00  0.00     0.082 H 
ATOM     39  C   UNL     1     -49.102  28.897  23.271  1.00  0.00     0.061 A 
ATOM     40  N   UNL     1     -50.546  30.751  23.925  1.00  0.00    -0.218 NA
ATOM     41  H   UNL     1     -47.158  27.827  22.947  1.00  0.00     0.065 H 
ATOM     42  C   UNL     1     -50.226  28.118  22.964  1.00  0.00     0.136 A 
ATOM     43  C   UNL     1     -51.543  29.911  23.587  1.00  0.00     0.120 A 
ATOM     44  N   UNL     1     -51.452  28.651  23.124  1.00  0.00    -0.219 NA
ATOM     45  H   UNL     1     -52.551  30.298  23.706  1.00  0.00     0.106 H 
BRANCH  42  46
ATOM     46  N   UNL     1     -50.154  26.818  22.481  1.00  0.00    -0.383 N 
ATOM     47  H   UNL     1     -50.714  26.644  21.658  1.00  0.00     0.158 HD
ATOM     48  H   UNL     1     -50.252  26.154  23.240  1.00  0.00     0.158 HD
ENDBRANCH  42  46
ENDBRANCH  27  34
BRANCH  28  49
ATOM     49  O   UNL     1     -45.576  31.793  25.340  1.00  0.00    -0.386 OA
ATOM     50  H   UNL     1     -44.803  31.560  24.778  1.00  0.00     0.211 HD
ENDBRANCH  28  49
ENDBRANCH   1  23
TORSDOF 8
ENDMDL
