MODEL 1
REMARK VINA RESULT:      -9.4      0.000      0.000
REMARK SMILES CCc1cc(NCCOC)c2c(F)cc(OCc3cncc(-n4cc([C@H]5CCCO5)c5c(N)ncnc54)c3)cc2n1
REMARK SMILES IDX 3 1 4 2 5 3 11 4 12 5 13 6 14 7 15 8 39 9 40 10 41 11 2 15
REMARK SMILES IDX 1 18 6 22 7 24 8 27 9 30 10 31 16 35 17 36 18 39 19 40 38 41
REMARK SMILES IDX 20 42 22 44 21 46 23 48 24 49 37 50 25 51 31 53 36 54 32 55
REMARK SMILES IDX 35 56 34 57 26 59 27 60 30 61 28 63 29 66 33 71
REMARK H PARENT 4 12 14 13 39 14 2 16 2 17 1 19 1 20 1 21 6 23 7 25 7 26 8 28
REMARK H PARENT 8 29 10 32 10 33 10 34 17 37 17 38 19 43 38 45 21 47 24 52
REMARK H PARENT 35 58 26 62 27 64 27 65 28 67 28 68 29 69 29 70 33 72 33 73
REMARK Flexibility Score: inf
ROOT
ATOM      1  C   UNL     1     -46.266  30.033  22.773  1.00  0.00     0.043 A 
ATOM      2  C   UNL     1     -47.557  29.662  22.420  1.00  0.00    -0.017 A 
ATOM      3  C   UNL     1     -48.650  30.277  23.036  1.00  0.00     0.048 A 
ATOM      4  C   UNL     1     -48.387  31.237  24.055  1.00  0.00     0.059 A 
ATOM      5  C   UNL     1     -49.378  31.919  24.795  1.00  0.00     0.138 A 
ATOM      6  F   UNL     1     -50.680  31.699  24.542  1.00  0.00    -0.206 F 
ATOM      7  C   UNL     1     -49.064  32.838  25.790  1.00  0.00     0.017 A 
ATOM      8  C   UNL     1     -47.736  33.109  26.077  1.00  0.00     0.124 A 
ATOM      9  C   UNL     1     -46.743  32.479  25.327  1.00  0.00     0.007 A 
ATOM     10  C   UNL     1     -47.042  31.543  24.343  1.00  0.00     0.079 A 
ATOM     11  N   UNL     1     -46.009  30.966  23.713  1.00  0.00    -0.252 NA
ATOM     12  H   UNL     1     -47.696  28.873  21.690  1.00  0.00     0.066 H 
ATOM     13  H   UNL     1     -49.863  33.325  26.340  1.00  0.00     0.069 H 
ATOM     14  H   UNL     1     -45.694  32.696  25.484  1.00  0.00     0.069 H 
ENDROOT
BRANCH   1  15
ATOM     15  C   UNL     1     -45.076  29.353  22.146  1.00  0.00    -0.013 C 
ATOM     16  H   UNL     1     -45.220  29.276  21.061  1.00  0.00     0.033 H 
ATOM     17  H   UNL     1     -44.186  29.974  22.301  1.00  0.00     0.033 H 
BRANCH  15  18
ATOM     18  C   UNL     1     -44.841  27.975  22.744  1.00  0.00    -0.060 C 
ATOM     19  H   UNL     1     -44.243  28.037  23.660  1.00  0.00     0.023 H 
ATOM     20  H   UNL     1     -44.307  27.339  22.031  1.00  0.00     0.023 H 
ATOM     21  H   UNL     1     -45.787  27.484  22.995  1.00  0.00     0.023 H 
ENDBRANCH  15  18
ENDBRANCH   1  15
BRANCH   3  22
ATOM     22  N   UNL     1     -49.965  29.878  22.744  1.00  0.00    -0.382 N 
ATOM     23  H   UNL     1     -50.111  29.742  21.741  1.00  0.00     0.160 HD
BRANCH  22  24
ATOM     24  C   UNL     1     -50.628  28.842  23.539  1.00  0.00     0.038 C 
ATOM     25  H   UNL     1     -50.608  29.079  24.607  1.00  0.00     0.051 H 
ATOM     26  H   UNL     1     -51.693  28.845  23.274  1.00  0.00     0.051 H 
BRANCH  24  27
ATOM     27  C   UNL     1     -50.064  27.440  23.262  1.00  0.00     0.063 C 
ATOM     28  H   UNL     1     -50.422  27.098  22.284  1.00  0.00     0.059 H 
ATOM     29  H   UNL     1     -48.969  27.440  23.214  1.00  0.00     0.059 H 
BRANCH  27  30
ATOM     30  O   UNL     1     -50.518  26.482  24.223  1.00  0.00    -0.383 OA
BRANCH  30  31
ATOM     31  C   UNL     1     -49.493  26.062  25.114  1.00  0.00     0.036 C 
ATOM     32  H   UNL     1     -49.050  25.145  24.716  1.00  0.00     0.053 H 
ATOM     33  H   UNL     1     -48.711  26.823  25.186  1.00  0.00     0.053 H 
ATOM     34  H   UNL     1     -49.901  25.846  26.105  1.00  0.00     0.053 H 
ENDBRANCH  30  31
ENDBRANCH  27  30
ENDBRANCH  24  27
ENDBRANCH  22  24
ENDBRANCH   3  22
BRANCH   8  35
ATOM     35  O   UNL     1     -47.531  34.006  27.088  1.00  0.00    -0.489 OA
BRANCH  35  36
ATOM     36  C   UNL     1     -47.849  35.382  26.855  1.00  0.00     0.115 C 
ATOM     37  H   UNL     1     -48.914  35.503  27.085  1.00  0.00     0.076 H 
ATOM     38  H   UNL     1     -47.756  35.644  25.795  1.00  0.00     0.076 H 
BRANCH  36  39
ATOM     39  C   UNL     1     -47.073  36.305  27.756  1.00  0.00     0.010 A 
ATOM     40  C   UNL     1     -46.840  35.969  29.082  1.00  0.00     0.034 A 
ATOM     41  C   UNL     1     -46.540  37.516  27.292  1.00  0.00    -0.028 A 
ATOM     42  N   UNL     1     -46.148  36.745  29.941  1.00  0.00    -0.262 NA
ATOM     43  H   UNL     1     -47.212  35.039  29.504  1.00  0.00     0.084 H 
ATOM     44  C   UNL     1     -45.789  38.337  28.144  1.00  0.00     0.066 A 
ATOM     45  H   UNL     1     -46.735  37.797  26.262  1.00  0.00     0.065 H 
ATOM     46  C   UNL     1     -45.634  37.906  29.457  1.00  0.00     0.051 A 
ATOM     47  H   UNL     1     -45.062  38.450  30.200  1.00  0.00     0.086 H 
BRANCH  44  48
ATOM     48  N   UNL     1     -45.195  39.547  27.666  1.00  0.00    -0.299 N 
ATOM     49  C   UNL     1     -45.627  40.257  26.556  1.00  0.00     0.018 A 
ATOM     50  C   UNL     1     -44.094  40.227  28.185  1.00  0.00     0.150 A 
ATOM     51  C   UNL     1     -44.844  41.382  26.365  1.00  0.00     0.012 A 
ATOM     52  H   UNL     1     -46.443  39.895  25.948  1.00  0.00     0.083 H 
ATOM     53  C   UNL     1     -43.859  41.355  27.402  1.00  0.00     0.067 A 
ATOM     54  N   UNL     1     -43.379  39.879  29.274  1.00  0.00    -0.218 NA
ATOM     55  C   UNL     1     -42.773  42.168  27.774  1.00  0.00     0.136 A 
ATOM     56  C   UNL     1     -42.378  40.731  29.530  1.00  0.00     0.120 A 
ATOM     57  N   UNL     1     -42.042  41.839  28.853  1.00  0.00    -0.219 NA
ATOM     58  H   UNL     1     -41.762  40.498  30.394  1.00  0.00     0.106 H 
BRANCH  51  59
ATOM     59  C   UNL     1     -44.955  42.400  25.268  1.00  0.00     0.085 C 
ATOM     60  C   UNL     1     -45.304  43.815  25.719  1.00  0.00    -0.020 C 
ATOM     61  O   UNL     1     -43.716  42.526  24.527  1.00  0.00    -0.373 OA
ATOM     62  H   UNL     1     -45.709  42.053  24.551  1.00  0.00     0.066 H 
ATOM     63  C   UNL     1     -44.751  44.649  24.592  1.00  0.00    -0.027 C 
ATOM     64  H   UNL     1     -44.784  44.081  26.647  1.00  0.00     0.030 H 
ATOM     65  H   UNL     1     -46.376  43.958  25.879  1.00  0.00     0.030 H 
ATOM     66  C   UNL     1     -43.468  43.916  24.276  1.00  0.00     0.048 C 
ATOM     67  H   UNL     1     -44.591  45.697  24.857  1.00  0.00     0.029 H 
ATOM     68  H   UNL     1     -45.431  44.609  23.732  1.00  0.00     0.029 H 
ATOM     69  H   UNL     1     -43.151  44.052  23.238  1.00  0.00     0.057 H 
ATOM     70  H   UNL     1     -42.654  44.235  24.935  1.00  0.00     0.057 H 
ENDBRANCH  51  59
BRANCH  55  71
ATOM     71  N   UNL     1     -42.413  43.327  27.098  1.00  0.00    -0.383 N 
ATOM     72  H   UNL     1     -41.419  43.323  26.902  1.00  0.00     0.158 HD
ATOM     73  H   UNL     1     -42.768  44.169  27.553  1.00  0.00     0.158 HD
ENDBRANCH  55  71
ENDBRANCH  44  48
ENDBRANCH  36  39
ENDBRANCH  35  36
ENDBRANCH   8  35
TORSDOF 13
ENDMDL
MODEL 2
REMARK VINA RESULT:      -9.2      2.303     12.343
REMARK SMILES CCc1cc(NCCOC)c2c(F)cc(OCc3cncc(-n4cc([C@H]5CCCO5)c5c(N)ncnc54)c3)cc2n1
REMARK SMILES IDX 3 1 4 2 5 3 11 4 12 5 13 6 14 7 15 8 39 9 40 10 41 11 2 15
REMARK SMILES IDX 1 18 6 22 7 24 8 27 9 30 10 31 16 35 17 36 18 39 19 40 38 41
REMARK SMILES IDX 20 42 22 44 21 46 23 48 24 49 37 50 25 51 31 53 36 54 32 55
REMARK SMILES IDX 35 56 34 57 26 59 27 60 30 61 28 63 29 66 33 71
REMARK H PARENT 4 12 14 13 39 14 2 16 2 17 1 19 1 20 1 21 6 23 7 25 7 26 8 28
REMARK H PARENT 8 29 10 32 10 33 10 34 17 37 17 38 19 43 38 45 21 47 24 52
REMARK H PARENT 35 58 26 62 27 64 27 65 28 67 28 68 29 69 29 70 33 72 33 73
REMARK Flexibility Score: inf
ROOT
ATOM      1  C   UNL     1     -43.076  41.236  28.287  1.00  0.00     0.043 A 
ATOM      2  C   UNL     1     -43.759  41.899  27.276  1.00  0.00    -0.017 A 
ATOM      3  C   UNL     1     -44.907  41.326  26.722  1.00  0.00     0.048 A 
ATOM      4  C   UNL     1     -45.303  40.041  27.190  1.00  0.00     0.059 A 
ATOM      5  C   UNL     1     -46.415  39.316  26.709  1.00  0.00     0.138 A 
ATOM      6  F   UNL     1     -47.203  39.842  25.756  1.00  0.00    -0.206 F 
ATOM      7  C   UNL     1     -46.749  38.056  27.194  1.00  0.00     0.017 A 
ATOM      8  C   UNL     1     -45.975  37.478  28.188  1.00  0.00     0.124 A 
ATOM      9  C   UNL     1     -44.900  38.198  28.707  1.00  0.00     0.007 A 
ATOM     10  C   UNL     1     -44.542  39.449  28.218  1.00  0.00     0.079 A 
ATOM     11  N   UNL     1     -43.464  40.034  28.760  1.00  0.00    -0.252 NA
ATOM     12  H   UNL     1     -43.369  42.842  26.908  1.00  0.00     0.066 H 
ATOM     13  H   UNL     1     -47.605  37.533  26.781  1.00  0.00     0.069 H 
ATOM     14  H   UNL     1     -44.297  37.806  29.518  1.00  0.00     0.069 H 
ENDROOT
BRANCH   1  15
ATOM     15  C   UNL     1     -41.814  41.821  28.869  1.00  0.00    -0.013 C 
ATOM     16  H   UNL     1     -41.004  41.765  28.132  1.00  0.00     0.033 H 
ATOM     17  H   UNL     1     -41.975  42.885  29.078  1.00  0.00     0.033 H 
BRANCH  15  18
ATOM     18  C   UNL     1     -41.410  41.110  30.151  1.00  0.00    -0.060 C 
ATOM     19  H   UNL     1     -41.963  40.172  30.276  1.00  0.00     0.023 H 
ATOM     20  H   UNL     1     -41.617  41.746  31.017  1.00  0.00     0.023 H 
ATOM     21  H   UNL     1     -40.341  40.871  30.153  1.00  0.00     0.023 H 
ENDBRANCH  15  18
ENDBRANCH   1  15
BRANCH   3  22
ATOM     22  N   UNL     1     -45.582  41.944  25.655  1.00  0.00    -0.382 N 
ATOM     23  H   UNL     1     -45.956  41.262  24.992  1.00  0.00     0.160 HD
BRANCH  22  24
ATOM     24  C   UNL     1     -46.517  43.044  25.896  1.00  0.00     0.038 C 
ATOM     25  H   UNL     1     -47.287  43.095  25.119  1.00  0.00     0.051 H 
ATOM     26  H   UNL     1     -47.069  42.822  26.818  1.00  0.00     0.051 H 
BRANCH  24  27
ATOM     27  C   UNL     1     -45.803  44.393  26.072  1.00  0.00     0.063 C 
ATOM     28  H   UNL     1     -46.533  45.143  26.394  1.00  0.00     0.059 H 
ATOM     29  H   UNL     1     -45.031  44.350  26.848  1.00  0.00     0.059 H 
BRANCH  27  30
ATOM     30  O   UNL     1     -45.244  44.866  24.843  1.00  0.00    -0.383 OA
BRANCH  30  31
ATOM     31  C   UNL     1     -46.196  44.935  23.789  1.00  0.00     0.036 C 
ATOM     32  H   UNL     1     -45.654  44.920  22.839  1.00  0.00     0.053 H 
ATOM     33  H   UNL     1     -46.866  44.072  23.820  1.00  0.00     0.053 H 
ATOM     34  H   UNL     1     -46.772  45.863  23.843  1.00  0.00     0.053 H 
ENDBRANCH  30  31
ENDBRANCH  27  30
ENDBRANCH  24  27
ENDBRANCH  22  24
ENDBRANCH   3  22
BRANCH   8  35
ATOM     35  O   UNL     1     -46.369  36.228  28.579  1.00  0.00    -0.489 OA
BRANCH  35  36
ATOM     36  C   UNL     1     -45.992  35.110  27.770  1.00  0.00     0.115 C 
ATOM     37  H   UNL     1     -45.480  34.401  28.432  1.00  0.00     0.076 H 
ATOM     38  H   UNL     1     -45.244  35.388  27.020  1.00  0.00     0.076 H 
BRANCH  36  39
ATOM     39  C   UNL     1     -47.185  34.410  27.175  1.00  0.00     0.010 A 
ATOM     40  C   UNL     1     -48.437  35.009  27.192  1.00  0.00     0.034 A 
ATOM     41  C   UNL     1     -47.077  33.153  26.567  1.00  0.00    -0.028 A 
ATOM     42  N   UNL     1     -49.545  34.442  26.672  1.00  0.00    -0.262 NA
ATOM     43  H   UNL     1     -48.590  35.989  27.635  1.00  0.00     0.084 H 
ATOM     44  C   UNL     1     -48.198  32.542  25.988  1.00  0.00     0.066 A 
ATOM     45  H   UNL     1     -46.106  32.667  26.568  1.00  0.00     0.065 H 
ATOM     46  C   UNL     1     -49.404  33.228  26.079  1.00  0.00     0.051 A 
ATOM     47  H   UNL     1     -50.332  32.862  25.655  1.00  0.00     0.086 H 
BRANCH  44  48
ATOM     48  N   UNL     1     -48.088  31.284  25.317  1.00  0.00    -0.299 N 
ATOM     49  C   UNL     1     -48.699  30.110  25.731  1.00  0.00     0.018 A 
ATOM     50  C   UNL     1     -47.362  30.985  24.166  1.00  0.00     0.150 A 
ATOM     51  C   UNL     1     -48.397  29.075  24.862  1.00  0.00     0.012 A 
ATOM     52  H   UNL     1     -49.280  30.076  26.640  1.00  0.00     0.083 H 
ATOM     53  C   UNL     1     -47.535  29.635  23.869  1.00  0.00     0.067 A 
ATOM     54  N   UNL     1     -46.628  31.849  23.435  1.00  0.00    -0.218 NA
ATOM     55  C   UNL     1     -46.865  29.146  22.732  1.00  0.00     0.136 A 
ATOM     56  C   UNL     1     -46.045  31.269  22.378  1.00  0.00     0.120 A 
ATOM     57  N   UNL     1     -46.123  29.987  21.992  1.00  0.00    -0.219 NA
ATOM     58  H   UNL     1     -45.434  31.916  21.755  1.00  0.00     0.106 H 
BRANCH  51  59
ATOM     59  C   UNL     1     -48.830  27.641  24.961  1.00  0.00     0.085 C 
ATOM     60  C   UNL     1     -48.275  26.868  26.153  1.00  0.00    -0.020 C 
ATOM     61  O   UNL     1     -50.271  27.523  25.062  1.00  0.00    -0.373 OA
ATOM     62  H   UNL     1     -48.543  27.130  24.033  1.00  0.00     0.066 H 
ATOM     63  C   UNL     1     -49.300  25.778  26.326  1.00  0.00    -0.027 C 
ATOM     64  H   UNL     1     -48.254  27.486  27.059  1.00  0.00     0.030 H 
ATOM     65  H   UNL     1     -47.263  26.489  25.981  1.00  0.00     0.030 H 
ATOM     66  C   UNL     1     -50.584  26.524  26.042  1.00  0.00     0.048 C 
ATOM     67  H   UNL     1     -49.286  25.313  27.315  1.00  0.00     0.029 H 
ATOM     68  H   UNL     1     -49.144  24.997  25.573  1.00  0.00     0.029 H 
ATOM     69  H   UNL     1     -51.375  25.871  25.664  1.00  0.00     0.057 H 
ATOM     70  H   UNL     1     -50.952  27.037  26.936  1.00  0.00     0.057 H 
ENDBRANCH  51  59
BRANCH  55  71
ATOM     71  N   UNL     1     -46.940  27.827  22.304  1.00  0.00    -0.383 N 
ATOM     72  H   UNL     1     -46.051  27.533  21.918  1.00  0.00     0.158 HD
ATOM     73  H   UNL     1     -47.754  27.657  21.711  1.00  0.00     0.158 HD
ENDBRANCH  55  71
ENDBRANCH  44  48
ENDBRANCH  36  39
ENDBRANCH  35  36
ENDBRANCH   8  35
TORSDOF 13
ENDMDL
MODEL 3
REMARK VINA RESULT:      -9.2      1.648      2.446
REMARK SMILES CCc1cc(NCCOC)c2c(F)cc(OCc3cncc(-n4cc([C@H]5CCCO5)c5c(N)ncnc54)c3)cc2n1
REMARK SMILES IDX 3 1 4 2 5 3 11 4 12 5 13 6 14 7 15 8 39 9 40 10 41 11 2 15
REMARK SMILES IDX 1 18 6 22 7 24 8 27 9 30 10 31 16 35 17 36 18 39 19 40 38 41
REMARK SMILES IDX 20 42 22 44 21 46 23 48 24 49 37 50 25 51 31 53 36 54 32 55
REMARK SMILES IDX 35 56 34 57 26 59 27 60 30 61 28 63 29 66 33 71
REMARK H PARENT 4 12 14 13 39 14 2 16 2 17 1 19 1 20 1 21 6 23 7 25 7 26 8 28
REMARK H PARENT 8 29 10 32 10 33 10 34 17 37 17 38 19 43 38 45 21 47 24 52
REMARK H PARENT 35 58 26 62 27 64 27 65 28 67 28 68 29 69 29 70 33 72 33 73
REMARK Flexibility Score: inf
ROOT
ATOM      1  C   UNL     1     -46.285  30.327  22.645  1.00  0.00     0.043 A 
ATOM      2  C   UNL     1     -47.571  29.873  22.382  1.00  0.00    -0.017 A 
ATOM      3  C   UNL     1     -48.655  30.413  23.079  1.00  0.00     0.048 A 
ATOM      4  C   UNL     1     -48.384  31.385  24.083  1.00  0.00     0.059 A 
ATOM      5  C   UNL     1     -49.363  31.998  24.897  1.00  0.00     0.138 A 
ATOM      6  F   UNL     1     -50.661  31.694  24.735  1.00  0.00    -0.206 F 
ATOM      7  C   UNL     1     -49.039  32.934  25.873  1.00  0.00     0.017 A 
ATOM      8  C   UNL     1     -47.714  33.292  26.067  1.00  0.00     0.124 A 
ATOM      9  C   UNL     1     -46.739  32.730  25.244  1.00  0.00     0.007 A 
ATOM     10  C   UNL     1     -47.045  31.779  24.277  1.00  0.00     0.079 A 
ATOM     11  N   UNL     1     -46.024  31.272  23.572  1.00  0.00    -0.252 NA
ATOM     12  H   UNL     1     -47.710  29.078  21.658  1.00  0.00     0.066 H 
ATOM     13  H   UNL     1     -49.827  33.366  26.482  1.00  0.00     0.069 H 
ATOM     14  H   UNL     1     -45.697  33.016  25.328  1.00  0.00     0.069 H 
ENDROOT
BRANCH   1  15
ATOM     15  C   UNL     1     -45.101  29.728  21.931  1.00  0.00    -0.013 C 
ATOM     16  H   UNL     1     -45.370  29.498  20.893  1.00  0.00     0.033 H 
ATOM     17  H   UNL     1     -44.296  30.471  21.888  1.00  0.00     0.033 H 
BRANCH  15  18
ATOM     18  C   UNL     1     -44.598  28.477  22.634  1.00  0.00    -0.060 C 
ATOM     19  H   UNL     1     -45.089  27.579  22.243  1.00  0.00     0.023 H 
ATOM     20  H   UNL     1     -44.804  28.539  23.707  1.00  0.00     0.023 H 
ATOM     21  H   UNL     1     -43.518  28.353  22.502  1.00  0.00     0.023 H 
ENDBRANCH  15  18
ENDBRANCH   1  15
BRANCH   3  22
ATOM     22  N   UNL     1     -49.958  29.928  22.878  1.00  0.00    -0.382 N 
ATOM     23  H   UNL     1     -50.181  29.827  21.885  1.00  0.00     0.160 HD
BRANCH  22  24
ATOM     24  C   UNL     1     -50.474  28.810  23.671  1.00  0.00     0.038 C 
ATOM     25  H   UNL     1     -50.060  28.811  24.685  1.00  0.00     0.051 H 
ATOM     26  H   UNL     1     -51.551  28.966  23.812  1.00  0.00     0.051 H 
BRANCH  24  27
ATOM     27  C   UNL     1     -50.267  27.456  22.978  1.00  0.00     0.063 C 
ATOM     28  H   UNL     1     -50.854  27.434  22.053  1.00  0.00     0.059 H 
ATOM     29  H   UNL     1     -49.221  27.297  22.691  1.00  0.00     0.059 H 
BRANCH  27  30
ATOM     30  O   UNL     1     -50.729  26.367  23.783  1.00  0.00    -0.383 OA
BRANCH  30  31
ATOM     31  C   UNL     1     -50.940  26.731  25.141  1.00  0.00     0.036 C 
ATOM     32  H   UNL     1     -51.993  26.555  25.381  1.00  0.00     0.053 H 
ATOM     33  H   UNL     1     -50.326  26.114  25.803  1.00  0.00     0.053 H 
ATOM     34  H   UNL     1     -50.722  27.790  25.301  1.00  0.00     0.053 H 
ENDBRANCH  30  31
ENDBRANCH  27  30
ENDBRANCH  24  27
ENDBRANCH  22  24
ENDBRANCH   3  22
BRANCH   8  35
ATOM     35  O   UNL     1     -47.498  34.198  27.068  1.00  0.00    -0.489 OA
BRANCH  35  36
ATOM     36  C   UNL     1     -47.968  35.538  26.889  1.00  0.00     0.115 C 
ATOM     37  H   UNL     1     -48.896  35.625  27.466  1.00  0.00     0.076 H 
ATOM     38  H   UNL     1     -48.260  35.727  25.851  1.00  0.00     0.076 H 
BRANCH  36  39
ATOM     39  C   UNL     1     -46.995  36.556  27.419  1.00  0.00     0.010 A 
ATOM     40  C   UNL     1     -46.066  36.210  28.390  1.00  0.00     0.034 A 
ATOM     41  C   UNL     1     -46.972  37.874  26.943  1.00  0.00    -0.028 A 
ATOM     42  N   UNL     1     -45.162  37.070  28.903  1.00  0.00    -0.262 NA
ATOM     43  H   UNL     1     -46.018  35.202  28.793  1.00  0.00     0.084 H 
ATOM     44  C   UNL     1     -46.029  38.791  27.428  1.00  0.00     0.066 A 
ATOM     45  H   UNL     1     -47.709  38.161  26.199  1.00  0.00     0.065 H 
ATOM     46  C   UNL     1     -45.158  38.336  28.411  1.00  0.00     0.051 A 
ATOM     47  H   UNL     1     -44.379  38.950  28.849  1.00  0.00     0.086 H 
BRANCH  44  48
ATOM     48  N   UNL     1     -45.962  40.122  26.910  1.00  0.00    -0.299 N 
ATOM     49  C   UNL     1     -44.792  40.770  26.541  1.00  0.00     0.018 A 
ATOM     50  C   UNL     1     -47.010  41.014  26.692  1.00  0.00     0.150 A 
ATOM     51  C   UNL     1     -45.070  42.044  26.076  1.00  0.00     0.012 A 
ATOM     52  H   UNL     1     -43.830  40.297  26.670  1.00  0.00     0.083 H 
ATOM     53  C   UNL     1     -46.487  42.200  26.182  1.00  0.00     0.067 A 
ATOM     54  N   UNL     1     -48.320  40.777  26.909  1.00  0.00    -0.218 NA
ATOM     55  C   UNL     1     -47.406  43.228  25.903  1.00  0.00     0.136 A 
ATOM     56  C   UNL     1     -49.094  41.826  26.603  1.00  0.00     0.120 A 
ATOM     57  N   UNL     1     -48.716  43.018  26.118  1.00  0.00    -0.219 NA
ATOM     58  H   UNL     1     -50.160  41.696  26.764  1.00  0.00     0.106 H 
BRANCH  51  59
ATOM     59  C   UNL     1     -44.092  43.082  25.606  1.00  0.00     0.085 C 
ATOM     60  C   UNL     1     -42.620  42.719  25.773  1.00  0.00    -0.020 C 
ATOM     61  O   UNL     1     -44.259  43.377  24.198  1.00  0.00    -0.373 OA
ATOM     62  H   UNL     1     -44.297  44.017  26.144  1.00  0.00     0.066 H 
ATOM     63  C   UNL     1     -41.963  43.576  24.722  1.00  0.00    -0.027 C 
ATOM     64  H   UNL     1     -42.437  41.663  25.538  1.00  0.00     0.030 H 
ATOM     65  H   UNL     1     -42.246  42.909  26.783  1.00  0.00     0.030 H 
ATOM     66  C   UNL     1     -42.964  43.485  23.592  1.00  0.00     0.048 C 
ATOM     67  H   UNL     1     -40.965  43.236  24.437  1.00  0.00     0.029 H 
ATOM     68  H   UNL     1     -41.890  44.610  25.078  1.00  0.00     0.029 H 
ATOM     69  H   UNL     1     -42.936  44.358  22.935  1.00  0.00     0.057 H 
ATOM     70  H   UNL     1     -42.801  42.587  22.988  1.00  0.00     0.057 H 
ENDBRANCH  51  59
BRANCH  55  71
ATOM     71  N   UNL     1     -47.042  44.467  25.389  1.00  0.00    -0.383 N 
ATOM     72  H   UNL     1     -46.602  45.028  26.108  1.00  0.00     0.158 HD
ATOM     73  H   UNL     1     -47.807  44.918  24.886  1.00  0.00     0.158 HD
ENDBRANCH  55  71
ENDBRANCH  44  48
ENDBRANCH  36  39
ENDBRANCH  35  36
ENDBRANCH   8  35
TORSDOF 13
ENDMDL
MODEL 4
REMARK VINA RESULT:      -9.1      1.610      1.954
REMARK SMILES CCc1cc(NCCOC)c2c(F)cc(OCc3cncc(-n4cc([C@H]5CCCO5)c5c(N)ncnc54)c3)cc2n1
REMARK SMILES IDX 3 1 4 2 5 3 11 4 12 5 13 6 14 7 15 8 39 9 40 10 41 11 2 15
REMARK SMILES IDX 1 18 6 22 7 24 8 27 9 30 10 31 16 35 17 36 18 39 19 40 38 41
REMARK SMILES IDX 20 42 22 44 21 46 23 48 24 49 37 50 25 51 31 53 36 54 32 55
REMARK SMILES IDX 35 56 34 57 26 59 27 60 30 61 28 63 29 66 33 71
REMARK H PARENT 4 12 14 13 39 14 2 16 2 17 1 19 1 20 1 21 6 23 7 25 7 26 8 28
REMARK H PARENT 8 29 10 32 10 33 10 34 17 37 17 38 19 43 38 45 21 47 24 52
REMARK H PARENT 35 58 26 62 27 64 27 65 28 67 28 68 29 69 29 70 33 72 33 73
REMARK Flexibility Score: inf
ROOT
ATOM      1  C   UNL     1     -47.010  28.958  23.229  1.00  0.00     0.043 A 
ATOM      2  C   UNL     1     -48.256  28.656  22.695  1.00  0.00    -0.017 A 
ATOM      3  C   UNL     1     -49.347  29.488  22.964  1.00  0.00     0.048 A 
ATOM      4  C   UNL     1     -49.141  30.598  23.832  1.00  0.00     0.059 A 
ATOM      5  C   UNL     1     -50.146  31.508  24.228  1.00  0.00     0.138 A 
ATOM      6  F   UNL     1     -51.399  31.374  23.762  1.00  0.00    -0.206 F 
ATOM      7  C   UNL     1     -49.891  32.569  25.090  1.00  0.00     0.017 A 
ATOM      8  C   UNL     1     -48.610  32.757  25.585  1.00  0.00     0.124 A 
ATOM      9  C   UNL     1     -47.596  31.895  25.170  1.00  0.00     0.007 A 
ATOM     10  C   UNL     1     -47.840  30.818  24.325  1.00  0.00     0.079 A 
ATOM     11  N   UNL     1     -46.800  30.027  24.024  1.00  0.00    -0.252 NA
ATOM     12  H   UNL     1     -48.370  27.757  22.101  1.00  0.00     0.066 H 
ATOM     13  H   UNL     1     -50.701  33.233  25.376  1.00  0.00     0.069 H 
ATOM     14  H   UNL     1     -46.571  32.033  25.493  1.00  0.00     0.069 H 
ENDROOT
BRANCH   1  15
ATOM     15  C   UNL     1     -45.832  28.052  22.981  1.00  0.00    -0.013 C 
ATOM     16  H   UNL     1     -45.898  27.622  21.974  1.00  0.00     0.033 H 
ATOM     17  H   UNL     1     -44.911  28.646  23.008  1.00  0.00     0.033 H 
BRANCH  15  18
ATOM     18  C   UNL     1     -45.750  26.945  24.021  1.00  0.00    -0.060 C 
ATOM     19  H   UNL     1     -45.477  25.989  23.560  1.00  0.00     0.023 H 
ATOM     20  H   UNL     1     -46.717  26.821  24.517  1.00  0.00     0.023 H 
ATOM     21  H   UNL     1     -45.001  27.174  24.787  1.00  0.00     0.023 H 
ENDBRANCH  15  18
ENDBRANCH   1  15
BRANCH   3  22
ATOM     22  N   UNL     1     -50.631  29.172  22.490  1.00  0.00    -0.382 N 
ATOM     23  H   UNL     1     -51.343  29.264  23.219  1.00  0.00     0.160 HD
BRANCH  22  24
ATOM     24  C   UNL     1     -51.101  29.681  21.200  1.00  0.00     0.038 C 
ATOM     25  H   UNL     1     -51.990  30.309  21.314  1.00  0.00     0.051 H 
ATOM     26  H   UNL     1     -50.333  30.358  20.804  1.00  0.00     0.051 H 
BRANCH  24  27
ATOM     27  C   UNL     1     -51.331  28.559  20.176  1.00  0.00     0.063 C 
ATOM     28  H   UNL     1     -52.406  28.465  19.985  1.00  0.00     0.059 H 
ATOM     29  H   UNL     1     -50.857  28.780  19.212  1.00  0.00     0.059 H 
BRANCH  27  30
ATOM     30  O   UNL     1     -50.888  27.290  20.665  1.00  0.00    -0.383 OA
BRANCH  30  31
ATOM     31  C   UNL     1     -49.912  26.682  19.831  1.00  0.00     0.036 C 
ATOM     32  H   UNL     1     -50.271  26.725  18.799  1.00  0.00     0.053 H 
ATOM     33  H   UNL     1     -48.964  27.224  19.891  1.00  0.00     0.053 H 
ATOM     34  H   UNL     1     -49.765  25.633  20.101  1.00  0.00     0.053 H 
ENDBRANCH  30  31
ENDBRANCH  27  30
ENDBRANCH  24  27
ENDBRANCH  22  24
ENDBRANCH   3  22
BRANCH   8  35
ATOM     35  O   UNL     1     -48.468  33.811  26.444  1.00  0.00    -0.489 OA
BRANCH  35  36
ATOM     36  C   UNL     1     -47.290  34.617  26.347  1.00  0.00     0.115 C 
ATOM     37  H   UNL     1     -47.054  34.703  25.279  1.00  0.00     0.076 H 
ATOM     38  H   UNL     1     -46.421  34.117  26.789  1.00  0.00     0.076 H 
BRANCH  36  39
ATOM     39  C   UNL     1     -47.504  36.005  26.888  1.00  0.00     0.010 A 
ATOM     40  C   UNL     1     -48.725  36.369  27.438  1.00  0.00     0.034 A 
ATOM     41  C   UNL     1     -46.486  36.967  26.880  1.00  0.00    -0.028 A 
ATOM     42  N   UNL     1     -48.984  37.591  27.947  1.00  0.00    -0.262 NA
ATOM     43  H   UNL     1     -49.554  35.668  27.490  1.00  0.00     0.084 H 
ATOM     44  C   UNL     1     -46.703  38.240  27.426  1.00  0.00     0.066 A 
ATOM     45  H   UNL     1     -45.534  36.699  26.432  1.00  0.00     0.065 H 
ATOM     46  C   UNL     1     -47.971  38.497  27.934  1.00  0.00     0.051 A 
ATOM     47  H   UNL     1     -48.250  39.438  28.394  1.00  0.00     0.086 H 
BRANCH  44  48
ATOM     48  N   UNL     1     -45.654  39.211  27.472  1.00  0.00    -0.299 N 
ATOM     49  C   UNL     1     -45.443  40.195  26.517  1.00  0.00     0.018 A 
ATOM     50  C   UNL     1     -44.659  39.355  28.436  1.00  0.00     0.150 A 
ATOM     51  C   UNL     1     -44.351  40.974  26.858  1.00  0.00     0.012 A 
ATOM     52  H   UNL     1     -46.062  40.254  25.634  1.00  0.00     0.083 H 
ATOM     53  C   UNL     1     -43.846  40.428  28.080  1.00  0.00     0.067 A 
ATOM     54  N   UNL     1     -44.505  38.605  29.546  1.00  0.00    -0.218 NA
ATOM     55  C   UNL     1     -42.773  40.723  28.941  1.00  0.00     0.136 A 
ATOM     56  C   UNL     1     -43.455  38.984  30.287  1.00  0.00     0.120 A 
ATOM     57  N   UNL     1     -42.596  39.986  30.050  1.00  0.00    -0.219 NA
ATOM     58  H   UNL     1     -43.278  38.411  31.192  1.00  0.00     0.106 H 
BRANCH  51  59
ATOM     59  C   UNL     1     -43.768  42.122  26.086  1.00  0.00     0.085 C 
ATOM     60  C   UNL     1     -44.517  42.504  24.814  1.00  0.00    -0.020 C 
ATOM     61  O   UNL     1     -43.717  43.331  26.883  1.00  0.00    -0.373 OA
ATOM     62  H   UNL     1     -42.729  41.875  25.834  1.00  0.00     0.066 H 
ATOM     63  C   UNL     1     -44.120  43.947  24.637  1.00  0.00    -0.027 C 
ATOM     64  H   UNL     1     -45.603  42.448  24.955  1.00  0.00     0.030 H 
ATOM     65  H   UNL     1     -44.255  41.874  23.959  1.00  0.00     0.030 H 
ATOM     66  C   UNL     1     -44.124  44.438  26.066  1.00  0.00     0.048 C 
ATOM     67  H   UNL     1     -44.793  44.513  23.988  1.00  0.00     0.029 H 
ATOM     68  H   UNL     1     -43.107  44.005  24.221  1.00  0.00     0.029 H 
ATOM     69  H   UNL     1     -43.445  45.280  26.224  1.00  0.00     0.057 H 
ATOM     70  H   UNL     1     -45.129  44.735  26.382  1.00  0.00     0.057 H 
ENDBRANCH  51  59
BRANCH  55  71
ATOM     71  N   UNL     1     -41.877  41.763  28.725  1.00  0.00    -0.383 N 
ATOM     72  H   UNL     1     -42.325  42.654  28.902  1.00  0.00     0.158 HD
ATOM     73  H   UNL     1     -41.397  41.682  27.828  1.00  0.00     0.158 HD
ENDBRANCH  55  71
ENDBRANCH  44  48
ENDBRANCH  36  39
ENDBRANCH  35  36
ENDBRANCH   8  35
TORSDOF 13
ENDMDL
MODEL 5
REMARK VINA RESULT:      -9.1      1.826      2.890
REMARK SMILES CCc1cc(NCCOC)c2c(F)cc(OCc3cncc(-n4cc([C@H]5CCCO5)c5c(N)ncnc54)c3)cc2n1
REMARK SMILES IDX 3 1 4 2 5 3 11 4 12 5 13 6 14 7 15 8 39 9 40 10 41 11 2 15
REMARK SMILES IDX 1 18 6 22 7 24 8 27 9 30 10 31 16 35 17 36 18 39 19 40 38 41
REMARK SMILES IDX 20 42 22 44 21 46 23 48 24 49 37 50 25 51 31 53 36 54 32 55
REMARK SMILES IDX 35 56 34 57 26 59 27 60 30 61 28 63 29 66 33 71
REMARK H PARENT 4 12 14 13 39 14 2 16 2 17 1 19 1 20 1 21 6 23 7 25 7 26 8 28
REMARK H PARENT 8 29 10 32 10 33 10 34 17 37 17 38 19 43 38 45 21 47 24 52
REMARK H PARENT 35 58 26 62 27 64 27 65 28 67 28 68 29 69 29 70 33 72 33 73
REMARK Flexibility Score: inf
ROOT
ATOM      1  C   UNL     1     -50.476  31.383  23.997  1.00  0.00     0.043 A 
ATOM      2  C   UNL     1     -49.585  30.604  23.269  1.00  0.00    -0.017 A 
ATOM      3  C   UNL     1     -48.209  30.775  23.445  1.00  0.00     0.048 A 
ATOM      4  C   UNL     1     -47.773  31.793  24.339  1.00  0.00     0.059 A 
ATOM      5  C   UNL     1     -46.421  32.113  24.598  1.00  0.00     0.138 A 
ATOM      6  F   UNL     1     -45.438  31.420  24.001  1.00  0.00    -0.206 F 
ATOM      7  C   UNL     1     -46.052  33.129  25.472  1.00  0.00     0.017 A 
ATOM      8  C   UNL     1     -47.030  33.862  26.124  1.00  0.00     0.124 A 
ATOM      9  C   UNL     1     -48.369  33.532  25.915  1.00  0.00     0.007 A 
ATOM     10  C   UNL     1     -48.754  32.532  25.028  1.00  0.00     0.079 A 
ATOM     11  N   UNL     1     -50.070  32.327  24.871  1.00  0.00    -0.252 NA
ATOM     12  H   UNL     1     -49.975  29.894  22.549  1.00  0.00     0.066 H 
ATOM     13  H   UNL     1     -44.999  33.345  25.627  1.00  0.00     0.069 H 
ATOM     14  H   UNL     1     -49.166  34.046  26.439  1.00  0.00     0.069 H 
ENDROOT
BRANCH   1  15
ATOM     15  C   UNL     1     -51.962  31.240  23.792  1.00  0.00    -0.013 C 
ATOM     16  H   UNL     1     -52.498  31.653  24.655  1.00  0.00     0.033 H 
ATOM     17  H   UNL     1     -52.263  31.834  22.922  1.00  0.00     0.033 H 
BRANCH  15  18
ATOM     18  C   UNL     1     -52.358  29.787  23.573  1.00  0.00    -0.060 C 
ATOM     19  H   UNL     1     -53.315  29.713  23.045  1.00  0.00     0.023 H 
ATOM     20  H   UNL     1     -52.457  29.274  24.534  1.00  0.00     0.023 H 
ATOM     21  H   UNL     1     -51.606  29.256  22.980  1.00  0.00     0.023 H 
ENDBRANCH  15  18
ENDBRANCH   1  15
BRANCH   3  22
ATOM     22  N   UNL     1     -47.286  30.045  22.677  1.00  0.00    -0.382 N 
ATOM     23  H   UNL     1     -46.582  30.650  22.248  1.00  0.00     0.160 HD
BRANCH  22  24
ATOM     24  C   UNL     1     -46.703  28.802  23.186  1.00  0.00     0.038 C 
ATOM     25  H   UNL     1     -46.424  28.126  22.371  1.00  0.00     0.051 H 
ATOM     26  H   UNL     1     -45.753  29.051  23.676  1.00  0.00     0.051 H 
BRANCH  24  27
ATOM     27  C   UNL     1     -47.610  28.106  24.211  1.00  0.00     0.063 C 
ATOM     28  H   UNL     1     -47.642  28.708  25.126  1.00  0.00     0.059 H 
ATOM     29  H   UNL     1     -48.643  28.020  23.854  1.00  0.00     0.059 H 
BRANCH  27  30
ATOM     30  O   UNL     1     -47.106  26.820  24.584  1.00  0.00    -0.383 OA
BRANCH  30  31
ATOM     31  C   UNL     1     -45.733  26.646  24.261  1.00  0.00     0.036 C 
ATOM     32  H   UNL     1     -45.279  27.635  24.156  1.00  0.00     0.053 H 
ATOM     33  H   UNL     1     -45.215  26.110  25.061  1.00  0.00     0.053 H 
ATOM     34  H   UNL     1     -45.618  26.112  23.314  1.00  0.00     0.053 H 
ENDBRANCH  30  31
ENDBRANCH  27  30
ENDBRANCH  24  27
ENDBRANCH  22  24
ENDBRANCH   3  22
BRANCH   8  35
ATOM     35  O   UNL     1     -46.566  34.855  26.941  1.00  0.00    -0.489 OA
BRANCH  35  36
ATOM     36  C   UNL     1     -47.447  35.390  27.934  1.00  0.00     0.115 C 
ATOM     37  H   UNL     1     -47.019  35.128  28.909  1.00  0.00     0.076 H 
ATOM     38  H   UNL     1     -48.425  34.898  27.913  1.00  0.00     0.076 H 
BRANCH  36  39
ATOM     39  C   UNL     1     -47.543  36.890  27.858  1.00  0.00     0.010 A 
ATOM     40  C   UNL     1     -48.766  37.529  28.013  1.00  0.00     0.034 A 
ATOM     41  C   UNL     1     -46.415  37.695  27.654  1.00  0.00    -0.028 A 
ATOM     42  N   UNL     1     -48.924  38.868  27.963  1.00  0.00    -0.262 NA
ATOM     43  H   UNL     1     -49.680  36.968  28.188  1.00  0.00     0.084 H 
ATOM     44  C   UNL     1     -46.530  39.092  27.627  1.00  0.00     0.066 A 
ATOM     45  H   UNL     1     -45.457  37.204  27.511  1.00  0.00     0.065 H 
ATOM     46  C   UNL     1     -47.807  39.619  27.776  1.00  0.00     0.051 A 
ATOM     47  H   UNL     1     -48.016  40.683  27.787  1.00  0.00     0.086 H 
BRANCH  44  48
ATOM     48  N   UNL     1     -45.377  39.923  27.474  1.00  0.00    -0.299 N 
ATOM     49  C   UNL     1     -45.162  40.793  26.415  1.00  0.00     0.018 A 
ATOM     50  C   UNL     1     -44.268  40.018  28.313  1.00  0.00     0.150 A 
ATOM     51  C   UNL     1     -43.955  41.454  26.567  1.00  0.00     0.012 A 
ATOM     52  H   UNL     1     -45.866  40.859  25.598  1.00  0.00     0.083 H 
ATOM     53  C   UNL     1     -43.382  40.949  27.776  1.00  0.00     0.067 A 
ATOM     54  N   UNL     1     -44.078  39.346  29.466  1.00  0.00    -0.218 NA
ATOM     55  C   UNL     1     -42.191  41.174  28.491  1.00  0.00     0.136 A 
ATOM     56  C   UNL     1     -42.914  39.647  30.057  1.00  0.00     0.120 A 
ATOM     57  N   UNL     1     -41.977  40.512  29.640  1.00  0.00    -0.219 NA
ATOM     58  H   UNL     1     -42.703  39.131  30.988  1.00  0.00     0.106 H 
BRANCH  51  59
ATOM     59  C   UNL     1     -43.334  42.454  25.636  1.00  0.00     0.085 C 
ATOM     60  C   UNL     1     -44.138  42.766  24.378  1.00  0.00    -0.020 C 
ATOM     61  O   UNL     1     -43.123  43.731  26.286  1.00  0.00    -0.373 OA
ATOM     62  H   UNL     1     -42.341  42.086  25.348  1.00  0.00     0.066 H 
ATOM     63  C   UNL     1     -43.633  44.138  24.014  1.00  0.00    -0.027 C 
ATOM     64  H   UNL     1     -45.212  42.826  24.592  1.00  0.00     0.030 H 
ATOM     65  H   UNL     1     -43.993  42.026  23.585  1.00  0.00     0.030 H 
ATOM     66  C   UNL     1     -43.492  44.777  25.377  1.00  0.00     0.048 C 
ATOM     67  H   UNL     1     -44.301  44.692  23.350  1.00  0.00     0.029 H 
ATOM     68  H   UNL     1     -42.652  44.058  23.532  1.00  0.00     0.029 H 
ATOM     69  H   UNL     1     -42.734  45.565  25.395  1.00  0.00     0.057 H 
ATOM     70  H   UNL     1     -44.442  45.198  25.720  1.00  0.00     0.057 H 
ENDBRANCH  51  59
BRANCH  55  71
ATOM     71  N   UNL     1     -41.211  42.072  28.088  1.00  0.00    -0.383 N 
ATOM     72  H   UNL     1     -41.595  42.738  27.430  1.00  0.00     0.158 HD
ATOM     73  H   UNL     1     -40.354  41.603  27.790  1.00  0.00     0.158 HD
ENDBRANCH  55  71
ENDBRANCH  44  48
ENDBRANCH  36  39
ENDBRANCH  35  36
ENDBRANCH   8  35
TORSDOF 13
ENDMDL
MODEL 6
REMARK VINA RESULT:      -8.9      2.394      3.533
REMARK SMILES CCc1cc(NCCOC)c2c(F)cc(OCc3cncc(-n4cc([C@H]5CCCO5)c5c(N)ncnc54)c3)cc2n1
REMARK SMILES IDX 3 1 4 2 5 3 11 4 12 5 13 6 14 7 15 8 39 9 40 10 41 11 2 15
REMARK SMILES IDX 1 18 6 22 7 24 8 27 9 30 10 31 16 35 17 36 18 39 19 40 38 41
REMARK SMILES IDX 20 42 22 44 21 46 23 48 24 49 37 50 25 51 31 53 36 54 32 55
REMARK SMILES IDX 35 56 34 57 26 59 27 60 30 61 28 63 29 66 33 71
REMARK H PARENT 4 12 14 13 39 14 2 16 2 17 1 19 1 20 1 21 6 23 7 25 7 26 8 28
REMARK H PARENT 8 29 10 32 10 33 10 34 17 37 17 38 19 43 38 45 21 47 24 52
REMARK H PARENT 35 58 26 62 27 64 27 65 28 67 28 68 29 69 29 70 33 72 33 73
REMARK Flexibility Score: inf
ROOT
ATOM      1  C   UNL     1     -48.938  27.168  25.405  1.00  0.00     0.043 A 
ATOM      2  C   UNL     1     -48.996  27.184  24.018  1.00  0.00    -0.017 A 
ATOM      3  C   UNL     1     -48.817  28.387  23.329  1.00  0.00     0.048 A 
ATOM      4  C   UNL     1     -48.633  29.573  24.096  1.00  0.00     0.059 A 
ATOM      5  C   UNL     1     -48.474  30.867  23.552  1.00  0.00     0.138 A 
ATOM      6  F   UNL     1     -48.466  31.043  22.220  1.00  0.00    -0.206 F 
ATOM      7  C   UNL     1     -48.311  31.994  24.350  1.00  0.00     0.017 A 
ATOM      8  C   UNL     1     -48.297  31.861  25.730  1.00  0.00     0.124 A 
ATOM      9  C   UNL     1     -48.408  30.586  26.283  1.00  0.00     0.007 A 
ATOM     10  C   UNL     1     -48.592  29.452  25.499  1.00  0.00     0.079 A 
ATOM     11  N   UNL     1     -48.730  28.282  26.137  1.00  0.00    -0.252 NA
ATOM     12  H   UNL     1     -49.212  26.262  23.489  1.00  0.00     0.066 H 
ATOM     13  H   UNL     1     -48.207  32.969  23.885  1.00  0.00     0.069 H 
ATOM     14  H   UNL     1     -48.355  30.429  27.354  1.00  0.00     0.069 H 
ENDROOT
BRANCH   1  15
ATOM     15  C   UNL     1     -49.167  25.887  26.165  1.00  0.00    -0.013 C 
ATOM     16  H   UNL     1     -49.694  26.100  27.103  1.00  0.00     0.033 H 
ATOM     17  H   UNL     1     -49.823  25.234  25.579  1.00  0.00     0.033 H 
BRANCH  15  18
ATOM     18  C   UNL     1     -47.858  25.165  26.450  1.00  0.00    -0.060 C 
ATOM     19  H   UNL     1     -47.052  25.876  26.662  1.00  0.00     0.023 H 
ATOM     20  H   UNL     1     -47.563  24.564  25.585  1.00  0.00     0.023 H 
ATOM     21  H   UNL     1     -47.952  24.497  27.312  1.00  0.00     0.023 H 
ENDBRANCH  15  18
ENDBRANCH   1  15
BRANCH   3  22
ATOM     22  N   UNL     1     -48.932  28.444  21.930  1.00  0.00    -0.382 N 
ATOM     23  H   UNL     1     -48.131  28.013  21.461  1.00  0.00     0.160 HD
BRANCH  22  24
ATOM     24  C   UNL     1     -50.195  28.115  21.267  1.00  0.00     0.038 C 
ATOM     25  H   UNL     1     -50.063  27.990  20.188  1.00  0.00     0.051 H 
ATOM     26  H   UNL     1     -50.515  27.127  21.623  1.00  0.00     0.051 H 
BRANCH  24  27
ATOM     27  C   UNL     1     -51.306  29.127  21.586  1.00  0.00     0.063 C 
ATOM     28  H   UNL     1     -50.853  30.035  22.000  1.00  0.00     0.059 H 
ATOM     29  H   UNL     1     -51.855  29.430  20.688  1.00  0.00     0.059 H 
BRANCH  27  30
ATOM     30  O   UNL     1     -52.211  28.632  22.577  1.00  0.00    -0.383 OA
BRANCH  30  31
ATOM     31  C   UNL     1     -52.425  29.548  23.643  1.00  0.00     0.036 C 
ATOM     32  H   UNL     1     -51.481  29.668  24.182  1.00  0.00     0.053 H 
ATOM     33  H   UNL     1     -52.730  30.524  23.255  1.00  0.00     0.053 H 
ATOM     34  H   UNL     1     -53.175  29.168  24.341  1.00  0.00     0.053 H 
ENDBRANCH  30  31
ENDBRANCH  27  30
ENDBRANCH  24  27
ENDBRANCH  22  24
ENDBRANCH   3  22
BRANCH   8  35
ATOM     35  O   UNL     1     -48.158  33.030  26.425  1.00  0.00    -0.489 OA
BRANCH  35  36
ATOM     36  C   UNL     1     -47.253  34.019  25.924  1.00  0.00     0.115 C 
ATOM     37  H   UNL     1     -47.762  34.518  25.091  1.00  0.00     0.076 H 
ATOM     38  H   UNL     1     -46.362  33.562  25.479  1.00  0.00     0.076 H 
BRANCH  36  39
ATOM     39  C   UNL     1     -46.921  35.061  26.957  1.00  0.00     0.010 A 
ATOM     40  C   UNL     1     -46.477  34.692  28.219  1.00  0.00     0.034 A 
ATOM     41  C   UNL     1     -47.024  36.432  26.684  1.00  0.00    -0.028 A 
ATOM     42  N   UNL     1     -46.156  35.573  29.189  1.00  0.00    -0.262 NA
ATOM     43  H   UNL     1     -46.360  33.647  28.494  1.00  0.00     0.084 H 
ATOM     44  C   UNL     1     -46.672  37.381  27.654  1.00  0.00     0.066 A 
ATOM     45  H   UNL     1     -47.391  36.731  25.707  1.00  0.00     0.065 H 
ATOM     46  C   UNL     1     -46.255  36.894  28.887  1.00  0.00     0.051 A 
ATOM     47  H   UNL     1     -45.944  37.532  29.706  1.00  0.00     0.086 H 
BRANCH  44  48
ATOM     48  N   UNL     1     -46.721  38.781  27.367  1.00  0.00    -0.299 N 
ATOM     49  C   UNL     1     -45.635  39.546  26.968  1.00  0.00     0.018 A 
ATOM     50  C   UNL     1     -47.819  39.635  27.441  1.00  0.00     0.150 A 
ATOM     51  C   UNL     1     -46.017  40.862  26.767  1.00  0.00     0.012 A 
ATOM     52  H   UNL     1     -44.649  39.114  26.890  1.00  0.00     0.083 H 
ATOM     53  C   UNL     1     -47.412  40.917  27.079  1.00  0.00     0.067 A 
ATOM     54  N   UNL     1     -49.079  39.292  27.780  1.00  0.00    -0.218 NA
ATOM     55  C   UNL     1     -48.394  41.924  27.100  1.00  0.00     0.136 A 
ATOM     56  C   UNL     1     -49.923  40.332  27.759  1.00  0.00     0.120 A 
ATOM     57  N   UNL     1     -49.655  41.607  27.441  1.00  0.00    -0.219 NA
ATOM     58  H   UNL     1     -50.952  40.117  28.031  1.00  0.00     0.106 H 
BRANCH  51  59
ATOM     59  C   UNL     1     -45.148  42.016  26.361  1.00  0.00     0.085 C 
ATOM     60  C   UNL     1     -43.657  41.711  26.259  1.00  0.00    -0.020 C 
ATOM     61  O   UNL     1     -45.525  42.539  25.064  1.00  0.00    -0.373 OA
ATOM     62  H   UNL     1     -45.301  42.832  27.079  1.00  0.00     0.066 H 
ATOM     63  C   UNL     1     -43.184  42.770  25.297  1.00  0.00    -0.027 C 
ATOM     64  H   UNL     1     -43.478  40.723  25.817  1.00  0.00     0.030 H 
ATOM     65  H   UNL     1     -43.148  41.745  27.226  1.00  0.00     0.030 H 
ATOM     66  C   UNL     1     -44.333  42.821  24.317  1.00  0.00     0.048 C 
ATOM     67  H   UNL     1     -42.227  42.539  24.823  1.00  0.00     0.029 H 
ATOM     68  H   UNL     1     -43.091  43.730  25.818  1.00  0.00     0.029 H 
ATOM     69  H   UNL     1     -44.426  43.794  23.828  1.00  0.00     0.057 H 
ATOM     70  H   UNL     1     -44.232  42.050  23.545  1.00  0.00     0.057 H 
ENDBRANCH  51  59
BRANCH  55  71
ATOM     71  N   UNL     1     -48.146  43.248  26.763  1.00  0.00    -0.383 N 
ATOM     72  H   UNL     1     -48.795  43.556  26.049  1.00  0.00     0.158 HD
ATOM     73  H   UNL     1     -47.160  43.420  26.565  1.00  0.00     0.158 HD
ENDBRANCH  55  71
ENDBRANCH  44  48
ENDBRANCH  36  39
ENDBRANCH  35  36
ENDBRANCH   8  35
TORSDOF 13
ENDMDL
MODEL 7
REMARK VINA RESULT:      -8.8      2.501      3.063
REMARK SMILES CCc1cc(NCCOC)c2c(F)cc(OCc3cncc(-n4cc([C@H]5CCCO5)c5c(N)ncnc54)c3)cc2n1
REMARK SMILES IDX 3 1 4 2 5 3 11 4 12 5 13 6 14 7 15 8 39 9 40 10 41 11 2 15
REMARK SMILES IDX 1 18 6 22 7 24 8 27 9 30 10 31 16 35 17 36 18 39 19 40 38 41
REMARK SMILES IDX 20 42 22 44 21 46 23 48 24 49 37 50 25 51 31 53 36 54 32 55
REMARK SMILES IDX 35 56 34 57 26 59 27 60 30 61 28 63 29 66 33 71
REMARK H PARENT 4 12 14 13 39 14 2 16 2 17 1 19 1 20 1 21 6 23 7 25 7 26 8 28
REMARK H PARENT 8 29 10 32 10 33 10 34 17 37 17 38 19 43 38 45 21 47 24 52
REMARK H PARENT 35 58 26 62 27 64 27 65 28 67 28 68 29 69 29 70 33 72 33 73
REMARK Flexibility Score: inf
ROOT
ATOM      1  C   UNL     1     -46.380  30.991  21.775  1.00  0.00     0.043 A 
ATOM      2  C   UNL     1     -47.131  29.840  21.972  1.00  0.00    -0.017 A 
ATOM      3  C   UNL     1     -47.844  29.670  23.162  1.00  0.00     0.048 A 
ATOM      4  C   UNL     1     -47.725  30.678  24.160  1.00  0.00     0.059 A 
ATOM      5  C   UNL     1     -48.351  30.637  25.425  1.00  0.00     0.138 A 
ATOM      6  F   UNL     1     -49.146  29.604  25.751  1.00  0.00    -0.206 F 
ATOM      7  C   UNL     1     -48.189  31.645  26.369  1.00  0.00     0.017 A 
ATOM      8  C   UNL     1     -47.391  32.739  26.073  1.00  0.00     0.124 A 
ATOM      9  C   UNL     1     -46.800  32.818  24.812  1.00  0.00     0.007 A 
ATOM     10  C   UNL     1     -46.937  31.808  23.866  1.00  0.00     0.079 A 
ATOM     11  N   UNL     1     -46.290  31.967  22.702  1.00  0.00    -0.252 NA
ATOM     12  H   UNL     1     -47.126  29.072  21.206  1.00  0.00     0.066 H 
ATOM     13  H   UNL     1     -48.681  31.561  27.333  1.00  0.00     0.069 H 
ATOM     14  H   UNL     1     -46.207  33.677  24.520  1.00  0.00     0.069 H 
ENDROOT
BRANCH   1  15
ATOM     15  C   UNL     1     -45.575  31.174  20.514  1.00  0.00    -0.013 C 
ATOM     16  H   UNL     1     -44.622  31.663  20.749  1.00  0.00     0.033 H 
ATOM     17  H   UNL     1     -45.329  30.190  20.100  1.00  0.00     0.033 H 
BRANCH  15  18
ATOM     18  C   UNL     1     -46.339  31.983  19.477  1.00  0.00    -0.060 C 
ATOM     19  H   UNL     1     -47.337  31.564  19.305  1.00  0.00     0.023 H 
ATOM     20  H   UNL     1     -45.800  31.981  18.524  1.00  0.00     0.023 H 
ATOM     21  H   UNL     1     -46.462  33.023  19.795  1.00  0.00     0.023 H 
ENDBRANCH  15  18
ENDBRANCH   1  15
BRANCH   3  22
ATOM     22  N   UNL     1     -48.560  28.487  23.413  1.00  0.00    -0.382 N 
ATOM     23  H   UNL     1     -48.927  28.070  22.554  1.00  0.00     0.160 HD
BRANCH  22  24
ATOM     24  C   UNL     1     -48.038  27.474  24.332  1.00  0.00     0.038 C 
ATOM     25  H   UNL     1     -48.280  27.711  25.373  1.00  0.00     0.051 H 
ATOM     26  H   UNL     1     -48.566  26.533  24.133  1.00  0.00     0.051 H 
BRANCH  24  27
ATOM     27  C   UNL     1     -46.533  27.233  24.144  1.00  0.00     0.063 C 
ATOM     28  H   UNL     1     -46.333  27.027  23.087  1.00  0.00     0.059 H 
ATOM     29  H   UNL     1     -45.939  28.115  24.411  1.00  0.00     0.059 H 
BRANCH  27  30
ATOM     30  O   UNL     1     -46.079  26.091  24.877  1.00  0.00    -0.383 OA
BRANCH  30  31
ATOM     31  C   UNL     1     -46.491  26.104  26.238  1.00  0.00     0.036 C 
ATOM     32  H   UNL     1     -45.601  26.221  26.862  1.00  0.00     0.053 H 
ATOM     33  H   UNL     1     -47.161  26.947  26.428  1.00  0.00     0.053 H 
ATOM     34  H   UNL     1     -46.980  25.164  26.507  1.00  0.00     0.053 H 
ENDBRANCH  30  31
ENDBRANCH  27  30
ENDBRANCH  24  27
ENDBRANCH  22  24
ENDBRANCH   3  22
BRANCH   8  35
ATOM     35  O   UNL     1     -47.274  33.662  27.074  1.00  0.00    -0.489 OA
BRANCH  35  36
ATOM     36  C   UNL     1     -47.932  34.923  26.921  1.00  0.00     0.115 C 
ATOM     37  H   UNL     1     -48.809  34.903  27.579  1.00  0.00     0.076 H 
ATOM     38  H   UNL     1     -48.339  35.046  25.911  1.00  0.00     0.076 H 
BRANCH  36  39
ATOM     39  C   UNL     1     -47.060  36.074  27.344  1.00  0.00     0.010 A 
ATOM     40  C   UNL     1     -45.890  35.851  28.056  1.00  0.00     0.034 A 
ATOM     41  C   UNL     1     -47.377  37.401  27.022  1.00  0.00    -0.028 A 
ATOM     42  N   UNL     1     -45.059  36.834  28.461  1.00  0.00    -0.262 NA
ATOM     43  H   UNL     1     -45.575  34.847  28.328  1.00  0.00     0.084 H 
ATOM     44  C   UNL     1     -46.526  38.449  27.397  1.00  0.00     0.066 A 
ATOM     45  H   UNL     1     -48.302  37.587  26.484  1.00  0.00     0.065 H 
ATOM     46  C   UNL     1     -45.390  38.107  28.121  1.00  0.00     0.051 A 
ATOM     47  H   UNL     1     -44.653  38.830  28.451  1.00  0.00     0.086 H 
BRANCH  44  48
ATOM     48  N   UNL     1     -46.813  39.800  27.025  1.00  0.00    -0.299 N 
ATOM     49  C   UNL     1     -48.042  40.422  27.188  1.00  0.00     0.018 A 
ATOM     50  C   UNL     1     -45.959  40.727  26.431  1.00  0.00     0.150 A 
ATOM     51  C   UNL     1     -47.987  41.729  26.733  1.00  0.00     0.012 A 
ATOM     52  H   UNL     1     -48.889  39.884  27.584  1.00  0.00     0.083 H 
ATOM     53  C   UNL     1     -46.657  41.917  26.241  1.00  0.00     0.067 A 
ATOM     54  N   UNL     1     -44.664  40.532  26.109  1.00  0.00    -0.218 NA
ATOM     55  C   UNL     1     -45.951  42.977  25.642  1.00  0.00     0.136 A 
ATOM     56  C   UNL     1     -44.099  41.611  25.553  1.00  0.00     0.120 A 
ATOM     57  N   UNL     1     -44.662  42.804  25.307  1.00  0.00    -0.219 NA
ATOM     58  H   UNL     1     -43.057  41.510  25.266  1.00  0.00     0.106 H 
BRANCH  51  59
ATOM     59  C   UNL     1     -49.100  42.735  26.701  1.00  0.00     0.085 C 
ATOM     60  C   UNL     1     -48.884  43.979  27.556  1.00  0.00    -0.020 C 
ATOM     61  O   UNL     1     -49.339  43.226  25.359  1.00  0.00    -0.373 OA
ATOM     62  H   UNL     1     -50.025  42.236  27.016  1.00  0.00     0.066 H 
ATOM     63  C   UNL     1     -49.771  44.988  26.874  1.00  0.00    -0.027 C 
ATOM     64  H   UNL     1     -47.845  44.327  27.507  1.00  0.00     0.030 H 
ATOM     65  H   UNL     1     -49.137  43.822  28.609  1.00  0.00     0.030 H 
ATOM     66  C   UNL     1     -49.555  44.643  25.419  1.00  0.00     0.048 C 
ATOM     67  H   UNL     1     -49.521  46.026  27.109  1.00  0.00     0.029 H 
ATOM     68  H   UNL     1     -50.817  44.812  27.152  1.00  0.00     0.029 H 
ATOM     69  H   UNL     1     -50.409  44.912  24.791  1.00  0.00     0.057 H 
ATOM     70  H   UNL     1     -48.661  45.134  25.022  1.00  0.00     0.057 H 
ENDBRANCH  51  59
BRANCH  55  71
ATOM     71  N   UNL     1     -46.506  44.225  25.389  1.00  0.00    -0.383 N 
ATOM     72  H   UNL     1     -45.902  44.956  25.744  1.00  0.00     0.158 HD
ATOM     73  H   UNL     1     -47.483  44.282  25.680  1.00  0.00     0.158 HD
ENDBRANCH  55  71
ENDBRANCH  44  48
ENDBRANCH  36  39
ENDBRANCH  35  36
ENDBRANCH   8  35
TORSDOF 13
ENDMDL
