MODEL 1
REMARK VINA RESULT:     -10.4      0.000      0.000
REMARK SMILES CC(C)(C)c1cc(N)c2ccc(OCc3cncc(-n4ccc5c(N)ncnc54)c3)cc2n1
REMARK SMILES IDX 14 1 13 4 12 5 5 6 6 7 33 8 7 9 32 11 9 12 31 13 10 14 11 16
REMARK SMILES IDX 2 19 1 20 3 24 4 28 8 32 15 35 16 36 30 37 17 38 19 40 18 42
REMARK SMILES IDX 20 44 21 45 29 46 22 47 23 49 28 50 24 52 27 53 26 54 25 56
REMARK H PARENT 14 2 14 3 6 10 31 15 10 17 11 18 1 21 1 22 1 23 3 25 3 26 3 27
REMARK H PARENT 4 29 4 30 4 31 8 33 8 34 16 39 30 41 18 43 21 48 22 51 27 55
REMARK H PARENT 25 57 25 58
REMARK Flexibility Score: inf
ROOT
ATOM      1  C   UNL     1     -48.408  35.804  27.106  1.00  0.00     0.115 C 
ATOM      2  H   UNL     1     -48.382  36.034  26.034  1.00  0.00     0.076 H 
ATOM      3  H   UNL     1     -49.385  36.145  27.468  1.00  0.00     0.076 H 
ENDROOT
BRANCH   1   4
ATOM      4  O   UNL     1     -48.389  34.386  27.309  1.00  0.00    -0.489 OA
BRANCH   4   5
ATOM      5  C   UNL     1     -47.846  33.595  26.335  1.00  0.00     0.122 A 
ATOM      6  C   UNL     1     -48.595  29.531  23.956  1.00  0.00     0.048 A 
ATOM      7  C   UNL     1     -47.372  29.622  23.301  1.00  0.00    -0.016 A 
ATOM      8  N   UNL     1     -49.002  30.498  24.813  1.00  0.00    -0.252 NA
ATOM      9  C   UNL     1     -46.562  30.743  23.490  1.00  0.00     0.043 A 
ATOM     10  H   UNL     1     -47.041  28.836  22.631  1.00  0.00     0.066 H 
ATOM     11  C   UNL     1     -48.206  31.555  25.047  1.00  0.00     0.076 A 
ATOM     12  C   UNL     1     -46.953  31.725  24.427  1.00  0.00     0.023 A 
ATOM     13  C   UNL     1     -48.634  32.500  25.967  1.00  0.00     0.007 A 
ATOM     14  C   UNL     1     -46.169  32.850  24.781  1.00  0.00    -0.047 A 
ATOM     15  H   UNL     1     -49.599  32.358  26.447  1.00  0.00     0.069 H 
ATOM     16  C   UNL     1     -46.613  33.777  25.728  1.00  0.00    -0.019 A 
ATOM     17  H   UNL     1     -45.194  33.013  24.330  1.00  0.00     0.063 H 
ATOM     18  H   UNL     1     -45.970  34.616  25.968  1.00  0.00     0.066 H 
BRANCH   6  19
ATOM     19  C   UNL     1     -49.517  28.322  23.756  1.00  0.00     0.004 C 
BRANCH  19  20
ATOM     20  C   UNL     1     -50.986  28.760  23.903  1.00  0.00    -0.055 C 
ATOM     21  H   UNL     1     -51.623  28.257  23.167  1.00  0.00     0.024 H 
ATOM     22  H   UNL     1     -51.093  29.841  23.755  1.00  0.00     0.024 H 
ATOM     23  H   UNL     1     -51.387  28.524  24.895  1.00  0.00     0.024 H 
ENDBRANCH  19  20
BRANCH  19  24
ATOM     24  C   UNL     1     -49.345  27.703  22.352  1.00  0.00    -0.055 C 
ATOM     25  H   UNL     1     -48.354  27.247  22.238  1.00  0.00     0.024 H 
ATOM     26  H   UNL     1     -50.088  26.919  22.163  1.00  0.00     0.024 H 
ATOM     27  H   UNL     1     -49.450  28.459  21.564  1.00  0.00     0.024 H 
ENDBRANCH  19  24
BRANCH  19  28
ATOM     28  C   UNL     1     -49.196  27.226  24.792  1.00  0.00    -0.055 C 
ATOM     29  H   UNL     1     -49.489  27.537  25.801  1.00  0.00     0.024 H 
ATOM     30  H   UNL     1     -48.123  27.002  24.809  1.00  0.00     0.024 H 
ATOM     31  H   UNL     1     -49.717  26.287  24.573  1.00  0.00     0.024 H 
ENDBRANCH  19  28
ENDBRANCH   6  19
BRANCH   9  32
ATOM     32  N   UNL     1     -45.282  30.720  22.887  1.00  0.00    -0.398 N 
ATOM     33  H   UNL     1     -45.103  31.600  22.408  1.00  0.00     0.156 HD
ATOM     34  H   UNL     1     -45.168  29.949  22.236  1.00  0.00     0.156 HD
ENDBRANCH   9  32
ENDBRANCH   4   5
ENDBRANCH   1   4
BRANCH   1  35
ATOM     35  C   UNL     1     -47.355  36.576  27.866  1.00  0.00     0.010 A 
ATOM     36  C   UNL     1     -47.000  36.180  29.148  1.00  0.00     0.034 A 
ATOM     37  C   UNL     1     -46.671  37.673  27.324  1.00  0.00    -0.028 A 
ATOM     38  N   UNL     1     -46.064  36.798  29.901  1.00  0.00    -0.262 NA
ATOM     39  H   UNL     1     -47.470  35.325  29.628  1.00  0.00     0.084 H 
ATOM     40  C   UNL     1     -45.720  38.365  28.080  1.00  0.00     0.066 A 
ATOM     41  H   UNL     1     -46.888  37.962  26.300  1.00  0.00     0.065 H 
ATOM     42  C   UNL     1     -45.450  37.876  29.352  1.00  0.00     0.051 A 
ATOM     43  H   UNL     1     -44.741  38.345  30.027  1.00  0.00     0.086 H 
BRANCH  40  44
ATOM     44  N   UNL     1     -45.063  39.532  27.582  1.00  0.00    -0.300 N 
ATOM     45  C   UNL     1     -45.371  40.178  26.392  1.00  0.00     0.012 A 
ATOM     46  C   UNL     1     -43.995  40.220  28.162  1.00  0.00     0.150 A 
ATOM     47  C   UNL     1     -44.537  41.261  26.231  1.00  0.00    -0.031 A 
ATOM     48  H   UNL     1     -46.184  39.848  25.762  1.00  0.00     0.082 H 
ATOM     49  C   UNL     1     -43.655  41.288  27.338  1.00  0.00     0.061 A 
ATOM     50  N   UNL     1     -43.354  39.900  29.304  1.00  0.00    -0.218 NA
ATOM     51  H   UNL     1     -44.561  41.959  25.405  1.00  0.00     0.065 H 
ATOM     52  C   UNL     1     -42.588  42.101  27.749  1.00  0.00     0.136 A 
ATOM     53  C   UNL     1     -42.350  40.738  29.594  1.00  0.00     0.120 A 
ATOM     54  N   UNL     1     -41.938  41.806  28.888  1.00  0.00    -0.219 NA
ATOM     55  H   UNL     1     -41.802  40.529  30.509  1.00  0.00     0.106 H 
BRANCH  52  56
ATOM     56  N   UNL     1     -42.135  43.197  27.027  1.00  0.00    -0.383 N 
ATOM     57  H   UNL     1     -42.154  42.995  26.033  1.00  0.00     0.158 HD
ATOM     58  H   UNL     1     -42.522  44.085  27.312  1.00  0.00     0.158 HD
ENDBRANCH  52  56
ENDBRANCH  40  44
ENDBRANCH   1  35
TORSDOF 10
ENDMDL
MODEL 2
REMARK VINA RESULT:     -10.2      1.894     10.974
REMARK SMILES CC(C)(C)c1cc(N)c2ccc(OCc3cncc(-n4ccc5c(N)ncnc54)c3)cc2n1
REMARK SMILES IDX 14 1 13 4 12 5 5 6 6 7 33 8 7 9 32 11 9 12 31 13 10 14 11 16
REMARK SMILES IDX 2 19 1 20 3 24 4 28 8 32 15 35 16 36 30 37 17 38 19 40 18 42
REMARK SMILES IDX 20 44 21 45 29 46 22 47 23 49 28 50 24 52 27 53 26 54 25 56
REMARK H PARENT 14 2 14 3 6 10 31 15 10 17 11 18 1 21 1 22 1 23 3 25 3 26 3 27
REMARK H PARENT 4 29 4 30 4 31 8 33 8 34 16 39 30 41 18 43 21 48 22 51 27 55
REMARK H PARENT 25 57 25 58
REMARK Flexibility Score: inf
ROOT
ATOM      1  C   UNL     1     -46.798  36.609  26.586  1.00  0.00     0.115 C 
ATOM      2  H   UNL     1     -47.557  36.956  25.874  1.00  0.00     0.076 H 
ATOM      3  H   UNL     1     -45.829  36.910  26.171  1.00  0.00     0.076 H 
ENDROOT
BRANCH   1   4
ATOM      4  O   UNL     1     -46.926  37.308  27.829  1.00  0.00    -0.489 OA
BRANCH   4   5
ATOM      5  C   UNL     1     -45.908  38.135  28.220  1.00  0.00     0.122 A 
ATOM      6  C   UNL     1     -43.476  41.997  26.840  1.00  0.00     0.048 A 
ATOM      7  C   UNL     1     -42.594  41.894  27.909  1.00  0.00    -0.016 A 
ATOM      8  N   UNL     1     -44.504  41.127  26.697  1.00  0.00    -0.252 NA
ATOM      9  C   UNL     1     -42.787  40.909  28.880  1.00  0.00     0.043 A 
ATOM     10  H   UNL     1     -41.760  42.581  28.010  1.00  0.00     0.066 H 
ATOM     11  C   UNL     1     -44.668  40.139  27.593  1.00  0.00     0.076 A 
ATOM     12  C   UNL     1     -43.821  39.962  28.704  1.00  0.00     0.023 A 
ATOM     13  C   UNL     1     -45.702  39.239  27.387  1.00  0.00     0.007 A 
ATOM     14  C   UNL     1     -44.050  38.860  29.563  1.00  0.00    -0.047 A 
ATOM     15  H   UNL     1     -46.346  39.377  26.522  1.00  0.00     0.069 H 
ATOM     16  C   UNL     1     -45.086  37.952  29.321  1.00  0.00    -0.019 A 
ATOM     17  H   UNL     1     -43.414  38.685  30.426  1.00  0.00     0.063 H 
ATOM     18  H   UNL     1     -45.211  37.121  30.004  1.00  0.00     0.066 H 
BRANCH   6  19
ATOM     19  C   UNL     1     -43.303  43.079  25.767  1.00  0.00     0.004 C 
BRANCH  19  20
ATOM     20  C   UNL     1     -43.830  44.425  26.299  1.00  0.00    -0.055 C 
ATOM     21  H   UNL     1     -43.085  45.219  26.171  1.00  0.00     0.024 H 
ATOM     22  H   UNL     1     -44.072  44.361  27.366  1.00  0.00     0.024 H 
ATOM     23  H   UNL     1     -44.738  44.745  25.776  1.00  0.00     0.024 H 
ENDBRANCH  19  20
BRANCH  19  24
ATOM     24  C   UNL     1     -41.818  43.268  25.386  1.00  0.00    -0.055 C 
ATOM     25  H   UNL     1     -41.220  42.396  25.675  1.00  0.00     0.024 H 
ATOM     26  H   UNL     1     -41.693  43.406  24.305  1.00  0.00     0.024 H 
ATOM     27  H   UNL     1     -41.384  44.143  25.886  1.00  0.00     0.024 H 
ENDBRANCH  19  24
BRANCH  19  28
ATOM     28  C   UNL     1     -44.068  42.691  24.486  1.00  0.00    -0.055 C 
ATOM     29  H   UNL     1     -43.569  43.085  23.593  1.00  0.00     0.024 H 
ATOM     30  H   UNL     1     -45.089  43.089  24.501  1.00  0.00     0.024 H 
ATOM     31  H   UNL     1     -44.147  41.605  24.366  1.00  0.00     0.024 H 
ENDBRANCH  19  28
ENDBRANCH   6  19
BRANCH   9  32
ATOM     32  N   UNL     1     -41.790  40.785  29.877  1.00  0.00    -0.398 N 
ATOM     33  H   UNL     1     -42.169  40.314  30.696  1.00  0.00     0.156 HD
ATOM     34  H   UNL     1     -41.395  41.679  30.151  1.00  0.00     0.156 HD
ENDBRANCH   9  32
ENDBRANCH   4   5
ENDBRANCH   1   4
BRANCH   1  35
ATOM     35  C   UNL     1     -46.787  35.102  26.695  1.00  0.00     0.010 A 
ATOM     36  C   UNL     1     -46.175  34.493  27.782  1.00  0.00     0.034 A 
ATOM     37  C   UNL     1     -47.409  34.263  25.760  1.00  0.00    -0.028 A 
ATOM     38  N   UNL     1     -46.124  33.156  27.973  1.00  0.00    -0.262 NA
ATOM     39  H   UNL     1     -45.690  35.077  28.561  1.00  0.00     0.084 H 
ATOM     40  C   UNL     1     -47.350  32.873  25.898  1.00  0.00     0.066 A 
ATOM     41  H   UNL     1     -47.947  34.720  24.935  1.00  0.00     0.065 H 
ATOM     42  C   UNL     1     -46.707  32.379  27.027  1.00  0.00     0.051 A 
ATOM     43  H   UNL     1     -46.593  31.319  27.225  1.00  0.00     0.086 H 
BRANCH  40  44
ATOM     44  N   UNL     1     -47.908  31.992  24.921  1.00  0.00    -0.300 N 
ATOM     45  C   UNL     1     -49.135  31.352  25.028  1.00  0.00     0.012 A 
ATOM     46  C   UNL     1     -47.335  31.590  23.713  1.00  0.00     0.150 A 
ATOM     47  C   UNL     1     -49.348  30.582  23.907  1.00  0.00    -0.031 A 
ATOM     48  H   UNL     1     -49.789  31.516  25.873  1.00  0.00     0.082 H 
ATOM     49  C   UNL     1     -48.211  30.716  23.076  1.00  0.00     0.061 A 
ATOM     50  N   UNL     1     -46.123  31.940  23.238  1.00  0.00    -0.218 NA
ATOM     51  H   UNL     1     -50.230  29.988  23.708  1.00  0.00     0.065 H 
ATOM     52  C   UNL     1     -47.807  30.191  21.840  1.00  0.00     0.136 A 
ATOM     53  C   UNL     1     -45.839  31.375  22.057  1.00  0.00     0.120 A 
ATOM     54  N   UNL     1     -46.605  30.530  21.343  1.00  0.00    -0.219 NA
ATOM     55  H   UNL     1     -44.875  31.627  21.625  1.00  0.00     0.106 H 
BRANCH  52  56
ATOM     56  N   UNL     1     -48.572  29.304  21.094  1.00  0.00    -0.383 N 
ATOM     57  H   UNL     1     -48.437  29.471  20.103  1.00  0.00     0.158 HD
ATOM     58  H   UNL     1     -48.526  28.342  21.398  1.00  0.00     0.158 HD
ENDBRANCH  52  56
ENDBRANCH  40  44
ENDBRANCH   1  35
TORSDOF 10
ENDMDL
MODEL 3
REMARK VINA RESULT:      -9.8      1.293      2.017
REMARK SMILES CC(C)(C)c1cc(N)c2ccc(OCc3cncc(-n4ccc5c(N)ncnc54)c3)cc2n1
REMARK SMILES IDX 14 1 13 4 12 5 5 6 6 7 33 8 7 9 32 11 9 12 31 13 10 14 11 16
REMARK SMILES IDX 2 19 1 20 3 24 4 28 8 32 15 35 16 36 30 37 17 38 19 40 18 42
REMARK SMILES IDX 20 44 21 45 29 46 22 47 23 49 28 50 24 52 27 53 26 54 25 56
REMARK H PARENT 14 2 14 3 6 10 31 15 10 17 11 18 1 21 1 22 1 23 3 25 3 26 3 27
REMARK H PARENT 4 29 4 30 4 31 8 33 8 34 16 39 30 41 18 43 21 48 22 51 27 55
REMARK H PARENT 25 57 25 58
REMARK Flexibility Score: inf
ROOT
ATOM      1  C   UNL     1     -47.587  35.692  28.196  1.00  0.00     0.115 C 
ATOM      2  H   UNL     1     -47.825  35.375  29.218  1.00  0.00     0.076 H 
ATOM      3  H   UNL     1     -46.579  35.315  27.985  1.00  0.00     0.076 H 
ENDROOT
BRANCH   1   4
ATOM      4  O   UNL     1     -48.452  35.039  27.260  1.00  0.00    -0.489 OA
BRANCH   4   5
ATOM      5  C   UNL     1     -47.900  34.171  26.358  1.00  0.00     0.122 A 
ATOM      6  C   UNL     1     -48.603  29.904  24.348  1.00  0.00     0.048 A 
ATOM      7  C   UNL     1     -47.381  29.951  23.687  1.00  0.00    -0.016 A 
ATOM      8  N   UNL     1     -49.020  30.938  25.117  1.00  0.00    -0.252 NA
ATOM      9  C   UNL     1     -46.584  31.094  23.775  1.00  0.00     0.043 A 
ATOM     10  H   UNL     1     -47.041  29.113  23.088  1.00  0.00     0.066 H 
ATOM     11  C   UNL     1     -48.237  32.021  25.256  1.00  0.00     0.076 A 
ATOM     12  C   UNL     1     -46.986  32.150  24.622  1.00  0.00     0.023 A 
ATOM     13  C   UNL     1     -48.676  33.039  26.089  1.00  0.00     0.007 A 
ATOM     14  C   UNL     1     -46.215  33.311  24.874  1.00  0.00    -0.047 A 
ATOM     15  H   UNL     1     -49.639  32.928  26.581  1.00  0.00     0.069 H 
ATOM     16  C   UNL     1     -46.669  34.313  25.736  1.00  0.00    -0.019 A 
ATOM     17  H   UNL     1     -45.242  33.445  24.409  1.00  0.00     0.063 H 
ATOM     18  H   UNL     1     -46.036  35.177  25.900  1.00  0.00     0.066 H 
BRANCH   6  19
ATOM     19  C   UNL     1     -49.510  28.672  24.257  1.00  0.00     0.004 C 
BRANCH  19  20
ATOM     20  C   UNL     1     -50.959  29.114  23.976  1.00  0.00    -0.055 C 
ATOM     21  H   UNL     1     -51.260  28.853  22.955  1.00  0.00     0.024 H 
ATOM     22  H   UNL     1     -51.071  30.199  24.091  1.00  0.00     0.024 H 
ATOM     23  H   UNL     1     -51.672  28.638  24.657  1.00  0.00     0.024 H 
ENDBRANCH  19  20
BRANCH  19  24
ATOM     24  C   UNL     1     -49.073  27.727  23.116  1.00  0.00    -0.055 C 
ATOM     25  H   UNL     1     -49.933  27.400  22.521  1.00  0.00     0.024 H 
ATOM     26  H   UNL     1     -48.371  28.219  22.432  1.00  0.00     0.024 H 
ATOM     27  H   UNL     1     -48.582  26.827  23.506  1.00  0.00     0.024 H 
ENDBRANCH  19  24
BRANCH  19  28
ATOM     28  C   UNL     1     -49.459  27.869  25.573  1.00  0.00    -0.055 C 
ATOM     29  H   UNL     1     -50.411  27.362  25.764  1.00  0.00     0.024 H 
ATOM     30  H   UNL     1     -49.252  28.525  26.427  1.00  0.00     0.024 H 
ATOM     31  H   UNL     1     -48.676  27.103  25.558  1.00  0.00     0.024 H 
ENDBRANCH  19  28
ENDBRANCH   6  19
BRANCH   9  32
ATOM     32  N   UNL     1     -45.303  31.032  23.175  1.00  0.00    -0.398 N 
ATOM     33  H   UNL     1     -45.261  31.656  22.371  1.00  0.00     0.156 HD
ATOM     34  H   UNL     1     -45.049  30.092  22.888  1.00  0.00     0.156 HD
ENDBRANCH   9  32
ENDBRANCH   4   5
ENDBRANCH   1   4
BRANCH   1  35
ATOM     35  C   UNL     1     -47.534  37.197  28.079  1.00  0.00     0.010 A 
ATOM     36  C   UNL     1     -48.713  37.931  28.065  1.00  0.00     0.034 A 
ATOM     37  C   UNL     1     -46.334  37.918  28.023  1.00  0.00    -0.028 A 
ATOM     38  N   UNL     1     -48.767  39.277  27.975  1.00  0.00    -0.262 NA
ATOM     39  H   UNL     1     -49.684  37.444  28.127  1.00  0.00     0.084 H 
ATOM     40  C   UNL     1     -46.342  39.310  27.893  1.00  0.00     0.066 A 
ATOM     41  H   UNL     1     -45.399  37.370  28.095  1.00  0.00     0.065 H 
ATOM     42  C   UNL     1     -47.584  39.934  27.887  1.00  0.00     0.051 A 
ATOM     43  H   UNL     1     -47.706  41.007  27.778  1.00  0.00     0.086 H 
BRANCH  40  44
ATOM     44  N   UNL     1     -45.136  40.064  27.756  1.00  0.00    -0.300 N 
ATOM     45  C   UNL     1     -44.011  39.927  28.558  1.00  0.00     0.012 A 
ATOM     46  C   UNL     1     -44.866  41.077  26.834  1.00  0.00     0.150 A 
ATOM     47  C   UNL     1     -43.043  40.813  28.141  1.00  0.00    -0.031 A 
ATOM     48  H   UNL     1     -43.961  39.187  29.343  1.00  0.00     0.082 H 
ATOM     49  C   UNL     1     -43.579  41.553  27.060  1.00  0.00     0.061 A 
ATOM     50  N   UNL     1     -45.707  41.562  25.898  1.00  0.00    -0.218 NA
ATOM     51  H   UNL     1     -42.055  40.915  28.570  1.00  0.00     0.065 H 
ATOM     52  C   UNL     1     -43.123  42.589  26.233  1.00  0.00     0.136 A 
ATOM     53  C   UNL     1     -45.171  42.551  25.172  1.00  0.00     0.120 A 
ATOM     54  N   UNL     1     -43.941  43.084  25.288  1.00  0.00    -0.219 NA
ATOM     55  H   UNL     1     -45.805  42.976  24.399  1.00  0.00     0.106 H 
BRANCH  52  56
ATOM     56  N   UNL     1     -41.865  43.166  26.346  1.00  0.00    -0.383 N 
ATOM     57  H   UNL     1     -41.230  42.533  26.819  1.00  0.00     0.158 HD
ATOM     58  H   UNL     1     -41.519  43.603  25.504  1.00  0.00     0.158 HD
ENDBRANCH  52  56
ENDBRANCH  40  44
ENDBRANCH   1  35
TORSDOF 10
ENDMDL
MODEL 4
REMARK VINA RESULT:      -9.5      1.907     11.296
REMARK SMILES CC(C)(C)c1cc(N)c2ccc(OCc3cncc(-n4ccc5c(N)ncnc54)c3)cc2n1
REMARK SMILES IDX 14 1 13 4 12 5 5 6 6 7 33 8 7 9 32 11 9 12 31 13 10 14 11 16
REMARK SMILES IDX 2 19 1 20 3 24 4 28 8 32 15 35 16 36 30 37 17 38 19 40 18 42
REMARK SMILES IDX 20 44 21 45 29 46 22 47 23 49 28 50 24 52 27 53 26 54 25 56
REMARK H PARENT 14 2 14 3 6 10 31 15 10 17 11 18 1 21 1 22 1 23 3 25 3 26 3 27
REMARK H PARENT 4 29 4 30 4 31 8 33 8 34 16 39 30 41 18 43 21 48 22 51 27 55
REMARK H PARENT 25 57 25 58
REMARK Flexibility Score: inf
ROOT
ATOM      1  C   UNL     1     -46.078  36.504  27.031  1.00  0.00     0.115 C 
ATOM      2  H   UNL     1     -45.928  37.195  26.193  1.00  0.00     0.076 H 
ATOM      3  H   UNL     1     -45.136  35.956  27.148  1.00  0.00     0.076 H 
ENDROOT
BRANCH   1   4
ATOM      4  O   UNL     1     -46.261  37.232  28.250  1.00  0.00    -0.489 OA
BRANCH   4   5
ATOM      5  C   UNL     1     -45.336  38.181  28.588  1.00  0.00     0.122 A 
ATOM      6  C   UNL     1     -43.261  42.148  26.945  1.00  0.00     0.048 A 
ATOM      7  C   UNL     1     -42.393  42.211  28.030  1.00  0.00    -0.016 A 
ATOM      8  N   UNL     1     -44.198  41.174  26.858  1.00  0.00    -0.252 NA
ATOM      9  C   UNL     1     -42.509  41.288  29.070  1.00  0.00     0.043 A 
ATOM     10  H   UNL     1     -41.632  42.981  28.087  1.00  0.00     0.066 H 
ATOM     11  C   UNL     1     -44.283  40.244  27.824  1.00  0.00     0.076 A 
ATOM     12  C   UNL     1     -43.443  40.234  28.956  1.00  0.00     0.023 A 
ATOM     13  C   UNL     1     -45.221  39.234  27.676  1.00  0.00     0.007 A 
ATOM     14  C   UNL     1     -43.581  39.182  29.893  1.00  0.00    -0.047 A 
ATOM     15  H   UNL     1     -45.860  39.244  26.796  1.00  0.00     0.069 H 
ATOM     16  C   UNL     1     -44.520  38.162  29.709  1.00  0.00    -0.019 A 
ATOM     17  H   UNL     1     -42.948  39.135  30.774  1.00  0.00     0.063 H 
ATOM     18  H   UNL     1     -44.578  37.376  30.452  1.00  0.00     0.066 H 
BRANCH   6  19
ATOM     19  C   UNL     1     -43.173  43.158  25.795  1.00  0.00     0.004 C 
BRANCH  19  20
ATOM     20  C   UNL     1     -41.706  43.312  25.351  1.00  0.00    -0.055 C 
ATOM     21  H   UNL     1     -41.642  43.705  24.331  1.00  0.00     0.024 H 
ATOM     22  H   UNL     1     -41.183  42.348  25.373  1.00  0.00     0.024 H 
ATOM     23  H   UNL     1     -41.152  43.999  25.999  1.00  0.00     0.024 H 
ENDBRANCH  19  20
BRANCH  19  24
ATOM     24  C   UNL     1     -43.993  42.696  24.570  1.00  0.00    -0.055 C 
ATOM     25  H   UNL     1     -44.318  43.551  23.966  1.00  0.00     0.024 H 
ATOM     26  H   UNL     1     -43.407  42.039  23.917  1.00  0.00     0.024 H 
ATOM     27  H   UNL     1     -44.894  42.148  24.873  1.00  0.00     0.024 H 
ENDBRANCH  19  24
BRANCH  19  28
ATOM     28  C   UNL     1     -43.728  44.526  26.240  1.00  0.00    -0.055 C 
ATOM     29  H   UNL     1     -43.438  44.753  27.272  1.00  0.00     0.024 H 
ATOM     30  H   UNL     1     -44.823  44.543  26.187  1.00  0.00     0.024 H 
ATOM     31  H   UNL     1     -43.363  45.344  25.608  1.00  0.00     0.024 H 
ENDBRANCH  19  28
ENDBRANCH   6  19
BRANCH   9  32
ATOM     32  N   UNL     1     -41.523  41.336  30.084  1.00  0.00    -0.398 N 
ATOM     33  H   UNL     1     -40.771  40.681  29.875  1.00  0.00     0.156 HD
ATOM     34  H   UNL     1     -41.898  41.138  31.007  1.00  0.00     0.156 HD
ENDBRANCH   9  32
ENDBRANCH   4   5
ENDBRANCH   1   4
BRANCH   1  35
ATOM     35  C   UNL     1     -47.151  35.485  26.724  1.00  0.00     0.010 A 
ATOM     36  C   UNL     1     -48.417  35.627  27.278  1.00  0.00     0.034 A 
ATOM     37  C   UNL     1     -46.951  34.399  25.861  1.00  0.00    -0.028 A 
ATOM     38  N   UNL     1     -49.442  34.777  27.054  1.00  0.00    -0.262 NA
ATOM     39  H   UNL     1     -48.656  36.457  27.939  1.00  0.00     0.084 H 
ATOM     40  C   UNL     1     -47.972  33.473  25.629  1.00  0.00     0.066 A 
ATOM     41  H   UNL     1     -45.988  34.302  25.369  1.00  0.00     0.065 H 
ATOM     42  C   UNL     1     -49.196  33.720  26.241  1.00  0.00     0.051 A 
ATOM     43  H   UNL     1     -50.051  33.059  26.139  1.00  0.00     0.086 H 
BRANCH  40  44
ATOM     44  N   UNL     1     -47.773  32.315  24.816  1.00  0.00    -0.300 N 
ATOM     45  C   UNL     1     -46.538  31.805  24.439  1.00  0.00     0.012 A 
ATOM     46  C   UNL     1     -48.750  31.506  24.234  1.00  0.00     0.150 A 
ATOM     47  C   UNL     1     -46.725  30.687  23.658  1.00  0.00    -0.031 A 
ATOM     48  H   UNL     1     -45.613  32.247  24.781  1.00  0.00     0.082 H 
ATOM     49  C   UNL     1     -48.120  30.497  23.512  1.00  0.00     0.061 A 
ATOM     50  N   UNL     1     -50.086  31.673  24.308  1.00  0.00    -0.218 NA
ATOM     51  H   UNL     1     -45.940  30.073  23.238  1.00  0.00     0.065 H 
ATOM     52  C   UNL     1     -48.941  29.579  22.842  1.00  0.00     0.136 A 
ATOM     53  C   UNL     1     -50.770  30.746  23.626  1.00  0.00     0.120 A 
ATOM     54  N   UNL     1     -50.276  29.722  22.906  1.00  0.00    -0.219 NA
ATOM     55  H   UNL     1     -51.852  30.830  23.656  1.00  0.00     0.106 H 
BRANCH  52  56
ATOM     56  N   UNL     1     -48.453  28.527  22.079  1.00  0.00    -0.383 N 
ATOM     57  H   UNL     1     -47.725  28.034  22.585  1.00  0.00     0.158 HD
ATOM     58  H   UNL     1     -49.160  27.955  21.640  1.00  0.00     0.158 HD
ENDBRANCH  52  56
ENDBRANCH  40  44
ENDBRANCH   1  35
TORSDOF 10
ENDMDL
MODEL 5
REMARK VINA RESULT:      -9.2      1.755     11.373
REMARK SMILES CC(C)(C)c1cc(N)c2ccc(OCc3cncc(-n4ccc5c(N)ncnc54)c3)cc2n1
REMARK SMILES IDX 14 1 13 4 12 5 5 6 6 7 33 8 7 9 32 11 9 12 31 13 10 14 11 16
REMARK SMILES IDX 2 19 1 20 3 24 4 28 8 32 15 35 16 36 30 37 17 38 19 40 18 42
REMARK SMILES IDX 20 44 21 45 29 46 22 47 23 49 28 50 24 52 27 53 26 54 25 56
REMARK H PARENT 14 2 14 3 6 10 31 15 10 17 11 18 1 21 1 22 1 23 3 25 3 26 3 27
REMARK H PARENT 4 29 4 30 4 31 8 33 8 34 16 39 30 41 18 43 21 48 22 51 27 55
REMARK H PARENT 25 57 25 58
REMARK Flexibility Score: inf
ROOT
ATOM      1  C   UNL     1     -47.897  35.285  27.568  1.00  0.00     0.115 C 
ATOM      2  H   UNL     1     -48.492  34.905  28.407  1.00  0.00     0.076 H 
ATOM      3  H   UNL     1     -48.515  36.044  27.073  1.00  0.00     0.076 H 
ENDROOT
BRANCH   1   4
ATOM      4  O   UNL     1     -46.741  35.978  28.053  1.00  0.00    -0.489 OA
BRANCH   4   5
ATOM      5  C   UNL     1     -46.490  37.237  27.581  1.00  0.00     0.122 A 
ATOM      6  C   UNL     1     -43.441  40.875  28.042  1.00  0.00     0.048 A 
ATOM      7  C   UNL     1     -44.193  41.686  27.200  1.00  0.00    -0.016 A 
ATOM      8  N   UNL     1     -43.812  39.596  28.293  1.00  0.00    -0.252 NA
ATOM      9  C   UNL     1     -45.325  41.172  26.565  1.00  0.00     0.043 A 
ATOM     10  H   UNL     1     -43.904  42.715  27.017  1.00  0.00     0.066 H 
ATOM     11  C   UNL     1     -44.931  39.107  27.733  1.00  0.00     0.076 A 
ATOM     12  C   UNL     1     -45.751  39.860  26.870  1.00  0.00     0.023 A 
ATOM     13  C   UNL     1     -45.305  37.810  28.052  1.00  0.00     0.007 A 
ATOM     14  C   UNL     1     -46.936  39.267  26.372  1.00  0.00    -0.047 A 
ATOM     15  H   UNL     1     -44.671  37.238  28.725  1.00  0.00     0.069 H 
ATOM     16  C   UNL     1     -47.303  37.965  26.726  1.00  0.00    -0.019 A 
ATOM     17  H   UNL     1     -47.597  39.817  25.709  1.00  0.00     0.063 H 
ATOM     18  H   UNL     1     -48.224  37.563  26.323  1.00  0.00     0.066 H 
BRANCH   6  19
ATOM     19  C   UNL     1     -42.182  41.402  28.740  1.00  0.00     0.004 C 
BRANCH  19  20
ATOM     20  C   UNL     1     -41.899  40.565  30.002  1.00  0.00    -0.055 C 
ATOM     21  H   UNL     1     -42.481  39.637  29.998  1.00  0.00     0.024 H 
ATOM     22  H   UNL     1     -42.160  41.120  30.911  1.00  0.00     0.024 H 
ATOM     23  H   UNL     1     -40.843  40.286  30.080  1.00  0.00     0.024 H 
ENDBRANCH  19  20
BRANCH  19  24
ATOM     24  C   UNL     1     -40.943  41.309  27.822  1.00  0.00    -0.055 C 
ATOM     25  H   UNL     1     -40.111  41.904  28.217  1.00  0.00     0.024 H 
ATOM     26  H   UNL     1     -40.588  40.276  27.727  1.00  0.00     0.024 H 
ATOM     27  H   UNL     1     -41.162  41.681  26.813  1.00  0.00     0.024 H 
ENDBRANCH  19  24
BRANCH  19  28
ATOM     28  C   UNL     1     -42.364  42.883  29.129  1.00  0.00    -0.055 C 
ATOM     29  H   UNL     1     -41.808  43.540  28.452  1.00  0.00     0.024 H 
ATOM     30  H   UNL     1     -42.005  43.069  30.148  1.00  0.00     0.024 H 
ATOM     31  H   UNL     1     -43.415  43.191  29.097  1.00  0.00     0.024 H 
ENDBRANCH  19  28
ENDBRANCH   6  19
BRANCH   9  32
ATOM     32  N   UNL     1     -46.110  42.082  25.816  1.00  0.00    -0.398 N 
ATOM     33  H   UNL     1     -46.625  41.585  25.091  1.00  0.00     0.156 HD
ATOM     34  H   UNL     1     -45.559  42.822  25.395  1.00  0.00     0.156 HD
ENDBRANCH   9  32
ENDBRANCH   4   5
ENDBRANCH   1   4
BRANCH   1  35
ATOM     35  C   UNL     1     -47.618  34.205  26.550  1.00  0.00     0.010 A 
ATOM     36  C   UNL     1     -46.336  34.054  26.036  1.00  0.00     0.034 A 
ATOM     37  C   UNL     1     -48.592  33.297  26.111  1.00  0.00    -0.028 A 
ATOM     38  N   UNL     1     -45.987  33.112  25.133  1.00  0.00    -0.262 NA
ATOM     39  H   UNL     1     -45.522  34.705  26.345  1.00  0.00     0.084 H 
ATOM     40  C   UNL     1     -48.284  32.329  25.150  1.00  0.00     0.066 A 
ATOM     41  H   UNL     1     -49.585  33.357  26.545  1.00  0.00     0.065 H 
ATOM     42  C   UNL     1     -46.967  32.276  24.709  1.00  0.00     0.051 A 
ATOM     43  H   UNL     1     -46.624  31.574  23.956  1.00  0.00     0.086 H 
BRANCH  40  44
ATOM     44  N   UNL     1     -49.274  31.441  24.628  1.00  0.00    -0.300 N 
ATOM     45  C   UNL     1     -50.327  31.813  23.802  1.00  0.00     0.012 A 
ATOM     46  C   UNL     1     -49.393  30.069  24.857  1.00  0.00     0.150 A 
ATOM     47  C   UNL     1     -51.081  30.704  23.496  1.00  0.00    -0.031 A 
ATOM     48  H   UNL     1     -50.447  32.831  23.459  1.00  0.00     0.082 H 
ATOM     49  C   UNL     1     -50.507  29.598  24.168  1.00  0.00     0.061 A 
ATOM     50  N   UNL     1     -48.602  29.310  25.642  1.00  0.00    -0.218 NA
ATOM     51  H   UNL     1     -51.953  30.690  22.855  1.00  0.00     0.065 H 
ATOM     52  C   UNL     1     -50.801  28.232  24.281  1.00  0.00     0.136 A 
ATOM     53  C   UNL     1     -48.980  28.026  25.683  1.00  0.00     0.120 A 
ATOM     54  N   UNL     1     -50.023  27.454  25.054  1.00  0.00    -0.219 NA
ATOM     55  H   UNL     1     -48.373  27.368  26.298  1.00  0.00     0.106 H 
BRANCH  52  56
ATOM     56  N   UNL     1     -51.882  27.624  23.657  1.00  0.00    -0.383 N 
ATOM     57  H   UNL     1     -52.738  27.826  24.161  1.00  0.00     0.158 HD
ATOM     58  H   UNL     1     -51.914  27.739  22.654  1.00  0.00     0.158 HD
ENDBRANCH  52  56
ENDBRANCH  40  44
ENDBRANCH   1  35
TORSDOF 10
ENDMDL
MODEL 6
REMARK VINA RESULT:      -9.1      1.671      2.472
REMARK SMILES CC(C)(C)c1cc(N)c2ccc(OCc3cncc(-n4ccc5c(N)ncnc54)c3)cc2n1
REMARK SMILES IDX 14 1 13 4 12 5 5 6 6 7 33 8 7 9 32 11 9 12 31 13 10 14 11 16
REMARK SMILES IDX 2 19 1 20 3 24 4 28 8 32 15 35 16 36 30 37 17 38 19 40 18 42
REMARK SMILES IDX 20 44 21 45 29 46 22 47 23 49 28 50 24 52 27 53 26 54 25 56
REMARK H PARENT 14 2 14 3 6 10 31 15 10 17 11 18 1 21 1 22 1 23 3 25 3 26 3 27
REMARK H PARENT 4 29 4 30 4 31 8 33 8 34 16 39 30 41 18 43 21 48 22 51 27 55
REMARK H PARENT 25 57 25 58
REMARK Flexibility Score: inf
ROOT
ATOM      1  C   UNL     1     -48.180  35.054  26.758  1.00  0.00     0.115 C 
ATOM      2  H   UNL     1     -48.221  35.259  25.682  1.00  0.00     0.076 H 
ATOM      3  H   UNL     1     -49.210  35.130  27.125  1.00  0.00     0.076 H 
ENDROOT
BRANCH   1   4
ATOM      4  O   UNL     1     -47.781  33.698  26.992  1.00  0.00    -0.489 OA
BRANCH   4   5
ATOM      5  C   UNL     1     -47.509  32.904  25.912  1.00  0.00     0.122 A 
ATOM      6  C   UNL     1     -49.064  29.018  23.629  1.00  0.00     0.048 A 
ATOM      7  C   UNL     1     -47.986  29.032  22.751  1.00  0.00    -0.016 A 
ATOM      8  N   UNL     1     -49.210  29.980  24.570  1.00  0.00    -0.252 NA
ATOM      9  C   UNL     1     -47.057  30.072  22.805  1.00  0.00     0.043 A 
ATOM     10  H   UNL     1     -47.862  28.249  22.011  1.00  0.00     0.066 H 
ATOM     11  C   UNL     1     -48.292  30.956  24.671  1.00  0.00     0.076 A 
ATOM     12  C   UNL     1     -47.170  31.045  23.824  1.00  0.00     0.023 A 
ATOM     13  C   UNL     1     -48.448  31.896  25.678  1.00  0.00     0.007 A 
ATOM     14  C   UNL     1     -46.234  32.084  24.044  1.00  0.00    -0.047 A 
ATOM     15  H   UNL     1     -49.312  31.816  26.333  1.00  0.00     0.069 H 
ATOM     16  C   UNL     1     -46.403  33.007  25.082  1.00  0.00    -0.019 A 
ATOM     17  H   UNL     1     -45.353  32.182  23.417  1.00  0.00     0.063 H 
ATOM     18  H   UNL     1     -45.652  33.777  25.212  1.00  0.00     0.066 H 
BRANCH   6  19
ATOM     19  C   UNL     1     -50.112  27.900  23.583  1.00  0.00     0.004 C 
BRANCH  19  20
ATOM     20  C   UNL     1     -50.153  27.284  22.172  1.00  0.00    -0.055 C 
ATOM     21  H   UNL     1     -49.251  26.694  21.973  1.00  0.00     0.024 H 
ATOM     22  H   UNL     1     -50.220  28.062  21.402  1.00  0.00     0.024 H 
ATOM     23  H   UNL     1     -51.012  26.618  22.040  1.00  0.00     0.024 H 
ENDBRANCH  19  20
BRANCH  19  24
ATOM     24  C   UNL     1     -49.783  26.771  24.584  1.00  0.00    -0.055 C 
ATOM     25  H   UNL     1     -50.256  26.952  25.556  1.00  0.00     0.024 H 
ATOM     26  H   UNL     1     -50.137  25.797  24.225  1.00  0.00     0.024 H 
ATOM     27  H   UNL     1     -48.702  26.690  24.756  1.00  0.00     0.024 H 
ENDBRANCH  19  24
BRANCH  19  28
ATOM     28  C   UNL     1     -51.504  28.455  23.947  1.00  0.00    -0.055 C 
ATOM     29  H   UNL     1     -51.680  29.425  23.469  1.00  0.00     0.024 H 
ATOM     30  H   UNL     1     -51.602  28.593  25.030  1.00  0.00     0.024 H 
ATOM     31  H   UNL     1     -52.311  27.782  23.634  1.00  0.00     0.024 H 
ENDBRANCH  19  28
ENDBRANCH   6  19
BRANCH   9  32
ATOM     32  N   UNL     1     -45.922  29.965  21.965  1.00  0.00    -0.398 N 
ATOM     33  H   UNL     1     -46.181  30.158  20.999  1.00  0.00     0.156 HD
ATOM     34  H   UNL     1     -45.476  29.055  22.022  1.00  0.00     0.156 HD
ENDBRANCH   9  32
ENDBRANCH   4   5
ENDBRANCH   1   4
BRANCH   1  35
ATOM     35  C   UNL     1     -47.368  36.097  27.491  1.00  0.00     0.010 A 
ATOM     36  C   UNL     1     -46.995  35.881  28.811  1.00  0.00     0.034 A 
ATOM     37  C   UNL     1     -46.924  37.282  26.889  1.00  0.00    -0.028 A 
ATOM     38  N   UNL     1     -46.262  36.747  29.543  1.00  0.00    -0.262 NA
ATOM     39  H   UNL     1     -47.282  34.975  29.339  1.00  0.00     0.084 H 
ATOM     40  C   UNL     1     -46.193  38.224  27.619  1.00  0.00     0.066 A 
ATOM     41  H   UNL     1     -47.151  37.444  25.839  1.00  0.00     0.065 H 
ATOM     42  C   UNL     1     -45.882  37.897  28.934  1.00  0.00     0.051 A 
ATOM     43  H   UNL     1     -45.332  38.560  29.593  1.00  0.00     0.086 H 
BRANCH  40  44
ATOM     44  N   UNL     1     -45.794  39.475  27.055  1.00  0.00    -0.300 N 
ATOM     45  C   UNL     1     -44.495  39.817  26.706  1.00  0.00     0.012 A 
ATOM     46  C   UNL     1     -46.602  40.578  26.774  1.00  0.00     0.150 A 
ATOM     47  C   UNL     1     -44.480  41.095  26.196  1.00  0.00    -0.031 A 
ATOM     48  H   UNL     1     -43.677  39.118  26.809  1.00  0.00     0.082 H 
ATOM     49  C   UNL     1     -45.805  41.589  26.247  1.00  0.00     0.061 A 
ATOM     50  N   UNL     1     -47.926  40.689  27.005  1.00  0.00    -0.218 NA
ATOM     51  H   UNL     1     -43.608  41.617  25.825  1.00  0.00     0.065 H 
ATOM     52  C   UNL     1     -46.439  42.794  25.907  1.00  0.00     0.136 A 
ATOM     53  C   UNL     1     -48.423  41.881  26.650  1.00  0.00     0.120 A 
ATOM     54  N   UNL     1     -47.759  42.925  26.122  1.00  0.00    -0.219 NA
ATOM     55  H   UNL     1     -49.488  42.022  26.810  1.00  0.00     0.106 H 
BRANCH  52  56
ATOM     56  N   UNL     1     -45.771  43.890  25.377  1.00  0.00    -0.383 N 
ATOM     57  H   UNL     1     -46.058  44.738  25.854  1.00  0.00     0.158 HD
ATOM     58  H   UNL     1     -44.778  43.762  25.247  1.00  0.00     0.158 HD
ENDBRANCH  52  56
ENDBRANCH  40  44
ENDBRANCH   1  35
TORSDOF 10
ENDMDL
MODEL 7
REMARK VINA RESULT:      -9.0      1.727      2.994
REMARK SMILES CC(C)(C)c1cc(N)c2ccc(OCc3cncc(-n4ccc5c(N)ncnc54)c3)cc2n1
REMARK SMILES IDX 14 1 13 4 12 5 5 6 6 7 33 8 7 9 32 11 9 12 31 13 10 14 11 16
REMARK SMILES IDX 2 19 1 20 3 24 4 28 8 32 15 35 16 36 30 37 17 38 19 40 18 42
REMARK SMILES IDX 20 44 21 45 29 46 22 47 23 49 28 50 24 52 27 53 26 54 25 56
REMARK H PARENT 14 2 14 3 6 10 31 15 10 17 11 18 1 21 1 22 1 23 3 25 3 26 3 27
REMARK H PARENT 4 29 4 30 4 31 8 33 8 34 16 39 30 41 18 43 21 48 22 51 27 55
REMARK H PARENT 25 57 25 58
REMARK Flexibility Score: inf
ROOT
ATOM      1  C   UNL     1     -45.778  35.622  28.444  1.00  0.00     0.115 C 
ATOM      2  H   UNL     1     -46.569  35.142  29.031  1.00  0.00     0.076 H 
ATOM      3  H   UNL     1     -44.852  35.497  29.016  1.00  0.00     0.076 H 
ENDROOT
BRANCH   1   4
ATOM      4  O   UNL     1     -45.576  34.918  27.213  1.00  0.00    -0.489 OA
BRANCH   4   5
ATOM      5  C   UNL     1     -46.628  34.228  26.676  1.00  0.00     0.122 A 
ATOM      6  C   UNL     1     -47.631  30.651  23.687  1.00  0.00     0.048 A 
ATOM      7  C   UNL     1     -48.999  30.883  23.777  1.00  0.00    -0.016 A 
ATOM      8  N   UNL     1     -46.750  31.389  24.403  1.00  0.00    -0.252 NA
ATOM      9  C   UNL     1     -49.484  31.861  24.648  1.00  0.00     0.043 A 
ATOM     10  H   UNL     1     -49.701  30.303  23.188  1.00  0.00     0.066 H 
ATOM     11  C   UNL     1     -47.199  32.371  25.202  1.00  0.00     0.076 A 
ATOM     12  C   UNL     1     -48.567  32.674  25.351  1.00  0.00     0.023 A 
ATOM     13  C   UNL     1     -46.264  33.137  25.881  1.00  0.00     0.007 A 
ATOM     14  C   UNL     1     -48.934  33.761  26.180  1.00  0.00    -0.047 A 
ATOM     15  H   UNL     1     -45.210  32.903  25.755  1.00  0.00     0.069 H 
ATOM     16  C   UNL     1     -47.971  34.533  26.837  1.00  0.00    -0.019 A 
ATOM     17  H   UNL     1     -49.978  34.030  26.315  1.00  0.00     0.063 H 
ATOM     18  H   UNL     1     -48.306  35.359  27.452  1.00  0.00     0.066 H 
BRANCH   6  19
ATOM     19  C   UNL     1     -47.067  29.572  22.755  1.00  0.00     0.004 C 
BRANCH  19  20
ATOM     20  C   UNL     1     -45.780  30.088  22.085  1.00  0.00    -0.055 C 
ATOM     21  H   UNL     1     -44.892  29.612  22.516  1.00  0.00     0.024 H 
ATOM     22  H   UNL     1     -45.673  31.172  22.213  1.00  0.00     0.024 H 
ATOM     23  H   UNL     1     -45.767  29.883  21.009  1.00  0.00     0.024 H 
ENDBRANCH  19  20
BRANCH  19  24
ATOM     24  C   UNL     1     -46.716  28.282  23.527  1.00  0.00    -0.055 C 
ATOM     25  H   UNL     1     -45.982  28.480  24.318  1.00  0.00     0.024 H 
ATOM     26  H   UNL     1     -47.600  27.844  24.005  1.00  0.00     0.024 H 
ATOM     27  H   UNL     1     -46.284  27.522  22.864  1.00  0.00     0.024 H 
ENDBRANCH  19  24
BRANCH  19  28
ATOM     28  C   UNL     1     -48.103  29.202  21.674  1.00  0.00    -0.055 C 
ATOM     29  H   UNL     1     -48.562  30.099  21.243  1.00  0.00     0.024 H 
ATOM     30  H   UNL     1     -48.905  28.583  22.093  1.00  0.00     0.024 H 
ATOM     31  H   UNL     1     -47.654  28.634  20.851  1.00  0.00     0.024 H 
ENDBRANCH  19  28
ENDBRANCH   6  19
BRANCH   9  32
ATOM     32  N   UNL     1     -50.874  32.127  24.606  1.00  0.00    -0.398 N 
ATOM     33  H   UNL     1     -51.367  31.348  24.171  1.00  0.00     0.156 HD
ATOM     34  H   UNL     1     -51.094  32.986  24.112  1.00  0.00     0.156 HD
ENDBRANCH   9  32
ENDBRANCH   4   5
ENDBRANCH   1   4
BRANCH   1  35
ATOM     35  C   UNL     1     -46.017  37.107  28.301  1.00  0.00     0.010 A 
ATOM     36  C   UNL     1     -47.310  37.609  28.363  1.00  0.00     0.034 A 
ATOM     37  C   UNL     1     -44.979  38.037  28.145  1.00  0.00    -0.028 A 
ATOM     38  N   UNL     1     -47.622  38.919  28.257  1.00  0.00    -0.262 NA
ATOM     39  H   UNL     1     -48.166  36.952  28.504  1.00  0.00     0.084 H 
ATOM     40  C   UNL     1     -45.258  39.399  27.996  1.00  0.00     0.066 A 
ATOM     41  H   UNL     1     -43.956  37.675  28.156  1.00  0.00     0.065 H 
ATOM     42  C   UNL     1     -46.592  39.781  28.072  1.00  0.00     0.051 A 
ATOM     43  H   UNL     1     -46.919  40.809  27.957  1.00  0.00     0.086 H 
BRANCH  40  44
ATOM     44  N   UNL     1     -44.227  40.360  27.758  1.00  0.00    -0.300 N 
ATOM     45  C   UNL     1     -43.180  40.641  28.625  1.00  0.00     0.012 A 
ATOM     46  C   UNL     1     -44.086  41.201  26.653  1.00  0.00     0.150 A 
ATOM     47  C   UNL     1     -42.381  41.618  28.076  1.00  0.00    -0.031 A 
ATOM     48  H   UNL     1     -43.052  40.103  29.554  1.00  0.00     0.082 H 
ATOM     49  C   UNL     1     -42.953  41.987  26.835  1.00  0.00     0.061 A 
ATOM     50  N   UNL     1     -44.916  41.289  25.594  1.00  0.00    -0.218 NA
ATOM     51  H   UNL     1     -41.481  42.021  28.520  1.00  0.00     0.065 H 
ATOM     52  C   UNL     1     -42.645  42.912  25.826  1.00  0.00     0.136 A 
ATOM     53  C   UNL     1     -44.530  42.207  24.699  1.00  0.00     0.120 A 
ATOM     54  N   UNL     1     -43.454  43.013  24.758  1.00  0.00    -0.219 NA
ATOM     55  H   UNL     1     -45.161  42.315  23.822  1.00  0.00     0.106 H 
BRANCH  52  56
ATOM     56  N   UNL     1     -41.551  43.766  25.874  1.00  0.00    -0.383 N 
ATOM     57  H   UNL     1     -40.694  43.233  25.977  1.00  0.00     0.158 HD
ATOM     58  H   UNL     1     -41.546  44.492  25.173  1.00  0.00     0.158 HD
ENDBRANCH  52  56
ENDBRANCH  40  44
ENDBRANCH   1  35
TORSDOF 10
ENDMDL
