MODEL 1
REMARK VINA RESULT:     -10.5      0.000      0.000
REMARK SMILES CNc1ccc2ccc(OC[C@H]3O[C@@H](n4cc(CC5CCCC5)c5c(N)ncnc54)[C@H](O)[C@@H]3O)cc2n1
REMARK SMILES IDX 11 1 10 4 9 5 3 6 4 7 37 8 5 9 36 11 6 12 35 14 7 15 8 17
REMARK SMILES IDX 2 20 1 22 12 26 13 27 33 28 14 30 31 31 34 35 15 37 16 38
REMARK SMILES IDX 30 39 17 40 24 42 29 43 25 44 28 45 27 46 18 48 19 51 20 52
REMARK SMILES IDX 23 53 21 55 22 58 26 65 32 68
REMARK H PARENT 11 2 11 3 4 10 5 13 35 16 7 18 8 19 2 21 1 23 1 24 1 25 12 29
REMARK H PARENT 33 32 14 33 31 34 34 36 16 41 28 47 18 49 18 50 19 54 20 56
REMARK H PARENT 20 57 23 59 23 60 21 61 21 62 22 63 22 64 26 66 26 67 32 69
REMARK Flexibility Score: inf
ROOT
ATOM      1  C   UNL     1     -47.218  36.084  27.215  1.00  0.00     0.117 C 
ATOM      2  H   UNL     1     -47.364  37.138  26.946  1.00  0.00     0.073 H 
ATOM      3  H   UNL     1     -48.192  35.731  27.564  1.00  0.00     0.073 H 
ENDROOT
BRANCH   1   4
ATOM      4  O   UNL     1     -46.779  35.437  26.019  1.00  0.00    -0.491 OA
BRANCH   4   5
ATOM      5  C   UNL     1     -47.201  34.173  25.724  1.00  0.00     0.121 A 
ATOM      6  C   UNL     1     -46.894  29.853  23.740  1.00  0.00     0.126 A 
ATOM      7  C   UNL     1     -48.124  29.471  24.266  1.00  0.00    -0.019 A 
ATOM      8  N   UNL     1     -46.373  31.074  23.976  1.00  0.00    -0.231 NA
ATOM      9  C   UNL     1     -48.848  30.378  25.032  1.00  0.00    -0.049 A 
ATOM     10  H   UNL     1     -48.514  28.475  24.088  1.00  0.00     0.066 H 
ATOM     11  C   UNL     1     -47.066  31.957  24.721  1.00  0.00     0.076 A 
ATOM     12  C   UNL     1     -48.322  31.648  25.274  1.00  0.00     0.001 A 
ATOM     13  H   UNL     1     -49.812  30.084  25.439  1.00  0.00     0.063 H 
ATOM     14  C   UNL     1     -46.531  33.221  24.953  1.00  0.00     0.007 A 
ATOM     15  C   UNL     1     -49.007  32.595  26.046  1.00  0.00    -0.049 A 
ATOM     16  H   UNL     1     -45.570  33.426  24.495  1.00  0.00     0.069 H 
ATOM     17  C   UNL     1     -48.441  33.847  26.273  1.00  0.00    -0.019 A 
ATOM     18  H   UNL     1     -49.980  32.366  26.474  1.00  0.00     0.063 H 
ATOM     19  H   UNL     1     -48.976  34.576  26.876  1.00  0.00     0.066 H 
BRANCH   6  20
ATOM     20  N   UNL     1     -46.183  28.907  22.979  1.00  0.00    -0.373 N 
ATOM     21  H   UNL     1     -46.838  28.377  22.414  1.00  0.00     0.161 HD
BRANCH  20  22
ATOM     22  C   UNL     1     -45.112  29.476  22.176  1.00  0.00     0.005 C 
ATOM     23  H   UNL     1     -45.040  28.991  21.197  1.00  0.00     0.045 H 
ATOM     24  H   UNL     1     -44.147  29.415  22.692  1.00  0.00     0.045 H 
ATOM     25  H   UNL     1     -45.326  30.536  22.001  1.00  0.00     0.045 H 
ENDBRANCH  20  22
ENDBRANCH   6  20
ENDBRANCH   4   5
ENDBRANCH   1   4
BRANCH   1  26
ATOM     26  C   UNL     1     -46.164  36.020  28.330  1.00  0.00     0.123 C 
ATOM     27  O   UNL     1     -45.042  36.870  27.999  1.00  0.00    -0.345 OA
ATOM     28  C   UNL     1     -46.684  36.477  29.687  1.00  0.00     0.114 C 
ATOM     29  H   UNL     1     -45.775  34.996  28.381  1.00  0.00     0.067 H 
ATOM     30  C   UNL     1     -44.927  37.905  29.007  1.00  0.00     0.164 C 
ATOM     31  C   UNL     1     -46.267  37.933  29.752  1.00  0.00     0.128 C 
ATOM     32  H   UNL     1     -47.757  36.322  29.834  1.00  0.00     0.066 H 
ATOM     33  H   UNL     1     -44.098  37.643  29.677  1.00  0.00     0.088 H 
ATOM     34  H   UNL     1     -47.005  38.567  29.251  1.00  0.00     0.068 H 
BRANCH  28  35
ATOM     35  O   UNL     1     -46.010  35.755  30.733  1.00  0.00    -0.387 OA
ATOM     36  H   UNL     1     -45.624  34.972  30.286  1.00  0.00     0.211 HD
ENDBRANCH  28  35
BRANCH  30  37
ATOM     37  N   UNL     1     -44.537  39.157  28.363  1.00  0.00    -0.303 N 
ATOM     38  C   UNL     1     -45.055  39.627  27.179  1.00  0.00     0.012 A 
ATOM     39  C   UNL     1     -43.545  40.011  28.785  1.00  0.00     0.147 A 
ATOM     40  C   UNL     1     -44.457  40.836  26.874  1.00  0.00    -0.017 A 
ATOM     41  H   UNL     1     -45.833  39.081  26.660  1.00  0.00     0.082 H 
ATOM     42  C   UNL     1     -43.490  41.086  27.902  1.00  0.00     0.064 A 
ATOM     43  N   UNL     1     -42.774  39.836  29.877  1.00  0.00    -0.218 NA
ATOM     44  C   UNL     1     -42.560  42.096  28.206  1.00  0.00     0.136 A 
ATOM     45  C   UNL     1     -41.926  40.864  30.054  1.00  0.00     0.120 A 
ATOM     46  N   UNL     1     -41.780  41.962  29.296  1.00  0.00    -0.219 NA
ATOM     47  H   UNL     1     -41.273  40.800  30.920  1.00  0.00     0.106 H 
BRANCH  40  48
ATOM     48  C   UNL     1     -44.798  41.691  25.696  1.00  0.00    -0.023 C 
ATOM     49  H   UNL     1     -45.312  41.079  24.945  1.00  0.00     0.032 H 
ATOM     50  H   UNL     1     -43.871  42.033  25.218  1.00  0.00     0.032 H 
BRANCH  48  51
ATOM     51  C   UNL     1     -45.662  42.900  26.058  1.00  0.00    -0.037 C 
ATOM     52  C   UNL     1     -45.740  43.963  24.963  1.00  0.00    -0.050 C 
ATOM     53  C   UNL     1     -47.132  42.526  26.242  1.00  0.00    -0.050 C 
ATOM     54  H   UNL     1     -45.295  43.368  26.981  1.00  0.00     0.031 H 
ATOM     55  C   UNL     1     -46.988  44.772  25.307  1.00  0.00    -0.053 C 
ATOM     56  H   UNL     1     -45.864  43.499  23.976  1.00  0.00     0.027 H 
ATOM     57  H   UNL     1     -44.848  44.596  24.927  1.00  0.00     0.027 H 
ATOM     58  C   UNL     1     -47.864  43.860  26.168  1.00  0.00    -0.053 C 
ATOM     59  H   UNL     1     -47.472  41.870  25.430  1.00  0.00     0.027 H 
ATOM     60  H   UNL     1     -47.315  42.011  27.190  1.00  0.00     0.027 H 
ATOM     61  H   UNL     1     -47.510  45.098  24.401  1.00  0.00     0.027 H 
ATOM     62  H   UNL     1     -46.719  45.671  25.872  1.00  0.00     0.027 H 
ATOM     63  H   UNL     1     -48.868  43.744  25.750  1.00  0.00     0.027 H 
ATOM     64  H   UNL     1     -47.971  44.290  27.170  1.00  0.00     0.027 H 
ENDBRANCH  48  51
ENDBRANCH  40  48
BRANCH  44  65
ATOM     65  N   UNL     1     -42.359  43.239  27.443  1.00  0.00    -0.383 N 
ATOM     66  H   UNL     1     -42.048  43.060  26.499  1.00  0.00     0.158 HD
ATOM     67  H   UNL     1     -41.810  43.911  27.968  1.00  0.00     0.158 HD
ENDBRANCH  44  65
ENDBRANCH  30  37
BRANCH  31  68
ATOM     68  O   UNL     1     -46.170  38.344  31.122  1.00  0.00    -0.386 OA
ATOM     69  H   UNL     1     -45.798  39.253  31.083  1.00  0.00     0.211 HD
ENDBRANCH  31  68
ENDBRANCH   1  26
TORSDOF 11
ENDMDL
MODEL 2
REMARK VINA RESULT:      -9.5      1.407      2.175
REMARK SMILES CNc1ccc2ccc(OC[C@H]3O[C@@H](n4cc(CC5CCCC5)c5c(N)ncnc54)[C@H](O)[C@@H]3O)cc2n1
REMARK SMILES IDX 11 1 10 4 9 5 3 6 4 7 37 8 5 9 36 11 6 12 35 14 7 15 8 17
REMARK SMILES IDX 2 20 1 22 12 26 13 27 33 28 14 30 31 31 34 35 15 37 16 38
REMARK SMILES IDX 30 39 17 40 24 42 29 43 25 44 28 45 27 46 18 48 19 51 20 52
REMARK SMILES IDX 23 53 21 55 22 58 26 65 32 68
REMARK H PARENT 11 2 11 3 4 10 5 13 35 16 7 18 8 19 2 21 1 23 1 24 1 25 12 29
REMARK H PARENT 33 32 14 33 31 34 34 36 16 41 28 47 18 49 18 50 19 54 20 56
REMARK H PARENT 20 57 23 59 23 60 21 61 21 62 22 63 22 64 26 66 26 67 32 69
REMARK Flexibility Score: inf
ROOT
ATOM      1  C   UNL     1     -47.293  36.420  26.974  1.00  0.00     0.117 C 
ATOM      2  H   UNL     1     -46.780  36.435  26.004  1.00  0.00     0.073 H 
ATOM      3  H   UNL     1     -47.757  37.403  27.078  1.00  0.00     0.073 H 
ENDROOT
BRANCH   1   4
ATOM      4  O   UNL     1     -48.241  35.354  26.892  1.00  0.00    -0.491 OA
BRANCH   4   5
ATOM      5  C   UNL     1     -47.950  34.224  26.183  1.00  0.00     0.121 A 
ATOM      6  C   UNL     1     -48.720  29.823  24.530  1.00  0.00     0.126 A 
ATOM      7  C   UNL     1     -47.518  29.823  23.831  1.00  0.00    -0.019 A 
ATOM      8  N   UNL     1     -49.116  30.889  25.256  1.00  0.00    -0.231 NA
ATOM      9  C   UNL     1     -46.690  30.939  23.899  1.00  0.00    -0.049 A 
ATOM     10  H   UNL     1     -47.230  28.968  23.231  1.00  0.00     0.066 H 
ATOM     11  C   UNL     1     -48.322  31.975  25.324  1.00  0.00     0.076 A 
ATOM     12  C   UNL     1     -47.087  32.044  24.655  1.00  0.00     0.001 A 
ATOM     13  H   UNL     1     -45.748  30.939  23.358  1.00  0.00     0.063 H 
ATOM     14  C   UNL     1     -48.728  33.070  26.083  1.00  0.00     0.007 A 
ATOM     15  C   UNL     1     -46.293  33.195  24.750  1.00  0.00    -0.049 A 
ATOM     16  H   UNL     1     -49.677  32.971  26.596  1.00  0.00     0.069 H 
ATOM     17  C   UNL     1     -46.731  34.279  25.505  1.00  0.00    -0.019 A 
ATOM     18  H   UNL     1     -45.335  33.254  24.239  1.00  0.00     0.063 H 
ATOM     19  H   UNL     1     -46.114  35.171  25.572  1.00  0.00     0.066 H 
BRANCH   6  20
ATOM     20  N   UNL     1     -49.539  28.683  24.430  1.00  0.00    -0.373 N 
ATOM     21  H   UNL     1     -50.418  28.865  24.903  1.00  0.00     0.161 HD
BRANCH  20  22
ATOM     22  C   UNL     1     -49.743  28.217  23.068  1.00  0.00     0.005 C 
ATOM     23  H   UNL     1     -48.857  27.701  22.682  1.00  0.00     0.045 H 
ATOM     24  H   UNL     1     -50.014  29.040  22.397  1.00  0.00     0.045 H 
ATOM     25  H   UNL     1     -50.569  27.498  23.060  1.00  0.00     0.045 H 
ENDBRANCH  20  22
ENDBRANCH   6  20
ENDBRANCH   4   5
ENDBRANCH   1   4
BRANCH   1  26
ATOM     26  C   UNL     1     -46.239  36.175  28.064  1.00  0.00     0.123 C 
ATOM     27  O   UNL     1     -45.103  37.044  27.857  1.00  0.00    -0.345 OA
ATOM     28  C   UNL     1     -46.751  36.438  29.475  1.00  0.00     0.114 C 
ATOM     29  H   UNL     1     -45.870  35.147  27.964  1.00  0.00     0.067 H 
ATOM     30  C   UNL     1     -44.969  37.918  29.006  1.00  0.00     0.164 C 
ATOM     31  C   UNL     1     -46.308  37.861  29.750  1.00  0.00     0.128 C 
ATOM     32  H   UNL     1     -47.827  36.282  29.601  1.00  0.00     0.066 H 
ATOM     33  H   UNL     1     -44.145  37.546  29.627  1.00  0.00     0.088 H 
ATOM     34  H   UNL     1     -47.034  38.574  29.349  1.00  0.00     0.068 H 
BRANCH  28  35
ATOM     35  O   UNL     1     -46.090  35.559  30.402  1.00  0.00    -0.387 OA
ATOM     36  H   UNL     1     -46.046  36.067  31.239  1.00  0.00     0.211 HD
ENDBRANCH  28  35
BRANCH  30  37
ATOM     37  N   UNL     1     -44.556  39.243  28.550  1.00  0.00    -0.303 N 
ATOM     38  C   UNL     1     -45.122  39.926  27.500  1.00  0.00     0.012 A 
ATOM     39  C   UNL     1     -43.497  39.974  29.036  1.00  0.00     0.147 A 
ATOM     40  C   UNL     1     -44.483  41.143  27.356  1.00  0.00    -0.017 A 
ATOM     41  H   UNL     1     -45.959  39.506  26.954  1.00  0.00     0.082 H 
ATOM     42  C   UNL     1     -43.442  41.179  28.340  1.00  0.00     0.064 A 
ATOM     43  N   UNL     1     -42.668  39.587  30.027  1.00  0.00    -0.218 NA
ATOM     44  C   UNL     1     -42.444  42.085  28.740  1.00  0.00     0.136 A 
ATOM     45  C   UNL     1     -41.759  40.536  30.311  1.00  0.00     0.120 A 
ATOM     46  N   UNL     1     -41.605  41.739  29.735  1.00  0.00    -0.219 NA
ATOM     47  H   UNL     1     -41.057  40.302  31.106  1.00  0.00     0.106 H 
BRANCH  40  48
ATOM     48  C   UNL     1     -44.853  42.197  26.361  1.00  0.00    -0.023 C 
ATOM     49  H   UNL     1     -44.924  43.164  26.872  1.00  0.00     0.032 H 
ATOM     50  H   UNL     1     -45.859  41.990  25.974  1.00  0.00     0.032 H 
BRANCH  48  51
ATOM     51  C   UNL     1     -43.867  42.298  25.197  1.00  0.00    -0.037 C 
ATOM     52  C   UNL     1     -44.447  42.950  23.942  1.00  0.00    -0.050 C 
ATOM     53  C   UNL     1     -42.689  43.217  25.515  1.00  0.00    -0.050 C 
ATOM     54  H   UNL     1     -43.484  41.304  24.934  1.00  0.00     0.031 H 
ATOM     55  C   UNL     1     -43.224  43.394  23.144  1.00  0.00    -0.053 C 
ATOM     56  H   UNL     1     -45.054  43.828  24.201  1.00  0.00     0.027 H 
ATOM     57  H   UNL     1     -45.077  42.266  23.365  1.00  0.00     0.027 H 
ATOM     58  C   UNL     1     -42.081  43.522  24.152  1.00  0.00    -0.053 C 
ATOM     59  H   UNL     1     -43.034  44.147  25.984  1.00  0.00     0.027 H 
ATOM     60  H   UNL     1     -41.966  42.749  26.189  1.00  0.00     0.027 H 
ATOM     61  H   UNL     1     -43.413  44.338  22.623  1.00  0.00     0.027 H 
ATOM     62  H   UNL     1     -42.968  42.645  22.385  1.00  0.00     0.027 H 
ATOM     63  H   UNL     1     -41.625  44.517  24.128  1.00  0.00     0.027 H 
ATOM     64  H   UNL     1     -41.296  42.795  23.915  1.00  0.00     0.027 H 
ENDBRANCH  48  51
ENDBRANCH  40  48
BRANCH  44  65
ATOM     65  N   UNL     1     -42.233  43.331  28.163  1.00  0.00    -0.383 N 
ATOM     66  H   UNL     1     -41.282  43.663  28.227  1.00  0.00     0.158 HD
ATOM     67  H   UNL     1     -42.948  43.980  28.472  1.00  0.00     0.158 HD
ENDBRANCH  44  65
ENDBRANCH  30  37
BRANCH  31  68
ATOM     68  O   UNL     1     -46.203  38.065  31.166  1.00  0.00    -0.386 OA
ATOM     69  H   UNL     1     -45.775  38.946  31.258  1.00  0.00     0.211 HD
ENDBRANCH  31  68
ENDBRANCH   1  26
TORSDOF 11
ENDMDL
MODEL 3
REMARK VINA RESULT:      -8.8      3.355      5.810
REMARK SMILES CNc1ccc2ccc(OC[C@H]3O[C@@H](n4cc(CC5CCCC5)c5c(N)ncnc54)[C@H](O)[C@@H]3O)cc2n1
REMARK SMILES IDX 11 1 10 4 9 5 3 6 4 7 37 8 5 9 36 11 6 12 35 14 7 15 8 17
REMARK SMILES IDX 2 20 1 22 12 26 13 27 33 28 14 30 31 31 34 35 15 37 16 38
REMARK SMILES IDX 30 39 17 40 24 42 29 43 25 44 28 45 27 46 18 48 19 51 20 52
REMARK SMILES IDX 23 53 21 55 22 58 26 65 32 68
REMARK H PARENT 11 2 11 3 4 10 5 13 35 16 7 18 8 19 2 21 1 23 1 24 1 25 12 29
REMARK H PARENT 33 32 14 33 31 34 34 36 16 41 28 47 18 49 18 50 19 54 20 56
REMARK H PARENT 20 57 23 59 23 60 21 61 21 62 22 63 22 64 26 66 26 67 32 69
REMARK Flexibility Score: inf
ROOT
ATOM      1  C   UNL     1     -50.193  40.212  27.734  1.00  0.00     0.117 C 
ATOM      2  H   UNL     1     -49.911  40.047  26.687  1.00  0.00     0.073 H 
ATOM      3  H   UNL     1     -51.230  39.879  27.817  1.00  0.00     0.073 H 
ENDROOT
BRANCH   1   4
ATOM      4  O   UNL     1     -49.284  39.426  28.508  1.00  0.00    -0.491 OA
BRANCH   4   5
ATOM      5  C   UNL     1     -48.667  38.341  27.954  1.00  0.00     0.121 A 
ATOM      6  C   UNL     1     -48.359  33.840  26.427  1.00  0.00     0.126 A 
ATOM      7  C   UNL     1     -47.038  34.014  26.029  1.00  0.00    -0.019 A 
ATOM      8  N   UNL     1     -49.071  34.845  26.976  1.00  0.00    -0.231 NA
ATOM      9  C   UNL     1     -46.425  35.247  26.224  1.00  0.00    -0.049 A 
ATOM     10  H   UNL     1     -46.491  33.202  25.564  1.00  0.00     0.066 H 
ATOM     11  C   UNL     1     -48.485  36.044  27.164  1.00  0.00     0.076 A 
ATOM     12  C   UNL     1     -47.150  36.292  26.800  1.00  0.00     0.001 A 
ATOM     13  H   UNL     1     -45.391  35.384  25.919  1.00  0.00     0.063 H 
ATOM     14  C   UNL     1     -49.219  37.077  27.742  1.00  0.00     0.007 A 
ATOM     15  C   UNL     1     -46.581  37.555  27.011  1.00  0.00    -0.049 A 
ATOM     16  H   UNL     1     -50.238  36.841  28.024  1.00  0.00     0.069 H 
ATOM     17  C   UNL     1     -47.343  38.573  27.578  1.00  0.00    -0.019 A 
ATOM     18  H   UNL     1     -45.548  37.754  26.736  1.00  0.00     0.063 H 
ATOM     19  H   UNL     1     -46.898  39.552  27.736  1.00  0.00     0.066 H 
BRANCH   6  20
ATOM     20  N   UNL     1     -48.953  32.583  26.204  1.00  0.00    -0.373 N 
ATOM     21  H   UNL     1     -49.961  32.684  26.237  1.00  0.00     0.161 HD
BRANCH  20  22
ATOM     22  C   UNL     1     -48.513  31.927  24.984  1.00  0.00     0.005 C 
ATOM     23  H   UNL     1     -48.684  30.846  25.022  1.00  0.00     0.045 H 
ATOM     24  H   UNL     1     -47.455  32.127  24.778  1.00  0.00     0.045 H 
ATOM     25  H   UNL     1     -49.092  32.320  24.142  1.00  0.00     0.045 H 
ENDBRANCH  20  22
ENDBRANCH   6  20
ENDBRANCH   4   5
ENDBRANCH   1   4
BRANCH   1  26
ATOM     26  C   UNL     1     -50.059  41.713  28.031  1.00  0.00     0.123 C 
ATOM     27  O   UNL     1     -48.665  42.096  28.024  1.00  0.00    -0.345 OA
ATOM     28  C   UNL     1     -50.769  42.601  27.017  1.00  0.00     0.114 C 
ATOM     29  H   UNL     1     -50.429  41.900  29.046  1.00  0.00     0.067 H 
ATOM     30  C   UNL     1     -48.453  43.070  26.972  1.00  0.00     0.164 C 
ATOM     31  C   UNL     1     -49.669  42.973  26.043  1.00  0.00     0.128 C 
ATOM     32  H   UNL     1     -51.637  42.134  26.540  1.00  0.00     0.066 H 
ATOM     33  H   UNL     1     -48.375  44.063  27.433  1.00  0.00     0.088 H 
ATOM     34  H   UNL     1     -49.547  42.195  25.284  1.00  0.00     0.068 H 
BRANCH  28  35
ATOM     35  O   UNL     1     -51.241  43.795  27.664  1.00  0.00    -0.387 OA
ATOM     36  H   UNL     1     -50.659  44.508  27.326  1.00  0.00     0.211 HD
ENDBRANCH  28  35
BRANCH  30  37
ATOM     37  N   UNL     1     -47.158  42.821  26.345  1.00  0.00    -0.303 N 
ATOM     38  C   UNL     1     -46.390  41.699  26.545  1.00  0.00     0.012 A 
ATOM     39  C   UNL     1     -46.470  43.691  25.533  1.00  0.00     0.147 A 
ATOM     40  C   UNL     1     -45.235  41.802  25.792  1.00  0.00    -0.017 A 
ATOM     41  H   UNL     1     -46.739  40.896  27.184  1.00  0.00     0.082 H 
ATOM     42  C   UNL     1     -45.283  43.077  25.140  1.00  0.00     0.064 A 
ATOM     43  N   UNL     1     -46.888  44.922  25.172  1.00  0.00    -0.218 NA
ATOM     44  C   UNL     1     -44.467  43.805  24.257  1.00  0.00     0.136 A 
ATOM     45  C   UNL     1     -46.020  45.514  24.333  1.00  0.00     0.120 A 
ATOM     46  N   UNL     1     -44.857  45.033  23.864  1.00  0.00    -0.219 NA
ATOM     47  H   UNL     1     -46.290  46.508  23.990  1.00  0.00     0.106 H 
BRANCH  40  48
ATOM     48  C   UNL     1     -44.175  40.752  25.694  1.00  0.00    -0.023 C 
ATOM     49  H   UNL     1     -43.647  40.862  24.740  1.00  0.00     0.032 H 
ATOM     50  H   UNL     1     -44.648  39.763  25.661  1.00  0.00     0.032 H 
BRANCH  48  51
ATOM     51  C   UNL     1     -43.172  40.800  26.848  1.00  0.00    -0.037 C 
ATOM     52  C   UNL     1     -42.769  42.213  27.268  1.00  0.00    -0.050 C 
ATOM     53  C   UNL     1     -43.754  40.239  28.144  1.00  0.00    -0.050 C 
ATOM     54  H   UNL     1     -42.266  40.235  26.590  1.00  0.00     0.031 H 
ATOM     55  C   UNL     1     -42.209  42.046  28.678  1.00  0.00    -0.053 C 
ATOM     56  H   UNL     1     -43.643  42.877  27.296  1.00  0.00     0.027 H 
ATOM     57  H   UNL     1     -42.032  42.658  26.592  1.00  0.00     0.027 H 
ATOM     58  C   UNL     1     -42.810  40.751  29.225  1.00  0.00    -0.053 C 
ATOM     59  H   UNL     1     -44.765  40.629  28.320  1.00  0.00     0.027 H 
ATOM     60  H   UNL     1     -43.813  39.146  28.136  1.00  0.00     0.027 H 
ATOM     61  H   UNL     1     -42.459  42.907  29.307  1.00  0.00     0.027 H 
ATOM     62  H   UNL     1     -41.116  41.967  28.650  1.00  0.00     0.027 H 
ATOM     63  H   UNL     1     -43.333  40.911  30.173  1.00  0.00     0.027 H 
ATOM     64  H   UNL     1     -42.012  40.022  29.408  1.00  0.00     0.027 H 
ENDBRANCH  48  51
ENDBRANCH  40  48
BRANCH  44  65
ATOM     65  N   UNL     1     -43.248  43.360  23.761  1.00  0.00    -0.383 N 
ATOM     66  H   UNL     1     -42.461  43.537  24.369  1.00  0.00     0.158 HD
ATOM     67  H   UNL     1     -43.137  43.660  22.798  1.00  0.00     0.158 HD
ENDBRANCH  44  65
ENDBRANCH  30  37
BRANCH  31  68
ATOM     68  O   UNL     1     -50.007  44.202  25.386  1.00  0.00    -0.386 OA
ATOM     69  H   UNL     1     -49.143  44.578  25.104  1.00  0.00     0.211 HD
ENDBRANCH  31  68
ENDBRANCH   1  26
TORSDOF 11
ENDMDL
MODEL 4
REMARK VINA RESULT:      -8.7      2.395     11.116
REMARK SMILES CNc1ccc2ccc(OC[C@H]3O[C@@H](n4cc(CC5CCCC5)c5c(N)ncnc54)[C@H](O)[C@@H]3O)cc2n1
REMARK SMILES IDX 11 1 10 4 9 5 3 6 4 7 37 8 5 9 36 11 6 12 35 14 7 15 8 17
REMARK SMILES IDX 2 20 1 22 12 26 13 27 33 28 14 30 31 31 34 35 15 37 16 38
REMARK SMILES IDX 30 39 17 40 24 42 29 43 25 44 28 45 27 46 18 48 19 51 20 52
REMARK SMILES IDX 23 53 21 55 22 58 26 65 32 68
REMARK H PARENT 11 2 11 3 4 10 5 13 35 16 7 18 8 19 2 21 1 23 1 24 1 25 12 29
REMARK H PARENT 33 32 14 33 31 34 34 36 16 41 28 47 18 49 18 50 19 54 20 56
REMARK H PARENT 20 57 23 59 23 60 21 61 21 62 22 63 22 64 26 66 26 67 32 69
REMARK Flexibility Score: inf
ROOT
ATOM      1  C   UNL     1     -47.006  35.951  26.311  1.00  0.00     0.117 C 
ATOM      2  H   UNL     1     -47.573  35.663  25.417  1.00  0.00     0.073 H 
ATOM      3  H   UNL     1     -45.953  35.827  26.045  1.00  0.00     0.073 H 
ENDROOT
BRANCH   1   4
ATOM      4  O   UNL     1     -47.365  37.309  26.575  1.00  0.00    -0.491 OA
BRANCH   4   5
ATOM      5  C   UNL     1     -46.404  38.228  26.888  1.00  0.00     0.121 A 
ATOM      6  C   UNL     1     -43.703  42.088  26.184  1.00  0.00     0.126 A 
ATOM      7  C   UNL     1     -43.049  41.911  27.398  1.00  0.00    -0.019 A 
ATOM      8  N   UNL     1     -44.676  41.248  25.776  1.00  0.00    -0.231 NA
ATOM      9  C   UNL     1     -43.386  40.828  28.202  1.00  0.00    -0.049 A 
ATOM     10  H   UNL     1     -42.288  42.612  27.721  1.00  0.00     0.066 H 
ATOM     11  C   UNL     1     -45.012  40.198  26.551  1.00  0.00     0.076 A 
ATOM     12  C   UNL     1     -44.386  39.947  27.785  1.00  0.00     0.001 A 
ATOM     13  H   UNL     1     -42.873  40.685  29.149  1.00  0.00     0.063 H 
ATOM     14  C   UNL     1     -46.010  39.327  26.123  1.00  0.00     0.007 A 
ATOM     15  C   UNL     1     -44.769  38.846  28.562  1.00  0.00    -0.049 A 
ATOM     16  H   UNL     1     -46.455  39.545  25.160  1.00  0.00     0.069 H 
ATOM     17  C   UNL     1     -45.779  37.998  28.114  1.00  0.00    -0.019 A 
ATOM     18  H   UNL     1     -44.287  38.642  29.515  1.00  0.00     0.063 H 
ATOM     19  H   UNL     1     -46.075  37.148  28.723  1.00  0.00     0.066 H 
BRANCH   6  20
ATOM     20  N   UNL     1     -43.345  43.200  25.399  1.00  0.00    -0.373 N 
ATOM     21  H   UNL     1     -43.878  44.007  25.707  1.00  0.00     0.161 HD
BRANCH  20  22
ATOM     22  C   UNL     1     -41.917  43.473  25.375  1.00  0.00     0.005 C 
ATOM     23  H   UNL     1     -41.419  42.940  24.558  1.00  0.00     0.045 H 
ATOM     24  H   UNL     1     -41.441  43.217  26.328  1.00  0.00     0.045 H 
ATOM     25  H   UNL     1     -41.764  44.544  25.207  1.00  0.00     0.045 H 
ENDBRANCH  20  22
ENDBRANCH   6  20
ENDBRANCH   4   5
ENDBRANCH   1   4
BRANCH   1  26
ATOM     26  C   UNL     1     -47.413  35.012  27.455  1.00  0.00     0.123 C 
ATOM     27  O   UNL     1     -48.245  33.945  26.946  1.00  0.00    -0.345 OA
ATOM     28  C   UNL     1     -46.229  34.357  28.156  1.00  0.00     0.114 C 
ATOM     29  H   UNL     1     -48.028  35.577  28.165  1.00  0.00     0.067 H 
ATOM     30  C   UNL     1     -47.576  32.680  27.176  1.00  0.00     0.164 C 
ATOM     31  C   UNL     1     -46.107  33.015  27.463  1.00  0.00     0.128 C 
ATOM     32  H   UNL     1     -45.308  34.948  28.131  1.00  0.00     0.066 H 
ATOM     33  H   UNL     1     -48.053  32.188  28.033  1.00  0.00     0.088 H 
ATOM     34  H   UNL     1     -45.518  33.108  26.546  1.00  0.00     0.068 H 
BRANCH  28  35
ATOM     35  O   UNL     1     -46.547  34.136  29.541  1.00  0.00    -0.387 OA
ATOM     36  H   UNL     1     -46.436  35.014  29.965  1.00  0.00     0.211 HD
ENDBRANCH  28  35
BRANCH  30  37
ATOM     37  N   UNL     1     -47.811  31.801  26.033  1.00  0.00    -0.303 N 
ATOM     38  C   UNL     1     -48.626  30.694  26.047  1.00  0.00     0.012 A 
ATOM     39  C   UNL     1     -47.201  31.888  24.804  1.00  0.00     0.147 A 
ATOM     40  C   UNL     1     -48.612  30.108  24.795  1.00  0.00    -0.017 A 
ATOM     41  H   UNL     1     -49.181  30.426  26.939  1.00  0.00     0.082 H 
ATOM     42  C   UNL     1     -47.702  30.871  23.995  1.00  0.00     0.064 A 
ATOM     43  N   UNL     1     -46.287  32.814  24.448  1.00  0.00    -0.218 NA
ATOM     44  C   UNL     1     -47.225  30.835  22.673  1.00  0.00     0.136 A 
ATOM     45  C   UNL     1     -45.910  32.669  23.166  1.00  0.00     0.120 A 
ATOM     46  N   UNL     1     -46.320  31.751  22.276  1.00  0.00    -0.219 NA
ATOM     47  H   UNL     1     -45.178  33.384  22.800  1.00  0.00     0.106 H 
BRANCH  40  48
ATOM     48  C   UNL     1     -49.421  28.915  24.395  1.00  0.00    -0.023 C 
ATOM     49  H   UNL     1     -49.097  28.578  23.403  1.00  0.00     0.032 H 
ATOM     50  H   UNL     1     -50.471  29.214  24.280  1.00  0.00     0.032 H 
BRANCH  48  51
ATOM     51  C   UNL     1     -49.325  27.759  25.391  1.00  0.00    -0.037 C 
ATOM     52  C   UNL     1     -50.391  26.680  25.202  1.00  0.00    -0.050 C 
ATOM     53  C   UNL     1     -48.033  26.960  25.226  1.00  0.00    -0.050 C 
ATOM     54  H   UNL     1     -49.381  28.137  26.420  1.00  0.00     0.031 H 
ATOM     55  C   UNL     1     -49.823  25.456  25.914  1.00  0.00    -0.053 C 
ATOM     56  H   UNL     1     -50.533  26.453  24.138  1.00  0.00     0.027 H 
ATOM     57  H   UNL     1     -51.362  26.972  25.615  1.00  0.00     0.027 H 
ATOM     58  C   UNL     1     -48.308  25.658  25.968  1.00  0.00    -0.053 C 
ATOM     59  H   UNL     1     -47.837  26.749  24.167  1.00  0.00     0.027 H 
ATOM     60  H   UNL     1     -47.163  27.486  25.631  1.00  0.00     0.027 H 
ATOM     61  H   UNL     1     -50.090  24.533  25.388  1.00  0.00     0.027 H 
ATOM     62  H   UNL     1     -50.225  25.382  26.931  1.00  0.00     0.027 H 
ATOM     63  H   UNL     1     -47.767  24.818  25.520  1.00  0.00     0.027 H 
ATOM     64  H   UNL     1     -47.983  25.740  27.012  1.00  0.00     0.027 H 
ENDBRANCH  48  51
ENDBRANCH  40  48
BRANCH  44  65
ATOM     65  N   UNL     1     -47.604  29.895  21.723  1.00  0.00    -0.383 N 
ATOM     66  H   UNL     1     -48.181  29.149  22.083  1.00  0.00     0.158 HD
ATOM     67  H   UNL     1     -46.796  29.605  21.183  1.00  0.00     0.158 HD
ENDBRANCH  44  65
ENDBRANCH  30  37
BRANCH  31  68
ATOM     68  O   UNL     1     -45.450  32.083  28.333  1.00  0.00    -0.386 OA
ATOM     69  H   UNL     1     -44.833  31.589  27.747  1.00  0.00     0.211 HD
ENDBRANCH  31  68
ENDBRANCH   1  26
TORSDOF 11
ENDMDL
MODEL 5
REMARK VINA RESULT:      -8.7      2.777      4.561
REMARK SMILES CNc1ccc2ccc(OC[C@H]3O[C@@H](n4cc(CC5CCCC5)c5c(N)ncnc54)[C@H](O)[C@@H]3O)cc2n1
REMARK SMILES IDX 11 1 10 4 9 5 3 6 4 7 37 8 5 9 36 11 6 12 35 14 7 15 8 17
REMARK SMILES IDX 2 20 1 22 12 26 13 27 33 28 14 30 31 31 34 35 15 37 16 38
REMARK SMILES IDX 30 39 17 40 24 42 29 43 25 44 28 45 27 46 18 48 19 51 20 52
REMARK SMILES IDX 23 53 21 55 22 58 26 65 32 68
REMARK H PARENT 11 2 11 3 4 10 5 13 35 16 7 18 8 19 2 21 1 23 1 24 1 25 12 29
REMARK H PARENT 33 32 14 33 31 34 34 36 16 41 28 47 18 49 18 50 19 54 20 56
REMARK H PARENT 20 57 23 59 23 60 21 61 21 62 22 63 22 64 26 66 26 67 32 69
REMARK Flexibility Score: inf
ROOT
ATOM      1  C   UNL     1     -47.339  33.676  25.709  1.00  0.00     0.117 C 
ATOM      2  H   UNL     1     -47.625  34.698  25.432  1.00  0.00     0.073 H 
ATOM      3  H   UNL     1     -48.201  33.260  26.236  1.00  0.00     0.073 H 
ENDROOT
BRANCH   1   4
ATOM      4  O   UNL     1     -47.054  33.008  24.479  1.00  0.00    -0.491 OA
BRANCH   4   5
ATOM      5  C   UNL     1     -47.441  31.712  24.292  1.00  0.00     0.121 A 
ATOM      6  C   UNL     1     -49.283  27.509  25.573  1.00  0.00     0.126 A 
ATOM      7  C   UNL     1     -49.075  26.977  24.306  1.00  0.00    -0.019 A 
ATOM      8  N   UNL     1     -48.948  28.782  25.869  1.00  0.00    -0.231 NA
ATOM      9  C   UNL     1     -48.484  27.766  23.324  1.00  0.00    -0.049 A 
ATOM     10  H   UNL     1     -49.375  25.960  24.079  1.00  0.00     0.066 H 
ATOM     11  C   UNL     1     -48.380  29.554  24.923  1.00  0.00     0.076 A 
ATOM     12  C   UNL     1     -48.126  29.082  23.623  1.00  0.00     0.001 A 
ATOM     13  H   UNL     1     -48.316  27.350  22.334  1.00  0.00     0.063 H 
ATOM     14  C   UNL     1     -48.026  30.864  25.234  1.00  0.00     0.007 A 
ATOM     15  C   UNL     1     -47.537  29.920  22.667  1.00  0.00    -0.049 A 
ATOM     16  H   UNL     1     -48.222  31.184  26.251  1.00  0.00     0.069 H 
ATOM     17  C   UNL     1     -47.205  31.230  23.004  1.00  0.00    -0.019 A 
ATOM     18  H   UNL     1     -47.333  29.561  21.661  1.00  0.00     0.063 H 
ATOM     19  H   UNL     1     -46.752  31.877  22.258  1.00  0.00     0.066 H 
BRANCH   6  20
ATOM     20  N   UNL     1     -49.892  26.687  26.540  1.00  0.00    -0.373 N 
ATOM     21  H   UNL     1     -49.883  27.167  27.434  1.00  0.00     0.161 HD
BRANCH  20  22
ATOM     22  C   UNL     1     -51.227  26.238  26.179  1.00  0.00     0.005 C 
ATOM     23  H   UNL     1     -51.759  25.822  27.041  1.00  0.00     0.045 H 
ATOM     24  H   UNL     1     -51.198  25.500  25.370  1.00  0.00     0.045 H 
ATOM     25  H   UNL     1     -51.805  27.096  25.822  1.00  0.00     0.045 H 
ENDBRANCH  20  22
ENDBRANCH   6  20
ENDBRANCH   4   5
ENDBRANCH   1   4
BRANCH   1  26
ATOM     26  C   UNL     1     -46.107  33.760  26.622  1.00  0.00     0.123 C 
ATOM     27  O   UNL     1     -45.547  35.092  26.577  1.00  0.00    -0.345 OA
ATOM     28  C   UNL     1     -46.409  33.453  28.083  1.00  0.00     0.114 C 
ATOM     29  H   UNL     1     -45.338  33.084  26.228  1.00  0.00     0.067 H 
ATOM     30  C   UNL     1     -45.613  35.671  27.904  1.00  0.00     0.164 C 
ATOM     31  C   UNL     1     -46.616  34.824  28.696  1.00  0.00     0.128 C 
ATOM     32  H   UNL     1     -47.254  32.773  28.235  1.00  0.00     0.066 H 
ATOM     33  H   UNL     1     -44.610  35.629  28.348  1.00  0.00     0.088 H 
ATOM     34  H   UNL     1     -47.647  35.159  28.548  1.00  0.00     0.068 H 
BRANCH  28  35
ATOM     35  O   UNL     1     -45.263  32.838  28.697  1.00  0.00    -0.387 OA
ATOM     36  H   UNL     1     -44.497  33.165  28.178  1.00  0.00     0.211 HD
ENDBRANCH  28  35
BRANCH  30  37
ATOM     37  N   UNL     1     -45.938  37.090  27.790  1.00  0.00    -0.303 N 
ATOM     38  C   UNL     1     -45.015  38.099  27.645  1.00  0.00     0.012 A 
ATOM     39  C   UNL     1     -47.191  37.646  27.891  1.00  0.00     0.147 A 
ATOM     40  C   UNL     1     -45.678  39.309  27.566  1.00  0.00    -0.017 A 
ATOM     41  H   UNL     1     -43.957  37.875  27.576  1.00  0.00     0.082 H 
ATOM     42  C   UNL     1     -47.073  39.023  27.722  1.00  0.00     0.064 A 
ATOM     43  N   UNL     1     -48.335  36.964  28.103  1.00  0.00    -0.218 NA
ATOM     44  C   UNL     1     -48.272  39.759  27.743  1.00  0.00     0.136 A 
ATOM     45  C   UNL     1     -49.404  37.779  28.107  1.00  0.00     0.120 A 
ATOM     46  N   UNL     1     -49.436  39.111  27.941  1.00  0.00    -0.219 NA
ATOM     47  H   UNL     1     -50.367  37.302  28.265  1.00  0.00     0.106 H 
BRANCH  40  48
ATOM     48  C   UNL     1     -45.024  40.636  27.344  1.00  0.00    -0.023 C 
ATOM     49  H   UNL     1     -45.467  41.373  28.025  1.00  0.00     0.032 H 
ATOM     50  H   UNL     1     -45.257  40.988  26.331  1.00  0.00     0.032 H 
BRANCH  48  51
ATOM     51  C   UNL     1     -43.508  40.600  27.537  1.00  0.00    -0.037 C 
ATOM     52  C   UNL     1     -42.763  41.751  26.861  1.00  0.00    -0.050 C 
ATOM     53  C   UNL     1     -43.106  40.780  29.000  1.00  0.00    -0.050 C 
ATOM     54  H   UNL     1     -43.099  39.649  27.170  1.00  0.00     0.031 H 
ATOM     55  C   UNL     1     -41.416  41.804  27.575  1.00  0.00    -0.053 C 
ATOM     56  H   UNL     1     -43.295  42.700  27.008  1.00  0.00     0.027 H 
ATOM     57  H   UNL     1     -42.643  41.598  25.784  1.00  0.00     0.027 H 
ATOM     58  C   UNL     1     -41.627  41.139  28.935  1.00  0.00    -0.053 C 
ATOM     59  H   UNL     1     -43.668  41.603  29.461  1.00  0.00     0.027 H 
ATOM     60  H   UNL     1     -43.283  39.879  29.595  1.00  0.00     0.027 H 
ATOM     61  H   UNL     1     -41.064  42.836  27.678  1.00  0.00     0.027 H 
ATOM     62  H   UNL     1     -40.658  41.254  27.005  1.00  0.00     0.027 H 
ATOM     63  H   UNL     1     -41.336  41.796  29.761  1.00  0.00     0.027 H 
ATOM     64  H   UNL     1     -41.013  40.233  29.003  1.00  0.00     0.027 H 
ENDBRANCH  48  51
ENDBRANCH  40  48
BRANCH  44  65
ATOM     65  N   UNL     1     -48.353  41.138  27.596  1.00  0.00    -0.383 N 
ATOM     66  H   UNL     1     -49.213  41.462  27.178  1.00  0.00     0.158 HD
ATOM     67  H   UNL     1     -47.500  41.491  27.178  1.00  0.00     0.158 HD
ENDBRANCH  44  65
ENDBRANCH  30  37
BRANCH  31  68
ATOM     68  O   UNL     1     -46.354  34.764  30.104  1.00  0.00    -0.386 OA
ATOM     69  H   UNL     1     -46.307  35.705  30.387  1.00  0.00     0.211 HD
ENDBRANCH  31  68
ENDBRANCH   1  26
TORSDOF 11
ENDMDL
MODEL 6
REMARK VINA RESULT:      -8.6      3.314      5.391
REMARK SMILES CNc1ccc2ccc(OC[C@H]3O[C@@H](n4cc(CC5CCCC5)c5c(N)ncnc54)[C@H](O)[C@@H]3O)cc2n1
REMARK SMILES IDX 11 1 10 4 9 5 3 6 4 7 37 8 5 9 36 11 6 12 35 14 7 15 8 17
REMARK SMILES IDX 2 20 1 22 12 26 13 27 33 28 14 30 31 31 34 35 15 37 16 38
REMARK SMILES IDX 30 39 17 40 24 42 29 43 25 44 28 45 27 46 18 48 19 51 20 52
REMARK SMILES IDX 23 53 21 55 22 58 26 65 32 68
REMARK H PARENT 11 2 11 3 4 10 5 13 35 16 7 18 8 19 2 21 1 23 1 24 1 25 12 29
REMARK H PARENT 33 32 14 33 31 34 34 36 16 41 28 47 18 49 18 50 19 54 20 56
REMARK H PARENT 20 57 23 59 23 60 21 61 21 62 22 63 22 64 26 66 26 67 32 69
REMARK Flexibility Score: inf
ROOT
ATOM      1  C   UNL     1     -49.092  32.855  25.435  1.00  0.00     0.117 C 
ATOM      2  H   UNL     1     -49.578  33.835  25.342  1.00  0.00     0.073 H 
ATOM      3  H   UNL     1     -49.406  32.461  26.404  1.00  0.00     0.073 H 
ENDROOT
BRANCH   1   4
ATOM      4  O   UNL     1     -49.567  32.083  24.331  1.00  0.00    -0.491 OA
BRANCH   4   5
ATOM      5  C   UNL     1     -49.774  30.740  24.466  1.00  0.00     0.121 A 
ATOM      6  C   UNL     1     -48.915  26.371  26.159  1.00  0.00     0.126 A 
ATOM      7  C   UNL     1     -49.964  25.828  25.425  1.00  0.00    -0.019 A 
ATOM      8  N   UNL     1     -48.626  27.687  26.111  1.00  0.00    -0.231 NA
ATOM      9  C   UNL     1     -50.719  26.656  24.601  1.00  0.00    -0.049 A 
ATOM     10  H   UNL     1     -50.199  24.772  25.497  1.00  0.00     0.066 H 
ATOM     11  C   UNL     1     -49.355  28.497  25.319  1.00  0.00     0.076 A 
ATOM     12  C   UNL     1     -50.422  28.018  24.537  1.00  0.00     0.001 A 
ATOM     13  H   UNL     1     -51.535  26.233  24.022  1.00  0.00     0.063 H 
ATOM     14  C   UNL     1     -49.047  29.854  25.263  1.00  0.00     0.007 A 
ATOM     15  C   UNL     1     -51.157  28.896  23.729  1.00  0.00    -0.049 A 
ATOM     16  H   UNL     1     -48.208  30.179  25.866  1.00  0.00     0.069 H 
ATOM     17  C   UNL     1     -50.835  30.251  23.704  1.00  0.00    -0.019 A 
ATOM     18  H   UNL     1     -51.981  28.534  23.119  1.00  0.00     0.063 H 
ATOM     19  H   UNL     1     -51.411  30.927  23.078  1.00  0.00     0.066 H 
BRANCH   6  20
ATOM     20  N   UNL     1     -48.179  25.507  26.991  1.00  0.00    -0.373 N 
ATOM     21  H   UNL     1     -48.465  24.551  26.811  1.00  0.00     0.161 HD
BRANCH  20  22
ATOM     22  C   UNL     1     -46.738  25.670  26.888  1.00  0.00     0.005 C 
ATOM     23  H   UNL     1     -46.473  26.545  26.285  1.00  0.00     0.045 H 
ATOM     24  H   UNL     1     -46.260  24.776  26.471  1.00  0.00     0.045 H 
ATOM     25  H   UNL     1     -46.326  25.826  27.890  1.00  0.00     0.045 H 
ENDBRANCH  20  22
ENDBRANCH   6  20
ENDBRANCH   4   5
ENDBRANCH   1   4
BRANCH   1  26
ATOM     26  C   UNL     1     -47.573  33.072  25.380  1.00  0.00     0.123 C 
ATOM     27  O   UNL     1     -47.275  34.487  25.361  1.00  0.00    -0.345 OA
ATOM     28  C   UNL     1     -46.829  32.476  26.569  1.00  0.00     0.114 C 
ATOM     29  H   UNL     1     -47.199  32.661  24.435  1.00  0.00     0.067 H 
ATOM     30  C   UNL     1     -46.504  34.817  26.543  1.00  0.00     0.164 C 
ATOM     31  C   UNL     1     -46.687  33.649  27.519  1.00  0.00     0.128 C 
ATOM     32  H   UNL     1     -47.320  31.607  27.018  1.00  0.00     0.066 H 
ATOM     33  H   UNL     1     -45.454  34.935  26.247  1.00  0.00     0.088 H 
ATOM     34  H   UNL     1     -47.586  33.759  28.131  1.00  0.00     0.068 H 
BRANCH  28  35
ATOM     35  O   UNL     1     -45.519  32.050  26.158  1.00  0.00    -0.387 OA
ATOM     36  H   UNL     1     -45.259  32.685  25.456  1.00  0.00     0.211 HD
ENDBRANCH  28  35
BRANCH  30  37
ATOM     37  N   UNL     1     -46.926  36.125  27.038  1.00  0.00    -0.303 N 
ATOM     38  C   UNL     1     -46.082  37.180  27.294  1.00  0.00     0.012 A 
ATOM     39  C   UNL     1     -48.204  36.480  27.402  1.00  0.00     0.147 A 
ATOM     40  C   UNL     1     -46.826  38.254  27.746  1.00  0.00    -0.017 A 
ATOM     41  H   UNL     1     -45.019  37.096  27.103  1.00  0.00     0.082 H 
ATOM     42  C   UNL     1     -48.187  37.810  27.815  1.00  0.00     0.064 A 
ATOM     43  N   UNL     1     -49.285  35.675  27.350  1.00  0.00    -0.218 NA
ATOM     44  C   UNL     1     -49.426  38.366  28.179  1.00  0.00     0.136 A 
ATOM     45  C   UNL     1     -50.402  36.322  27.726  1.00  0.00     0.120 A 
ATOM     46  N   UNL     1     -50.531  37.596  28.128  1.00  0.00    -0.219 NA
ATOM     47  H   UNL     1     -51.320  35.741  27.704  1.00  0.00     0.106 H 
BRANCH  40  48
ATOM     48  C   UNL     1     -46.275  39.605  28.072  1.00  0.00    -0.023 C 
ATOM     49  H   UNL     1     -45.954  39.618  29.120  1.00  0.00     0.032 H 
ATOM     50  H   UNL     1     -47.078  40.350  27.997  1.00  0.00     0.032 H 
BRANCH  48  51
ATOM     51  C   UNL     1     -45.112  40.015  27.169  1.00  0.00    -0.037 C 
ATOM     52  C   UNL     1     -45.385  41.259  26.323  1.00  0.00    -0.050 C 
ATOM     53  C   UNL     1     -43.881  40.441  27.968  1.00  0.00    -0.050 C 
ATOM     54  H   UNL     1     -44.836  39.188  26.502  1.00  0.00     0.031 H 
ATOM     55  C   UNL     1     -44.000  41.758  25.920  1.00  0.00    -0.053 C 
ATOM     56  H   UNL     1     -45.895  42.030  26.915  1.00  0.00     0.027 H 
ATOM     57  H   UNL     1     -46.006  41.044  25.448  1.00  0.00     0.027 H 
ATOM     58  C   UNL     1     -43.026  41.193  26.956  1.00  0.00    -0.053 C 
ATOM     59  H   UNL     1     -44.161  41.113  28.789  1.00  0.00     0.027 H 
ATOM     60  H   UNL     1     -43.349  39.587  28.399  1.00  0.00     0.027 H 
ATOM     61  H   UNL     1     -43.968  42.851  25.888  1.00  0.00     0.027 H 
ATOM     62  H   UNL     1     -43.735  41.391  24.922  1.00  0.00     0.027 H 
ATOM     63  H   UNL     1     -42.436  41.981  27.435  1.00  0.00     0.027 H 
ATOM     64  H   UNL     1     -42.324  40.507  26.467  1.00  0.00     0.027 H 
ENDBRANCH  48  51
ENDBRANCH  40  48
BRANCH  44  65
ATOM     65  N   UNL     1     -49.606  39.671  28.619  1.00  0.00    -0.383 N 
ATOM     66  H   UNL     1     -50.255  40.211  28.066  1.00  0.00     0.158 HD
ATOM     67  H   UNL     1     -48.705  40.104  28.790  1.00  0.00     0.158 HD
ENDBRANCH  44  65
ENDBRANCH  30  37
BRANCH  31  68
ATOM     68  O   UNL     1     -45.568  33.428  28.389  1.00  0.00    -0.386 OA
ATOM     69  H   UNL     1     -44.800  33.326  27.784  1.00  0.00     0.211 HD
ENDBRANCH  31  68
ENDBRANCH   1  26
TORSDOF 11
ENDMDL
MODEL 7
REMARK VINA RESULT:      -8.5      2.059      3.646
REMARK SMILES CNc1ccc2ccc(OC[C@H]3O[C@@H](n4cc(CC5CCCC5)c5c(N)ncnc54)[C@H](O)[C@@H]3O)cc2n1
REMARK SMILES IDX 11 1 10 4 9 5 3 6 4 7 37 8 5 9 36 11 6 12 35 14 7 15 8 17
REMARK SMILES IDX 2 20 1 22 12 26 13 27 33 28 14 30 31 31 34 35 15 37 16 38
REMARK SMILES IDX 30 39 17 40 24 42 29 43 25 44 28 45 27 46 18 48 19 51 20 52
REMARK SMILES IDX 23 53 21 55 22 58 26 65 32 68
REMARK H PARENT 11 2 11 3 4 10 5 13 35 16 7 18 8 19 2 21 1 23 1 24 1 25 12 29
REMARK H PARENT 33 32 14 33 31 34 34 36 16 41 28 47 18 49 18 50 19 54 20 56
REMARK H PARENT 20 57 23 59 23 60 21 61 21 62 22 63 22 64 26 66 26 67 32 69
REMARK Flexibility Score: inf
ROOT
ATOM      1  C   UNL     1     -46.038  35.411  27.382  1.00  0.00     0.117 C 
ATOM      2  H   UNL     1     -45.829  34.397  27.744  1.00  0.00     0.073 H 
ATOM      3  H   UNL     1     -45.061  35.875  27.222  1.00  0.00     0.073 H 
ENDROOT
BRANCH   1   4
ATOM      4  O   UNL     1     -46.786  35.244  26.176  1.00  0.00    -0.491 OA
BRANCH   4   5
ATOM      5  C   UNL     1     -47.081  33.992  25.716  1.00  0.00     0.121 A 
ATOM      6  C   UNL     1     -46.498  30.125  22.995  1.00  0.00     0.126 A 
ATOM      7  C   UNL     1     -47.588  29.490  23.580  1.00  0.00    -0.019 A 
ATOM      8  N   UNL     1     -46.109  31.359  23.379  1.00  0.00    -0.231 NA
ATOM      9  C   UNL     1     -48.312  30.150  24.567  1.00  0.00    -0.049 A 
ATOM     10  H   UNL     1     -47.869  28.488  23.278  1.00  0.00     0.066 H 
ATOM     11  C   UNL     1     -46.802  32.003  24.337  1.00  0.00     0.076 A 
ATOM     12  C   UNL     1     -47.923  31.431  24.965  1.00  0.00     0.001 A 
ATOM     13  H   UNL     1     -49.167  29.658  25.022  1.00  0.00     0.063 H 
ATOM     14  C   UNL     1     -46.405  33.281  24.723  1.00  0.00     0.007 A 
ATOM     15  C   UNL     1     -48.613  32.135  25.960  1.00  0.00    -0.049 A 
ATOM     16  H   UNL     1     -45.548  33.693  24.204  1.00  0.00     0.069 H 
ATOM     17  C   UNL     1     -48.185  33.406  26.335  1.00  0.00    -0.019 A 
ATOM     18  H   UNL     1     -49.483  31.702  26.448  1.00  0.00     0.063 H 
ATOM     19  H   UNL     1     -48.722  33.946  27.110  1.00  0.00     0.066 H 
BRANCH   6  20
ATOM     20  N   UNL     1     -45.781  29.425  22.008  1.00  0.00    -0.373 N 
ATOM     21  H   UNL     1     -45.611  30.043  21.222  1.00  0.00     0.161 HD
BRANCH  20  22
ATOM     22  C   UNL     1     -44.554  28.811  22.489  1.00  0.00     0.005 C 
ATOM     23  H   UNL     1     -44.636  28.517  23.541  1.00  0.00     0.045 H 
ATOM     24  H   UNL     1     -43.692  29.475  22.356  1.00  0.00     0.045 H 
ATOM     25  H   UNL     1     -44.361  27.902  21.910  1.00  0.00     0.045 H 
ENDBRANCH  20  22
ENDBRANCH   6  20
ENDBRANCH   4   5
ENDBRANCH   1   4
BRANCH   1  26
ATOM     26  C   UNL     1     -46.840  36.147  28.465  1.00  0.00     0.123 C 
ATOM     27  O   UNL     1     -46.329  37.488  28.634  1.00  0.00    -0.345 OA
ATOM     28  C   UNL     1     -48.324  36.274  28.142  1.00  0.00     0.114 C 
ATOM     29  H   UNL     1     -46.687  35.631  29.420  1.00  0.00     0.067 H 
ATOM     30  C   UNL     1     -47.377  38.433  28.304  1.00  0.00     0.164 C 
ATOM     31  C   UNL     1     -48.432  37.649  27.515  1.00  0.00     0.128 C 
ATOM     32  H   UNL     1     -48.718  35.471  27.510  1.00  0.00     0.066 H 
ATOM     33  H   UNL     1     -47.788  38.833  29.239  1.00  0.00     0.088 H 
ATOM     34  H   UNL     1     -48.200  37.603  26.447  1.00  0.00     0.068 H 
BRANCH  28  35
ATOM     35  O   UNL     1     -49.088  36.258  29.361  1.00  0.00    -0.387 OA
ATOM     36  H   UNL     1     -49.812  35.618  29.193  1.00  0.00     0.211 HD
ENDBRANCH  28  35
BRANCH  30  37
ATOM     37  N   UNL     1     -46.789  39.575  27.608  1.00  0.00    -0.303 N 
ATOM     38  C   UNL     1     -45.447  39.733  27.351  1.00  0.00     0.012 A 
ATOM     39  C   UNL     1     -47.458  40.697  27.180  1.00  0.00     0.147 A 
ATOM     40  C   UNL     1     -45.254  40.924  26.677  1.00  0.00    -0.017 A 
ATOM     41  H   UNL     1     -44.735  38.969  27.640  1.00  0.00     0.082 H 
ATOM     42  C   UNL     1     -46.541  41.544  26.563  1.00  0.00     0.064 A 
ATOM     43  N   UNL     1     -48.780  40.922  27.324  1.00  0.00    -0.218 NA
ATOM     44  C   UNL     1     -47.060  42.730  26.013  1.00  0.00     0.136 A 
ATOM     45  C   UNL     1     -49.148  42.086  26.762  1.00  0.00     0.120 A 
ATOM     46  N   UNL     1     -48.378  42.984  26.126  1.00  0.00    -0.219 NA
ATOM     47  H   UNL     1     -50.203  42.336  26.829  1.00  0.00     0.106 H 
BRANCH  40  48
ATOM     48  C   UNL     1     -43.939  41.422  26.168  1.00  0.00    -0.023 C 
ATOM     49  H   UNL     1     -43.978  42.514  26.081  1.00  0.00     0.032 H 
ATOM     50  H   UNL     1     -43.781  41.047  25.150  1.00  0.00     0.032 H 
BRANCH  48  51
ATOM     51  C   UNL     1     -42.759  41.015  27.052  1.00  0.00    -0.037 C 
ATOM     52  C   UNL     1     -41.430  41.660  26.657  1.00  0.00    -0.050 C 
ATOM     53  C   UNL     1     -42.925  41.491  28.494  1.00  0.00    -0.050 C 
ATOM     54  H   UNL     1     -42.638  39.924  27.048  1.00  0.00     0.031 H 
ATOM     55  C   UNL     1     -40.560  41.534  27.904  1.00  0.00    -0.053 C 
ATOM     56  H   UNL     1     -41.569  42.721  26.411  1.00  0.00     0.027 H 
ATOM     57  H   UNL     1     -40.968  41.173  25.792  1.00  0.00     0.027 H 
ATOM     58  C   UNL     1     -41.524  41.381  29.082  1.00  0.00    -0.053 C 
ATOM     59  H   UNL     1     -43.259  42.537  28.524  1.00  0.00     0.027 H 
ATOM     60  H   UNL     1     -43.650  40.890  29.050  1.00  0.00     0.027 H 
ATOM     61  H   UNL     1     -39.911  42.408  28.022  1.00  0.00     0.027 H 
ATOM     62  H   UNL     1     -39.915  40.651  27.835  1.00  0.00     0.027 H 
ATOM     63  H   UNL     1     -41.351  42.139  29.853  1.00  0.00     0.027 H 
ATOM     64  H   UNL     1     -41.384  40.399  29.549  1.00  0.00     0.027 H 
ENDBRANCH  48  51
ENDBRANCH  40  48
BRANCH  44  65
ATOM     65  N   UNL     1     -46.301  43.696  25.365  1.00  0.00    -0.383 N 
ATOM     66  H   UNL     1     -46.816  44.526  25.108  1.00  0.00     0.158 HD
ATOM     67  H   UNL     1     -45.757  43.267  24.624  1.00  0.00     0.158 HD
ENDBRANCH  44  65
ENDBRANCH  30  37
BRANCH  31  68
ATOM     68  O   UNL     1     -49.770  38.143  27.668  1.00  0.00    -0.386 OA
ATOM     69  H   UNL     1     -50.295  37.356  27.936  1.00  0.00     0.211 HD
ENDBRANCH  31  68
ENDBRANCH   1  26
TORSDOF 11
ENDMDL
