MODEL 1
REMARK VINA RESULT:      -9.1      0.000      0.000
REMARK SMILES CCc1cc(NCCOC)c2c(F)cc(OCc3cncc(-n4cc([C@@H]5CCCO5)c5c(N)ncnc54)c3)cc2n1
REMARK SMILES IDX 3 1 4 2 5 3 11 4 12 5 13 6 14 7 15 8 39 9 40 10 41 11 2 15
REMARK SMILES IDX 1 18 6 22 7 24 8 27 9 30 10 31 16 35 17 36 18 39 19 40 38 41
REMARK SMILES IDX 20 42 22 44 21 46 23 48 24 49 37 50 25 51 31 53 36 54 32 55
REMARK SMILES IDX 35 56 34 57 26 59 27 60 30 61 28 63 29 66 33 71
REMARK H PARENT 4 12 14 13 39 14 2 16 2 17 1 19 1 20 1 21 6 23 7 25 7 26 8 28
REMARK H PARENT 8 29 10 32 10 33 10 34 17 37 17 38 19 43 38 45 21 47 24 52
REMARK H PARENT 35 58 26 62 27 64 27 65 28 67 28 68 29 69 29 70 33 72 33 73
REMARK Flexibility Score: inf
ROOT
ATOM      1  C   UNL     1     -46.301  30.249  22.898  1.00  0.00     0.043 A 
ATOM      2  C   UNL     1     -47.637  29.869  22.891  1.00  0.00    -0.017 A 
ATOM      3  C   UNL     1     -48.557  30.558  23.685  1.00  0.00     0.048 A 
ATOM      4  C   UNL     1     -48.087  31.669  24.442  1.00  0.00     0.059 A 
ATOM      5  C   UNL     1     -48.895  32.483  25.268  1.00  0.00     0.138 A 
ATOM      6  F   UNL     1     -50.208  32.221  25.394  1.00  0.00    -0.206 F 
ATOM      7  C   UNL     1     -48.389  33.558  25.997  1.00  0.00     0.017 A 
ATOM      8  C   UNL     1     -47.037  33.844  25.927  1.00  0.00     0.124 A 
ATOM      9  C   UNL     1     -46.221  33.050  25.116  1.00  0.00     0.007 A 
ATOM     10  C   UNL     1     -46.713  31.976  24.383  1.00  0.00     0.079 A 
ATOM     11  N   UNL     1     -45.842  31.275  23.644  1.00  0.00    -0.252 NA
ATOM     12  H   UNL     1     -47.946  29.052  22.249  1.00  0.00     0.066 H 
ATOM     13  H   UNL     1     -49.086  34.136  26.590  1.00  0.00     0.069 H 
ATOM     14  H   UNL     1     -45.158  33.274  25.052  1.00  0.00     0.069 H 
ENDROOT
BRANCH   1  15
ATOM     15  C   UNL     1     -45.288  29.501  22.071  1.00  0.00    -0.013 C 
ATOM     16  H   UNL     1     -44.438  30.161  21.861  1.00  0.00     0.033 H 
ATOM     17  H   UNL     1     -45.722  29.235  21.100  1.00  0.00     0.033 H 
BRANCH  15  18
ATOM     18  C   UNL     1     -44.795  28.253  22.785  1.00  0.00    -0.060 C 
ATOM     19  H   UNL     1     -44.682  28.431  23.860  1.00  0.00     0.023 H 
ATOM     20  H   UNL     1     -43.822  27.948  22.387  1.00  0.00     0.023 H 
ATOM     21  H   UNL     1     -45.491  27.418  22.654  1.00  0.00     0.023 H 
ENDBRANCH  15  18
ENDBRANCH   1  15
BRANCH   3  22
ATOM     22  N   UNL     1     -49.934  30.254  23.637  1.00  0.00    -0.382 N 
ATOM     23  H   UNL     1     -50.474  30.914  24.201  1.00  0.00     0.160 HD
BRANCH  22  24
ATOM     24  C   UNL     1     -50.366  28.867  23.814  1.00  0.00     0.038 C 
ATOM     25  H   UNL     1     -49.911  28.213  23.061  1.00  0.00     0.051 H 
ATOM     26  H   UNL     1     -50.054  28.499  24.797  1.00  0.00     0.051 H 
BRANCH  24  27
ATOM     27  C   UNL     1     -51.893  28.755  23.677  1.00  0.00     0.063 C 
ATOM     28  H   UNL     1     -52.326  29.761  23.680  1.00  0.00     0.059 H 
ATOM     29  H   UNL     1     -52.333  28.219  24.527  1.00  0.00     0.059 H 
BRANCH  27  30
ATOM     30  O   UNL     1     -52.279  28.141  22.445  1.00  0.00    -0.383 OA
BRANCH  30  31
ATOM     31  C   UNL     1     -51.689  26.863  22.250  1.00  0.00     0.036 C 
ATOM     32  H   UNL     1     -52.400  26.179  21.777  1.00  0.00     0.053 H 
ATOM     33  H   UNL     1     -50.830  26.982  21.584  1.00  0.00     0.053 H 
ATOM     34  H   UNL     1     -51.335  26.444  23.196  1.00  0.00     0.053 H 
ENDBRANCH  30  31
ENDBRANCH  27  30
ENDBRANCH  24  27
ENDBRANCH  22  24
ENDBRANCH   3  22
BRANCH   8  35
ATOM     35  O   UNL     1     -46.387  34.861  26.568  1.00  0.00    -0.489 OA
BRANCH  35  36
ATOM     36  C   UNL     1     -45.980  34.671  27.926  1.00  0.00     0.115 C 
ATOM     37  H   UNL     1     -44.999  34.183  27.892  1.00  0.00     0.076 H 
ATOM     38  H   UNL     1     -46.648  33.968  28.439  1.00  0.00     0.076 H 
BRANCH  36  39
ATOM     39  C   UNL     1     -45.817  35.962  28.682  1.00  0.00     0.010 A 
ATOM     40  C   UNL     1     -46.147  36.062  30.026  1.00  0.00     0.034 A 
ATOM     41  C   UNL     1     -45.379  37.129  28.036  1.00  0.00    -0.028 A 
ATOM     42  N   UNL     1     -46.048  37.202  30.739  1.00  0.00    -0.262 NA
ATOM     43  H   UNL     1     -46.509  35.204  30.587  1.00  0.00     0.084 H 
ATOM     44  C   UNL     1     -45.257  38.336  28.743  1.00  0.00     0.066 A 
ATOM     45  H   UNL     1     -45.126  37.055  26.984  1.00  0.00     0.065 H 
ATOM     46  C   UNL     1     -45.602  38.308  30.089  1.00  0.00     0.051 A 
ATOM     47  H   UNL     1     -45.565  39.175  30.737  1.00  0.00     0.086 H 
BRANCH  44  48
ATOM     48  N   UNL     1     -44.802  39.535  28.099  1.00  0.00    -0.299 N 
ATOM     49  C   UNL     1     -45.373  40.093  26.964  1.00  0.00     0.018 A 
ATOM     50  C   UNL     1     -43.740  40.359  28.468  1.00  0.00     0.150 A 
ATOM     51  C   UNL     1     -44.690  41.237  26.589  1.00  0.00     0.012 A 
ATOM     52  H   UNL     1     -46.243  39.652  26.502  1.00  0.00     0.083 H 
ATOM     53  C   UNL     1     -43.651  41.408  27.555  1.00  0.00     0.067 A 
ATOM     54  N   UNL     1     -42.914  40.183  29.519  1.00  0.00    -0.218 NA
ATOM     55  C   UNL     1     -42.629  42.350  27.768  1.00  0.00     0.136 A 
ATOM     56  C   UNL     1     -41.981  41.140  29.617  1.00  0.00     0.120 A 
ATOM     57  N   UNL     1     -41.795  42.195  28.812  1.00  0.00    -0.219 NA
ATOM     58  H   UNL     1     -41.290  41.050  30.449  1.00  0.00     0.106 H 
BRANCH  51  59
ATOM     59  C   UNL     1     -44.985  42.155  25.439  1.00  0.00     0.085 C 
ATOM     60  C   UNL     1     -43.916  42.214  24.352  1.00  0.00    -0.020 C 
ATOM     61  O   UNL     1     -45.163  43.522  25.881  1.00  0.00    -0.373 OA
ATOM     62  H   UNL     1     -45.939  41.849  24.989  1.00  0.00     0.066 H 
ATOM     63  C   UNL     1     -44.170  43.567  23.737  1.00  0.00    -0.027 C 
ATOM     64  H   UNL     1     -42.906  42.201  24.778  1.00  0.00     0.030 H 
ATOM     65  H   UNL     1     -43.992  41.390  23.636  1.00  0.00     0.030 H 
ATOM     66  C   UNL     1     -44.501  44.395  24.956  1.00  0.00     0.048 C 
ATOM     67  H   UNL     1     -43.322  43.959  23.170  1.00  0.00     0.029 H 
ATOM     68  H   UNL     1     -45.038  43.514  23.069  1.00  0.00     0.029 H 
ATOM     69  H   UNL     1     -45.148  45.245  24.724  1.00  0.00     0.057 H 
ATOM     70  H   UNL     1     -43.593  44.769  25.441  1.00  0.00     0.057 H 
ENDBRANCH  51  59
BRANCH  55  71
ATOM     71  N   UNL     1     -42.405  43.444  26.940  1.00  0.00    -0.383 N 
ATOM     72  H   UNL     1     -43.079  44.173  27.137  1.00  0.00     0.158 HD
ATOM     73  H   UNL     1     -41.427  43.738  26.944  1.00  0.00     0.158 HD
ENDBRANCH  55  71
ENDBRANCH  44  48
ENDBRANCH  36  39
ENDBRANCH  35  36
ENDBRANCH   8  35
TORSDOF 13
ENDMDL
MODEL 2
REMARK VINA RESULT:      -8.7      2.877     12.569
REMARK SMILES CCc1cc(NCCOC)c2c(F)cc(OCc3cncc(-n4cc([C@@H]5CCCO5)c5c(N)ncnc54)c3)cc2n1
REMARK SMILES IDX 3 1 4 2 5 3 11 4 12 5 13 6 14 7 15 8 39 9 40 10 41 11 2 15
REMARK SMILES IDX 1 18 6 22 7 24 8 27 9 30 10 31 16 35 17 36 18 39 19 40 38 41
REMARK SMILES IDX 20 42 22 44 21 46 23 48 24 49 37 50 25 51 31 53 36 54 32 55
REMARK SMILES IDX 35 56 34 57 26 59 27 60 30 61 28 63 29 66 33 71
REMARK H PARENT 4 12 14 13 39 14 2 16 2 17 1 19 1 20 1 21 6 23 7 25 7 26 8 28
REMARK H PARENT 8 29 10 32 10 33 10 34 17 37 17 38 19 43 38 45 21 47 24 52
REMARK H PARENT 35 58 26 62 27 64 27 65 28 67 28 68 29 69 29 70 33 72 33 73
REMARK Flexibility Score: inf
ROOT
ATOM      1  C   UNL     1     -47.013  41.526  26.499  1.00  0.00     0.043 A 
ATOM      2  C   UNL     1     -45.643  41.576  26.724  1.00  0.00    -0.017 A 
ATOM      3  C   UNL     1     -44.997  40.482  27.306  1.00  0.00     0.048 A 
ATOM      4  C   UNL     1     -45.775  39.326  27.602  1.00  0.00     0.059 A 
ATOM      5  C   UNL     1     -45.266  38.132  28.162  1.00  0.00     0.138 A 
ATOM      6  F   UNL     1     -43.960  38.036  28.470  1.00  0.00    -0.206 F 
ATOM      7  C   UNL     1     -46.067  37.026  28.441  1.00  0.00     0.017 A 
ATOM      8  C   UNL     1     -47.423  37.091  28.173  1.00  0.00     0.124 A 
ATOM      9  C   UNL     1     -47.945  38.264  27.620  1.00  0.00     0.007 A 
ATOM     10  C   UNL     1     -47.158  39.373  27.335  1.00  0.00     0.079 A 
ATOM     11  N   UNL     1     -47.762  40.449  26.814  1.00  0.00    -0.252 NA
ATOM     12  H   UNL     1     -45.095  42.461  26.424  1.00  0.00     0.066 H 
ATOM     13  H   UNL     1     -45.587  36.149  28.853  1.00  0.00     0.069 H 
ATOM     14  H   UNL     1     -49.010  38.318  27.401  1.00  0.00     0.069 H 
ENDROOT
BRANCH   1  15
ATOM     15  C   UNL     1     -47.733  42.705  25.900  1.00  0.00    -0.013 C 
ATOM     16  H   UNL     1     -48.719  42.802  26.370  1.00  0.00     0.033 H 
ATOM     17  H   UNL     1     -47.914  42.530  24.832  1.00  0.00     0.033 H 
BRANCH  15  18
ATOM     18  C   UNL     1     -46.953  43.996  26.093  1.00  0.00    -0.060 C 
ATOM     19  H   UNL     1     -47.619  44.867  26.076  1.00  0.00     0.023 H 
ATOM     20  H   UNL     1     -46.215  44.116  25.294  1.00  0.00     0.023 H 
ATOM     21  H   UNL     1     -46.421  44.000  27.050  1.00  0.00     0.023 H 
ENDBRANCH  15  18
ENDBRANCH   1  15
BRANCH   3  22
ATOM     22  N   UNL     1     -43.596  40.466  27.471  1.00  0.00    -0.382 N 
ATOM     23  H   UNL     1     -43.339  40.039  28.363  1.00  0.00     0.160 HD
BRANCH  22  24
ATOM     24  C   UNL     1     -42.827  41.675  27.174  1.00  0.00     0.038 C 
ATOM     25  H   UNL     1     -41.894  41.431  26.654  1.00  0.00     0.051 H 
ATOM     26  H   UNL     1     -43.404  42.334  26.517  1.00  0.00     0.051 H 
BRANCH  24  27
ATOM     27  C   UNL     1     -42.466  42.418  28.470  1.00  0.00     0.063 C 
ATOM     28  H   UNL     1     -43.316  42.364  29.160  1.00  0.00     0.059 H 
ATOM     29  H   UNL     1     -42.278  43.482  28.283  1.00  0.00     0.059 H 
BRANCH  27  30
ATOM     30  O   UNL     1     -41.351  41.823  29.139  1.00  0.00    -0.383 OA
BRANCH  30  31
ATOM     31  C   UNL     1     -41.728  40.793  30.042  1.00  0.00     0.036 C 
ATOM     32  H   UNL     1     -40.928  40.053  30.137  1.00  0.00     0.053 H 
ATOM     33  H   UNL     1     -41.899  41.244  31.024  1.00  0.00     0.053 H 
ATOM     34  H   UNL     1     -42.655  40.308  29.722  1.00  0.00     0.053 H 
ENDBRANCH  30  31
ENDBRANCH  27  30
ENDBRANCH  24  27
ENDBRANCH  22  24
ENDBRANCH   3  22
BRANCH   8  35
ATOM     35  O   UNL     1     -48.340  36.099  28.378  1.00  0.00    -0.489 OA
BRANCH  35  36
ATOM     36  C   UNL     1     -49.079  35.601  27.259  1.00  0.00     0.115 C 
ATOM     37  H   UNL     1     -49.252  36.455  26.594  1.00  0.00     0.076 H 
ATOM     38  H   UNL     1     -50.072  35.255  27.570  1.00  0.00     0.076 H 
BRANCH  36  39
ATOM     39  C   UNL     1     -48.331  34.559  26.471  1.00  0.00     0.010 A 
ATOM     40  C   UNL     1     -47.050  34.792  25.992  1.00  0.00     0.034 A 
ATOM     41  C   UNL     1     -48.930  33.332  26.145  1.00  0.00    -0.028 A 
ATOM     42  N   UNL     1     -46.352  33.903  25.257  1.00  0.00    -0.262 NA
ATOM     43  H   UNL     1     -46.531  35.726  26.190  1.00  0.00     0.084 H 
ATOM     44  C   UNL     1     -48.236  32.375  25.386  1.00  0.00     0.066 A 
ATOM     45  H   UNL     1     -49.934  33.149  26.513  1.00  0.00     0.065 H 
ATOM     46  C   UNL     1     -46.953  32.718  24.975  1.00  0.00     0.051 A 
ATOM     47  H   UNL     1     -46.322  32.073  24.374  1.00  0.00     0.086 H 
BRANCH  44  48
ATOM     48  N   UNL     1     -48.830  31.114  25.051  1.00  0.00    -0.299 N 
ATOM     49  C   UNL     1     -48.301  29.873  25.380  1.00  0.00     0.018 A 
ATOM     50  C   UNL     1     -50.019  30.879  24.361  1.00  0.00     0.150 A 
ATOM     51  C   UNL     1     -49.109  28.858  24.898  1.00  0.00     0.012 A 
ATOM     52  H   UNL     1     -47.390  29.789  25.952  1.00  0.00     0.083 H 
ATOM     53  C   UNL     1     -50.209  29.504  24.254  1.00  0.00     0.067 A 
ATOM     54  N   UNL     1     -50.854  31.811  23.860  1.00  0.00    -0.218 NA
ATOM     55  C   UNL     1     -51.368  29.072  23.583  1.00  0.00     0.136 A 
ATOM     56  C   UNL     1     -51.918  31.282  23.242  1.00  0.00     0.120 A 
ATOM     57  N   UNL     1     -52.215  29.985  23.077  1.00  0.00    -0.219 NA
ATOM     58  H   UNL     1     -52.627  31.988  22.821  1.00  0.00     0.106 H 
BRANCH  51  59
ATOM     59  C   UNL     1     -48.920  27.376  25.049  1.00  0.00     0.085 C 
ATOM     60  C   UNL     1     -49.245  26.807  26.426  1.00  0.00    -0.020 C 
ATOM     61  O   UNL     1     -47.553  26.983  24.780  1.00  0.00    -0.373 OA
ATOM     62  H   UNL     1     -49.540  26.871  24.295  1.00  0.00     0.066 H 
ATOM     63  C   UNL     1     -48.416  25.548  26.447  1.00  0.00    -0.027 C 
ATOM     64  H   UNL     1     -48.903  27.472  27.228  1.00  0.00     0.030 H 
ATOM     65  H   UNL     1     -50.314  26.625  26.570  1.00  0.00     0.030 H 
ATOM     66  C   UNL     1     -47.156  26.005  25.750  1.00  0.00     0.048 C 
ATOM     67  H   UNL     1     -48.232  25.159  27.453  1.00  0.00     0.029 H 
ATOM     68  H   UNL     1     -48.911  24.767  25.859  1.00  0.00     0.029 H 
ATOM     69  H   UNL     1     -46.629  25.186  25.253  1.00  0.00     0.057 H 
ATOM     70  H   UNL     1     -46.467  26.489  26.450  1.00  0.00     0.057 H 
ENDBRANCH  51  59
BRANCH  55  71
ATOM     71  N   UNL     1     -51.691  27.735  23.385  1.00  0.00    -0.383 N 
ATOM     72  H   UNL     1     -50.853  27.201  23.188  1.00  0.00     0.158 HD
ATOM     73  H   UNL     1     -52.280  27.365  24.132  1.00  0.00     0.158 HD
ENDBRANCH  55  71
ENDBRANCH  44  48
ENDBRANCH  36  39
ENDBRANCH  35  36
ENDBRANCH   8  35
TORSDOF 13
ENDMDL
MODEL 3
REMARK VINA RESULT:      -8.7      2.705     12.230
REMARK SMILES CCc1cc(NCCOC)c2c(F)cc(OCc3cncc(-n4cc([C@@H]5CCCO5)c5c(N)ncnc54)c3)cc2n1
REMARK SMILES IDX 3 1 4 2 5 3 11 4 12 5 13 6 14 7 15 8 39 9 40 10 41 11 2 15
REMARK SMILES IDX 1 18 6 22 7 24 8 27 9 30 10 31 16 35 17 36 18 39 19 40 38 41
REMARK SMILES IDX 20 42 22 44 21 46 23 48 24 49 37 50 25 51 31 53 36 54 32 55
REMARK SMILES IDX 35 56 34 57 26 59 27 60 30 61 28 63 29 66 33 71
REMARK H PARENT 4 12 14 13 39 14 2 16 2 17 1 19 1 20 1 21 6 23 7 25 7 26 8 28
REMARK H PARENT 8 29 10 32 10 33 10 34 17 37 17 38 19 43 38 45 21 47 24 52
REMARK H PARENT 35 58 26 62 27 64 27 65 28 67 28 68 29 69 29 70 33 72 33 73
REMARK Flexibility Score: inf
ROOT
ATOM      1  C   UNL     1     -43.355  41.042  28.168  1.00  0.00     0.043 A 
ATOM      2  C   UNL     1     -44.146  41.811  27.323  1.00  0.00    -0.017 A 
ATOM      3  C   UNL     1     -45.270  41.242  26.719  1.00  0.00     0.048 A 
ATOM      4  C   UNL     1     -45.589  39.891  27.039  1.00  0.00     0.059 A 
ATOM      5  C   UNL     1     -46.706  39.185  26.535  1.00  0.00     0.138 A 
ATOM      6  F   UNL     1     -47.549  39.784  25.675  1.00  0.00    -0.206 F 
ATOM      7  C   UNL     1     -46.976  37.860  26.871  1.00  0.00     0.017 A 
ATOM      8  C   UNL     1     -46.116  37.192  27.725  1.00  0.00     0.124 A 
ATOM      9  C   UNL     1     -45.006  37.874  28.233  1.00  0.00     0.007 A 
ATOM     10  C   UNL     1     -44.726  39.195  27.907  1.00  0.00     0.079 A 
ATOM     11  N   UNL     1     -43.630  39.750  28.444  1.00  0.00    -0.252 NA
ATOM     12  H   UNL     1     -43.884  42.850  27.163  1.00  0.00     0.066 H 
ATOM     13  H   UNL     1     -47.864  37.406  26.451  1.00  0.00     0.069 H 
ATOM     14  H   UNL     1     -44.331  37.355  28.910  1.00  0.00     0.069 H 
ENDROOT
BRANCH   1  15
ATOM     15  C   UNL     1     -42.123  41.627  28.807  1.00  0.00    -0.013 C 
ATOM     16  H   UNL     1     -42.335  42.657  29.120  1.00  0.00     0.033 H 
ATOM     17  H   UNL     1     -41.312  41.686  28.070  1.00  0.00     0.033 H 
BRANCH  15  18
ATOM     18  C   UNL     1     -41.678  40.814  30.012  1.00  0.00    -0.060 C 
ATOM     19  H   UNL     1     -41.760  41.399  30.935  1.00  0.00     0.023 H 
ATOM     20  H   UNL     1     -40.635  40.506  29.897  1.00  0.00     0.023 H 
ATOM     21  H   UNL     1     -42.288  39.913  30.132  1.00  0.00     0.023 H 
ENDBRANCH  15  18
ENDBRANCH   1  15
BRANCH   3  22
ATOM     22  N   UNL     1     -46.140  42.017  25.924  1.00  0.00    -0.382 N 
ATOM     23  H   UNL     1     -46.209  41.634  24.979  1.00  0.00     0.160 HD
BRANCH  22  24
ATOM     24  C   UNL     1     -46.017  43.475  25.940  1.00  0.00     0.038 C 
ATOM     25  H   UNL     1     -45.359  43.806  26.752  1.00  0.00     0.051 H 
ATOM     26  H   UNL     1     -45.576  43.825  25.000  1.00  0.00     0.051 H 
BRANCH  24  27
ATOM     27  C   UNL     1     -47.391  44.132  26.147  1.00  0.00     0.063 C 
ATOM     28  H   UNL     1     -48.168  43.456  25.774  1.00  0.00     0.059 H 
ATOM     29  H   UNL     1     -47.481  45.063  25.574  1.00  0.00     0.059 H 
BRANCH  27  30
ATOM     30  O   UNL     1     -47.673  44.367  27.529  1.00  0.00    -0.383 OA
BRANCH  30  31
ATOM     31  C   UNL     1     -48.991  43.988  27.900  1.00  0.00     0.036 C 
ATOM     32  H   UNL     1     -49.517  44.829  28.364  1.00  0.00     0.053 H 
ATOM     33  H   UNL     1     -49.533  43.701  26.994  1.00  0.00     0.053 H 
ATOM     34  H   UNL     1     -48.979  43.131  28.578  1.00  0.00     0.053 H 
ENDBRANCH  30  31
ENDBRANCH  27  30
ENDBRANCH  24  27
ENDBRANCH  22  24
ENDBRANCH   3  22
BRANCH   8  35
ATOM     35  O   UNL     1     -46.241  35.902  28.159  1.00  0.00    -0.489 OA
BRANCH  35  36
ATOM     36  C   UNL     1     -46.071  34.839  27.217  1.00  0.00     0.115 C 
ATOM     37  H   UNL     1     -45.526  34.044  27.740  1.00  0.00     0.076 H 
ATOM     38  H   UNL     1     -45.425  35.152  26.387  1.00  0.00     0.076 H 
BRANCH  36  39
ATOM     39  C   UNL     1     -47.374  34.256  26.739  1.00  0.00     0.010 A 
ATOM     40  C   UNL     1     -48.591  34.845  27.051  1.00  0.00     0.034 A 
ATOM     41  C   UNL     1     -47.405  33.058  26.007  1.00  0.00    -0.028 A 
ATOM     42  N   UNL     1     -49.784  34.345  26.673  1.00  0.00    -0.262 NA
ATOM     43  H   UNL     1     -48.645  35.764  27.630  1.00  0.00     0.084 H 
ATOM     44  C   UNL     1     -48.626  32.505  25.589  1.00  0.00     0.066 A 
ATOM     45  H   UNL     1     -46.455  32.592  25.767  1.00  0.00     0.065 H 
ATOM     46  C   UNL     1     -49.778  33.195  25.949  1.00  0.00     0.051 A 
ATOM     47  H   UNL     1     -50.779  32.865  25.699  1.00  0.00     0.086 H 
BRANCH  44  48
ATOM     48  N   UNL     1     -48.674  31.288  24.833  1.00  0.00    -0.299 N 
ATOM     49  C   UNL     1     -48.075  30.093  25.210  1.00  0.00     0.018 A 
ATOM     50  C   UNL     1     -49.311  31.056  23.614  1.00  0.00     0.150 A 
ATOM     51  C   UNL     1     -48.296  29.116  24.255  1.00  0.00     0.012 A 
ATOM     52  H   UNL     1     -47.543  30.007  26.145  1.00  0.00     0.083 H 
ATOM     53  C   UNL     1     -49.091  29.733  23.240  1.00  0.00     0.067 A 
ATOM     54  N   UNL     1     -50.015  31.952  22.893  1.00  0.00    -0.218 NA
ATOM     55  C   UNL     1     -49.664  29.312  22.026  1.00  0.00     0.136 A 
ATOM     56  C   UNL     1     -50.508  31.438  21.759  1.00  0.00     0.120 A 
ATOM     57  N   UNL     1     -50.372  30.189  21.292  1.00  0.00    -0.219 NA
ATOM     58  H   UNL     1     -51.088  32.115  21.140  1.00  0.00     0.106 H 
BRANCH  51  59
ATOM     59  C   UNL     1     -47.847  27.684  24.276  1.00  0.00     0.085 C 
ATOM     60  C   UNL     1     -48.021  26.960  25.607  1.00  0.00    -0.020 C 
ATOM     61  O   UNL     1     -46.442  27.561  23.949  1.00  0.00    -0.373 OA
ATOM     62  H   UNL     1     -48.395  27.139  23.496  1.00  0.00     0.066 H 
ATOM     63  C   UNL     1     -46.985  25.869  25.506  1.00  0.00    -0.027 C 
ATOM     64  H   UNL     1     -47.772  27.609  26.455  1.00  0.00     0.030 H 
ATOM     65  H   UNL     1     -49.036  26.581  25.756  1.00  0.00     0.030 H 
ATOM     66  C   UNL     1     -45.848  26.594  24.825  1.00  0.00     0.048 C 
ATOM     67  H   UNL     1     -46.702  25.440  26.471  1.00  0.00     0.029 H 
ATOM     68  H   UNL     1     -47.356  25.061  24.864  1.00  0.00     0.029 H 
ATOM     69  H   UNL     1     -45.205  25.922  24.250  1.00  0.00     0.057 H 
ATOM     70  H   UNL     1     -45.230  27.135  25.549  1.00  0.00     0.057 H 
ENDBRANCH  51  59
BRANCH  55  71
ATOM     71  N   UNL     1     -49.525  28.028  21.513  1.00  0.00    -0.383 N 
ATOM     72  H   UNL     1     -50.302  27.450  21.807  1.00  0.00     0.158 HD
ATOM     73  H   UNL     1     -49.336  28.031  20.510  1.00  0.00     0.158 HD
ENDBRANCH  55  71
ENDBRANCH  44  48
ENDBRANCH  36  39
ENDBRANCH  35  36
ENDBRANCH   8  35
TORSDOF 13
ENDMDL
MODEL 4
REMARK VINA RESULT:      -8.4      2.255      2.949
REMARK SMILES CCc1cc(NCCOC)c2c(F)cc(OCc3cncc(-n4cc([C@@H]5CCCO5)c5c(N)ncnc54)c3)cc2n1
REMARK SMILES IDX 3 1 4 2 5 3 11 4 12 5 13 6 14 7 15 8 39 9 40 10 41 11 2 15
REMARK SMILES IDX 1 18 6 22 7 24 8 27 9 30 10 31 16 35 17 36 18 39 19 40 38 41
REMARK SMILES IDX 20 42 22 44 21 46 23 48 24 49 37 50 25 51 31 53 36 54 32 55
REMARK SMILES IDX 35 56 34 57 26 59 27 60 30 61 28 63 29 66 33 71
REMARK H PARENT 4 12 14 13 39 14 2 16 2 17 1 19 1 20 1 21 6 23 7 25 7 26 8 28
REMARK H PARENT 8 29 10 32 10 33 10 34 17 37 17 38 19 43 38 45 21 47 24 52
REMARK H PARENT 35 58 26 62 27 64 27 65 28 67 28 68 29 69 29 70 33 72 33 73
REMARK Flexibility Score: inf
ROOT
ATOM      1  C   UNL     1     -46.652  30.717  22.059  1.00  0.00     0.043 A 
ATOM      2  C   UNL     1     -47.524  29.796  22.625  1.00  0.00    -0.017 A 
ATOM      3  C   UNL     1     -47.970  29.978  23.936  1.00  0.00     0.048 A 
ATOM      4  C   UNL     1     -47.544  31.147  24.630  1.00  0.00     0.059 A 
ATOM      5  C   UNL     1     -47.930  31.489  25.947  1.00  0.00     0.138 A 
ATOM      6  F   UNL     1     -48.745  30.677  26.642  1.00  0.00    -0.206 F 
ATOM      7  C   UNL     1     -47.482  32.641  26.590  1.00  0.00     0.017 A 
ATOM      8  C   UNL     1     -46.613  33.490  25.926  1.00  0.00     0.124 A 
ATOM      9  C   UNL     1     -46.220  33.168  24.624  1.00  0.00     0.007 A 
ATOM     10  C   UNL     1     -46.660  32.023  23.971  1.00  0.00     0.079 A 
ATOM     11  N   UNL     1     -46.214  31.805  22.726  1.00  0.00    -0.252 NA
ATOM     12  H   UNL     1     -47.859  28.957  22.026  1.00  0.00     0.066 H 
ATOM     13  H   UNL     1     -47.844  32.831  27.592  1.00  0.00     0.069 H 
ATOM     14  H   UNL     1     -45.542  33.835  24.095  1.00  0.00     0.069 H 
ENDROOT
BRANCH   1  15
ATOM     15  C   UNL     1     -46.137  30.524  20.657  1.00  0.00    -0.013 C 
ATOM     16  H   UNL     1     -46.831  29.881  20.104  1.00  0.00     0.033 H 
ATOM     17  H   UNL     1     -45.176  29.996  20.682  1.00  0.00     0.033 H 
BRANCH  15  18
ATOM     18  C   UNL     1     -45.988  31.850  19.928  1.00  0.00    -0.060 C 
ATOM     19  H   UNL     1     -46.844  32.507  20.123  1.00  0.00     0.023 H 
ATOM     20  H   UNL     1     -45.926  31.684  18.848  1.00  0.00     0.023 H 
ATOM     21  H   UNL     1     -45.082  32.378  20.243  1.00  0.00     0.023 H 
ENDBRANCH  15  18
ENDBRANCH   1  15
BRANCH   3  22
ATOM     22  N   UNL     1     -48.920  29.108  24.511  1.00  0.00    -0.382 N 
ATOM     23  H   UNL     1     -49.587  29.625  25.088  1.00  0.00     0.160 HD
BRANCH  22  24
ATOM     24  C   UNL     1     -48.466  27.866  25.138  1.00  0.00     0.038 C 
ATOM     25  H   UNL     1     -47.846  27.281  24.449  1.00  0.00     0.051 H 
ATOM     26  H   UNL     1     -47.853  28.093  26.017  1.00  0.00     0.051 H 
BRANCH  24  27
ATOM     27  C   UNL     1     -49.665  26.998  25.550  1.00  0.00     0.063 C 
ATOM     28  H   UNL     1     -50.448  27.087  24.788  1.00  0.00     0.059 H 
ATOM     29  H   UNL     1     -50.104  27.342  26.494  1.00  0.00     0.059 H 
BRANCH  27  30
ATOM     30  O   UNL     1     -49.324  25.612  25.633  1.00  0.00    -0.383 OA
BRANCH  30  31
ATOM     31  C   UNL     1     -47.992  25.393  26.078  1.00  0.00     0.036 C 
ATOM     32  H   UNL     1     -47.439  26.336  26.115  1.00  0.00     0.053 H 
ATOM     33  H   UNL     1     -48.033  24.977  27.088  1.00  0.00     0.053 H 
ATOM     34  H   UNL     1     -47.474  24.677  25.433  1.00  0.00     0.053 H 
ENDBRANCH  30  31
ENDBRANCH  27  30
ENDBRANCH  24  27
ENDBRANCH  22  24
ENDBRANCH   3  22
BRANCH   8  35
ATOM     35  O   UNL     1     -46.091  34.657  26.408  1.00  0.00    -0.489 OA
BRANCH  35  36
ATOM     36  C   UNL     1     -46.883  35.453  27.295  1.00  0.00     0.115 C 
ATOM     37  H   UNL     1     -47.108  34.822  28.163  1.00  0.00     0.076 H 
ATOM     38  H   UNL     1     -47.852  35.696  26.840  1.00  0.00     0.076 H 
BRANCH  36  39
ATOM     39  C   UNL     1     -46.164  36.675  27.797  1.00  0.00     0.010 A 
ATOM     40  C   UNL     1     -45.516  36.683  29.024  1.00  0.00     0.034 A 
ATOM     41  C   UNL     1     -46.174  37.872  27.064  1.00  0.00    -0.028 A 
ATOM     42  N   UNL     1     -44.885  37.761  29.531  1.00  0.00    -0.262 NA
ATOM     43  H   UNL     1     -45.483  35.798  29.654  1.00  0.00     0.084 H 
ATOM     44  C   UNL     1     -45.524  39.018  27.552  1.00  0.00     0.066 A 
ATOM     45  H   UNL     1     -46.684  37.871  26.107  1.00  0.00     0.065 H 
ATOM     46  C   UNL     1     -44.896  38.898  28.787  1.00  0.00     0.051 A 
ATOM     47  H   UNL     1     -44.374  39.712  29.277  1.00  0.00     0.086 H 
BRANCH  44  48
ATOM     48  N   UNL     1     -45.517  40.245  26.811  1.00  0.00    -0.299 N 
ATOM     49  C   UNL     1     -44.463  40.696  26.028  1.00  0.00     0.018 A 
ATOM     50  C   UNL     1     -46.529  41.200  26.720  1.00  0.00     0.150 A 
ATOM     51  C   UNL     1     -44.768  41.920  25.460  1.00  0.00     0.012 A 
ATOM     52  H   UNL     1     -43.565  40.108  25.909  1.00  0.00     0.083 H 
ATOM     53  C   UNL     1     -46.091  42.236  25.898  1.00  0.00     0.067 A 
ATOM     54  N   UNL     1     -47.732  41.156  27.326  1.00  0.00    -0.218 NA
ATOM     55  C   UNL     1     -46.987  43.300  25.685  1.00  0.00     0.136 A 
ATOM     56  C   UNL     1     -48.495  42.223  27.052  1.00  0.00     0.120 A 
ATOM     57  N   UNL     1     -48.193  43.276  26.280  1.00  0.00    -0.219 NA
ATOM     58  H   UNL     1     -49.478  42.238  27.513  1.00  0.00     0.106 H 
BRANCH  51  59
ATOM     59  C   UNL     1     -43.925  42.746  24.533  1.00  0.00     0.085 C 
ATOM     60  C   UNL     1     -43.535  44.126  25.050  1.00  0.00    -0.020 C 
ATOM     61  O   UNL     1     -44.594  42.980  23.271  1.00  0.00    -0.373 OA
ATOM     62  H   UNL     1     -43.013  42.179  24.298  1.00  0.00     0.066 H 
ATOM     63  C   UNL     1     -43.280  44.880  23.770  1.00  0.00    -0.027 C 
ATOM     64  H   UNL     1     -44.363  44.605  25.586  1.00  0.00     0.030 H 
ATOM     65  H   UNL     1     -42.669  44.101  25.719  1.00  0.00     0.030 H 
ATOM     66  C   UNL     1     -44.376  44.343  22.880  1.00  0.00     0.048 C 
ATOM     67  H   UNL     1     -43.314  45.966  23.884  1.00  0.00     0.029 H 
ATOM     68  H   UNL     1     -42.298  44.605  23.366  1.00  0.00     0.029 H 
ATOM     69  H   UNL     1     -44.116  44.385  21.819  1.00  0.00     0.057 H 
ATOM     70  H   UNL     1     -45.314  44.887  23.032  1.00  0.00     0.057 H 
ENDBRANCH  51  59
BRANCH  55  71
ATOM     71  N   UNL     1     -46.693  44.410  24.902  1.00  0.00    -0.383 N 
ATOM     72  H   UNL     1     -46.080  45.038  25.407  1.00  0.00     0.158 HD
ATOM     73  H   UNL     1     -46.380  44.151  23.966  1.00  0.00     0.158 HD
ENDBRANCH  55  71
ENDBRANCH  44  48
ENDBRANCH  36  39
ENDBRANCH  35  36
ENDBRANCH   8  35
TORSDOF 13
ENDMDL
MODEL 5
REMARK VINA RESULT:      -8.2      2.228      2.941
REMARK SMILES CCc1cc(NCCOC)c2c(F)cc(OCc3cncc(-n4cc([C@@H]5CCCO5)c5c(N)ncnc54)c3)cc2n1
REMARK SMILES IDX 3 1 4 2 5 3 11 4 12 5 13 6 14 7 15 8 39 9 40 10 41 11 2 15
REMARK SMILES IDX 1 18 6 22 7 24 8 27 9 30 10 31 16 35 17 36 18 39 19 40 38 41
REMARK SMILES IDX 20 42 22 44 21 46 23 48 24 49 37 50 25 51 31 53 36 54 32 55
REMARK SMILES IDX 35 56 34 57 26 59 27 60 30 61 28 63 29 66 33 71
REMARK H PARENT 4 12 14 13 39 14 2 16 2 17 1 19 1 20 1 21 6 23 7 25 7 26 8 28
REMARK H PARENT 8 29 10 32 10 33 10 34 17 37 17 38 19 43 38 45 21 47 24 52
REMARK H PARENT 35 58 26 62 27 64 27 65 28 67 28 68 29 69 29 70 33 72 33 73
REMARK Flexibility Score: inf
ROOT
ATOM      1  C   UNL     1     -47.471  30.628  21.762  1.00  0.00     0.043 A 
ATOM      2  C   UNL     1     -47.708  29.330  22.195  1.00  0.00    -0.017 A 
ATOM      3  C   UNL     1     -47.988  29.090  23.543  1.00  0.00     0.048 A 
ATOM      4  C   UNL     1     -48.068  30.211  24.419  1.00  0.00     0.059 A 
ATOM      5  C   UNL     1     -48.369  30.137  25.798  1.00  0.00     0.138 A 
ATOM      6  F   UNL     1     -48.591  28.943  26.376  1.00  0.00    -0.206 F 
ATOM      7  C   UNL     1     -48.430  31.261  26.619  1.00  0.00     0.017 A 
ATOM      8  C   UNL     1     -48.175  32.508  26.076  1.00  0.00     0.124 A 
ATOM      9  C   UNL     1     -47.874  32.601  24.714  1.00  0.00     0.007 A 
ATOM     10  C   UNL     1     -47.811  31.489  23.884  1.00  0.00     0.079 A 
ATOM     11  N   UNL     1     -47.505  31.689  22.594  1.00  0.00    -0.252 NA
ATOM     12  H   UNL     1     -47.691  28.525  21.470  1.00  0.00     0.066 H 
ATOM     13  H   UNL     1     -48.686  31.110  27.660  1.00  0.00     0.069 H 
ATOM     14  H   UNL     1     -47.679  33.580  24.280  1.00  0.00     0.069 H 
ENDROOT
BRANCH   1  15
ATOM     15  C   UNL     1     -47.139  30.905  20.319  1.00  0.00    -0.013 C 
ATOM     16  H   UNL     1     -46.755  29.989  19.856  1.00  0.00     0.033 H 
ATOM     17  H   UNL     1     -46.334  31.647  20.256  1.00  0.00     0.033 H 
BRANCH  15  18
ATOM     18  C   UNL     1     -48.358  31.388  19.547  1.00  0.00    -0.060 C 
ATOM     19  H   UNL     1     -48.094  32.201  18.861  1.00  0.00     0.023 H 
ATOM     20  H   UNL     1     -49.120  31.760  20.238  1.00  0.00     0.023 H 
ATOM     21  H   UNL     1     -48.800  30.580  18.955  1.00  0.00     0.023 H 
ENDBRANCH  15  18
ENDBRANCH   1  15
BRANCH   3  22
ATOM     22  N   UNL     1     -48.317  27.796  24.000  1.00  0.00    -0.382 N 
ATOM     23  H   UNL     1     -48.690  27.829  24.951  1.00  0.00     0.160 HD
BRANCH  22  24
ATOM     24  C   UNL     1     -47.365  26.703  23.799  1.00  0.00     0.038 C 
ATOM     25  H   UNL     1     -47.688  25.798  24.324  1.00  0.00     0.051 H 
ATOM     26  H   UNL     1     -47.298  26.456  22.734  1.00  0.00     0.051 H 
BRANCH  24  27
ATOM     27  C   UNL     1     -45.976  27.090  24.332  1.00  0.00     0.063 C 
ATOM     28  H   UNL     1     -45.690  26.387  25.122  1.00  0.00     0.059 H 
ATOM     29  H   UNL     1     -45.985  28.089  24.786  1.00  0.00     0.059 H 
BRANCH  27  30
ATOM     30  O   UNL     1     -44.969  27.010  23.321  1.00  0.00    -0.383 OA
BRANCH  30  31
ATOM     31  C   UNL     1     -44.576  28.282  22.824  1.00  0.00     0.036 C 
ATOM     32  H   UNL     1     -43.488  28.388  22.857  1.00  0.00     0.053 H 
ATOM     33  H   UNL     1     -44.899  28.357  21.782  1.00  0.00     0.053 H 
ATOM     34  H   UNL     1     -45.051  29.089  23.389  1.00  0.00     0.053 H 
ENDBRANCH  30  31
ENDBRANCH  27  30
ENDBRANCH  24  27
ENDBRANCH  22  24
ENDBRANCH   3  22
BRANCH   8  35
ATOM     35  O   UNL     1     -48.202  33.704  26.737  1.00  0.00    -0.489 OA
BRANCH  35  36
ATOM     36  C   UNL     1     -47.038  34.534  26.708  1.00  0.00     0.115 C 
ATOM     37  H   UNL     1     -46.709  34.574  25.663  1.00  0.00     0.076 H 
ATOM     38  H   UNL     1     -46.214  34.071  27.265  1.00  0.00     0.076 H 
BRANCH  36  39
ATOM     39  C   UNL     1     -47.306  35.947  27.152  1.00  0.00     0.010 A 
ATOM     40  C   UNL     1     -48.566  36.350  27.569  1.00  0.00     0.034 A 
ATOM     41  C   UNL     1     -46.298  36.923  27.105  1.00  0.00    -0.028 A 
ATOM     42  N   UNL     1     -48.863  37.609  27.948  1.00  0.00    -0.262 NA
ATOM     43  H   UNL     1     -49.399  35.653  27.615  1.00  0.00     0.084 H 
ATOM     44  C   UNL     1     -46.563  38.246  27.495  1.00  0.00     0.066 A 
ATOM     45  H   UNL     1     -45.313  36.613  26.773  1.00  0.00     0.065 H 
ATOM     46  C   UNL     1     -47.860  38.526  27.908  1.00  0.00     0.051 A 
ATOM     47  H   UNL     1     -48.194  39.508  28.219  1.00  0.00     0.086 H 
BRANCH  44  48
ATOM     48  N   UNL     1     -45.542  39.253  27.460  1.00  0.00    -0.299 N 
ATOM     49  C   UNL     1     -45.392  40.200  26.456  1.00  0.00     0.018 A 
ATOM     50  C   UNL     1     -44.532  39.486  28.393  1.00  0.00     0.150 A 
ATOM     51  C   UNL     1     -44.303  41.013  26.714  1.00  0.00     0.012 A 
ATOM     52  H   UNL     1     -46.082  40.248  25.628  1.00  0.00     0.083 H 
ATOM     53  C   UNL     1     -43.760  40.559  27.956  1.00  0.00     0.067 A 
ATOM     54  N   UNL     1     -44.312  38.793  29.528  1.00  0.00    -0.218 NA
ATOM     55  C   UNL     1     -42.684  40.944  28.777  1.00  0.00     0.136 A 
ATOM     56  C   UNL     1     -43.262  39.248  30.224  1.00  0.00     0.120 A 
ATOM     57  N   UNL     1     -42.447  40.267  29.915  1.00  0.00    -0.219 NA
ATOM     58  H   UNL     1     -43.040  38.728  31.151  1.00  0.00     0.106 H 
BRANCH  51  59
ATOM     59  C   UNL     1     -43.801  42.171  25.903  1.00  0.00     0.085 C 
ATOM     60  C   UNL     1     -44.247  43.550  26.377  1.00  0.00    -0.020 C 
ATOM     61  O   UNL     1     -44.229  42.080  24.523  1.00  0.00    -0.373 OA
ATOM     62  H   UNL     1     -42.703  42.133  25.889  1.00  0.00     0.066 H 
ATOM     63  C   UNL     1     -44.138  44.366  25.114  1.00  0.00    -0.027 C 
ATOM     64  H   UNL     1     -45.292  43.545  26.708  1.00  0.00     0.030 H 
ATOM     65  H   UNL     1     -43.634  43.937  27.197  1.00  0.00     0.030 H 
ATOM     66  C   UNL     1     -44.629  43.383  24.077  1.00  0.00     0.048 C 
ATOM     67  H   UNL     1     -44.720  45.291  25.136  1.00  0.00     0.029 H 
ATOM     68  H   UNL     1     -43.089  44.622  24.925  1.00  0.00     0.029 H 
ATOM     69  H   UNL     1     -44.214  43.576  23.084  1.00  0.00     0.057 H 
ATOM     70  H   UNL     1     -45.721  43.391  24.007  1.00  0.00     0.057 H 
ENDBRANCH  51  59
BRANCH  55  71
ATOM     71  N   UNL     1     -41.816  41.986  28.471  1.00  0.00    -0.383 N 
ATOM     72  H   UNL     1     -42.032  42.361  27.556  1.00  0.00     0.158 HD
ATOM     73  H   UNL     1     -41.757  42.673  29.224  1.00  0.00     0.158 HD
ENDBRANCH  55  71
ENDBRANCH  44  48
ENDBRANCH  36  39
ENDBRANCH  35  36
ENDBRANCH   8  35
TORSDOF 13
ENDMDL
MODEL 6
REMARK VINA RESULT:      -8.2      3.148     12.390
REMARK SMILES CCc1cc(NCCOC)c2c(F)cc(OCc3cncc(-n4cc([C@@H]5CCCO5)c5c(N)ncnc54)c3)cc2n1
REMARK SMILES IDX 3 1 4 2 5 3 11 4 12 5 13 6 14 7 15 8 39 9 40 10 41 11 2 15
REMARK SMILES IDX 1 18 6 22 7 24 8 27 9 30 10 31 16 35 17 36 18 39 19 40 38 41
REMARK SMILES IDX 20 42 22 44 21 46 23 48 24 49 37 50 25 51 31 53 36 54 32 55
REMARK SMILES IDX 35 56 34 57 26 59 27 60 30 61 28 63 29 66 33 71
REMARK H PARENT 4 12 14 13 39 14 2 16 2 17 1 19 1 20 1 21 6 23 7 25 7 26 8 28
REMARK H PARENT 8 29 10 32 10 33 10 34 17 37 17 38 19 43 38 45 21 47 24 52
REMARK H PARENT 35 58 26 62 27 64 27 65 28 67 28 68 29 69 29 70 33 72 33 73
REMARK Flexibility Score: inf
ROOT
ATOM      1  C   UNL     1     -48.022  42.759  26.180  1.00  0.00     0.043 A 
ATOM      2  C   UNL     1     -46.753  43.228  25.865  1.00  0.00    -0.017 A 
ATOM      3  C   UNL     1     -45.649  42.383  25.998  1.00  0.00     0.048 A 
ATOM      4  C   UNL     1     -45.881  41.040  26.411  1.00  0.00     0.059 A 
ATOM      5  C   UNL     1     -44.877  40.057  26.564  1.00  0.00     0.138 A 
ATOM      6  F   UNL     1     -43.590  40.368  26.330  1.00  0.00    -0.206 F 
ATOM      7  C   UNL     1     -45.150  38.754  26.976  1.00  0.00     0.017 A 
ATOM      8  C   UNL     1     -46.456  38.397  27.263  1.00  0.00     0.124 A 
ATOM      9  C   UNL     1     -47.464  39.356  27.118  1.00  0.00     0.007 A 
ATOM     10  C   UNL     1     -47.205  40.658  26.706  1.00  0.00     0.079 A 
ATOM     11  N   UNL     1     -48.244  41.499  26.609  1.00  0.00    -0.252 NA
ATOM     12  H   UNL     1     -46.647  44.244  25.501  1.00  0.00     0.066 H 
ATOM     13  H   UNL     1     -44.319  38.065  27.048  1.00  0.00     0.069 H 
ATOM     14  H   UNL     1     -48.493  39.079  27.336  1.00  0.00     0.069 H 
ENDROOT
BRANCH   1  15
ATOM     15  C   UNL     1     -49.222  43.662  26.071  1.00  0.00    -0.013 C 
ATOM     16  H   UNL     1     -49.553  43.945  27.077  1.00  0.00     0.033 H 
ATOM     17  H   UNL     1     -50.057  43.120  25.610  1.00  0.00     0.033 H 
BRANCH  15  18
ATOM     18  C   UNL     1     -48.908  44.917  25.272  1.00  0.00    -0.060 C 
ATOM     19  H   UNL     1     -49.676  45.105  24.513  1.00  0.00     0.023 H 
ATOM     20  H   UNL     1     -47.945  44.810  24.762  1.00  0.00     0.023 H 
ATOM     21  H   UNL     1     -48.853  45.798  25.919  1.00  0.00     0.023 H 
ENDBRANCH  15  18
ENDBRANCH   1  15
BRANCH   3  22
ATOM     22  N   UNL     1     -44.360  42.801  25.608  1.00  0.00    -0.382 N 
ATOM     23  H   UNL     1     -44.127  43.705  26.024  1.00  0.00     0.160 HD
BRANCH  22  24
ATOM     24  C   UNL     1     -43.973  42.706  24.200  1.00  0.00     0.038 C 
ATOM     25  H   UNL     1     -42.883  42.681  24.092  1.00  0.00     0.051 H 
ATOM     26  H   UNL     1     -44.365  41.781  23.765  1.00  0.00     0.051 H 
BRANCH  24  27
ATOM     27  C   UNL     1     -44.498  43.916  23.411  1.00  0.00     0.063 C 
ATOM     28  H   UNL     1     -45.368  44.331  23.934  1.00  0.00     0.059 H 
ATOM     29  H   UNL     1     -44.841  43.624  22.411  1.00  0.00     0.059 H 
BRANCH  27  30
ATOM     30  O   UNL     1     -43.529  44.963  23.322  1.00  0.00    -0.383 OA
BRANCH  30  31
ATOM     31  C   UNL     1     -42.872  45.007  22.063  1.00  0.00     0.036 C 
ATOM     32  H   UNL     1     -43.582  44.825  21.251  1.00  0.00     0.053 H 
ATOM     33  H   UNL     1     -42.449  46.008  21.933  1.00  0.00     0.053 H 
ATOM     34  H   UNL     1     -42.055  44.282  22.020  1.00  0.00     0.053 H 
ENDBRANCH  30  31
ENDBRANCH  27  30
ENDBRANCH  24  27
ENDBRANCH  22  24
ENDBRANCH   3  22
BRANCH   8  35
ATOM     35  O   UNL     1     -46.892  37.168  27.668  1.00  0.00    -0.489 OA
BRANCH  35  36
ATOM     36  C   UNL     1     -46.440  36.009  26.962  1.00  0.00     0.115 C 
ATOM     37  H   UNL     1     -45.720  35.505  27.618  1.00  0.00     0.076 H 
ATOM     38  H   UNL     1     -45.878  36.294  26.063  1.00  0.00     0.076 H 
BRANCH  36  39
ATOM     39  C   UNL     1     -47.542  35.029  26.661  1.00  0.00     0.010 A 
ATOM     40  C   UNL     1     -48.860  35.293  27.002  1.00  0.00     0.034 A 
ATOM     41  C   UNL     1     -47.262  33.785  26.073  1.00  0.00    -0.028 A 
ATOM     42  N   UNL     1     -49.877  34.435  26.781  1.00  0.00    -0.262 NA
ATOM     43  H   UNL     1     -49.148  36.228  27.476  1.00  0.00     0.084 H 
ATOM     44  C   UNL     1     -48.293  32.864  25.820  1.00  0.00     0.066 A 
ATOM     45  H   UNL     1     -46.231  33.574  25.810  1.00  0.00     0.065 H 
ATOM     46  C   UNL     1     -49.576  33.248  26.194  1.00  0.00     0.051 A 
ATOM     47  H   UNL     1     -50.451  32.623  26.065  1.00  0.00     0.086 H 
BRANCH  44  48
ATOM     48  N   UNL     1     -48.025  31.593  25.213  1.00  0.00    -0.299 N 
ATOM     49  C   UNL     1     -48.548  30.381  25.641  1.00  0.00     0.018 A 
ATOM     50  C   UNL     1     -47.222  31.322  24.106  1.00  0.00     0.150 A 
ATOM     51  C   UNL     1     -48.083  29.345  24.851  1.00  0.00     0.012 A 
ATOM     52  H   UNL     1     -49.235  30.332  26.472  1.00  0.00     0.083 H 
ATOM     53  C   UNL     1     -47.241  29.950  23.867  1.00  0.00     0.067 A 
ATOM     54  N   UNL     1     -46.524  32.218  23.381  1.00  0.00    -0.218 NA
ATOM     55  C   UNL     1     -46.482  29.483  22.778  1.00  0.00     0.136 A 
ATOM     56  C   UNL     1     -45.839  31.657  22.375  1.00  0.00     0.120 A 
ATOM     57  N   UNL     1     -45.779  30.361  22.040  1.00  0.00    -0.219 NA
ATOM     58  H   UNL     1     -45.260  32.335  21.755  1.00  0.00     0.106 H 
BRANCH  51  59
ATOM     59  C   UNL     1     -48.414  27.884  24.952  1.00  0.00     0.085 C 
ATOM     60  C   UNL     1     -49.155  27.463  26.216  1.00  0.00    -0.020 C 
ATOM     61  O   UNL     1     -47.222  27.063  24.909  1.00  0.00    -0.373 OA
ATOM     62  H   UNL     1     -49.013  27.605  24.074  1.00  0.00     0.066 H 
ATOM     63  C   UNL     1     -48.796  26.002  26.317  1.00  0.00    -0.027 C 
ATOM     64  H   UNL     1     -48.771  27.984  27.102  1.00  0.00     0.030 H 
ATOM     65  H   UNL     1     -50.232  27.642  26.158  1.00  0.00     0.030 H 
ATOM     66  C   UNL     1     -47.350  26.016  25.880  1.00  0.00     0.048 C 
ATOM     67  H   UNL     1     -48.937  25.581  27.316  1.00  0.00     0.029 H 
ATOM     68  H   UNL     1     -49.399  25.421  25.608  1.00  0.00     0.029 H 
ATOM     69  H   UNL     1     -47.034  25.066  25.440  1.00  0.00     0.057 H 
ATOM     70  H   UNL     1     -46.684  26.253  26.716  1.00  0.00     0.057 H 
ENDBRANCH  51  59
BRANCH  55  71
ATOM     71  N   UNL     1     -46.391  28.143  22.420  1.00  0.00    -0.383 N 
ATOM     72  H   UNL     1     -45.437  27.820  22.523  1.00  0.00     0.158 HD
ATOM     73  H   UNL     1     -47.100  27.571  22.881  1.00  0.00     0.158 HD
ENDBRANCH  55  71
ENDBRANCH  44  48
ENDBRANCH  36  39
ENDBRANCH  35  36
ENDBRANCH   8  35
TORSDOF 13
ENDMDL
MODEL 7
REMARK VINA RESULT:      -8.1      3.324     12.043
REMARK SMILES CCc1cc(NCCOC)c2c(F)cc(OCc3cncc(-n4cc([C@@H]5CCCO5)c5c(N)ncnc54)c3)cc2n1
REMARK SMILES IDX 3 1 4 2 5 3 11 4 12 5 13 6 14 7 15 8 39 9 40 10 41 11 2 15
REMARK SMILES IDX 1 18 6 22 7 24 8 27 9 30 10 31 16 35 17 36 18 39 19 40 38 41
REMARK SMILES IDX 20 42 22 44 21 46 23 48 24 49 37 50 25 51 31 53 36 54 32 55
REMARK SMILES IDX 35 56 34 57 26 59 27 60 30 61 28 63 29 66 33 71
REMARK H PARENT 4 12 14 13 39 14 2 16 2 17 1 19 1 20 1 21 6 23 7 25 7 26 8 28
REMARK H PARENT 8 29 10 32 10 33 10 34 17 37 17 38 19 43 38 45 21 47 24 52
REMARK H PARENT 35 58 26 62 27 64 27 65 28 67 28 68 29 69 29 70 33 72 33 73
REMARK Flexibility Score: inf
ROOT
ATOM      1  C   UNL     1     -45.264  41.158  26.454  1.00  0.00     0.043 A 
ATOM      2  C   UNL     1     -46.501  41.721  26.744  1.00  0.00    -0.017 A 
ATOM      3  C   UNL     1     -47.539  40.910  27.210  1.00  0.00     0.048 A 
ATOM      4  C   UNL     1     -47.266  39.527  27.417  1.00  0.00     0.059 A 
ATOM      5  C   UNL     1     -48.198  38.586  27.910  1.00  0.00     0.138 A 
ATOM      6  F   UNL     1     -49.452  38.971  28.205  1.00  0.00    -0.206 F 
ATOM      7  C   UNL     1     -47.887  37.239  28.091  1.00  0.00     0.017 A 
ATOM      8  C   UNL     1     -46.619  36.790  27.768  1.00  0.00     0.124 A 
ATOM      9  C   UNL     1     -45.684  37.706  27.278  1.00  0.00     0.007 A 
ATOM     10  C   UNL     1     -45.979  39.051  27.094  1.00  0.00     0.079 A 
ATOM     11  N   UNL     1     -45.011  39.842  26.610  1.00  0.00    -0.252 NA
ATOM     12  H   UNL     1     -46.631  42.790  26.621  1.00  0.00     0.066 H 
ATOM     13  H   UNL     1     -48.660  36.595  28.490  1.00  0.00     0.069 H 
ATOM     14  H   UNL     1     -44.683  37.359  27.028  1.00  0.00     0.069 H 
ENDROOT
BRANCH   1  15
ATOM     15  C   UNL     1     -44.141  42.009  25.924  1.00  0.00    -0.013 C 
ATOM     16  H   UNL     1     -44.390  43.067  26.070  1.00  0.00     0.033 H 
ATOM     17  H   UNL     1     -44.038  41.861  24.842  1.00  0.00     0.033 H 
BRANCH  15  18
ATOM     18  C   UNL     1     -42.826  41.699  26.622  1.00  0.00    -0.060 C 
ATOM     19  H   UNL     1     -42.973  40.988  27.443  1.00  0.00     0.023 H 
ATOM     20  H   UNL     1     -42.393  42.614  27.038  1.00  0.00     0.023 H 
ATOM     21  H   UNL     1     -42.099  41.264  25.928  1.00  0.00     0.023 H 
ENDBRANCH  15  18
ENDBRANCH   1  15
BRANCH   3  22
ATOM     22  N   UNL     1     -48.779  41.462  27.593  1.00  0.00    -0.382 N 
ATOM     23  H   UNL     1     -49.304  40.809  28.178  1.00  0.00     0.160 HD
BRANCH  22  24
ATOM     24  C   UNL     1     -49.611  42.121  26.585  1.00  0.00     0.038 C 
ATOM     25  H   UNL     1     -49.661  43.201  26.760  1.00  0.00     0.051 H 
ATOM     26  H   UNL     1     -49.183  41.970  25.589  1.00  0.00     0.051 H 
BRANCH  24  27
ATOM     27  C   UNL     1     -51.046  41.569  26.624  1.00  0.00     0.063 C 
ATOM     28  H   UNL     1     -51.006  40.486  26.783  1.00  0.00     0.059 H 
ATOM     29  H   UNL     1     -51.562  41.730  25.670  1.00  0.00     0.059 H 
BRANCH  27  30
ATOM     30  O   UNL     1     -51.805  42.120  27.702  1.00  0.00    -0.383 OA
BRANCH  30  31
ATOM     31  C   UNL     1     -51.804  43.541  27.716  1.00  0.00     0.036 C 
ATOM     32  H   UNL     1     -50.823  43.922  28.016  1.00  0.00     0.053 H 
ATOM     33  H   UNL     1     -52.016  43.893  26.702  1.00  0.00     0.053 H 
ATOM     34  H   UNL     1     -52.580  43.929  28.382  1.00  0.00     0.053 H 
ENDBRANCH  30  31
ENDBRANCH  27  30
ENDBRANCH  24  27
ENDBRANCH  22  24
ENDBRANCH   3  22
BRANCH   8  35
ATOM     35  O   UNL     1     -46.153  35.511  27.893  1.00  0.00    -0.489 OA
BRANCH  35  36
ATOM     36  C   UNL     1     -46.103  34.679  26.731  1.00  0.00     0.115 C 
ATOM     37  H   UNL     1     -45.374  33.888  26.945  1.00  0.00     0.076 H 
ATOM     38  H   UNL     1     -45.703  35.233  25.872  1.00  0.00     0.076 H 
BRANCH  36  39
ATOM     39  C   UNL     1     -47.416  34.012  26.421  1.00  0.00     0.010 A 
ATOM     40  C   UNL     1     -48.626  34.604  26.753  1.00  0.00     0.034 A 
ATOM     41  C   UNL     1     -47.459  32.738  25.834  1.00  0.00    -0.028 A 
ATOM     42  N   UNL     1     -49.826  34.034  26.524  1.00  0.00    -0.262 NA
ATOM     43  H   UNL     1     -48.669  35.582  27.226  1.00  0.00     0.084 H 
ATOM     44  C   UNL     1     -48.688  32.110  25.573  1.00  0.00     0.066 A 
ATOM     45  H   UNL     1     -46.514  32.270  25.579  1.00  0.00     0.065 H 
ATOM     46  C   UNL     1     -49.833  32.809  25.937  1.00  0.00     0.051 A 
ATOM     47  H   UNL     1     -50.838  32.427  25.801  1.00  0.00     0.086 H 
BRANCH  44  48
ATOM     48  N   UNL     1     -48.749  30.812  24.966  1.00  0.00    -0.299 N 
ATOM     49  C   UNL     1     -48.539  29.612  25.631  1.00  0.00     0.018 A 
ATOM     50  C   UNL     1     -49.027  30.497  23.636  1.00  0.00     0.150 A 
ATOM     51  C   UNL     1     -48.655  28.546  24.757  1.00  0.00     0.012 A 
ATOM     52  H   UNL     1     -48.338  29.590  26.691  1.00  0.00     0.083 H 
ATOM     53  C   UNL     1     -48.973  29.114  23.485  1.00  0.00     0.067 A 
ATOM     54  N   UNL     1     -49.292  31.369  22.643  1.00  0.00    -0.218 NA
ATOM     55  C   UNL     1     -49.230  28.604  22.199  1.00  0.00     0.136 A 
ATOM     56  C   UNL     1     -49.517  30.768  21.466  1.00  0.00     0.120 A 
ATOM     57  N   UNL     1     -49.499  29.456  21.194  1.00  0.00    -0.219 NA
ATOM     58  H   UNL     1     -49.740  31.423  20.630  1.00  0.00     0.106 H 
BRANCH  51  59
ATOM     59  C   UNL     1     -48.526  27.082  25.063  1.00  0.00     0.085 C 
ATOM     60  C   UNL     1     -49.024  26.650  26.438  1.00  0.00    -0.020 C 
ATOM     61  O   UNL     1     -47.149  26.642  24.995  1.00  0.00    -0.373 OA
ATOM     62  H   UNL     1     -49.069  26.519  24.291  1.00  0.00     0.066 H 
ATOM     63  C   UNL     1     -48.239  25.384  26.672  1.00  0.00    -0.027 C 
ATOM     64  H   UNL     1     -48.759  27.381  27.211  1.00  0.00     0.030 H 
ATOM     65  H   UNL     1     -50.107  26.501  26.471  1.00  0.00     0.030 H 
ATOM     66  C   UNL     1     -46.894  25.752  26.090  1.00  0.00     0.048 C 
ATOM     67  H   UNL     1     -48.184  25.088  27.723  1.00  0.00     0.029 H 
ATOM     68  H   UNL     1     -48.684  24.560  26.103  1.00  0.00     0.029 H 
ATOM     69  H   UNL     1     -46.337  24.881  25.735  1.00  0.00     0.057 H 
ATOM     70  H   UNL     1     -46.278  26.288  26.819  1.00  0.00     0.057 H 
ENDBRANCH  51  59
BRANCH  55  71
ATOM     71  N   UNL     1     -49.202  27.250  21.887  1.00  0.00    -0.383 N 
ATOM     72  H   UNL     1     -48.258  26.966  21.658  1.00  0.00     0.158 HD
ATOM     73  H   UNL     1     -49.672  26.681  22.593  1.00  0.00     0.158 HD
ENDBRANCH  55  71
ENDBRANCH  44  48
ENDBRANCH  36  39
ENDBRANCH  35  36
ENDBRANCH   8  35
TORSDOF 13
ENDMDL
