MODEL 1
REMARK VINA RESULT:     -11.1      0.000      0.000
REMARK SMILES c1cc2cc(-c3cn(Cc4ccc5cc(CNCC6CCC6)[nH]c5c4)nn3)cnc2[nH]1
REMARK SMILES IDX 10 1 11 2 12 3 13 4 14 5 15 6 23 7 24 8 25 9 9 15 8 18 6 19
REMARK SMILES IDX 7 20 27 21 26 23 5 24 1 25 2 26 31 27 3 29 30 31 4 33 29 34
REMARK SMILES IDX 28 36 16 38 17 41 18 43 19 46 20 47 22 48 21 50
REMARK H PARENT 11 10 12 11 14 12 23 13 25 14 9 16 9 17 7 22 1 28 2 30 31 32
REMARK H PARENT 4 35 28 37 16 39 16 40 17 42 18 44 18 45 19 49 20 51 20 52
REMARK H PARENT 22 53 22 54 21 55 21 56
REMARK Flexibility Score: inf
ROOT
ATOM      1  C   UNL     1     -48.075  34.585  26.594  1.00  0.00    -0.024 A 
ATOM      2  C   UNL     1     -46.787  34.631  26.042  1.00  0.00    -0.056 A 
ATOM      3  C   UNL     1     -46.333  33.629  25.176  1.00  0.00    -0.052 A 
ATOM      4  C   UNL     1     -47.184  32.556  24.854  1.00  0.00    -0.000 A 
ATOM      5  C   UNL     1     -47.056  31.403  24.030  1.00  0.00    -0.032 A 
ATOM      6  C   UNL     1     -48.239  30.695  24.099  1.00  0.00     0.030 A 
ATOM      7  N   UNL     1     -49.076  31.386  24.945  1.00  0.00    -0.357 N 
ATOM      8  C   UNL     1     -48.459  32.521  25.415  1.00  0.00     0.046 A 
ATOM      9  C   UNL     1     -48.931  33.512  26.285  1.00  0.00    -0.033 A 
ATOM     10  H   UNL     1     -46.113  35.453  26.279  1.00  0.00     0.063 H 
ATOM     11  H   UNL     1     -45.333  33.679  24.754  1.00  0.00     0.063 H 
ATOM     12  H   UNL     1     -46.187  31.124  23.448  1.00  0.00     0.065 H 
ATOM     13  H   UNL     1     -50.024  31.102  25.152  1.00  0.00     0.166 HD
ATOM     14  H   UNL     1     -49.935  33.452  26.701  1.00  0.00     0.065 H 
ENDROOT
BRANCH   1  15
ATOM     15  C   UNL     1     -48.544  35.678  27.524  1.00  0.00     0.068 C 
ATOM     16  H   UNL     1     -49.212  35.289  28.301  1.00  0.00     0.057 H 
ATOM     17  H   UNL     1     -49.096  36.440  26.961  1.00  0.00     0.057 H 
BRANCH  15  18
ATOM     18  N   UNL     1     -47.435  36.317  28.211  1.00  0.00    -0.247 N 
ATOM     19  C   UNL     1     -45.794  37.581  28.828  1.00  0.00     0.114 A 
ATOM     20  C   UNL     1     -46.758  37.447  27.853  1.00  0.00     0.054 A 
ATOM     21  N   UNL     1     -45.907  36.536  29.711  1.00  0.00    -0.130 NA
ATOM     22  H   UNL     1     -47.025  38.027  26.983  1.00  0.00     0.086 H 
ATOM     23  N   UNL     1     -46.912  35.764  29.321  1.00  0.00    -0.066 NA
BRANCH  19  24
ATOM     24  C   UNL     1     -44.799  38.627  28.945  1.00  0.00     0.023 A 
ATOM     25  C   UNL     1     -42.133  42.281  28.188  1.00  0.00     0.003 A 
ATOM     26  C   UNL     1     -43.148  41.712  27.444  1.00  0.00    -0.035 A 
ATOM     27  N   UNL     1     -41.986  41.537  29.332  1.00  0.00    -0.346 N 
ATOM     28  H   UNL     1     -41.507  43.143  28.005  1.00  0.00     0.082 H 
ATOM     29  C   UNL     1     -43.631  40.586  28.164  1.00  0.00     0.019 A 
ATOM     30  H   UNL     1     -43.503  42.071  26.488  1.00  0.00     0.065 H 
ATOM     31  C   UNL     1     -42.885  40.507  29.334  1.00  0.00     0.137 A 
ATOM     32  H   UNL     1     -41.325  41.700  30.077  1.00  0.00     0.167 HD
ATOM     33  C   UNL     1     -44.625  39.611  27.961  1.00  0.00    -0.040 A 
ATOM     34  N   UNL     1     -42.997  39.596  30.317  1.00  0.00    -0.238 NA
ATOM     35  H   UNL     1     -45.230  39.643  27.062  1.00  0.00     0.064 H 
ATOM     36  C   UNL     1     -43.971  38.681  30.071  1.00  0.00     0.039 A 
ATOM     37  H   UNL     1     -44.073  37.939  30.862  1.00  0.00     0.085 H 
ENDBRANCH  19  24
ENDBRANCH  15  18
ENDBRANCH   1  15
BRANCH   6  38
ATOM     38  C   UNL     1     -48.662  29.419  23.459  1.00  0.00     0.036 C 
ATOM     39  H   UNL     1     -47.862  29.082  22.791  1.00  0.00     0.049 H 
ATOM     40  H   UNL     1     -49.558  29.599  22.854  1.00  0.00     0.049 H 
BRANCH  38  41
ATOM     41  N   UNL     1     -48.921  28.425  24.495  1.00  0.00    -0.311 NA
ATOM     42  H   UNL     1     -49.896  28.130  24.433  1.00  0.00     0.123 HD
BRANCH  41  43
ATOM     43  C   UNL     1     -48.042  27.259  24.405  1.00  0.00    -0.002 C 
ATOM     44  H   UNL     1     -48.486  26.497  23.753  1.00  0.00     0.043 H 
ATOM     45  H   UNL     1     -47.121  27.583  23.905  1.00  0.00     0.043 H 
BRANCH  43  46
ATOM     46  C   UNL     1     -47.705  26.661  25.766  1.00  0.00    -0.029 C 
ATOM     47  C   UNL     1     -48.666  25.547  26.263  1.00  0.00    -0.049 C 
ATOM     48  C   UNL     1     -46.582  25.589  25.821  1.00  0.00    -0.049 C 
ATOM     49  H   UNL     1     -47.576  27.436  26.535  1.00  0.00     0.032 H 
ATOM     50  C   UNL     1     -47.431  24.862  26.884  1.00  0.00    -0.053 C 
ATOM     51  H   UNL     1     -49.136  24.959  25.466  1.00  0.00     0.027 H 
ATOM     52  H   UNL     1     -49.435  25.865  26.971  1.00  0.00     0.027 H 
ATOM     53  H   UNL     1     -45.604  25.942  26.159  1.00  0.00     0.027 H 
ATOM     54  H   UNL     1     -46.453  25.015  24.896  1.00  0.00     0.027 H 
ATOM     55  H   UNL     1     -47.219  25.179  27.911  1.00  0.00     0.027 H 
ATOM     56  H   UNL     1     -47.418  23.770  26.838  1.00  0.00     0.027 H 
ENDBRANCH  43  46
ENDBRANCH  41  43
ENDBRANCH  38  41
ENDBRANCH   6  38
TORSDOF 7
ENDMDL
MODEL 2
REMARK VINA RESULT:     -10.1      1.894      2.445
REMARK SMILES c1cc2cc(-c3cn(Cc4ccc5cc(CNCC6CCC6)[nH]c5c4)nn3)cnc2[nH]1
REMARK SMILES IDX 10 1 11 2 12 3 13 4 14 5 15 6 23 7 24 8 25 9 9 15 8 18 6 19
REMARK SMILES IDX 7 20 27 21 26 23 5 24 1 25 2 26 31 27 3 29 30 31 4 33 29 34
REMARK SMILES IDX 28 36 16 38 17 41 18 43 19 46 20 47 22 48 21 50
REMARK H PARENT 11 10 12 11 14 12 23 13 25 14 9 16 9 17 7 22 1 28 2 30 31 32
REMARK H PARENT 4 35 28 37 16 39 16 40 17 42 18 44 18 45 19 49 20 51 20 52
REMARK H PARENT 22 53 22 54 21 55 21 56
REMARK Flexibility Score: inf
ROOT
ATOM      1  C   UNL     1     -47.909  35.576  27.013  1.00  0.00    -0.024 A 
ATOM      2  C   UNL     1     -46.576  35.431  26.605  1.00  0.00    -0.056 A 
ATOM      3  C   UNL     1     -46.152  34.295  25.903  1.00  0.00    -0.052 A 
ATOM      4  C   UNL     1     -47.080  33.282  25.604  1.00  0.00    -0.000 A 
ATOM      5  C   UNL     1     -47.000  32.035  24.923  1.00  0.00    -0.032 A 
ATOM      6  C   UNL     1     -48.254  31.460  24.935  1.00  0.00     0.030 A 
ATOM      7  N   UNL     1     -49.089  32.323  25.607  1.00  0.00    -0.357 N 
ATOM      8  C   UNL     1     -48.400  33.438  26.021  1.00  0.00     0.046 A 
ATOM      9  C   UNL     1     -48.844  34.564  26.725  1.00  0.00    -0.033 A 
ATOM     10  H   UNL     1     -45.842  36.204  26.828  1.00  0.00     0.063 H 
ATOM     11  H   UNL     1     -45.116  34.198  25.592  1.00  0.00     0.063 H 
ATOM     12  H   UNL     1     -46.114  31.606  24.474  1.00  0.00     0.065 H 
ATOM     13  H   UNL     1     -50.079  32.159  25.737  1.00  0.00     0.166 HD
ATOM     14  H   UNL     1     -49.884  34.652  27.032  1.00  0.00     0.065 H 
ENDROOT
BRANCH   1  15
ATOM     15  C   UNL     1     -48.344  36.810  27.767  1.00  0.00     0.068 C 
ATOM     16  H   UNL     1     -48.600  36.580  28.807  1.00  0.00     0.057 H 
ATOM     17  H   UNL     1     -49.233  37.245  27.294  1.00  0.00     0.057 H 
BRANCH  15  18
ATOM     18  N   UNL     1     -47.298  37.816  27.809  1.00  0.00    -0.247 N 
ATOM     19  C   UNL     1     -45.903  39.415  27.395  1.00  0.00     0.114 A 
ATOM     20  C   UNL     1     -46.988  38.752  26.864  1.00  0.00     0.054 A 
ATOM     21  N   UNL     1     -45.590  38.854  28.609  1.00  0.00    -0.130 NA
ATOM     22  H   UNL     1     -47.552  38.857  25.951  1.00  0.00     0.086 H 
ATOM     23  N   UNL     1     -46.447  37.871  28.849  1.00  0.00    -0.066 NA
BRANCH  19  24
ATOM     24  C   UNL     1     -45.174  40.522  26.811  1.00  0.00     0.023 A 
ATOM     25  C   UNL     1     -41.890  43.466  25.557  1.00  0.00     0.003 A 
ATOM     26  C   UNL     1     -41.855  42.324  26.332  1.00  0.00    -0.035 A 
ATOM     27  N   UNL     1     -43.186  43.653  25.146  1.00  0.00    -0.346 N 
ATOM     28  H   UNL     1     -41.112  44.158  25.264  1.00  0.00     0.082 H 
ATOM     29  C   UNL     1     -43.176  41.803  26.392  1.00  0.00     0.019 A 
ATOM     30  H   UNL     1     -40.973  41.910  26.802  1.00  0.00     0.065 H 
ATOM     31  C   UNL     1     -43.978  42.655  25.642  1.00  0.00     0.137 A 
ATOM     32  H   UNL     1     -43.533  44.402  24.565  1.00  0.00     0.167 HD
ATOM     33  C   UNL     1     -43.795  40.696  26.999  1.00  0.00    -0.040 A 
ATOM     34  N   UNL     1     -45.300  42.551  25.420  1.00  0.00    -0.238 NA
ATOM     35  H   UNL     1     -43.202  40.006  27.587  1.00  0.00     0.064 H 
ATOM     36  C   UNL     1     -45.847  41.465  26.027  1.00  0.00     0.039 A 
ATOM     37  H   UNL     1     -46.918  41.369  25.852  1.00  0.00     0.085 H 
ENDBRANCH  19  24
ENDBRANCH  15  18
ENDBRANCH   1  15
BRANCH   6  38
ATOM     38  C   UNL     1     -48.750  30.166  24.389  1.00  0.00     0.036 C 
ATOM     39  H   UNL     1     -48.599  30.164  23.304  1.00  0.00     0.049 H 
ATOM     40  H   UNL     1     -49.825  30.081  24.583  1.00  0.00     0.049 H 
BRANCH  38  41
ATOM     41  N   UNL     1     -48.017  29.070  25.013  1.00  0.00    -0.311 NA
ATOM     42  H   UNL     1     -48.327  28.974  25.980  1.00  0.00     0.123 HD
BRANCH  41  43
ATOM     43  C   UNL     1     -48.180  27.797  24.309  1.00  0.00    -0.002 C 
ATOM     44  H   UNL     1     -49.174  27.741  23.848  1.00  0.00     0.043 H 
ATOM     45  H   UNL     1     -47.462  27.787  23.481  1.00  0.00     0.043 H 
BRANCH  43  46
ATOM     46  C   UNL     1     -47.944  26.587  25.206  1.00  0.00    -0.029 C 
ATOM     47  C   UNL     1     -46.462  26.144  25.354  1.00  0.00    -0.049 C 
ATOM     48  C   UNL     1     -47.928  26.824  26.742  1.00  0.00    -0.049 C 
ATOM     49  H   UNL     1     -48.579  25.735  24.925  1.00  0.00     0.032 H 
ATOM     50  C   UNL     1     -46.793  25.783  26.816  1.00  0.00    -0.053 C 
ATOM     51  H   UNL     1     -45.731  26.954  25.259  1.00  0.00     0.027 H 
ATOM     52  H   UNL     1     -46.152  25.308  24.720  1.00  0.00     0.027 H 
ATOM     53  H   UNL     1     -48.847  26.560  27.272  1.00  0.00     0.027 H 
ATOM     54  H   UNL     1     -47.619  27.831  27.045  1.00  0.00     0.027 H 
ATOM     55  H   UNL     1     -47.146  24.754  26.949  1.00  0.00     0.027 H 
ATOM     56  H   UNL     1     -46.007  25.987  27.547  1.00  0.00     0.027 H 
ENDBRANCH  43  46
ENDBRANCH  41  43
ENDBRANCH  38  41
ENDBRANCH   6  38
TORSDOF 7
ENDMDL
MODEL 3
REMARK VINA RESULT:     -10.1      2.492      4.158
REMARK SMILES c1cc2cc(-c3cn(Cc4ccc5cc(CNCC6CCC6)[nH]c5c4)nn3)cnc2[nH]1
REMARK SMILES IDX 10 1 11 2 12 3 13 4 14 5 15 6 23 7 24 8 25 9 9 15 8 18 6 19
REMARK SMILES IDX 7 20 27 21 26 23 5 24 1 25 2 26 31 27 3 29 30 31 4 33 29 34
REMARK SMILES IDX 28 36 16 38 17 41 18 43 19 46 20 47 22 48 21 50
REMARK H PARENT 11 10 12 11 14 12 23 13 25 14 9 16 9 17 7 22 1 28 2 30 31 32
REMARK H PARENT 4 35 28 37 16 39 16 40 17 42 18 44 18 45 19 49 20 51 20 52
REMARK H PARENT 22 53 22 54 21 55 21 56
REMARK Flexibility Score: inf
ROOT
ATOM      1  C   UNL     1     -46.514  36.167  29.038  1.00  0.00    -0.024 A 
ATOM      2  C   UNL     1     -47.813  36.449  28.591  1.00  0.00    -0.056 A 
ATOM      3  C   UNL     1     -48.361  35.777  27.491  1.00  0.00    -0.052 A 
ATOM      4  C   UNL     1     -47.596  34.804  26.823  1.00  0.00    -0.000 A 
ATOM      5  C   UNL     1     -47.833  33.952  25.708  1.00  0.00    -0.032 A 
ATOM      6  C   UNL     1     -46.699  33.191  25.504  1.00  0.00     0.030 A 
ATOM      7  N   UNL     1     -45.784  33.563  26.461  1.00  0.00    -0.357 N 
ATOM      8  C   UNL     1     -46.305  34.540  27.276  1.00  0.00     0.046 A 
ATOM      9  C   UNL     1     -45.737  35.201  28.372  1.00  0.00    -0.033 A 
ATOM     10  H   UNL     1     -48.420  37.199  29.094  1.00  0.00     0.063 H 
ATOM     11  H   UNL     1     -49.370  36.005  27.157  1.00  0.00     0.063 H 
ATOM     12  H   UNL     1     -48.739  33.904  25.119  1.00  0.00     0.065 H 
ATOM     13  H   UNL     1     -44.871  33.140  26.559  1.00  0.00     0.166 HD
ATOM     14  H   UNL     1     -44.727  34.965  28.699  1.00  0.00     0.065 H 
ENDROOT
BRANCH   1  15
ATOM     15  C   UNL     1     -45.943  36.902  30.228  1.00  0.00     0.068 C 
ATOM     16  H   UNL     1     -45.324  36.246  30.850  1.00  0.00     0.057 H 
ATOM     17  H   UNL     1     -46.755  37.288  30.855  1.00  0.00     0.057 H 
BRANCH  15  18
ATOM     18  N   UNL     1     -45.097  38.011  29.824  1.00  0.00    -0.247 N 
ATOM     19  C   UNL     1     -44.116  39.638  28.792  1.00  0.00     0.114 A 
ATOM     20  C   UNL     1     -45.165  38.752  28.679  1.00  0.00     0.054 A 
ATOM     21  N   UNL     1     -43.452  39.392  29.969  1.00  0.00    -0.130 NA
ATOM     22  H   UNL     1     -45.927  38.590  27.933  1.00  0.00     0.086 H 
ATOM     23  N   UNL     1     -44.058  38.389  30.590  1.00  0.00    -0.066 NA
BRANCH  19  24
ATOM     24  C   UNL     1     -43.731  40.673  27.855  1.00  0.00     0.023 A 
ATOM     25  C   UNL     1     -43.449  43.424  24.197  1.00  0.00     0.003 A 
ATOM     26  C   UNL     1     -44.279  42.360  24.486  1.00  0.00    -0.035 A 
ATOM     27  N   UNL     1     -42.603  43.595  25.264  1.00  0.00    -0.346 N 
ATOM     28  H   UNL     1     -43.386  44.071  23.332  1.00  0.00     0.082 H 
ATOM     29  C   UNL     1     -43.922  41.871  25.771  1.00  0.00     0.019 A 
ATOM     30  H   UNL     1     -45.060  41.978  23.840  1.00  0.00     0.065 H 
ATOM     31  C   UNL     1     -42.875  42.664  26.226  1.00  0.00     0.137 A 
ATOM     32  H   UNL     1     -41.879  44.294  25.354  1.00  0.00     0.167 HD
ATOM     33  C   UNL     1     -44.368  40.837  26.616  1.00  0.00    -0.040 A 
ATOM     34  N   UNL     1     -42.221  42.564  27.397  1.00  0.00    -0.238 NA
ATOM     35  H   UNL     1     -45.185  40.201  26.297  1.00  0.00     0.064 H 
ATOM     36  C   UNL     1     -42.692  41.552  28.173  1.00  0.00     0.039 A 
ATOM     37  H   UNL     1     -42.171  41.463  29.125  1.00  0.00     0.085 H 
ENDBRANCH  19  24
ENDBRANCH  15  18
ENDBRANCH   1  15
BRANCH   6  38
ATOM     38  C   UNL     1     -46.380  32.154  24.485  1.00  0.00     0.036 C 
ATOM     39  H   UNL     1     -45.294  32.005  24.466  1.00  0.00     0.049 H 
ATOM     40  H   UNL     1     -46.692  32.510  23.497  1.00  0.00     0.049 H 
BRANCH  38  41
ATOM     41  N   UNL     1     -47.063  30.913  24.834  1.00  0.00    -0.311 NA
ATOM     42  H   UNL     1     -47.646  31.076  25.655  1.00  0.00     0.123 HD
BRANCH  41  43
ATOM     43  C   UNL     1     -47.880  30.381  23.742  1.00  0.00    -0.002 C 
ATOM     44  H   UNL     1     -47.241  30.055  22.912  1.00  0.00     0.043 H 
ATOM     45  H   UNL     1     -48.375  29.476  24.115  1.00  0.00     0.043 H 
BRANCH  43  46
ATOM     46  C   UNL     1     -48.928  31.371  23.247  1.00  0.00    -0.029 C 
ATOM     47  C   UNL     1     -49.678  30.958  21.950  1.00  0.00    -0.049 C 
ATOM     48  C   UNL     1     -50.317  31.355  23.943  1.00  0.00    -0.049 C 
ATOM     49  H   UNL     1     -48.521  32.389  23.154  1.00  0.00     0.032 H 
ATOM     50  C   UNL     1     -50.933  31.618  22.554  1.00  0.00    -0.053 C 
ATOM     51  H   UNL     1     -49.780  29.877  21.806  1.00  0.00     0.027 H 
ATOM     52  H   UNL     1     -49.307  31.407  21.025  1.00  0.00     0.027 H 
ATOM     53  H   UNL     1     -50.482  32.138  24.689  1.00  0.00     0.027 H 
ATOM     54  H   UNL     1     -50.601  30.388  24.373  1.00  0.00     0.027 H 
ATOM     55  H   UNL     1     -51.035  32.682  22.311  1.00  0.00     0.027 H 
ATOM     56  H   UNL     1     -51.882  31.114  22.352  1.00  0.00     0.027 H 
ENDBRANCH  43  46
ENDBRANCH  41  43
ENDBRANCH  38  41
ENDBRANCH   6  38
TORSDOF 7
ENDMDL
MODEL 4
REMARK VINA RESULT:     -10.1      2.016      3.166
REMARK SMILES c1cc2cc(-c3cn(Cc4ccc5cc(CNCC6CCC6)[nH]c5c4)nn3)cnc2[nH]1
REMARK SMILES IDX 10 1 11 2 12 3 13 4 14 5 15 6 23 7 24 8 25 9 9 15 8 18 6 19
REMARK SMILES IDX 7 20 27 21 26 23 5 24 1 25 2 26 31 27 3 29 30 31 4 33 29 34
REMARK SMILES IDX 28 36 16 38 17 41 18 43 19 46 20 47 22 48 21 50
REMARK H PARENT 11 10 12 11 14 12 23 13 25 14 9 16 9 17 7 22 1 28 2 30 31 32
REMARK H PARENT 4 35 28 37 16 39 16 40 17 42 18 44 18 45 19 49 20 51 20 52
REMARK H PARENT 22 53 22 54 21 55 21 56
REMARK Flexibility Score: inf
ROOT
ATOM      1  C   UNL     1     -46.705  35.658  28.101  1.00  0.00    -0.024 A 
ATOM      2  C   UNL     1     -48.071  35.648  27.783  1.00  0.00    -0.056 A 
ATOM      3  C   UNL     1     -48.581  34.788  26.803  1.00  0.00    -0.052 A 
ATOM      4  C   UNL     1     -47.707  33.919  26.124  1.00  0.00    -0.000 A 
ATOM      5  C   UNL     1     -47.878  32.939  25.106  1.00  0.00    -0.032 A 
ATOM      6  C   UNL     1     -46.642  32.389  24.831  1.00  0.00     0.030 A 
ATOM      7  N   UNL     1     -45.730  33.013  25.650  1.00  0.00    -0.357 N 
ATOM      8  C   UNL     1     -46.352  33.945  26.447  1.00  0.00     0.046 A 
ATOM      9  C   UNL     1     -45.822  34.798  27.422  1.00  0.00    -0.033 A 
ATOM     10  H   UNL     1     -48.763  36.313  28.297  1.00  0.00     0.063 H 
ATOM     11  H   UNL     1     -49.642  34.790  26.569  1.00  0.00     0.063 H 
ATOM     12  H   UNL     1     -48.810  32.667  24.628  1.00  0.00     0.065 H 
ATOM     13  H   UNL     1     -44.746  32.780  25.674  1.00  0.00     0.166 HD
ATOM     14  H   UNL     1     -44.758  34.787  27.649  1.00  0.00     0.065 H 
ENDROOT
BRANCH   1  15
ATOM     15  C   UNL     1     -46.178  36.593  29.163  1.00  0.00     0.068 C 
ATOM     16  H   UNL     1     -45.221  36.246  29.568  1.00  0.00     0.057 H 
ATOM     17  H   UNL     1     -46.889  36.655  29.995  1.00  0.00     0.057 H 
BRANCH  15  18
ATOM     18  N   UNL     1     -45.950  37.929  28.643  1.00  0.00    -0.247 N 
ATOM     19  C   UNL     1     -45.125  39.756  27.833  1.00  0.00     0.114 A 
ATOM     20  C   UNL     1     -44.791  38.458  28.150  1.00  0.00     0.054 A 
ATOM     21  N   UNL     1     -46.442  39.967  28.157  1.00  0.00    -0.130 NA
ATOM     22  H   UNL     1     -43.884  37.879  28.068  1.00  0.00     0.086 H 
ATOM     23  N   UNL     1     -46.936  38.844  28.658  1.00  0.00    -0.066 NA
BRANCH  19  24
ATOM     24  C   UNL     1     -44.267  40.770  27.256  1.00  0.00     0.023 A 
ATOM     25  C   UNL     1     -42.407  43.918  24.487  1.00  0.00     0.003 A 
ATOM     26  C   UNL     1     -43.538  43.135  24.363  1.00  0.00    -0.035 A 
ATOM     27  N   UNL     1     -41.819  43.613  25.689  1.00  0.00    -0.346 N 
ATOM     28  H   UNL     1     -41.972  44.659  23.831  1.00  0.00     0.082 H 
ATOM     29  C   UNL     1     -43.636  42.330  25.529  1.00  0.00     0.019 A 
ATOM     30  H   UNL     1     -44.220  43.145  23.522  1.00  0.00     0.065 H 
ATOM     31  C   UNL     1     -42.549  42.654  26.333  1.00  0.00     0.137 A 
ATOM     32  H   UNL     1     -40.975  44.018  26.068  1.00  0.00     0.167 HD
ATOM     33  C   UNL     1     -44.528  41.353  26.007  1.00  0.00    -0.040 A 
ATOM     34  N   UNL     1     -42.238  42.139  27.536  1.00  0.00    -0.238 NA
ATOM     35  H   UNL     1     -45.390  41.077  25.410  1.00  0.00     0.064 H 
ATOM     36  C   UNL     1     -43.132  41.202  27.949  1.00  0.00     0.039 A 
ATOM     37  H   UNL     1     -42.891  40.780  28.924  1.00  0.00     0.085 H 
ENDBRANCH  19  24
ENDBRANCH  15  18
ENDBRANCH   1  15
BRANCH   6  38
ATOM     38  C   UNL     1     -46.225  31.341  23.859  1.00  0.00     0.036 C 
ATOM     39  H   UNL     1     -46.194  30.377  24.377  1.00  0.00     0.049 H 
ATOM     40  H   UNL     1     -45.216  31.566  23.497  1.00  0.00     0.049 H 
BRANCH  38  41
ATOM     41  N   UNL     1     -47.180  31.302  22.756  1.00  0.00    -0.311 NA
ATOM     42  H   UNL     1     -46.667  31.238  21.877  1.00  0.00     0.123 HD
BRANCH  41  43
ATOM     43  C   UNL     1     -48.131  30.194  22.860  1.00  0.00    -0.002 C 
ATOM     44  H   UNL     1     -49.152  30.578  22.978  1.00  0.00     0.043 H 
ATOM     45  H   UNL     1     -48.118  29.662  21.901  1.00  0.00     0.043 H 
BRANCH  43  46
ATOM     46  C   UNL     1     -47.796  29.226  23.988  1.00  0.00    -0.029 C 
ATOM     47  C   UNL     1     -48.821  29.178  25.154  1.00  0.00    -0.049 C 
ATOM     48  C   UNL     1     -48.120  27.723  23.765  1.00  0.00    -0.049 C 
ATOM     49  H   UNL     1     -46.776  29.378  24.372  1.00  0.00     0.032 H 
ATOM     50  C   UNL     1     -48.528  27.667  25.251  1.00  0.00    -0.053 C 
ATOM     51  H   UNL     1     -49.853  29.405  24.865  1.00  0.00     0.027 H 
ATOM     52  H   UNL     1     -48.562  29.766  26.038  1.00  0.00     0.027 H 
ATOM     53  H   UNL     1     -47.272  27.092  23.484  1.00  0.00     0.027 H 
ATOM     54  H   UNL     1     -48.950  27.533  23.075  1.00  0.00     0.027 H 
ATOM     55  H   UNL     1     -47.702  27.419  25.927  1.00  0.00     0.027 H 
ATOM     56  H   UNL     1     -49.384  27.029  25.486  1.00  0.00     0.027 H 
ENDBRANCH  43  46
ENDBRANCH  41  43
ENDBRANCH  38  41
ENDBRANCH   6  38
TORSDOF 7
ENDMDL
MODEL 5
REMARK VINA RESULT:      -9.8      2.041     11.739
REMARK SMILES c1cc2cc(-c3cn(Cc4ccc5cc(CNCC6CCC6)[nH]c5c4)nn3)cnc2[nH]1
REMARK SMILES IDX 10 1 11 2 12 3 13 4 14 5 15 6 23 7 24 8 25 9 9 15 8 18 6 19
REMARK SMILES IDX 7 20 27 21 26 23 5 24 1 25 2 26 31 27 3 29 30 31 4 33 29 34
REMARK SMILES IDX 28 36 16 38 17 41 18 43 19 46 20 47 22 48 21 50
REMARK H PARENT 11 10 12 11 14 12 23 13 25 14 9 16 9 17 7 22 1 28 2 30 31 32
REMARK H PARENT 4 35 28 37 16 39 16 40 17 42 18 44 18 45 19 49 20 51 20 52
REMARK H PARENT 22 53 22 54 21 55 21 56
REMARK Flexibility Score: inf
ROOT
ATOM      1  C   UNL     1     -47.277  36.631  27.725  1.00  0.00    -0.024 A 
ATOM      2  C   UNL     1     -46.685  36.244  28.936  1.00  0.00    -0.056 A 
ATOM      3  C   UNL     1     -45.636  36.982  29.498  1.00  0.00    -0.052 A 
ATOM      4  C   UNL     1     -45.167  38.131  28.836  1.00  0.00    -0.000 A 
ATOM      5  C   UNL     1     -44.154  39.091  29.114  1.00  0.00    -0.032 A 
ATOM      6  C   UNL     1     -44.149  40.016  28.090  1.00  0.00     0.030 A 
ATOM      7  N   UNL     1     -45.127  39.640  27.199  1.00  0.00    -0.357 N 
ATOM      8  C   UNL     1     -45.762  38.499  27.631  1.00  0.00     0.046 A 
ATOM      9  C   UNL     1     -46.810  37.774  27.051  1.00  0.00    -0.033 A 
ATOM     10  H   UNL     1     -47.033  35.358  29.463  1.00  0.00     0.063 H 
ATOM     11  H   UNL     1     -45.188  36.671  30.438  1.00  0.00     0.063 H 
ATOM     12  H   UNL     1     -43.498  39.100  29.975  1.00  0.00     0.065 H 
ATOM     13  H   UNL     1     -45.359  40.163  26.365  1.00  0.00     0.166 HD
ATOM     14  H   UNL     1     -47.252  38.095  26.110  1.00  0.00     0.065 H 
ENDROOT
BRANCH   1  15
ATOM     15  C   UNL     1     -48.408  35.820  27.139  1.00  0.00     0.068 C 
ATOM     16  H   UNL     1     -49.022  36.418  26.455  1.00  0.00     0.057 H 
ATOM     17  H   UNL     1     -49.062  35.454  27.939  1.00  0.00     0.057 H 
BRANCH  15  18
ATOM     18  N   UNL     1     -47.922  34.684  26.376  1.00  0.00    -0.247 N 
ATOM     19  C   UNL     1     -47.604  32.758  25.448  1.00  0.00     0.114 A 
ATOM     20  C   UNL     1     -48.489  33.450  26.245  1.00  0.00     0.054 A 
ATOM     21  N   UNL     1     -46.543  33.578  25.149  1.00  0.00    -0.130 NA
ATOM     22  H   UNL     1     -49.433  33.198  26.703  1.00  0.00     0.086 H 
ATOM     23  N   UNL     1     -46.745  34.753  25.727  1.00  0.00    -0.066 NA
BRANCH  19  24
ATOM     24  C   UNL     1     -47.720  31.392  24.980  1.00  0.00     0.023 A 
ATOM     25  C   UNL     1     -48.987  27.023  24.402  1.00  0.00     0.003 A 
ATOM     26  C   UNL     1     -49.426  28.001  25.272  1.00  0.00    -0.035 A 
ATOM     27  N   UNL     1     -47.999  27.570  23.623  1.00  0.00    -0.346 N 
ATOM     28  H   UNL     1     -49.289  25.993  24.269  1.00  0.00     0.082 H 
ATOM     29  C   UNL     1     -48.676  29.179  25.010  1.00  0.00     0.019 A 
ATOM     30  H   UNL     1     -50.203  27.879  26.015  1.00  0.00     0.065 H 
ATOM     31  C   UNL     1     -47.797  28.875  23.977  1.00  0.00     0.137 A 
ATOM     32  H   UNL     1     -47.481  27.106  22.891  1.00  0.00     0.167 HD
ATOM     33  C   UNL     1     -48.637  30.486  25.532  1.00  0.00    -0.040 A 
ATOM     34  N   UNL     1     -46.896  29.690  23.402  1.00  0.00    -0.238 NA
ATOM     35  H   UNL     1     -49.311  30.762  26.334  1.00  0.00     0.064 H 
ATOM     36  C   UNL     1     -46.902  30.938  23.942  1.00  0.00     0.039 A 
ATOM     37  H   UNL     1     -46.177  31.608  23.482  1.00  0.00     0.085 H 
ENDBRANCH  19  24
ENDBRANCH  15  18
ENDBRANCH   1  15
BRANCH   6  38
ATOM     38  C   UNL     1     -43.303  41.218  27.853  1.00  0.00     0.036 C 
ATOM     39  H   UNL     1     -42.555  40.974  27.090  1.00  0.00     0.049 H 
ATOM     40  H   UNL     1     -42.773  41.475  28.777  1.00  0.00     0.049 H 
BRANCH  38  41
ATOM     41  N   UNL     1     -44.149  42.321  27.411  1.00  0.00    -0.311 NA
ATOM     42  H   UNL     1     -44.927  42.423  28.063  1.00  0.00     0.123 HD
BRANCH  41  43
ATOM     43  C   UNL     1     -43.427  43.589  27.297  1.00  0.00    -0.002 C 
ATOM     44  H   UNL     1     -43.929  44.367  27.885  1.00  0.00     0.043 H 
ATOM     45  H   UNL     1     -42.444  43.448  27.761  1.00  0.00     0.043 H 
BRANCH  43  46
ATOM     46  C   UNL     1     -43.252  44.046  25.853  1.00  0.00    -0.029 C 
ATOM     47  C   UNL     1     -41.948  43.572  25.155  1.00  0.00    -0.049 C 
ATOM     48  C   UNL     1     -44.017  43.260  24.753  1.00  0.00    -0.049 C 
ATOM     49  H   UNL     1     -43.376  45.134  25.748  1.00  0.00     0.032 H 
ATOM     50  C   UNL     1     -42.775  43.448  23.859  1.00  0.00    -0.053 C 
ATOM     51  H   UNL     1     -41.559  42.614  25.517  1.00  0.00     0.027 H 
ATOM     52  H   UNL     1     -41.133  44.299  25.127  1.00  0.00     0.027 H 
ATOM     53  H   UNL     1     -44.937  43.726  24.389  1.00  0.00     0.027 H 
ATOM     54  H   UNL     1     -44.223  42.212  25.001  1.00  0.00     0.027 H 
ATOM     55  H   UNL     1     -42.798  44.366  23.260  1.00  0.00     0.027 H 
ATOM     56  H   UNL     1     -42.523  42.605  23.211  1.00  0.00     0.027 H 
ENDBRANCH  43  46
ENDBRANCH  41  43
ENDBRANCH  38  41
ENDBRANCH   6  38
TORSDOF 7
ENDMDL
MODEL 6
REMARK VINA RESULT:      -9.8      1.708      2.962
REMARK SMILES c1cc2cc(-c3cn(Cc4ccc5cc(CNCC6CCC6)[nH]c5c4)nn3)cnc2[nH]1
REMARK SMILES IDX 10 1 11 2 12 3 13 4 14 5 15 6 23 7 24 8 25 9 9 15 8 18 6 19
REMARK SMILES IDX 7 20 27 21 26 23 5 24 1 25 2 26 31 27 3 29 30 31 4 33 29 34
REMARK SMILES IDX 28 36 16 38 17 41 18 43 19 46 20 47 22 48 21 50
REMARK H PARENT 11 10 12 11 14 12 23 13 25 14 9 16 9 17 7 22 1 28 2 30 31 32
REMARK H PARENT 4 35 28 37 16 39 16 40 17 42 18 44 18 45 19 49 20 51 20 52
REMARK H PARENT 22 53 22 54 21 55 21 56
REMARK Flexibility Score: inf
ROOT
ATOM      1  C   UNL     1     -48.028  34.508  26.515  1.00  0.00    -0.024 A 
ATOM      2  C   UNL     1     -46.747  34.581  25.949  1.00  0.00    -0.056 A 
ATOM      3  C   UNL     1     -46.259  33.559  25.125  1.00  0.00    -0.052 A 
ATOM      4  C   UNL     1     -47.069  32.440  24.860  1.00  0.00    -0.000 A 
ATOM      5  C   UNL     1     -46.901  31.257  24.086  1.00  0.00    -0.032 A 
ATOM      6  C   UNL     1     -48.054  30.507  24.198  1.00  0.00     0.030 A 
ATOM      7  N   UNL     1     -48.911  31.200  25.020  1.00  0.00    -0.357 N 
ATOM      8  C   UNL     1     -48.337  32.380  25.434  1.00  0.00     0.046 A 
ATOM      9  C   UNL     1     -48.842  33.389  26.262  1.00  0.00    -0.033 A 
ATOM     10  H   UNL     1     -46.105  35.439  26.143  1.00  0.00     0.063 H 
ATOM     11  H   UNL     1     -45.265  33.631  24.692  1.00  0.00     0.063 H 
ATOM     12  H   UNL     1     -46.026  30.987  23.510  1.00  0.00     0.065 H 
ATOM     13  H   UNL     1     -49.845  30.888  25.249  1.00  0.00     0.166 HD
ATOM     14  H   UNL     1     -49.839  33.308  26.690  1.00  0.00     0.065 H 
ENDROOT
BRANCH   1  15
ATOM     15  C   UNL     1     -48.533  35.622  27.400  1.00  0.00     0.068 C 
ATOM     16  H   UNL     1     -49.221  35.249  28.167  1.00  0.00     0.057 H 
ATOM     17  H   UNL     1     -49.075  36.362  26.799  1.00  0.00     0.057 H 
BRANCH  15  18
ATOM     18  N   UNL     1     -47.451  36.291  28.100  1.00  0.00    -0.247 N 
ATOM     19  C   UNL     1     -45.834  37.583  28.724  1.00  0.00     0.114 A 
ATOM     20  C   UNL     1     -46.763  37.408  27.722  1.00  0.00     0.054 A 
ATOM     21  N   UNL     1     -45.979  36.574  29.644  1.00  0.00    -0.130 NA
ATOM     22  H   UNL     1     -46.999  37.951  26.820  1.00  0.00     0.086 H 
ATOM     23  N   UNL     1     -46.967  35.784  29.249  1.00  0.00    -0.066 NA
BRANCH  19  24
ATOM     24  C   UNL     1     -44.846  38.636  28.835  1.00  0.00     0.023 A 
ATOM     25  C   UNL     1     -42.185  42.286  28.046  1.00  0.00     0.003 A 
ATOM     26  C   UNL     1     -43.188  41.700  27.300  1.00  0.00    -0.035 A 
ATOM     27  N   UNL     1     -42.051  41.565  29.205  1.00  0.00    -0.346 N 
ATOM     28  H   UNL     1     -41.560  43.148  27.856  1.00  0.00     0.082 H 
ATOM     29  C   UNL     1     -43.675  40.585  28.034  1.00  0.00     0.019 A 
ATOM     30  H   UNL     1     -43.531  42.039  26.331  1.00  0.00     0.065 H 
ATOM     31  C   UNL     1     -42.945  40.531  29.215  1.00  0.00     0.137 A 
ATOM     32  H   UNL     1     -41.400  41.745  29.956  1.00  0.00     0.167 HD
ATOM     33  C   UNL     1     -44.662  39.602  27.835  1.00  0.00    -0.040 A 
ATOM     34  N   UNL     1     -43.067  39.638  30.213  1.00  0.00    -0.238 NA
ATOM     35  H   UNL     1     -45.255  39.614  26.928  1.00  0.00     0.064 H 
ATOM     36  C   UNL     1     -44.034  38.714  29.971  1.00  0.00     0.039 A 
ATOM     37  H   UNL     1     -44.143  37.986  30.774  1.00  0.00     0.085 H 
ENDBRANCH  19  24
ENDBRANCH  15  18
ENDBRANCH   1  15
BRANCH   6  38
ATOM     38  C   UNL     1     -48.430  29.187  23.620  1.00  0.00     0.036 C 
ATOM     39  H   UNL     1     -47.913  28.400  24.181  1.00  0.00     0.049 H 
ATOM     40  H   UNL     1     -48.092  29.140  22.579  1.00  0.00     0.049 H 
BRANCH  38  41
ATOM     41  N   UNL     1     -49.876  29.018  23.709  1.00  0.00    -0.311 NA
ATOM     42  H   UNL     1     -50.236  29.639  24.434  1.00  0.00     0.123 HD
BRANCH  41  43
ATOM     43  C   UNL     1     -50.564  29.280  22.444  1.00  0.00    -0.002 C 
ATOM     44  H   UNL     1     -50.829  28.335  21.953  1.00  0.00     0.043 H 
ATOM     45  H   UNL     1     -51.514  29.772  22.684  1.00  0.00     0.043 H 
BRANCH  43  46
ATOM     46  C   UNL     1     -49.755  30.160  21.498  1.00  0.00    -0.029 C 
ATOM     47  C   UNL     1     -49.237  29.459  20.212  1.00  0.00    -0.049 C 
ATOM     48  C   UNL     1     -50.540  31.109  20.552  1.00  0.00    -0.049 C 
ATOM     49  H   UNL     1     -48.935  30.677  22.017  1.00  0.00     0.032 H 
ATOM     50  C   UNL     1     -49.482  30.792  19.476  1.00  0.00    -0.053 C 
ATOM     51  H   UNL     1     -49.868  28.639  19.852  1.00  0.00     0.027 H 
ATOM     52  H   UNL     1     -48.197  29.121  20.242  1.00  0.00     0.027 H 
ATOM     53  H   UNL     1     -50.594  32.155  20.868  1.00  0.00     0.027 H 
ATOM     54  H   UNL     1     -51.547  30.763  20.292  1.00  0.00     0.027 H 
ATOM     55  H   UNL     1     -48.621  31.470  19.490  1.00  0.00     0.027 H 
ATOM     56  H   UNL     1     -49.855  30.709  18.452  1.00  0.00     0.027 H 
ENDBRANCH  43  46
ENDBRANCH  41  43
ENDBRANCH  38  41
ENDBRANCH   6  38
TORSDOF 7
ENDMDL
MODEL 7
REMARK VINA RESULT:      -9.7      2.611     11.533
REMARK SMILES c1cc2cc(-c3cn(Cc4ccc5cc(CNCC6CCC6)[nH]c5c4)nn3)cnc2[nH]1
REMARK SMILES IDX 10 1 11 2 12 3 13 4 14 5 15 6 23 7 24 8 25 9 9 15 8 18 6 19
REMARK SMILES IDX 7 20 27 21 26 23 5 24 1 25 2 26 31 27 3 29 30 31 4 33 29 34
REMARK SMILES IDX 28 36 16 38 17 41 18 43 19 46 20 47 22 48 21 50
REMARK H PARENT 11 10 12 11 14 12 23 13 25 14 9 16 9 17 7 22 1 28 2 30 31 32
REMARK H PARENT 4 35 28 37 16 39 16 40 17 42 18 44 18 45 19 49 20 51 20 52
REMARK H PARENT 22 53 22 54 21 55 21 56
REMARK Flexibility Score: inf
ROOT
ATOM      1  C   UNL     1     -46.748  37.582  28.212  1.00  0.00    -0.024 A 
ATOM      2  C   UNL     1     -47.110  38.193  27.003  1.00  0.00    -0.056 A 
ATOM      3  C   UNL     1     -46.389  39.282  26.497  1.00  0.00    -0.052 A 
ATOM      4  C   UNL     1     -45.284  39.773  27.215  1.00  0.00    -0.000 A 
ATOM      5  C   UNL     1     -44.352  40.827  27.000  1.00  0.00    -0.032 A 
ATOM      6  C   UNL     1     -43.467  40.837  28.060  1.00  0.00     0.030 A 
ATOM      7  N   UNL     1     -43.841  39.822  28.910  1.00  0.00    -0.357 N 
ATOM      8  C   UNL     1     -44.941  39.159  28.418  1.00  0.00     0.046 A 
ATOM      9  C   UNL     1     -45.648  38.071  28.942  1.00  0.00    -0.033 A 
ATOM     10  H   UNL     1     -47.962  37.828  26.434  1.00  0.00     0.063 H 
ATOM     11  H   UNL     1     -46.681  39.744  25.558  1.00  0.00     0.063 H 
ATOM     12  H   UNL     1     -44.335  41.505  26.157  1.00  0.00     0.065 H 
ATOM     13  H   UNL     1     -43.341  39.587  29.757  1.00  0.00     0.166 HD
ATOM     14  H   UNL     1     -45.348  37.616  29.884  1.00  0.00     0.065 H 
ENDROOT
BRANCH   1  15
ATOM     15  C   UNL     1     -47.538  36.408  28.738  1.00  0.00     0.068 C 
ATOM     16  H   UNL     1     -48.618  36.575  28.651  1.00  0.00     0.057 H 
ATOM     17  H   UNL     1     -47.311  36.247  29.798  1.00  0.00     0.057 H 
BRANCH  15  18
ATOM     18  N   UNL     1     -47.246  35.188  28.007  1.00  0.00    -0.247 N 
ATOM     19  C   UNL     1     -47.203  33.526  26.625  1.00  0.00     0.114 A 
ATOM     20  C   UNL     1     -47.826  34.732  26.858  1.00  0.00     0.054 A 
ATOM     21  N   UNL     1     -46.300  33.291  27.633  1.00  0.00    -0.130 NA
ATOM     22  H   UNL     1     -48.585  35.293  26.335  1.00  0.00     0.086 H 
ATOM     23  N   UNL     1     -46.339  34.312  28.477  1.00  0.00    -0.066 NA
BRANCH  19  24
ATOM     24  C   UNL     1     -47.427  32.617  25.520  1.00  0.00     0.023 A 
ATOM     25  C   UNL     1     -49.350  29.864  22.397  1.00  0.00     0.003 A 
ATOM     26  C   UNL     1     -49.892  30.607  23.427  1.00  0.00    -0.035 A 
ATOM     27  N   UNL     1     -47.993  30.063  22.408  1.00  0.00    -0.346 N 
ATOM     28  H   UNL     1     -49.808  29.216  21.662  1.00  0.00     0.082 H 
ATOM     29  C   UNL     1     -48.824  31.278  24.083  1.00  0.00     0.019 A 
ATOM     30  H   UNL     1     -50.943  30.662  23.677  1.00  0.00     0.065 H 
ATOM     31  C   UNL     1     -47.656  30.916  23.421  1.00  0.00     0.137 A 
ATOM     32  H   UNL     1     -47.318  29.656  21.776  1.00  0.00     0.167 HD
ATOM     33  C   UNL     1     -48.707  32.161  25.172  1.00  0.00    -0.040 A 
ATOM     34  N   UNL     1     -46.402  31.313  23.699  1.00  0.00    -0.238 NA
ATOM     35  H   UNL     1     -49.596  32.469  25.709  1.00  0.00     0.064 H 
ATOM     36  C   UNL     1     -46.347  32.165  24.757  1.00  0.00     0.039 A 
ATOM     37  H   UNL     1     -45.335  32.495  24.989  1.00  0.00     0.085 H 
ENDBRANCH  19  24
ENDBRANCH  15  18
ENDBRANCH   1  15
BRANCH   6  38
ATOM     38  C   UNL     1     -42.306  41.719  28.365  1.00  0.00     0.036 C 
ATOM     39  H   UNL     1     -41.384  41.169  28.148  1.00  0.00     0.049 H 
ATOM     40  H   UNL     1     -42.312  41.966  29.432  1.00  0.00     0.049 H 
BRANCH  38  41
ATOM     41  N   UNL     1     -42.391  42.924  27.547  1.00  0.00    -0.311 NA
ATOM     42  H   UNL     1     -41.877  43.674  28.010  1.00  0.00     0.123 HD
BRANCH  41  43
ATOM     43  C   UNL     1     -41.878  42.733  26.189  1.00  0.00    -0.002 C 
ATOM     44  H   UNL     1     -40.791  42.583  26.211  1.00  0.00     0.043 H 
ATOM     45  H   UNL     1     -42.304  41.798  25.807  1.00  0.00     0.043 H 
BRANCH  43  46
ATOM     46  C   UNL     1     -42.235  43.881  25.252  1.00  0.00    -0.029 C 
ATOM     47  C   UNL     1     -42.420  43.492  23.759  1.00  0.00    -0.049 C 
ATOM     48  C   UNL     1     -43.717  44.346  25.218  1.00  0.00    -0.049 C 
ATOM     49  H   UNL     1     -41.537  44.725  25.351  1.00  0.00     0.032 H 
ATOM     50  C   UNL     1     -43.541  44.550  23.700  1.00  0.00    -0.053 C 
ATOM     51  H   UNL     1     -42.777  42.469  23.594  1.00  0.00     0.027 H 
ATOM     52  H   UNL     1     -41.561  43.678  23.110  1.00  0.00     0.027 H 
ATOM     53  H   UNL     1     -43.944  45.248  25.793  1.00  0.00     0.027 H 
ATOM     54  H   UNL     1     -44.445  43.568  25.474  1.00  0.00     0.027 H 
ATOM     55  H   UNL     1     -43.190  45.552  23.427  1.00  0.00     0.027 H 
ATOM     56  H   UNL     1     -44.406  44.294  23.082  1.00  0.00     0.027 H 
ENDBRANCH  43  46
ENDBRANCH  41  43
ENDBRANCH  38  41
ENDBRANCH   6  38
TORSDOF 7
ENDMDL
