MODEL 1
REMARK VINA RESULT:      -9.9      0.000      0.000
REMARK SMILES N#Cc1ncc(F)cc1-c1cn(Cc2ccc3cc(CNCC4CCC4)[nH]c3c2)nn1
REMARK SMILES IDX 14 1 15 2 16 3 17 4 18 5 19 6 27 7 28 8 29 9 13 15 12 18
REMARK SMILES IDX 10 19 11 20 31 21 30 23 9 24 3 25 4 26 5 27 8 28 6 29 7 32
REMARK SMILES IDX 2 33 1 34 20 35 21 38 22 40 23 43 24 44 26 45 25 47
REMARK H PARENT 15 10 16 11 18 12 27 13 29 14 13 16 13 17 11 22 5 30 8 31
REMARK H PARENT 20 36 20 37 21 39 22 41 22 42 23 46 24 48 24 49 26 50 26 51
REMARK H PARENT 25 52 25 53
REMARK Flexibility Score: inf
ROOT
ATOM      1  C   UNL     1     -46.567  35.601  28.041  1.00  0.00    -0.024 A 
ATOM      2  C   UNL     1     -47.946  35.613  27.789  1.00  0.00    -0.056 A 
ATOM      3  C   UNL     1     -48.510  34.785  26.810  1.00  0.00    -0.052 A 
ATOM      4  C   UNL     1     -47.679  33.929  26.067  1.00  0.00    -0.000 A 
ATOM      5  C   UNL     1     -47.906  32.986  25.029  1.00  0.00    -0.032 A 
ATOM      6  C   UNL     1     -46.690  32.428  24.679  1.00  0.00     0.030 A 
ATOM      7  N   UNL     1     -45.736  33.015  25.475  1.00  0.00    -0.357 N 
ATOM      8  C   UNL     1     -46.311  33.928  26.329  1.00  0.00     0.046 A 
ATOM      9  C   UNL     1     -45.727  34.745  27.304  1.00  0.00    -0.033 A 
ATOM     10  H   UNL     1     -48.606  36.270  28.353  1.00  0.00     0.063 H 
ATOM     11  H   UNL     1     -49.581  34.805  26.626  1.00  0.00     0.063 H 
ATOM     12  H   UNL     1     -48.857  32.726  24.584  1.00  0.00     0.065 H 
ATOM     13  H   UNL     1     -44.748  32.806  25.449  1.00  0.00     0.166 HD
ATOM     14  H   UNL     1     -44.655  34.722  27.480  1.00  0.00     0.065 H 
ENDROOT
BRANCH   1  15
ATOM     15  C   UNL     1     -45.978  36.506  29.095  1.00  0.00     0.068 C 
ATOM     16  H   UNL     1     -44.992  36.141  29.405  1.00  0.00     0.057 H 
ATOM     17  H   UNL     1     -46.609  36.550  29.990  1.00  0.00     0.057 H 
BRANCH  15  18
ATOM     18  N   UNL     1     -45.836  37.866  28.607  1.00  0.00    -0.247 N 
ATOM     19  C   UNL     1     -45.164  39.713  27.710  1.00  0.00     0.116 A 
ATOM     20  C   UNL     1     -44.744  38.440  28.018  1.00  0.00     0.054 A 
ATOM     21  N   UNL     1     -46.458  39.874  28.135  1.00  0.00    -0.130 NA
ATOM     22  H   UNL     1     -43.814  37.904  27.899  1.00  0.00     0.086 H 
ATOM     23  N   UNL     1     -46.866  38.731  28.669  1.00  0.00    -0.066 NA
BRANCH  19  24
ATOM     24  C   UNL     1     -44.399  40.777  27.094  1.00  0.00     0.043 A 
ATOM     25  C   UNL     1     -43.274  41.381  27.668  1.00  0.00     0.150 A 
ATOM     26  N   UNL     1     -42.569  42.386  27.070  1.00  0.00    -0.242 NA
ATOM     27  C   UNL     1     -42.992  42.793  25.850  1.00  0.00     0.064 A 
ATOM     28  C   UNL     1     -44.790  41.228  25.823  1.00  0.00    -0.012 A 
ATOM     29  C   UNL     1     -44.081  42.245  25.202  1.00  0.00     0.142 A 
ATOM     30  H   UNL     1     -42.417  43.592  25.391  1.00  0.00     0.087 H 
ATOM     31  H   UNL     1     -45.647  40.794  25.313  1.00  0.00     0.066 H 
ATOM     32  F   UNL     1     -44.449  42.687  23.995  1.00  0.00    -0.205 F 
BRANCH  25  33
ATOM     33  C   UNL     1     -42.734  40.974  28.939  1.00  0.00     0.120 C 
ATOM     34  N   UNL     1     -42.331  40.639  29.977  1.00  0.00    -0.191 NA
ENDBRANCH  25  33
ENDBRANCH  19  24
ENDBRANCH  15  18
ENDBRANCH   1  15
BRANCH   6  35
ATOM     35  C   UNL     1     -46.346  31.402  23.657  1.00  0.00     0.036 C 
ATOM     36  H   UNL     1     -45.349  31.568  23.236  1.00  0.00     0.049 H 
ATOM     37  H   UNL     1     -47.045  31.520  22.821  1.00  0.00     0.049 H 
BRANCH  35  38
ATOM     38  N   UNL     1     -46.488  30.045  24.170  1.00  0.00    -0.311 NA
ATOM     39  H   UNL     1     -46.395  30.053  25.183  1.00  0.00     0.123 HD
BRANCH  38  40
ATOM     40  C   UNL     1     -47.722  29.353  23.793  1.00  0.00    -0.002 C 
ATOM     41  H   UNL     1     -48.596  29.772  24.306  1.00  0.00     0.043 H 
ATOM     42  H   UNL     1     -47.880  29.565  22.729  1.00  0.00     0.043 H 
BRANCH  40  43
ATOM     43  C   UNL     1     -47.642  27.842  23.973  1.00  0.00    -0.029 C 
ATOM     44  C   UNL     1     -48.093  27.337  25.373  1.00  0.00    -0.049 C 
ATOM     45  C   UNL     1     -46.263  27.199  24.300  1.00  0.00    -0.049 C 
ATOM     46  H   UNL     1     -48.174  27.307  23.173  1.00  0.00     0.032 H 
ATOM     47  C   UNL     1     -47.013  26.245  25.251  1.00  0.00    -0.053 C 
ATOM     48  H   UNL     1     -49.123  26.978  25.438  1.00  0.00     0.027 H 
ATOM     49  H   UNL     1     -47.911  28.041  26.193  1.00  0.00     0.027 H 
ATOM     50  H   UNL     1     -45.751  26.714  23.464  1.00  0.00     0.027 H 
ATOM     51  H   UNL     1     -45.560  27.863  24.815  1.00  0.00     0.027 H 
ATOM     52  H   UNL     1     -46.491  25.986  26.174  1.00  0.00     0.027 H 
ATOM     53  H   UNL     1     -47.367  25.327  24.768  1.00  0.00     0.027 H 
ENDBRANCH  40  43
ENDBRANCH  38  40
ENDBRANCH  35  38
ENDBRANCH   6  35
TORSDOF 8
ENDMDL
MODEL 2
REMARK VINA RESULT:      -9.4      1.595      2.117
REMARK SMILES N#Cc1ncc(F)cc1-c1cn(Cc2ccc3cc(CNCC4CCC4)[nH]c3c2)nn1
REMARK SMILES IDX 14 1 15 2 16 3 17 4 18 5 19 6 27 7 28 8 29 9 13 15 12 18
REMARK SMILES IDX 10 19 11 20 31 21 30 23 9 24 3 25 4 26 5 27 8 28 6 29 7 32
REMARK SMILES IDX 2 33 1 34 20 35 21 38 22 40 23 43 24 44 26 45 25 47
REMARK H PARENT 15 10 16 11 18 12 27 13 29 14 13 16 13 17 11 22 5 30 8 31
REMARK H PARENT 20 36 20 37 21 39 22 41 22 42 23 46 24 48 24 49 26 50 26 51
REMARK H PARENT 25 52 25 53
REMARK Flexibility Score: inf
ROOT
ATOM      1  C   UNL     1     -46.242  36.968  28.278  1.00  0.00    -0.024 A 
ATOM      2  C   UNL     1     -47.642  36.998  28.239  1.00  0.00    -0.056 A 
ATOM      3  C   UNL     1     -48.368  36.025  27.539  1.00  0.00    -0.052 A 
ATOM      4  C   UNL     1     -47.679  35.004  26.862  1.00  0.00    -0.000 A 
ATOM      5  C   UNL     1     -48.083  33.891  26.077  1.00  0.00    -0.032 A 
ATOM      6  C   UNL     1     -46.947  33.219  25.664  1.00  0.00     0.030 A 
ATOM      7  N   UNL     1     -45.869  33.901  26.176  1.00  0.00    -0.357 N 
ATOM      8  C   UNL     1     -46.287  34.988  26.911  1.00  0.00     0.046 A 
ATOM      9  C   UNL     1     -45.543  35.947  27.606  1.00  0.00    -0.033 A 
ATOM     10  H   UNL     1     -48.194  37.782  28.755  1.00  0.00     0.063 H 
ATOM     11  H   UNL     1     -49.453  36.061  27.518  1.00  0.00     0.063 H 
ATOM     12  H   UNL     1     -49.097  33.597  25.841  1.00  0.00     0.065 H 
ATOM     13  H   UNL     1     -44.902  33.644  26.043  1.00  0.00     0.166 HD
ATOM     14  H   UNL     1     -44.457  35.907  27.620  1.00  0.00     0.065 H 
ENDROOT
BRANCH   1  15
ATOM     15  C   UNL     1     -45.478  38.030  29.031  1.00  0.00     0.068 C 
ATOM     16  H   UNL     1     -44.476  37.669  29.289  1.00  0.00     0.057 H 
ATOM     17  H   UNL     1     -45.980  38.302  29.967  1.00  0.00     0.057 H 
BRANCH  15  18
ATOM     18  N   UNL     1     -45.348  39.246  28.250  1.00  0.00    -0.247 N 
ATOM     19  C   UNL     1     -44.678  40.863  26.983  1.00  0.00     0.116 A 
ATOM     20  C   UNL     1     -44.240  39.713  27.599  1.00  0.00     0.054 A 
ATOM     21  N   UNL     1     -45.999  41.064  27.295  1.00  0.00    -0.130 NA
ATOM     22  H   UNL     1     -43.289  39.203  27.652  1.00  0.00     0.086 H 
ATOM     23  N   UNL     1     -46.404  40.058  28.059  1.00  0.00    -0.066 NA
BRANCH  19  24
ATOM     24  C   UNL     1     -43.910  41.788  26.175  1.00  0.00     0.043 A 
ATOM     25  C   UNL     1     -42.673  42.327  26.547  1.00  0.00     0.150 A 
ATOM     26  N   UNL     1     -41.966  43.200  25.770  1.00  0.00    -0.242 NA
ATOM     27  C   UNL     1     -42.505  43.536  24.575  1.00  0.00     0.064 A 
ATOM     28  C   UNL     1     -44.421  42.159  24.922  1.00  0.00    -0.012 A 
ATOM     29  C   UNL     1     -43.712  43.041  24.121  1.00  0.00     0.142 A 
ATOM     30  H   UNL     1     -41.928  44.230  23.973  1.00  0.00     0.087 H 
ATOM     31  H   UNL     1     -45.370  41.768  24.564  1.00  0.00     0.066 H 
ATOM     32  F   UNL     1     -44.193  43.408  22.928  1.00  0.00    -0.205 F 
BRANCH  25  33
ATOM     33  C   UNL     1     -42.010  41.984  27.778  1.00  0.00     0.120 C 
ATOM     34  N   UNL     1     -41.482  41.671  28.766  1.00  0.00    -0.191 NA
ENDBRANCH  25  33
ENDBRANCH  19  24
ENDBRANCH  15  18
ENDBRANCH   1  15
BRANCH   6  35
ATOM     35  C   UNL     1     -46.786  32.000  24.825  1.00  0.00     0.036 C 
ATOM     36  H   UNL     1     -47.750  31.536  24.596  1.00  0.00     0.049 H 
ATOM     37  H   UNL     1     -46.235  31.260  25.418  1.00  0.00     0.049 H 
BRANCH  35  38
ATOM     38  N   UNL     1     -46.019  32.263  23.614  1.00  0.00    -0.311 NA
ATOM     39  H   UNL     1     -45.038  32.383  23.853  1.00  0.00     0.123 HD
BRANCH  38  40
ATOM     40  C   UNL     1     -46.149  31.262  22.553  1.00  0.00    -0.002 C 
ATOM     41  H   UNL     1     -45.808  31.649  21.585  1.00  0.00     0.043 H 
ATOM     42  H   UNL     1     -45.453  30.454  22.806  1.00  0.00     0.043 H 
BRANCH  40  43
ATOM     43  C   UNL     1     -47.551  30.672  22.455  1.00  0.00    -0.029 C 
ATOM     44  C   UNL     1     -47.600  29.119  22.525  1.00  0.00    -0.049 C 
ATOM     45  C   UNL     1     -48.206  30.526  21.051  1.00  0.00    -0.049 C 
ATOM     46  H   UNL     1     -48.235  31.120  23.191  1.00  0.00     0.032 H 
ATOM     47  C   UNL     1     -48.780  29.181  21.537  1.00  0.00    -0.053 C 
ATOM     48  H   UNL     1     -47.827  28.696  23.507  1.00  0.00     0.027 H 
ATOM     49  H   UNL     1     -46.715  28.615  22.117  1.00  0.00     0.027 H 
ATOM     50  H   UNL     1     -48.951  31.283  20.790  1.00  0.00     0.027 H 
ATOM     51  H   UNL     1     -47.494  30.422  20.224  1.00  0.00     0.027 H 
ATOM     52  H   UNL     1     -48.820  28.383  20.792  1.00  0.00     0.027 H 
ATOM     53  H   UNL     1     -49.759  29.268  22.023  1.00  0.00     0.027 H 
ENDBRANCH  40  43
ENDBRANCH  38  40
ENDBRANCH  35  38
ENDBRANCH   6  35
TORSDOF 8
ENDMDL
MODEL 3
REMARK VINA RESULT:      -9.4      2.087      3.066
REMARK SMILES N#Cc1ncc(F)cc1-c1cn(Cc2ccc3cc(CNCC4CCC4)[nH]c3c2)nn1
REMARK SMILES IDX 14 1 15 2 16 3 17 4 18 5 19 6 27 7 28 8 29 9 13 15 12 18
REMARK SMILES IDX 10 19 11 20 31 21 30 23 9 24 3 25 4 26 5 27 8 28 6 29 7 32
REMARK SMILES IDX 2 33 1 34 20 35 21 38 22 40 23 43 24 44 26 45 25 47
REMARK H PARENT 15 10 16 11 18 12 27 13 29 14 13 16 13 17 11 22 5 30 8 31
REMARK H PARENT 20 36 20 37 21 39 22 41 22 42 23 46 24 48 24 49 26 50 26 51
REMARK H PARENT 25 52 25 53
REMARK Flexibility Score: inf
ROOT
ATOM      1  C   UNL     1     -48.051  35.080  26.634  1.00  0.00    -0.024 A 
ATOM      2  C   UNL     1     -46.788  35.078  26.026  1.00  0.00    -0.056 A 
ATOM      3  C   UNL     1     -46.322  33.954  25.331  1.00  0.00    -0.052 A 
ATOM      4  C   UNL     1     -47.133  32.810  25.244  1.00  0.00    -0.000 A 
ATOM      5  C   UNL     1     -46.981  31.533  24.639  1.00  0.00    -0.032 A 
ATOM      6  C   UNL     1     -48.129  30.801  24.882  1.00  0.00     0.030 A 
ATOM      7  N   UNL     1     -48.965  31.601  25.623  1.00  0.00    -0.357 N 
ATOM      8  C   UNL     1     -48.385  32.828  25.854  1.00  0.00     0.046 A 
ATOM      9  C   UNL     1     -48.872  33.940  26.551  1.00  0.00    -0.033 A 
ATOM     10  H   UNL     1     -46.145  35.954  26.082  1.00  0.00     0.063 H 
ATOM     11  H   UNL     1     -45.341  33.968  24.863  1.00  0.00     0.063 H 
ATOM     12  H   UNL     1     -46.129  31.181  24.073  1.00  0.00     0.065 H 
ATOM     13  H   UNL     1     -49.883  31.336  25.951  1.00  0.00     0.166 HD
ATOM     14  H   UNL     1     -49.853  33.918  27.018  1.00  0.00     0.065 H 
ENDROOT
BRANCH   1  15
ATOM     15  C   UNL     1     -48.531  36.298  27.385  1.00  0.00     0.068 C 
ATOM     16  H   UNL     1     -49.245  36.009  28.164  1.00  0.00     0.057 H 
ATOM     17  H   UNL     1     -49.038  37.008  26.722  1.00  0.00     0.057 H 
BRANCH  15  18
ATOM     18  N   UNL     1     -47.429  37.009  28.006  1.00  0.00    -0.247 N 
ATOM     19  C   UNL     1     -45.835  38.377  28.513  1.00  0.00     0.116 A 
ATOM     20  C   UNL     1     -46.720  38.066  27.506  1.00  0.00     0.054 A 
ATOM     21  N   UNL     1     -46.015  37.503  29.554  1.00  0.00    -0.130 NA
ATOM     22  H   UNL     1     -46.906  38.460  26.518  1.00  0.00     0.086 H 
ATOM     23  N   UNL     1     -47.005  36.678  29.240  1.00  0.00    -0.066 NA
BRANCH  19  24
ATOM     24  C   UNL     1     -44.816  39.406  28.515  1.00  0.00     0.043 A 
ATOM     25  C   UNL     1     -44.827  40.534  27.685  1.00  0.00     0.150 A 
ATOM     26  N   UNL     1     -43.853  41.492  27.701  1.00  0.00    -0.242 NA
ATOM     27  C   UNL     1     -42.841  41.326  28.586  1.00  0.00     0.064 A 
ATOM     28  C   UNL     1     -43.752  39.286  29.421  1.00  0.00    -0.012 A 
ATOM     29  C   UNL     1     -42.758  40.254  29.452  1.00  0.00     0.142 A 
ATOM     30  H   UNL     1     -42.078  42.098  28.584  1.00  0.00     0.087 H 
ATOM     31  H   UNL     1     -43.687  38.443  30.104  1.00  0.00     0.066 H 
ATOM     32  F   UNL     1     -41.735  40.145  30.306  1.00  0.00    -0.205 F 
BRANCH  25  33
ATOM     33  C   UNL     1     -45.889  40.808  26.753  1.00  0.00     0.120 C 
ATOM     34  N   UNL     1     -46.769  41.035  26.029  1.00  0.00    -0.191 NA
ENDBRANCH  25  33
ENDBRANCH  19  24
ENDBRANCH  15  18
ENDBRANCH   1  15
BRANCH   6  35
ATOM     35  C   UNL     1     -48.502  29.415  24.489  1.00  0.00     0.036 C 
ATOM     36  H   UNL     1     -49.471  29.386  23.980  1.00  0.00     0.049 H 
ATOM     37  H   UNL     1     -48.634  28.834  25.410  1.00  0.00     0.049 H 
BRANCH  35  38
ATOM     38  N   UNL     1     -47.464  28.769  23.697  1.00  0.00    -0.311 NA
ATOM     39  H   UNL     1     -46.596  29.292  23.782  1.00  0.00     0.123 HD
BRANCH  38  40
ATOM     40  C   UNL     1     -47.221  27.358  24.005  1.00  0.00    -0.002 C 
ATOM     41  H   UNL     1     -47.670  26.695  23.256  1.00  0.00     0.043 H 
ATOM     42  H   UNL     1     -46.138  27.207  23.916  1.00  0.00     0.043 H 
BRANCH  40  43
ATOM     43  C   UNL     1     -47.643  26.970  25.417  1.00  0.00    -0.029 C 
ATOM     44  C   UNL     1     -46.697  25.950  26.112  1.00  0.00    -0.049 C 
ATOM     45  C   UNL     1     -48.760  25.903  25.599  1.00  0.00    -0.049 C 
ATOM     46  H   UNL     1     -47.802  27.854  26.052  1.00  0.00     0.032 H 
ATOM     47  C   UNL     1     -47.948  25.359  26.791  1.00  0.00    -0.053 C 
ATOM     48  H   UNL     1     -45.952  26.378  26.787  1.00  0.00     0.027 H 
ATOM     49  H   UNL     1     -46.199  25.250  25.431  1.00  0.00     0.027 H 
ATOM     50  H   UNL     1     -49.753  26.287  25.849  1.00  0.00     0.027 H 
ATOM     51  H   UNL     1     -48.848  25.189  24.772  1.00  0.00     0.027 H 
ATOM     52  H   UNL     1     -47.955  24.274  26.917  1.00  0.00     0.027 H 
ATOM     53  H   UNL     1     -48.197  25.833  27.748  1.00  0.00     0.027 H 
ENDBRANCH  40  43
ENDBRANCH  38  40
ENDBRANCH  35  38
ENDBRANCH   6  35
TORSDOF 8
ENDMDL
MODEL 4
REMARK VINA RESULT:      -9.1      2.083      2.960
REMARK SMILES N#Cc1ncc(F)cc1-c1cn(Cc2ccc3cc(CNCC4CCC4)[nH]c3c2)nn1
REMARK SMILES IDX 14 1 15 2 16 3 17 4 18 5 19 6 27 7 28 8 29 9 13 15 12 18
REMARK SMILES IDX 10 19 11 20 31 21 30 23 9 24 3 25 4 26 5 27 8 28 6 29 7 32
REMARK SMILES IDX 2 33 1 34 20 35 21 38 22 40 23 43 24 44 26 45 25 47
REMARK H PARENT 15 10 16 11 18 12 27 13 29 14 13 16 13 17 11 22 5 30 8 31
REMARK H PARENT 20 36 20 37 21 39 22 41 22 42 23 46 24 48 24 49 26 50 26 51
REMARK H PARENT 25 52 25 53
REMARK Flexibility Score: inf
ROOT
ATOM      1  C   UNL     1     -45.868  36.952  28.747  1.00  0.00    -0.024 A 
ATOM      2  C   UNL     1     -47.142  37.317  28.290  1.00  0.00    -0.056 A 
ATOM      3  C   UNL     1     -47.811  36.553  27.324  1.00  0.00    -0.052 A 
ATOM      4  C   UNL     1     -47.192  35.404  26.803  1.00  0.00    -0.000 A 
ATOM      5  C   UNL     1     -47.568  34.429  25.841  1.00  0.00    -0.032 A 
ATOM      6  C   UNL     1     -46.541  33.509  25.735  1.00  0.00     0.030 A 
ATOM      7  N   UNL     1     -45.554  33.908  26.604  1.00  0.00    -0.357 N 
ATOM      8  C   UNL     1     -45.926  35.055  27.267  1.00  0.00     0.046 A 
ATOM      9  C   UNL     1     -45.241  35.801  28.233  1.00  0.00    -0.033 A 
ATOM     10  H   UNL     1     -47.637  38.204  28.681  1.00  0.00     0.063 H 
ATOM     11  H   UNL     1     -48.798  36.848  26.981  1.00  0.00     0.063 H 
ATOM     12  H   UNL     1     -48.496  34.389  25.286  1.00  0.00     0.065 H 
ATOM     13  H   UNL     1     -44.677  33.428  26.747  1.00  0.00     0.166 HD
ATOM     14  H   UNL     1     -44.253  35.502  28.570  1.00  0.00     0.065 H 
ENDROOT
BRANCH   1  15
ATOM     15  C   UNL     1     -45.162  37.792  29.783  1.00  0.00     0.068 C 
ATOM     16  H   UNL     1     -44.423  37.190  30.324  1.00  0.00     0.057 H 
ATOM     17  H   UNL     1     -45.862  38.196  30.523  1.00  0.00     0.057 H 
BRANCH  15  18
ATOM     18  N   UNL     1     -44.484  38.924  29.177  1.00  0.00    -0.247 N 
ATOM     19  C   UNL     1     -43.844  40.551  27.908  1.00  0.00     0.116 A 
ATOM     20  C   UNL     1     -44.727  39.497  27.960  1.00  0.00     0.054 A 
ATOM     21  N   UNL     1     -43.095  40.566  29.057  1.00  0.00    -0.130 NA
ATOM     22  H   UNL     1     -45.466  39.099  27.280  1.00  0.00     0.086 H 
ATOM     23  N   UNL     1     -43.506  39.574  29.836  1.00  0.00    -0.066 NA
BRANCH  19  24
ATOM     24  C   UNL     1     -43.643  41.491  26.825  1.00  0.00     0.043 A 
ATOM     25  C   UNL     1     -44.664  41.981  26.002  1.00  0.00     0.150 A 
ATOM     26  N   UNL     1     -44.452  42.866  24.983  1.00  0.00    -0.242 NA
ATOM     27  C   UNL     1     -43.181  43.289  24.789  1.00  0.00     0.064 A 
ATOM     28  C   UNL     1     -42.345  41.968  26.590  1.00  0.00    -0.012 A 
ATOM     29  C   UNL     1     -42.116  42.871  25.562  1.00  0.00     0.142 A 
ATOM     30  H   UNL     1     -43.034  43.993  23.975  1.00  0.00     0.087 H 
ATOM     31  H   UNL     1     -41.507  41.640  27.200  1.00  0.00     0.066 H 
ATOM     32  F   UNL     1     -40.881  43.326  25.324  1.00  0.00    -0.205 F 
BRANCH  25  33
ATOM     33  C   UNL     1     -46.047  41.619  26.173  1.00  0.00     0.120 C 
ATOM     34  N   UNL     1     -47.153  41.292  26.319  1.00  0.00    -0.191 NA
ENDBRANCH  25  33
ENDBRANCH  19  24
ENDBRANCH  15  18
ENDBRANCH   1  15
BRANCH   6  35
ATOM     35  C   UNL     1     -46.403  32.296  24.883  1.00  0.00     0.036 C 
ATOM     36  H   UNL     1     -46.298  31.388  25.485  1.00  0.00     0.049 H 
ATOM     37  H   UNL     1     -45.464  32.391  24.323  1.00  0.00     0.049 H 
BRANCH  35  38
ATOM     38  N   UNL     1     -47.488  32.174  23.918  1.00  0.00    -0.311 NA
ATOM     39  H   UNL     1     -47.102  32.097  22.981  1.00  0.00     0.123 HD
BRANCH  38  40
ATOM     40  C   UNL     1     -48.426  31.076  24.158  1.00  0.00    -0.002 C 
ATOM     41  H   UNL     1     -48.078  30.410  24.957  1.00  0.00     0.043 H 
ATOM     42  H   UNL     1     -49.345  31.535  24.541  1.00  0.00     0.043 H 
BRANCH  40  43
ATOM     43  C   UNL     1     -48.772  30.296  22.894  1.00  0.00    -0.029 C 
ATOM     44  C   UNL     1     -47.628  30.238  21.843  1.00  0.00    -0.049 C 
ATOM     45  C   UNL     1     -49.613  30.996  21.789  1.00  0.00    -0.049 C 
ATOM     46  H   UNL     1     -49.143  29.287  23.127  1.00  0.00     0.032 H 
ATOM     47  C   UNL     1     -48.719  30.282  20.756  1.00  0.00    -0.053 C 
ATOM     48  H   UNL     1     -47.015  29.333  21.859  1.00  0.00     0.027 H 
ATOM     49  H   UNL     1     -46.969  31.114  21.836  1.00  0.00     0.027 H 
ATOM     50  H   UNL     1     -50.672  30.728  21.751  1.00  0.00     0.027 H 
ATOM     51  H   UNL     1     -49.518  32.088  21.766  1.00  0.00     0.027 H 
ATOM     52  H   UNL     1     -48.475  30.857  19.859  1.00  0.00     0.027 H 
ATOM     53  H   UNL     1     -49.088  29.294  20.460  1.00  0.00     0.027 H 
ENDBRANCH  40  43
ENDBRANCH  38  40
ENDBRANCH  35  38
ENDBRANCH   6  35
TORSDOF 8
ENDMDL
MODEL 5
REMARK VINA RESULT:      -9.0      1.675      2.709
REMARK SMILES N#Cc1ncc(F)cc1-c1cn(Cc2ccc3cc(CNCC4CCC4)[nH]c3c2)nn1
REMARK SMILES IDX 14 1 15 2 16 3 17 4 18 5 19 6 27 7 28 8 29 9 13 15 12 18
REMARK SMILES IDX 10 19 11 20 31 21 30 23 9 24 3 25 4 26 5 27 8 28 6 29 7 32
REMARK SMILES IDX 2 33 1 34 20 35 21 38 22 40 23 43 24 44 26 45 25 47
REMARK H PARENT 15 10 16 11 18 12 27 13 29 14 13 16 13 17 11 22 5 30 8 31
REMARK H PARENT 20 36 20 37 21 39 22 41 22 42 23 46 24 48 24 49 26 50 26 51
REMARK H PARENT 25 52 25 53
REMARK Flexibility Score: inf
ROOT
ATOM      1  C   UNL     1     -48.047  34.097  26.192  1.00  0.00    -0.024 A 
ATOM      2  C   UNL     1     -46.699  34.115  25.809  1.00  0.00    -0.056 A 
ATOM      3  C   UNL     1     -46.171  33.125  24.971  1.00  0.00    -0.052 A 
ATOM      4  C   UNL     1     -47.007  32.093  24.509  1.00  0.00    -0.000 A 
ATOM      5  C   UNL     1     -46.811  30.961  23.674  1.00  0.00    -0.032 A 
ATOM      6  C   UNL     1     -48.016  30.292  23.565  1.00  0.00     0.030 A 
ATOM      7  N   UNL     1     -48.931  30.988  24.317  1.00  0.00    -0.357 N 
ATOM      8  C   UNL     1     -48.344  32.089  24.899  1.00  0.00     0.046 A 
ATOM      9  C   UNL     1     -48.893  33.070  25.732  1.00  0.00    -0.033 A 
ATOM     10  H   UNL     1     -46.036  34.905  26.158  1.00  0.00     0.063 H 
ATOM     11  H   UNL     1     -45.124  33.153  24.682  1.00  0.00     0.063 H 
ATOM     12  H   UNL     1     -45.890  30.664  23.189  1.00  0.00     0.065 H 
ATOM     13  H   UNL     1     -49.903  30.738  24.427  1.00  0.00     0.166 HD
ATOM     14  H   UNL     1     -49.940  33.034  26.020  1.00  0.00     0.065 H 
ENDROOT
BRANCH   1  15
ATOM     15  C   UNL     1     -48.595  35.169  27.102  1.00  0.00     0.068 C 
ATOM     16  H   UNL     1     -49.063  34.719  27.985  1.00  0.00     0.057 H 
ATOM     17  H   UNL     1     -49.356  35.776  26.599  1.00  0.00     0.057 H 
BRANCH  15  18
ATOM     18  N   UNL     1     -47.551  36.076  27.543  1.00  0.00    -0.247 N 
ATOM     19  C   UNL     1     -46.167  37.716  27.799  1.00  0.00     0.116 A 
ATOM     20  C   UNL     1     -47.135  37.235  26.947  1.00  0.00     0.054 A 
ATOM     21  N   UNL     1     -46.014  36.841  28.844  1.00  0.00    -0.130 NA
ATOM     22  H   UNL     1     -47.548  37.573  26.008  1.00  0.00     0.086 H 
ATOM     23  N   UNL     1     -46.878  35.847  28.686  1.00  0.00    -0.066 NA
BRANCH  19  24
ATOM     24  C   UNL     1     -45.363  38.910  27.647  1.00  0.00     0.043 A 
ATOM     25  C   UNL     1     -44.486  39.405  28.620  1.00  0.00     0.150 A 
ATOM     26  N   UNL     1     -43.738  40.536  28.457  1.00  0.00    -0.242 NA
ATOM     27  C   UNL     1     -43.857  41.188  27.276  1.00  0.00     0.064 A 
ATOM     28  C   UNL     1     -45.442  39.616  26.436  1.00  0.00    -0.012 A 
ATOM     29  C   UNL     1     -44.684  40.764  26.255  1.00  0.00     0.142 A 
ATOM     30  H   UNL     1     -43.253  42.084  27.166  1.00  0.00     0.087 H 
ATOM     31  H   UNL     1     -46.092  39.281  25.632  1.00  0.00     0.066 H 
ATOM     32  F   UNL     1     -44.758  41.449  25.108  1.00  0.00    -0.205 F 
BRANCH  25  33
ATOM     33  C   UNL     1     -44.267  38.745  29.880  1.00  0.00     0.120 C 
ATOM     34  N   UNL     1     -44.091  38.245  30.915  1.00  0.00    -0.191 NA
ENDBRANCH  25  33
ENDBRANCH  19  24
ENDBRANCH  15  18
ENDBRANCH   1  15
BRANCH   6  35
ATOM     35  C   UNL     1     -48.379  29.052  22.825  1.00  0.00     0.036 C 
ATOM     36  H   UNL     1     -48.036  29.085  21.786  1.00  0.00     0.049 H 
ATOM     37  H   UNL     1     -49.474  29.005  22.775  1.00  0.00     0.049 H 
BRANCH  35  38
ATOM     38  N   UNL     1     -47.911  27.850  23.503  1.00  0.00    -0.311 NA
ATOM     39  H   UNL     1     -46.987  28.017  23.892  1.00  0.00     0.123 HD
BRANCH  38  40
ATOM     40  C   UNL     1     -48.797  27.326  24.544  1.00  0.00    -0.002 C 
ATOM     41  H   UNL     1     -49.262  28.131  25.126  1.00  0.00     0.043 H 
ATOM     42  H   UNL     1     -49.624  26.828  24.023  1.00  0.00     0.043 H 
BRANCH  40  43
ATOM     43  C   UNL     1     -48.119  26.304  25.450  1.00  0.00    -0.029 C 
ATOM     44  C   UNL     1     -47.949  26.766  26.924  1.00  0.00    -0.049 C 
ATOM     45  C   UNL     1     -46.569  26.185  25.416  1.00  0.00    -0.049 C 
ATOM     46  H   UNL     1     -48.616  25.324  25.401  1.00  0.00     0.032 H 
ATOM     47  C   UNL     1     -46.621  25.984  26.943  1.00  0.00    -0.053 C 
ATOM     48  H   UNL     1     -48.713  26.416  27.623  1.00  0.00     0.027 H 
ATOM     49  H   UNL     1     -47.820  27.848  27.053  1.00  0.00     0.027 H 
ATOM     50  H   UNL     1     -46.166  25.341  24.850  1.00  0.00     0.027 H 
ATOM     51  H   UNL     1     -46.047  27.100  25.115  1.00  0.00     0.027 H 
ATOM     52  H   UNL     1     -45.808  26.440  27.512  1.00  0.00     0.027 H 
ATOM     53  H   UNL     1     -46.730  24.937  27.248  1.00  0.00     0.027 H 
ENDBRANCH  40  43
ENDBRANCH  38  40
ENDBRANCH  35  38
ENDBRANCH   6  35
TORSDOF 8
ENDMDL
MODEL 6
REMARK VINA RESULT:      -8.8      2.621      4.020
REMARK SMILES N#Cc1ncc(F)cc1-c1cn(Cc2ccc3cc(CNCC4CCC4)[nH]c3c2)nn1
REMARK SMILES IDX 14 1 15 2 16 3 17 4 18 5 19 6 27 7 28 8 29 9 13 15 12 18
REMARK SMILES IDX 10 19 11 20 31 21 30 23 9 24 3 25 4 26 5 27 8 28 6 29 7 32
REMARK SMILES IDX 2 33 1 34 20 35 21 38 22 40 23 43 24 44 26 45 25 47
REMARK H PARENT 15 10 16 11 18 12 27 13 29 14 13 16 13 17 11 22 5 30 8 31
REMARK H PARENT 20 36 20 37 21 39 22 41 22 42 23 46 24 48 24 49 26 50 26 51
REMARK H PARENT 25 52 25 53
REMARK Flexibility Score: inf
ROOT
ATOM      1  C   UNL     1     -48.093  34.586  26.525  1.00  0.00    -0.024 A 
ATOM      2  C   UNL     1     -46.809  34.697  25.975  1.00  0.00    -0.056 A 
ATOM      3  C   UNL     1     -46.273  33.678  25.177  1.00  0.00    -0.052 A 
ATOM      4  C   UNL     1     -47.035  32.523  24.927  1.00  0.00    -0.000 A 
ATOM      5  C   UNL     1     -46.811  31.331  24.187  1.00  0.00    -0.032 A 
ATOM      6  C   UNL     1     -47.937  30.537  24.297  1.00  0.00     0.030 A 
ATOM      7  N   UNL     1     -48.832  31.217  25.089  1.00  0.00    -0.357 N 
ATOM      8  C   UNL     1     -48.309  32.428  25.481  1.00  0.00     0.046 A 
ATOM      9  C   UNL     1     -48.865  33.435  26.279  1.00  0.00    -0.033 A 
ATOM     10  H   UNL     1     -46.203  35.583  26.157  1.00  0.00     0.063 H 
ATOM     11  H   UNL     1     -45.277  33.779  24.756  1.00  0.00     0.063 H 
ATOM     12  H   UNL     1     -45.925  31.076  23.621  1.00  0.00     0.065 H 
ATOM     13  H   UNL     1     -49.750  30.884  25.345  1.00  0.00     0.166 HD
ATOM     14  H   UNL     1     -49.861  33.326  26.699  1.00  0.00     0.065 H 
ENDROOT
BRANCH   1  15
ATOM     15  C   UNL     1     -48.649  35.692  27.389  1.00  0.00     0.068 C 
ATOM     16  H   UNL     1     -49.309  35.279  28.161  1.00  0.00     0.057 H 
ATOM     17  H   UNL     1     -49.237  36.406  26.802  1.00  0.00     0.057 H 
BRANCH  15  18
ATOM     18  N   UNL     1     -47.590  36.443  28.037  1.00  0.00    -0.247 N 
ATOM     19  C   UNL     1     -46.058  37.867  28.580  1.00  0.00     0.116 A 
ATOM     20  C   UNL     1     -46.901  37.518  27.549  1.00  0.00     0.054 A 
ATOM     21  N   UNL     1     -46.243  36.997  29.624  1.00  0.00    -0.130 NA
ATOM     22  H   UNL     1     -47.067  37.897  26.552  1.00  0.00     0.086 H 
ATOM     23  N   UNL     1     -47.195  36.138  29.288  1.00  0.00    -0.066 NA
BRANCH  19  24
ATOM     24  C   UNL     1     -45.073  38.928  28.603  1.00  0.00     0.043 A 
ATOM     25  C   UNL     1     -45.122  40.073  27.800  1.00  0.00     0.150 A 
ATOM     26  N   UNL     1     -44.179  41.062  27.836  1.00  0.00    -0.242 NA
ATOM     27  C   UNL     1     -43.161  40.909  28.715  1.00  0.00     0.064 A 
ATOM     28  C   UNL     1     -44.003  38.822  29.506  1.00  0.00    -0.012 A 
ATOM     29  C   UNL     1     -43.041  39.821  29.556  1.00  0.00     0.142 A 
ATOM     30  H   UNL     1     -42.424  41.706  28.729  1.00  0.00     0.087 H 
ATOM     31  H   UNL     1     -43.910  37.966  30.169  1.00  0.00     0.066 H 
ATOM     32  F   UNL     1     -42.013  39.727  30.407  1.00  0.00    -0.205 F 
BRANCH  25  33
ATOM     33  C   UNL     1     -46.195  40.333  26.876  1.00  0.00     0.120 C 
ATOM     34  N   UNL     1     -47.072  40.508  26.133  1.00  0.00    -0.191 NA
ENDBRANCH  25  33
ENDBRANCH  19  24
ENDBRANCH  15  18
ENDBRANCH   1  15
BRANCH   6  35
ATOM     35  C   UNL     1     -48.241  29.193  23.734  1.00  0.00     0.036 C 
ATOM     36  H   UNL     1     -48.538  28.485  24.514  1.00  0.00     0.049 H 
ATOM     37  H   UNL     1     -47.311  28.794  23.310  1.00  0.00     0.049 H 
BRANCH  35  38
ATOM     38  N   UNL     1     -49.229  29.255  22.665  1.00  0.00    -0.311 NA
ATOM     39  H   UNL     1     -50.100  29.635  23.029  1.00  0.00     0.123 HD
BRANCH  38  40
ATOM     40  C   UNL     1     -48.825  30.002  21.472  1.00  0.00    -0.002 C 
ATOM     41  H   UNL     1     -47.809  30.403  21.569  1.00  0.00     0.043 H 
ATOM     42  H   UNL     1     -48.774  29.272  20.655  1.00  0.00     0.043 H 
BRANCH  40  43
ATOM     43  C   UNL     1     -49.818  31.089  21.081  1.00  0.00    -0.029 C 
ATOM     44  C   UNL     1     -50.831  31.467  22.198  1.00  0.00    -0.049 C 
ATOM     45  C   UNL     1     -51.060  30.699  20.230  1.00  0.00    -0.049 C 
ATOM     46  H   UNL     1     -49.310  31.985  20.692  1.00  0.00     0.032 H 
ATOM     47  C   UNL     1     -51.870  31.694  21.084  1.00  0.00    -0.053 C 
ATOM     48  H   UNL     1     -50.575  32.349  22.792  1.00  0.00     0.027 H 
ATOM     49  H   UNL     1     -51.090  30.646  22.877  1.00  0.00     0.027 H 
ATOM     50  H   UNL     1     -51.005  30.938  19.164  1.00  0.00     0.027 H 
ATOM     51  H   UNL     1     -51.386  29.659  20.348  1.00  0.00     0.027 H 
ATOM     52  H   UNL     1     -52.894  31.396  21.320  1.00  0.00     0.027 H 
ATOM     53  H   UNL     1     -51.876  32.715  20.686  1.00  0.00     0.027 H 
ENDBRANCH  40  43
ENDBRANCH  38  40
ENDBRANCH  35  38
ENDBRANCH   6  35
TORSDOF 8
ENDMDL
MODEL 7
REMARK VINA RESULT:      -8.7      2.509      3.345
REMARK SMILES N#Cc1ncc(F)cc1-c1cn(Cc2ccc3cc(CNCC4CCC4)[nH]c3c2)nn1
REMARK SMILES IDX 14 1 15 2 16 3 17 4 18 5 19 6 27 7 28 8 29 9 13 15 12 18
REMARK SMILES IDX 10 19 11 20 31 21 30 23 9 24 3 25 4 26 5 27 8 28 6 29 7 32
REMARK SMILES IDX 2 33 1 34 20 35 21 38 22 40 23 43 24 44 26 45 25 47
REMARK H PARENT 15 10 16 11 18 12 27 13 29 14 13 16 13 17 11 22 5 30 8 31
REMARK H PARENT 20 36 20 37 21 39 22 41 22 42 23 46 24 48 24 49 26 50 26 51
REMARK H PARENT 25 52 25 53
REMARK Flexibility Score: inf
ROOT
ATOM      1  C   UNL     1     -46.376  34.496  26.860  1.00  0.00    -0.024 A 
ATOM      2  C   UNL     1     -47.761  34.671  26.979  1.00  0.00    -0.056 A 
ATOM      3  C   UNL     1     -48.658  33.792  26.358  1.00  0.00    -0.052 A 
ATOM      4  C   UNL     1     -48.159  32.717  25.601  1.00  0.00    -0.000 A 
ATOM      5  C   UNL     1     -48.761  31.667  24.858  1.00  0.00    -0.032 A 
ATOM      6  C   UNL     1     -47.755  30.889  24.316  1.00  0.00     0.030 A 
ATOM      7  N   UNL     1     -46.562  31.447  24.709  1.00  0.00    -0.357 N 
ATOM      8  C   UNL     1     -46.780  32.557  25.493  1.00  0.00     0.046 A 
ATOM      9  C   UNL     1     -45.866  33.421  26.107  1.00  0.00    -0.033 A 
ATOM     10  H   UNL     1     -48.167  35.498  27.560  1.00  0.00     0.063 H 
ATOM     11  H   UNL     1     -49.729  33.940  26.460  1.00  0.00     0.063 H 
ATOM     12  H   UNL     1     -49.821  31.484  24.736  1.00  0.00     0.065 H 
ATOM     13  H   UNL     1     -45.647  31.093  24.466  1.00  0.00     0.166 HD
ATOM     14  H   UNL     1     -44.796  33.269  25.998  1.00  0.00     0.065 H 
ENDROOT
BRANCH   1  15
ATOM     15  C   UNL     1     -45.426  35.459  27.531  1.00  0.00     0.068 C 
ATOM     16  H   UNL     1     -44.572  35.670  26.877  1.00  0.00     0.057 H 
ATOM     17  H   UNL     1     -45.031  35.051  28.467  1.00  0.00     0.057 H 
BRANCH  15  18
ATOM     18  N   UNL     1     -46.083  36.712  27.856  1.00  0.00    -0.247 N 
ATOM     19  C   UNL     1     -47.159  38.586  27.826  1.00  0.00     0.116 A 
ATOM     20  C   UNL     1     -46.636  37.620  26.996  1.00  0.00     0.054 A 
ATOM     21  N   UNL     1     -46.891  38.250  29.129  1.00  0.00    -0.130 NA
ATOM     22  H   UNL     1     -46.587  37.495  25.925  1.00  0.00     0.086 H 
ATOM     23  N   UNL     1     -46.244  37.092  29.137  1.00  0.00    -0.066 NA
BRANCH  19  24
ATOM     24  C   UNL     1     -47.840  39.807  27.452  1.00  0.00     0.043 A 
ATOM     25  C   UNL     1     -47.235  40.879  26.785  1.00  0.00     0.150 A 
ATOM     26  N   UNL     1     -47.896  42.025  26.442  1.00  0.00    -0.242 NA
ATOM     27  C   UNL     1     -49.209  42.097  26.764  1.00  0.00     0.064 A 
ATOM     28  C   UNL     1     -49.205  39.927  27.753  1.00  0.00    -0.012 A 
ATOM     29  C   UNL     1     -49.890  41.083  27.407  1.00  0.00     0.142 A 
ATOM     30  H   UNL     1     -49.716  43.015  26.483  1.00  0.00     0.087 H 
ATOM     31  H   UNL     1     -49.742  39.127  28.258  1.00  0.00     0.066 H 
ATOM     32  F   UNL     1     -51.190  41.211  27.696  1.00  0.00    -0.205 F 
BRANCH  25  33
ATOM     33  C   UNL     1     -45.858  40.861  26.366  1.00  0.00     0.120 C 
ATOM     34  N   UNL     1     -44.744  40.811  26.037  1.00  0.00    -0.191 NA
ENDBRANCH  25  33
ENDBRANCH  19  24
ENDBRANCH  15  18
ENDBRANCH   1  15
BRANCH   6  35
ATOM     35  C   UNL     1     -47.817  29.676  23.456  1.00  0.00     0.036 C 
ATOM     36  H   UNL     1     -47.253  29.810  22.527  1.00  0.00     0.049 H 
ATOM     37  H   UNL     1     -48.862  29.539  23.152  1.00  0.00     0.049 H 
BRANCH  35  38
ATOM     38  N   UNL     1     -47.397  28.475  24.166  1.00  0.00    -0.311 NA
ATOM     39  H   UNL     1     -46.704  28.721  24.869  1.00  0.00     0.123 HD
BRANCH  38  40
ATOM     40  C   UNL     1     -48.472  27.698  24.785  1.00  0.00    -0.002 C 
ATOM     41  H   UNL     1     -49.313  28.334  25.086  1.00  0.00     0.043 H 
ATOM     42  H   UNL     1     -48.869  27.043  23.999  1.00  0.00     0.043 H 
BRANCH  40  43
ATOM     43  C   UNL     1     -47.994  26.824  25.938  1.00  0.00    -0.029 C 
ATOM     44  C   UNL     1     -46.737  25.967  25.616  1.00  0.00    -0.049 C 
ATOM     45  C   UNL     1     -48.719  25.474  26.206  1.00  0.00    -0.049 C 
ATOM     46  H   UNL     1     -47.845  27.409  26.858  1.00  0.00     0.032 H 
ATOM     47  C   UNL     1     -47.334  24.875  26.523  1.00  0.00    -0.053 C 
ATOM     48  H   UNL     1     -45.781  26.384  25.944  1.00  0.00     0.027 H 
ATOM     49  H   UNL     1     -46.649  25.662  24.566  1.00  0.00     0.027 H 
ATOM     50  H   UNL     1     -49.429  25.469  27.037  1.00  0.00     0.027 H 
ATOM     51  H   UNL     1     -49.194  25.028  25.325  1.00  0.00     0.027 H 
ATOM     52  H   UNL     1     -47.175  23.844  26.198  1.00  0.00     0.027 H 
ATOM     53  H   UNL     1     -47.043  24.967  27.576  1.00  0.00     0.027 H 
ENDBRANCH  40  43
ENDBRANCH  38  40
ENDBRANCH  35  38
ENDBRANCH   6  35
TORSDOF 8
ENDMDL
