MODEL 1
REMARK VINA RESULT:     -10.2      0.000      0.000
REMARK SMILES CNc1ccc2ccc(OC[C@H]3O[C@@H](n4cc(-c5ccc(C)cn5)c5c(N)ncnc54)[C@@H](F)[C@@H]3O)cc2n1
REMARK SMILES IDX 11 1 10 4 9 5 3 6 4 7 38 8 5 9 37 11 6 12 36 14 7 15 8 17
REMARK SMILES IDX 2 20 1 22 12 26 13 27 34 28 14 30 32 31 33 34 35 36 15 38
REMARK SMILES IDX 16 39 31 40 17 41 25 43 30 44 26 45 29 46 28 47 18 49 19 50
REMARK SMILES IDX 24 51 20 52 23 54 21 55 22 58 27 62
REMARK H PARENT 11 2 11 3 4 10 5 13 36 16 7 18 8 19 2 21 1 23 1 24 1 25 12 29
REMARK H PARENT 34 32 14 33 32 35 35 37 16 42 29 48 19 53 20 56 23 57 22 59
REMARK H PARENT 22 60 22 61 27 63 27 64
REMARK Flexibility Score: inf
ROOT
ATOM      1  C   UNL     1     -46.061  35.644  26.785  1.00  0.00     0.117 C 
ATOM      2  H   UNL     1     -45.655  36.360  26.061  1.00  0.00     0.073 H 
ATOM      3  H   UNL     1     -45.333  34.824  26.787  1.00  0.00     0.073 H 
ENDROOT
BRANCH   1   4
ATOM      4  O   UNL     1     -47.341  35.246  26.288  1.00  0.00    -0.491 OA
BRANCH   4   5
ATOM      5  C   UNL     1     -47.489  33.982  25.791  1.00  0.00     0.121 A 
ATOM      6  C   UNL     1     -46.180  30.160  23.274  1.00  0.00     0.126 A 
ATOM      7  C   UNL     1     -47.326  29.464  23.646  1.00  0.00    -0.019 A 
ATOM      8  N   UNL     1     -45.954  31.421  23.696  1.00  0.00    -0.231 NA
ATOM      9  C   UNL     1     -48.251  30.069  24.488  1.00  0.00    -0.049 A 
ATOM     10  H   UNL     1     -47.504  28.461  23.272  1.00  0.00     0.066 H 
ATOM     11  C   UNL     1     -46.846  32.016  24.508  1.00  0.00     0.076 A 
ATOM     12  C   UNL     1     -48.019  31.371  24.939  1.00  0.00     0.001 A 
ATOM     13  H   UNL     1     -49.146  29.526  24.779  1.00  0.00     0.063 H 
ATOM     14  C   UNL     1     -46.603  33.315  24.944  1.00  0.00     0.007 A 
ATOM     15  C   UNL     1     -48.918  32.031  25.791  1.00  0.00    -0.049 A 
ATOM     16  H   UNL     1     -45.688  33.779  24.593  1.00  0.00     0.069 H 
ATOM     17  C   UNL     1     -48.648  33.331  26.213  1.00  0.00    -0.019 A 
ATOM     18  H   UNL     1     -49.828  31.541  26.126  1.00  0.00     0.063 H 
ATOM     19  H   UNL     1     -49.349  33.839  26.871  1.00  0.00     0.066 H 
BRANCH   6  20
ATOM     20  N   UNL     1     -45.281  29.525  22.399  1.00  0.00    -0.373 N 
ATOM     21  H   UNL     1     -45.684  29.509  21.467  1.00  0.00     0.161 HD
BRANCH  20  22
ATOM     22  C   UNL     1     -44.859  28.203  22.832  1.00  0.00     0.005 C 
ATOM     23  H   UNL     1     -45.182  27.992  23.858  1.00  0.00     0.045 H 
ATOM     24  H   UNL     1     -45.320  27.453  22.180  1.00  0.00     0.045 H 
ATOM     25  H   UNL     1     -43.775  28.080  22.753  1.00  0.00     0.045 H 
ENDBRANCH  20  22
ENDBRANCH   6  20
ENDBRANCH   4   5
ENDBRANCH   1   4
BRANCH   1  26
ATOM     26  C   UNL     1     -46.175  36.321  28.152  1.00  0.00     0.123 C 
ATOM     27  O   UNL     1     -44.970  37.038  28.465  1.00  0.00    -0.345 OA
ATOM     28  C   UNL     1     -47.336  37.310  28.227  1.00  0.00     0.119 C 
ATOM     29  H   UNL     1     -46.309  35.552  28.923  1.00  0.00     0.067 H 
ATOM     30  C   UNL     1     -45.352  38.225  29.195  1.00  0.00     0.169 C 
ATOM     31  C   UNL     1     -46.872  38.252  29.317  1.00  0.00     0.173 C 
ATOM     32  H   UNL     1     -47.507  37.852  27.293  1.00  0.00     0.066 H 
ATOM     33  H   UNL     1     -44.911  38.133  30.194  1.00  0.00     0.088 H 
ATOM     34  F   UNL     1     -47.392  39.492  29.153  1.00  0.00    -0.239 F 
ATOM     35  H   UNL     1     -47.187  37.890  30.302  1.00  0.00     0.074 H 
BRANCH  28  36
ATOM     36  O   UNL     1     -48.556  36.659  28.582  1.00  0.00    -0.387 OA
ATOM     37  H   UNL     1     -48.976  37.208  29.273  1.00  0.00     0.211 HD
ENDBRANCH  28  36
BRANCH  30  38
ATOM     38  N   UNL     1     -44.740  39.389  28.571  1.00  0.00    -0.302 N 
ATOM     39  C   UNL     1     -45.261  40.034  27.469  1.00  0.00     0.019 A 
ATOM     40  C   UNL     1     -43.595  40.030  28.972  1.00  0.00     0.148 A 
ATOM     41  C   UNL     1     -44.435  41.099  27.151  1.00  0.00     0.031 A 
ATOM     42  H   UNL     1     -46.182  39.692  27.015  1.00  0.00     0.083 H 
ATOM     43  C   UNL     1     -43.371  41.099  28.111  1.00  0.00     0.071 A 
ATOM     44  N   UNL     1     -42.826  39.680  30.018  1.00  0.00    -0.218 NA
ATOM     45  C   UNL     1     -42.228  41.877  28.364  1.00  0.00     0.137 A 
ATOM     46  C   UNL     1     -41.774  40.503  30.162  1.00  0.00     0.120 A 
ATOM     47  N   UNL     1     -41.442  41.568  29.413  1.00  0.00    -0.219 NA
ATOM     48  H   UNL     1     -41.107  40.282  30.989  1.00  0.00     0.106 H 
BRANCH  41  49
ATOM     49  C   UNL     1     -44.700  42.022  26.053  1.00  0.00     0.073 A 
ATOM     50  C   UNL     1     -43.961  41.979  24.874  1.00  0.00    -0.035 A 
ATOM     51  N   UNL     1     -45.703  42.912  26.253  1.00  0.00    -0.256 NA
ATOM     52  C   UNL     1     -44.270  42.874  23.852  1.00  0.00    -0.056 A 
ATOM     53  H   UNL     1     -43.145  41.275  24.746  1.00  0.00     0.065 H 
ATOM     54  C   UNL     1     -45.985  43.764  25.239  1.00  0.00     0.030 A 
ATOM     55  C   UNL     1     -45.314  43.782  24.021  1.00  0.00    -0.033 A 
ATOM     56  H   UNL     1     -43.693  42.860  22.931  1.00  0.00     0.063 H 
ATOM     57  H   UNL     1     -46.795  44.459  25.443  1.00  0.00     0.084 H 
BRANCH  55  58
ATOM     58  C   UNL     1     -45.658  44.782  22.965  1.00  0.00    -0.038 C 
ATOM     59  H   UNL     1     -46.705  44.671  22.667  1.00  0.00     0.028 H 
ATOM     60  H   UNL     1     -45.023  44.653  22.082  1.00  0.00     0.028 H 
ATOM     61  H   UNL     1     -45.502  45.804  23.329  1.00  0.00     0.028 H 
ENDBRANCH  55  58
ENDBRANCH  41  49
BRANCH  45  62
ATOM     62  N   UNL     1     -41.856  42.972  27.596  1.00  0.00    -0.383 N 
ATOM     63  H   UNL     1     -41.982  43.851  28.102  1.00  0.00     0.158 HD
ATOM     64  H   UNL     1     -40.951  42.824  27.171  1.00  0.00     0.158 HD
ENDBRANCH  45  62
ENDBRANCH  30  38
ENDBRANCH   1  26
TORSDOF 10
ENDMDL
MODEL 2
REMARK VINA RESULT:      -9.2      1.776      2.392
REMARK SMILES CNc1ccc2ccc(OC[C@H]3O[C@@H](n4cc(-c5ccc(C)cn5)c5c(N)ncnc54)[C@@H](F)[C@@H]3O)cc2n1
REMARK SMILES IDX 11 1 10 4 9 5 3 6 4 7 38 8 5 9 37 11 6 12 36 14 7 15 8 17
REMARK SMILES IDX 2 20 1 22 12 26 13 27 34 28 14 30 32 31 33 34 35 36 15 38
REMARK SMILES IDX 16 39 31 40 17 41 25 43 30 44 26 45 29 46 28 47 18 49 19 50
REMARK SMILES IDX 24 51 20 52 23 54 21 55 22 58 27 62
REMARK H PARENT 11 2 11 3 4 10 5 13 36 16 7 18 8 19 2 21 1 23 1 24 1 25 12 29
REMARK H PARENT 34 32 14 33 32 35 35 37 16 42 29 48 19 53 20 56 23 57 22 59
REMARK H PARENT 22 60 22 61 27 63 27 64
REMARK Flexibility Score: inf
ROOT
ATOM      1  C   UNL     1     -46.158  34.397  26.551  1.00  0.00     0.117 C 
ATOM      2  H   UNL     1     -45.367  35.049  26.161  1.00  0.00     0.073 H 
ATOM      3  H   UNL     1     -45.620  33.514  26.915  1.00  0.00     0.073 H 
ENDROOT
BRANCH   1   4
ATOM      4  O   UNL     1     -47.024  34.106  25.452  1.00  0.00    -0.491 OA
BRANCH   4   5
ATOM      5  C   UNL     1     -47.135  32.811  25.028  1.00  0.00     0.121 A 
ATOM      6  C   UNL     1     -49.060  28.460  24.931  1.00  0.00     0.126 A 
ATOM      7  C   UNL     1     -48.164  28.033  23.957  1.00  0.00    -0.019 A 
ATOM      8  N   UNL     1     -49.017  29.713  25.428  1.00  0.00    -0.231 NA
ATOM      9  C   UNL     1     -47.213  28.921  23.466  1.00  0.00    -0.049 A 
ATOM     10  H   UNL     1     -48.195  27.012  23.591  1.00  0.00     0.066 H 
ATOM     11  C   UNL     1     -48.098  30.577  24.962  1.00  0.00     0.076 A 
ATOM     12  C   UNL     1     -47.168  30.223  23.967  1.00  0.00     0.001 A 
ATOM     13  H   UNL     1     -46.512  28.588  22.705  1.00  0.00     0.063 H 
ATOM     14  C   UNL     1     -48.063  31.869  25.475  1.00  0.00     0.007 A 
ATOM     15  C   UNL     1     -46.230  31.162  23.509  1.00  0.00    -0.049 A 
ATOM     16  H   UNL     1     -48.796  32.106  26.239  1.00  0.00     0.069 H 
ATOM     17  C   UNL     1     -46.220  32.449  24.040  1.00  0.00    -0.019 A 
ATOM     18  H   UNL     1     -45.507  30.896  22.743  1.00  0.00     0.063 H 
ATOM     19  H   UNL     1     -45.490  33.172  23.684  1.00  0.00     0.066 H 
BRANCH   6  20
ATOM     20  N   UNL     1     -49.989  27.526  25.422  1.00  0.00    -0.373 N 
ATOM     21  H   UNL     1     -49.503  26.662  25.643  1.00  0.00     0.161 HD
BRANCH  20  22
ATOM     22  C   UNL     1     -51.128  27.300  24.547  1.00  0.00     0.005 C 
ATOM     23  H   UNL     1     -52.066  27.245  25.112  1.00  0.00     0.045 H 
ATOM     24  H   UNL     1     -51.212  28.140  23.849  1.00  0.00     0.045 H 
ATOM     25  H   UNL     1     -51.003  26.392  23.950  1.00  0.00     0.045 H 
ENDBRANCH  20  22
ENDBRANCH   6  20
ENDBRANCH   4   5
ENDBRANCH   1   4
BRANCH   1  26
ATOM     26  C   UNL     1     -46.901  35.125  27.672  1.00  0.00     0.123 C 
ATOM     27  O   UNL     1     -45.991  35.913  28.457  1.00  0.00    -0.345 OA
ATOM     28  C   UNL     1     -47.991  36.060  27.151  1.00  0.00     0.119 C 
ATOM     29  H   UNL     1     -47.355  34.385  28.342  1.00  0.00     0.067 H 
ATOM     30  C   UNL     1     -46.692  37.110  28.860  1.00  0.00     0.169 C 
ATOM     31  C   UNL     1     -48.099  37.069  28.274  1.00  0.00     0.173 C 
ATOM     32  H   UNL     1     -47.728  36.552  26.211  1.00  0.00     0.066 H 
ATOM     33  H   UNL     1     -46.755  37.082  29.953  1.00  0.00     0.088 H 
ATOM     34  F   UNL     1     -48.516  38.274  27.817  1.00  0.00    -0.239 F 
ATOM     35  H   UNL     1     -48.822  36.734  29.026  1.00  0.00     0.074 H 
BRANCH  28  36
ATOM     36  O   UNL     1     -49.222  35.366  26.949  1.00  0.00    -0.387 OA
ATOM     37  H   UNL     1     -49.387  35.363  25.986  1.00  0.00     0.211 HD
ENDBRANCH  28  36
BRANCH  30  38
ATOM     38  N   UNL     1     -45.890  38.275  28.514  1.00  0.00    -0.302 N 
ATOM     39  C   UNL     1     -46.184  39.130  27.473  1.00  0.00     0.019 A 
ATOM     40  C   UNL     1     -44.760  38.714  29.157  1.00  0.00     0.148 A 
ATOM     41  C   UNL     1     -45.225  40.128  27.439  1.00  0.00     0.031 A 
ATOM     42  H   UNL     1     -47.058  38.966  26.856  1.00  0.00     0.083 H 
ATOM     43  C   UNL     1     -44.315  39.865  28.514  1.00  0.00     0.071 A 
ATOM     44  N   UNL     1     -44.185  38.129  30.222  1.00  0.00    -0.218 NA
ATOM     45  C   UNL     1     -43.153  40.461  29.033  1.00  0.00     0.137 A 
ATOM     46  C   UNL     1     -43.093  38.795  30.630  1.00  0.00     0.120 A 
ATOM     47  N   UNL     1     -42.558  39.913  30.111  1.00  0.00    -0.219 NA
ATOM     48  H   UNL     1     -42.576  38.380  31.490  1.00  0.00     0.106 H 
BRANCH  41  49
ATOM     49  C   UNL     1     -45.240  41.226  26.479  1.00  0.00     0.073 A 
ATOM     50  C   UNL     1     -44.297  41.313  25.460  1.00  0.00    -0.035 A 
ATOM     51  N   UNL     1     -46.225  42.144  26.643  1.00  0.00    -0.256 NA
ATOM     52  C   UNL     1     -44.372  42.375  24.560  1.00  0.00    -0.056 A 
ATOM     53  H   UNL     1     -43.502  40.580  25.364  1.00  0.00     0.065 H 
ATOM     54  C   UNL     1     -46.276  43.161  25.749  1.00  0.00     0.030 A 
ATOM     55  C   UNL     1     -45.390  43.318  24.689  1.00  0.00    -0.033 A 
ATOM     56  H   UNL     1     -43.634  42.461  23.767  1.00  0.00     0.063 H 
ATOM     57  H   UNL     1     -47.080  43.872  25.918  1.00  0.00     0.084 H 
BRANCH  55  58
ATOM     58  C   UNL     1     -45.488  44.492  23.769  1.00  0.00    -0.038 C 
ATOM     59  H   UNL     1     -44.660  44.479  23.053  1.00  0.00     0.028 H 
ATOM     60  H   UNL     1     -45.456  45.432  24.329  1.00  0.00     0.028 H 
ATOM     61  H   UNL     1     -46.433  44.476  23.215  1.00  0.00     0.028 H 
ENDBRANCH  55  58
ENDBRANCH  41  49
BRANCH  45  62
ATOM     62  N   UNL     1     -42.572  41.607  28.506  1.00  0.00    -0.383 N 
ATOM     63  H   UNL     1     -42.098  41.418  27.620  1.00  0.00     0.158 HD
ATOM     64  H   UNL     1     -43.228  42.377  28.509  1.00  0.00     0.158 HD
ENDBRANCH  45  62
ENDBRANCH  30  38
ENDBRANCH   1  26
TORSDOF 10
ENDMDL
MODEL 3
REMARK VINA RESULT:      -9.1      2.561      4.529
REMARK SMILES CNc1ccc2ccc(OC[C@H]3O[C@@H](n4cc(-c5ccc(C)cn5)c5c(N)ncnc54)[C@@H](F)[C@@H]3O)cc2n1
REMARK SMILES IDX 11 1 10 4 9 5 3 6 4 7 38 8 5 9 37 11 6 12 36 14 7 15 8 17
REMARK SMILES IDX 2 20 1 22 12 26 13 27 34 28 14 30 32 31 33 34 35 36 15 38
REMARK SMILES IDX 16 39 31 40 17 41 25 43 30 44 26 45 29 46 28 47 18 49 19 50
REMARK SMILES IDX 24 51 20 52 23 54 21 55 22 58 27 62
REMARK H PARENT 11 2 11 3 4 10 5 13 36 16 7 18 8 19 2 21 1 23 1 24 1 25 12 29
REMARK H PARENT 34 32 14 33 32 35 35 37 16 42 29 48 19 53 20 56 23 57 22 59
REMARK H PARENT 22 60 22 61 27 63 27 64
REMARK Flexibility Score: inf
ROOT
ATOM      1  C   UNL     1     -45.987  38.543  28.676  1.00  0.00     0.117 C 
ATOM      2  H   UNL     1     -45.826  37.544  29.099  1.00  0.00     0.073 H 
ATOM      3  H   UNL     1     -46.344  39.138  29.525  1.00  0.00     0.073 H 
ENDROOT
BRANCH   1   4
ATOM      4  O   UNL     1     -46.971  38.396  27.650  1.00  0.00    -0.491 OA
BRANCH   4   5
ATOM      5  C   UNL     1     -47.329  37.136  27.258  1.00  0.00     0.121 A 
ATOM      6  C   UNL     1     -46.572  32.827  25.385  1.00  0.00     0.126 A 
ATOM      7  C   UNL     1     -47.887  32.441  25.619  1.00  0.00    -0.019 A 
ATOM      8  N   UNL     1     -46.128  34.057  25.716  1.00  0.00    -0.231 NA
ATOM      9  C   UNL     1     -48.764  33.333  26.228  1.00  0.00    -0.049 A 
ATOM     10  H   UNL     1     -48.233  31.458  25.319  1.00  0.00     0.066 H 
ATOM     11  C   UNL     1     -46.970  34.928  26.302  1.00  0.00     0.076 A 
ATOM     12  C   UNL     1     -48.310  34.605  26.585  1.00  0.00     0.001 A 
ATOM     13  H   UNL     1     -49.791  33.032  26.412  1.00  0.00     0.063 H 
ATOM     14  C   UNL     1     -46.504  36.192  26.645  1.00  0.00     0.007 A 
ATOM     15  C   UNL     1     -49.149  35.545  27.201  1.00  0.00    -0.049 A 
ATOM     16  H   UNL     1     -45.466  36.404  26.414  1.00  0.00     0.069 H 
ATOM     17  C   UNL     1     -48.655  36.804  27.536  1.00  0.00    -0.019 A 
ATOM     18  H   UNL     1     -50.186  35.305  27.421  1.00  0.00     0.063 H 
ATOM     19  H   UNL     1     -49.310  37.530  28.011  1.00  0.00     0.066 H 
BRANCH   6  20
ATOM     20  N   UNL     1     -45.723  31.908  24.743  1.00  0.00    -0.373 N 
ATOM     21  H   UNL     1     -44.881  32.391  24.443  1.00  0.00     0.161 HD
BRANCH  20  22
ATOM     22  C   UNL     1     -46.348  31.177  23.653  1.00  0.00     0.005 C 
ATOM     23  H   UNL     1     -46.771  31.855  22.903  1.00  0.00     0.045 H 
ATOM     24  H   UNL     1     -45.589  30.565  23.154  1.00  0.00     0.045 H 
ATOM     25  H   UNL     1     -47.125  30.499  24.017  1.00  0.00     0.045 H 
ENDBRANCH  20  22
ENDBRANCH   6  20
ENDBRANCH   4   5
ENDBRANCH   1   4
BRANCH   1  26
ATOM     26  C   UNL     1     -44.665  39.069  28.114  1.00  0.00     0.123 C 
ATOM     27  O   UNL     1     -44.856  39.620  26.801  1.00  0.00    -0.345 OA
ATOM     28  C   UNL     1     -44.042  40.157  28.987  1.00  0.00     0.119 C 
ATOM     29  H   UNL     1     -43.958  38.236  28.021  1.00  0.00     0.067 H 
ATOM     30  C   UNL     1     -43.964  40.750  26.674  1.00  0.00     0.169 C 
ATOM     31  C   UNL     1     -43.202  40.917  27.984  1.00  0.00     0.173 C 
ATOM     32  H   UNL     1     -44.780  40.815  29.454  1.00  0.00     0.066 H 
ATOM     33  H   UNL     1     -43.257  40.501  25.874  1.00  0.00     0.088 H 
ATOM     34  F   UNL     1     -43.054  42.214  28.347  1.00  0.00    -0.239 F 
ATOM     35  H   UNL     1     -42.200  40.481  27.908  1.00  0.00     0.074 H 
BRANCH  28  36
ATOM     36  O   UNL     1     -43.239  39.597  30.026  1.00  0.00    -0.387 OA
ATOM     37  H   UNL     1     -42.404  40.105  30.039  1.00  0.00     0.211 HD
ENDBRANCH  28  36
BRANCH  30  38
ATOM     38  N   UNL     1     -44.720  41.910  26.222  1.00  0.00    -0.302 N 
ATOM     39  C   UNL     1     -46.042  42.136  26.537  1.00  0.00     0.019 A 
ATOM     40  C   UNL     1     -44.253  42.945  25.450  1.00  0.00     0.148 A 
ATOM     41  C   UNL     1     -46.436  43.329  25.953  1.00  0.00     0.031 A 
ATOM     42  H   UNL     1     -46.587  41.440  27.162  1.00  0.00     0.083 H 
ATOM     43  C   UNL     1     -45.294  43.847  25.260  1.00  0.00     0.071 A 
ATOM     44  N   UNL     1     -43.005  43.060  24.965  1.00  0.00    -0.218 NA
ATOM     45  C   UNL     1     -45.004  44.981  24.482  1.00  0.00     0.137 A 
ATOM     46  C   UNL     1     -42.849  44.186  24.249  1.00  0.00     0.120 A 
ATOM     47  N   UNL     1     -43.759  45.141  23.992  1.00  0.00    -0.219 NA
ATOM     48  H   UNL     1     -41.863  44.348  23.825  1.00  0.00     0.106 H 
BRANCH  41  49
ATOM     49  C   UNL     1     -47.771  43.896  26.104  1.00  0.00     0.073 A 
ATOM     50  C   UNL     1     -48.008  44.983  26.940  1.00  0.00    -0.035 A 
ATOM     51  N   UNL     1     -48.754  43.301  25.384  1.00  0.00    -0.256 NA
ATOM     52  C   UNL     1     -49.302  45.494  27.031  1.00  0.00    -0.056 A 
ATOM     53  H   UNL     1     -47.211  45.426  27.528  1.00  0.00     0.065 H 
ATOM     54  C   UNL     1     -49.999  43.825  25.487  1.00  0.00     0.030 A 
ATOM     55  C   UNL     1     -50.326  44.919  26.280  1.00  0.00    -0.033 A 
ATOM     56  H   UNL     1     -49.503  46.335  27.689  1.00  0.00     0.063 H 
ATOM     57  H   UNL     1     -50.754  43.318  24.893  1.00  0.00     0.084 H 
BRANCH  55  58
ATOM     58  C   UNL     1     -51.734  45.412  26.374  1.00  0.00    -0.038 C 
ATOM     59  H   UNL     1     -52.055  45.817  25.409  1.00  0.00     0.028 H 
ATOM     60  H   UNL     1     -51.825  46.194  27.134  1.00  0.00     0.028 H 
ATOM     61  H   UNL     1     -52.413  44.601  26.659  1.00  0.00     0.028 H 
ENDBRANCH  55  58
ENDBRANCH  41  49
BRANCH  45  62
ATOM     62  N   UNL     1     -45.930  45.973  24.189  1.00  0.00    -0.383 N 
ATOM     63  H   UNL     1     -45.529  46.704  23.598  1.00  0.00     0.158 HD
ATOM     64  H   UNL     1     -46.803  45.570  23.877  1.00  0.00     0.158 HD
ENDBRANCH  45  62
ENDBRANCH  30  38
ENDBRANCH   1  26
TORSDOF 10
ENDMDL
MODEL 4
REMARK VINA RESULT:      -9.0      2.167      3.107
REMARK SMILES CNc1ccc2ccc(OC[C@H]3O[C@@H](n4cc(-c5ccc(C)cn5)c5c(N)ncnc54)[C@@H](F)[C@@H]3O)cc2n1
REMARK SMILES IDX 11 1 10 4 9 5 3 6 4 7 38 8 5 9 37 11 6 12 36 14 7 15 8 17
REMARK SMILES IDX 2 20 1 22 12 26 13 27 34 28 14 30 32 31 33 34 35 36 15 38
REMARK SMILES IDX 16 39 31 40 17 41 25 43 30 44 26 45 29 46 28 47 18 49 19 50
REMARK SMILES IDX 24 51 20 52 23 54 21 55 22 58 27 62
REMARK H PARENT 11 2 11 3 4 10 5 13 36 16 7 18 8 19 2 21 1 23 1 24 1 25 12 29
REMARK H PARENT 34 32 14 33 32 35 35 37 16 42 29 48 19 53 20 56 23 57 22 59
REMARK H PARENT 22 60 22 61 27 63 27 64
REMARK Flexibility Score: inf
ROOT
ATOM      1  C   UNL     1     -47.793  35.055  27.220  1.00  0.00     0.117 C 
ATOM      2  H   UNL     1     -48.606  35.417  27.861  1.00  0.00     0.073 H 
ATOM      3  H   UNL     1     -48.060  35.417  26.221  1.00  0.00     0.073 H 
ENDROOT
BRANCH   1   4
ATOM      4  O   UNL     1     -47.805  33.629  27.315  1.00  0.00    -0.491 OA
BRANCH   4   5
ATOM      5  C   UNL     1     -47.966  32.896  26.173  1.00  0.00     0.121 A 
ATOM      6  C   UNL     1     -46.472  30.349  22.440  1.00  0.00     0.126 A 
ATOM      7  C   UNL     1     -47.775  30.132  22.005  1.00  0.00    -0.019 A 
ATOM      8  N   UNL     1     -46.209  31.077  23.545  1.00  0.00    -0.231 NA
ATOM      9  C   UNL     1     -48.836  30.658  22.734  1.00  0.00    -0.049 A 
ATOM     10  H   UNL     1     -47.965  29.568  21.098  1.00  0.00     0.066 H 
ATOM     11  C   UNL     1     -47.229  31.593  24.253  1.00  0.00     0.076 A 
ATOM     12  C   UNL     1     -48.574  31.404  23.885  1.00  0.00     0.001 A 
ATOM     13  H   UNL     1     -49.854  30.489  22.396  1.00  0.00     0.063 H 
ATOM     14  C   UNL     1     -46.950  32.339  25.394  1.00  0.00     0.007 A 
ATOM     15  C   UNL     1     -49.604  31.959  24.660  1.00  0.00    -0.049 A 
ATOM     16  H   UNL     1     -45.903  32.461  25.648  1.00  0.00     0.069 H 
ATOM     17  C   UNL     1     -49.296  32.699  25.799  1.00  0.00    -0.019 A 
ATOM     18  H   UNL     1     -50.645  31.820  24.381  1.00  0.00     0.063 H 
ATOM     19  H   UNL     1     -50.098  33.129  26.394  1.00  0.00     0.066 H 
BRANCH   6  20
ATOM     20  N   UNL     1     -45.425  29.824  21.662  1.00  0.00    -0.373 N 
ATOM     21  H   UNL     1     -45.803  29.497  20.778  1.00  0.00     0.161 HD
BRANCH  20  22
ATOM     22  C   UNL     1     -44.640  28.799  22.330  1.00  0.00     0.005 C 
ATOM     23  H   UNL     1     -45.260  27.946  22.628  1.00  0.00     0.045 H 
ATOM     24  H   UNL     1     -43.878  28.427  21.636  1.00  0.00     0.045 H 
ATOM     25  H   UNL     1     -44.116  29.198  23.204  1.00  0.00     0.045 H 
ENDBRANCH  20  22
ENDBRANCH   6  20
ENDBRANCH   4   5
ENDBRANCH   1   4
BRANCH   1  26
ATOM     26  C   UNL     1     -46.468  35.638  27.713  1.00  0.00     0.123 C 
ATOM     27  O   UNL     1     -46.012  36.677  26.831  1.00  0.00    -0.345 OA
ATOM     28  C   UNL     1     -46.567  36.232  29.117  1.00  0.00     0.119 C 
ATOM     29  H   UNL     1     -45.705  34.849  27.711  1.00  0.00     0.067 H 
ATOM     30  C   UNL     1     -45.364  37.680  27.645  1.00  0.00     0.169 C 
ATOM     31  C   UNL     1     -45.445  37.247  29.105  1.00  0.00     0.173 C 
ATOM     32  H   UNL     1     -47.526  36.716  29.316  1.00  0.00     0.066 H 
ATOM     33  H   UNL     1     -44.313  37.704  27.333  1.00  0.00     0.088 H 
ATOM     34  F   UNL     1     -45.702  38.277  29.947  1.00  0.00    -0.239 F 
ATOM     35  H   UNL     1     -44.503  36.787  29.425  1.00  0.00     0.074 H 
BRANCH  28  36
ATOM     36  O   UNL     1     -46.364  35.238  30.121  1.00  0.00    -0.387 OA
ATOM     37  H   UNL     1     -46.571  34.377  29.708  1.00  0.00     0.211 HD
ENDBRANCH  28  36
BRANCH  30  38
ATOM     38  N   UNL     1     -45.924  38.987  27.334  1.00  0.00    -0.302 N 
ATOM     39  C   UNL     1     -45.197  40.029  26.800  1.00  0.00     0.019 A 
ATOM     40  C   UNL     1     -47.229  39.381  27.495  1.00  0.00     0.148 A 
ATOM     41  C   UNL     1     -46.042  41.112  26.623  1.00  0.00     0.031 A 
ATOM     42  H   UNL     1     -44.145  39.908  26.575  1.00  0.00     0.083 H 
ATOM     43  C   UNL     1     -47.341  40.698  27.066  1.00  0.00     0.071 A 
ATOM     44  N   UNL     1     -48.223  38.619  27.986  1.00  0.00    -0.218 NA
ATOM     45  C   UNL     1     -48.617  41.281  27.161  1.00  0.00     0.137 A 
ATOM     46  C   UNL     1     -49.391  39.282  28.018  1.00  0.00     0.120 A 
ATOM     47  N   UNL     1     -49.642  40.544  27.631  1.00  0.00    -0.219 NA
ATOM     48  H   UNL     1     -50.242  38.729  28.401  1.00  0.00     0.106 H 
BRANCH  41  49
ATOM     49  C   UNL     1     -45.614  42.381  26.048  1.00  0.00     0.073 A 
ATOM     50  C   UNL     1     -44.785  42.429  24.931  1.00  0.00    -0.035 A 
ATOM     51  N   UNL     1     -46.072  43.498  26.665  1.00  0.00    -0.256 NA
ATOM     52  C   UNL     1     -44.422  43.672  24.414  1.00  0.00    -0.056 A 
ATOM     53  H   UNL     1     -44.408  41.522  24.469  1.00  0.00     0.065 H 
ATOM     54  C   UNL     1     -45.709  44.690  26.136  1.00  0.00     0.030 A 
ATOM     55  C   UNL     1     -44.902  44.836  25.013  1.00  0.00    -0.033 A 
ATOM     56  H   UNL     1     -43.766  43.724  23.549  1.00  0.00     0.063 H 
ATOM     57  H   UNL     1     -46.099  45.557  26.662  1.00  0.00     0.084 H 
BRANCH  55  58
ATOM     58  C   UNL     1     -44.510  46.189  24.513  1.00  0.00    -0.038 C 
ATOM     59  H   UNL     1     -44.663  46.938  25.296  1.00  0.00     0.028 H 
ATOM     60  H   UNL     1     -45.102  46.469  23.636  1.00  0.00     0.028 H 
ATOM     61  H   UNL     1     -43.457  46.204  24.212  1.00  0.00     0.028 H 
ENDBRANCH  55  58
ENDBRANCH  41  49
BRANCH  45  62
ATOM     62  N   UNL     1     -48.898  42.587  26.784  1.00  0.00    -0.383 N 
ATOM     63  H   UNL     1     -48.631  42.767  25.814  1.00  0.00     0.158 HD
ATOM     64  H   UNL     1     -49.840  42.843  27.045  1.00  0.00     0.158 HD
ENDBRANCH  45  62
ENDBRANCH  30  38
ENDBRANCH   1  26
TORSDOF 10
ENDMDL
MODEL 5
REMARK VINA RESULT:      -8.5      2.640      3.517
REMARK SMILES CNc1ccc2ccc(OC[C@H]3O[C@@H](n4cc(-c5ccc(C)cn5)c5c(N)ncnc54)[C@@H](F)[C@@H]3O)cc2n1
REMARK SMILES IDX 11 1 10 4 9 5 3 6 4 7 38 8 5 9 37 11 6 12 36 14 7 15 8 17
REMARK SMILES IDX 2 20 1 22 12 26 13 27 34 28 14 30 32 31 33 34 35 36 15 38
REMARK SMILES IDX 16 39 31 40 17 41 25 43 30 44 26 45 29 46 28 47 18 49 19 50
REMARK SMILES IDX 24 51 20 52 23 54 21 55 22 58 27 62
REMARK H PARENT 11 2 11 3 4 10 5 13 36 16 7 18 8 19 2 21 1 23 1 24 1 25 12 29
REMARK H PARENT 34 32 14 33 32 35 35 37 16 42 29 48 19 53 20 56 23 57 22 59
REMARK H PARENT 22 60 22 61 27 63 27 64
REMARK Flexibility Score: inf
ROOT
ATOM      1  C   UNL     1     -48.157  35.397  27.196  1.00  0.00     0.117 C 
ATOM      2  H   UNL     1     -48.879  35.833  27.896  1.00  0.00     0.073 H 
ATOM      3  H   UNL     1     -48.493  35.746  26.212  1.00  0.00     0.073 H 
ENDROOT
BRANCH   1   4
ATOM      4  O   UNL     1     -48.254  33.979  27.344  1.00  0.00    -0.491 OA
BRANCH   4   5
ATOM      5  C   UNL     1     -48.376  33.208  26.221  1.00  0.00     0.121 A 
ATOM      6  C   UNL     1     -46.788  30.996  22.317  1.00  0.00     0.126 A 
ATOM      7  C   UNL     1     -48.050  30.484  22.036  1.00  0.00    -0.019 A 
ATOM      8  N   UNL     1     -46.570  31.785  23.390  1.00  0.00    -0.231 NA
ATOM      9  C   UNL     1     -49.110  30.771  22.889  1.00  0.00    -0.049 A 
ATOM     10  H   UNL     1     -48.212  29.876  21.152  1.00  0.00     0.066 H 
ATOM     11  C   UNL     1     -47.591  32.071  24.218  1.00  0.00     0.076 A 
ATOM     12  C   UNL     1     -48.892  31.577  24.008  1.00  0.00     0.001 A 
ATOM     13  H   UNL     1     -50.097  30.370  22.670  1.00  0.00     0.063 H 
ATOM     14  C   UNL     1     -47.358  32.880  25.325  1.00  0.00     0.007 A 
ATOM     15  C   UNL     1     -49.924  31.899  24.902  1.00  0.00    -0.049 A 
ATOM     16  H   UNL     1     -46.343  33.240  25.455  1.00  0.00     0.069 H 
ATOM     17  C   UNL     1     -49.661  32.710  26.004  1.00  0.00    -0.019 A 
ATOM     18  H   UNL     1     -50.932  31.524  24.746  1.00  0.00     0.063 H 
ATOM     19  H   UNL     1     -50.465  32.959  26.693  1.00  0.00     0.066 H 
BRANCH   6  20
ATOM     20  N   UNL     1     -45.747  30.707  21.418  1.00  0.00    -0.373 N 
ATOM     21  H   UNL     1     -44.858  30.822  21.895  1.00  0.00     0.161 HD
BRANCH  20  22
ATOM     22  C   UNL     1     -45.800  31.466  20.179  1.00  0.00     0.005 C 
ATOM     23  H   UNL     1     -46.058  32.516  20.359  1.00  0.00     0.045 H 
ATOM     24  H   UNL     1     -44.811  31.446  19.708  1.00  0.00     0.045 H 
ATOM     25  H   UNL     1     -46.507  31.028  19.468  1.00  0.00     0.045 H 
ENDBRANCH  20  22
ENDBRANCH   6  20
ENDBRANCH   4   5
ENDBRANCH   1   4
BRANCH   1  26
ATOM     26  C   UNL     1     -46.755  35.902  27.540  1.00  0.00     0.123 C 
ATOM     27  O   UNL     1     -46.339  36.917  26.613  1.00  0.00    -0.345 OA
ATOM     28  C   UNL     1     -46.668  36.495  28.946  1.00  0.00     0.119 C 
ATOM     29  H   UNL     1     -46.043  35.071  27.457  1.00  0.00     0.067 H 
ATOM     30  C   UNL     1     -45.551  37.878  27.350  1.00  0.00     0.169 C 
ATOM     31  C   UNL     1     -45.498  37.444  28.811  1.00  0.00     0.173 C 
ATOM     32  H   UNL     1     -47.571  37.031  29.247  1.00  0.00     0.066 H 
ATOM     33  H   UNL     1     -44.540  37.844  26.926  1.00  0.00     0.088 H 
ATOM     34  F   UNL     1     -45.603  38.483  29.674  1.00  0.00    -0.239 F 
ATOM     35  H   UNL     1     -44.555  36.931  29.028  1.00  0.00     0.074 H 
BRANCH  28  36
ATOM     36  O   UNL     1     -46.414  35.486  29.924  1.00  0.00    -0.387 OA
ATOM     37  H   UNL     1     -45.875  34.800  29.485  1.00  0.00     0.211 HD
ENDBRANCH  28  36
BRANCH  30  38
ATOM     38  N   UNL     1     -46.067  39.216  27.099  1.00  0.00    -0.302 N 
ATOM     39  C   UNL     1     -47.391  39.571  27.250  1.00  0.00     0.019 A 
ATOM     40  C   UNL     1     -45.345  40.315  26.703  1.00  0.00     0.148 A 
ATOM     41  C   UNL     1     -47.525  40.914  26.940  1.00  0.00     0.031 A 
ATOM     42  H   UNL     1     -48.121  38.844  27.582  1.00  0.00     0.083 H 
ATOM     43  C   UNL     1     -46.219  41.391  26.591  1.00  0.00     0.071 A 
ATOM     44  N   UNL     1     -44.022  40.340  26.466  1.00  0.00    -0.218 NA
ATOM     45  C   UNL     1     -45.657  42.613  26.187  1.00  0.00     0.137 A 
ATOM     46  C   UNL     1     -43.604  41.562  26.098  1.00  0.00     0.120 A 
ATOM     47  N   UNL     1     -44.331  42.683  25.956  1.00  0.00    -0.219 NA
ATOM     48  H   UNL     1     -42.543  41.660  25.890  1.00  0.00     0.106 H 
BRANCH  41  49
ATOM     49  C   UNL     1     -48.790  41.635  27.020  1.00  0.00     0.073 A 
ATOM     50  C   UNL     1     -49.596  41.564  28.153  1.00  0.00    -0.035 A 
ATOM     51  N   UNL     1     -49.124  42.372  25.932  1.00  0.00    -0.256 NA
ATOM     52  C   UNL     1     -50.786  42.289  28.180  1.00  0.00    -0.056 A 
ATOM     53  H   UNL     1     -49.321  40.946  29.002  1.00  0.00     0.065 H 
ATOM     54  C   UNL     1     -50.282  43.071  25.991  1.00  0.00     0.030 A 
ATOM     55  C   UNL     1     -51.140  43.077  27.086  1.00  0.00    -0.033 A 
ATOM     56  H   UNL     1     -51.430  42.233  29.054  1.00  0.00     0.063 H 
ATOM     57  H   UNL     1     -50.509  43.647  25.099  1.00  0.00     0.084 H 
BRANCH  55  58
ATOM     58  C   UNL     1     -52.423  43.843  27.058  1.00  0.00    -0.038 C 
ATOM     59  H   UNL     1     -52.414  44.562  26.234  1.00  0.00     0.028 H 
ATOM     60  H   UNL     1     -52.576  44.383  27.998  1.00  0.00     0.028 H 
ATOM     61  H   UNL     1     -53.277  43.169  26.929  1.00  0.00     0.028 H 
ENDBRANCH  55  58
ENDBRANCH  41  49
BRANCH  45  62
ATOM     62  N   UNL     1     -46.390  43.781  26.018  1.00  0.00    -0.383 N 
ATOM     63  H   UNL     1     -46.567  43.978  25.031  1.00  0.00     0.158 HD
ATOM     64  H   UNL     1     -47.194  43.793  26.630  1.00  0.00     0.158 HD
ENDBRANCH  45  62
ENDBRANCH  30  38
ENDBRANCH   1  26
TORSDOF 10
ENDMDL
MODEL 6
REMARK VINA RESULT:      -8.4      3.843      5.349
REMARK SMILES CNc1ccc2ccc(OC[C@H]3O[C@@H](n4cc(-c5ccc(C)cn5)c5c(N)ncnc54)[C@@H](F)[C@@H]3O)cc2n1
REMARK SMILES IDX 11 1 10 4 9 5 3 6 4 7 38 8 5 9 37 11 6 12 36 14 7 15 8 17
REMARK SMILES IDX 2 20 1 22 12 26 13 27 34 28 14 30 32 31 33 34 35 36 15 38
REMARK SMILES IDX 16 39 31 40 17 41 25 43 30 44 26 45 29 46 28 47 18 49 19 50
REMARK SMILES IDX 24 51 20 52 23 54 21 55 22 58 27 62
REMARK H PARENT 11 2 11 3 4 10 5 13 36 16 7 18 8 19 2 21 1 23 1 24 1 25 12 29
REMARK H PARENT 34 32 14 33 32 35 35 37 16 42 29 48 19 53 20 56 23 57 22 59
REMARK H PARENT 22 60 22 61 27 63 27 64
REMARK Flexibility Score: inf
ROOT
ATOM      1  C   UNL     1     -47.033  34.615  25.819  1.00  0.00     0.117 C 
ATOM      2  H   UNL     1     -47.868  35.231  25.466  1.00  0.00     0.073 H 
ATOM      3  H   UNL     1     -46.449  34.413  24.914  1.00  0.00     0.073 H 
ENDROOT
BRANCH   1   4
ATOM      4  O   UNL     1     -47.610  33.434  26.382  1.00  0.00    -0.491 OA
BRANCH   4   5
ATOM      5  C   UNL     1     -47.628  32.291  25.633  1.00  0.00     0.121 A 
ATOM      6  C   UNL     1     -49.288  28.029  24.317  1.00  0.00     0.126 A 
ATOM      7  C   UNL     1     -48.332  27.913  23.313  1.00  0.00    -0.019 A 
ATOM      8  N   UNL     1     -49.338  29.110  25.122  1.00  0.00    -0.231 NA
ATOM      9  C   UNL     1     -47.417  28.942  23.118  1.00  0.00    -0.049 A 
ATOM     10  H   UNL     1     -48.289  27.023  22.695  1.00  0.00     0.066 H 
ATOM     11  C   UNL     1     -48.454  30.108  24.943  1.00  0.00     0.076 A 
ATOM     12  C   UNL     1     -47.468  30.070  23.940  1.00  0.00     0.001 A 
ATOM     13  H   UNL     1     -46.670  28.853  22.335  1.00  0.00     0.063 H 
ATOM     14  C   UNL     1     -48.515  31.222  25.774  1.00  0.00     0.007 A 
ATOM     15  C   UNL     1     -46.571  31.138  23.789  1.00  0.00    -0.049 A 
ATOM     16  H   UNL     1     -49.290  31.217  26.533  1.00  0.00     0.069 H 
ATOM     17  C   UNL     1     -46.657  32.243  24.634  1.00  0.00    -0.019 A 
ATOM     18  H   UNL     1     -45.805  31.116  23.019  1.00  0.00     0.063 H 
ATOM     19  H   UNL     1     -45.958  33.067  24.515  1.00  0.00     0.066 H 
BRANCH   6  20
ATOM     20  N   UNL     1     -50.179  26.956  24.501  1.00  0.00    -0.373 N 
ATOM     21  H   UNL     1     -49.883  26.178  23.919  1.00  0.00     0.161 HD
BRANCH  20  22
ATOM     22  C   UNL     1     -51.576  27.296  24.286  1.00  0.00     0.005 C 
ATOM     23  H   UNL     1     -51.683  28.162  23.623  1.00  0.00     0.045 H 
ATOM     24  H   UNL     1     -52.077  26.449  23.805  1.00  0.00     0.045 H 
ATOM     25  H   UNL     1     -52.094  27.487  25.231  1.00  0.00     0.045 H 
ENDBRANCH  20  22
ENDBRANCH   6  20
ENDBRANCH   4   5
ENDBRANCH   1   4
BRANCH   1  26
ATOM     26  C   UNL     1     -46.234  35.400  26.860  1.00  0.00     0.123 C 
ATOM     27  O   UNL     1     -46.405  36.814  26.671  1.00  0.00    -0.345 OA
ATOM     28  C   UNL     1     -46.647  35.072  28.294  1.00  0.00     0.119 C 
ATOM     29  H   UNL     1     -45.167  35.180  26.735  1.00  0.00     0.067 H 
ATOM     30  C   UNL     1     -46.405  37.428  27.979  1.00  0.00     0.169 C 
ATOM     31  C   UNL     1     -46.248  36.333  29.029  1.00  0.00     0.173 C 
ATOM     32  H   UNL     1     -47.716  34.879  28.405  1.00  0.00     0.066 H 
ATOM     33  H   UNL     1     -45.531  38.089  28.013  1.00  0.00     0.088 H 
ATOM     34  F   UNL     1     -47.025  36.534  30.120  1.00  0.00    -0.239 F 
ATOM     35  H   UNL     1     -45.210  36.271  29.371  1.00  0.00     0.074 H 
BRANCH  28  36
ATOM     36  O   UNL     1     -45.945  33.932  28.792  1.00  0.00    -0.387 OA
ATOM     37  H   UNL     1     -45.741  34.116  29.729  1.00  0.00     0.211 HD
ENDBRANCH  28  36
BRANCH  30  38
ATOM     38  N   UNL     1     -47.580  38.277  28.111  1.00  0.00    -0.302 N 
ATOM     39  C   UNL     1     -47.526  39.636  28.338  1.00  0.00     0.019 A 
ATOM     40  C   UNL     1     -48.892  37.885  28.016  1.00  0.00     0.148 A 
ATOM     41  C   UNL     1     -48.820  40.125  28.398  1.00  0.00     0.031 A 
ATOM     42  H   UNL     1     -46.573  40.143  28.420  1.00  0.00     0.083 H 
ATOM     43  C   UNL     1     -49.694  39.007  28.191  1.00  0.00     0.071 A 
ATOM     44  N   UNL     1     -49.321  36.630  27.792  1.00  0.00    -0.218 NA
ATOM     45  C   UNL     1     -51.083  38.799  28.132  1.00  0.00     0.137 A 
ATOM     46  C   UNL     1     -50.662  36.562  27.747  1.00  0.00     0.120 A 
ATOM     47  N   UNL     1     -51.551  37.559  27.892  1.00  0.00    -0.219 NA
ATOM     48  H   UNL     1     -51.083  35.578  27.567  1.00  0.00     0.106 H 
BRANCH  41  49
ATOM     49  C   UNL     1     -49.140  41.533  28.596  1.00  0.00     0.073 A 
ATOM     50  C   UNL     1     -49.287  42.403  27.520  1.00  0.00    -0.035 A 
ATOM     51  N   UNL     1     -49.283  41.934  29.884  1.00  0.00    -0.256 NA
ATOM     52  C   UNL     1     -49.610  43.736  27.770  1.00  0.00    -0.056 A 
ATOM     53  H   UNL     1     -49.142  42.066  26.499  1.00  0.00     0.065 H 
ATOM     54  C   UNL     1     -49.604  43.233  30.095  1.00  0.00     0.030 A 
ATOM     55  C   UNL     1     -49.791  44.168  29.083  1.00  0.00    -0.033 A 
ATOM     56  H   UNL     1     -49.717  44.428  26.939  1.00  0.00     0.063 H 
ATOM     57  H   UNL     1     -49.709  43.510  31.140  1.00  0.00     0.084 H 
BRANCH  55  58
ATOM     58  C   UNL     1     -50.103  45.596  29.399  1.00  0.00    -0.038 C 
ATOM     59  H   UNL     1     -49.201  46.111  29.741  1.00  0.00     0.028 H 
ATOM     60  H   UNL     1     -50.869  45.665  30.178  1.00  0.00     0.028 H 
ATOM     61  H   UNL     1     -50.492  46.114  28.515  1.00  0.00     0.028 H 
ENDBRANCH  55  58
ENDBRANCH  41  49
BRANCH  45  62
ATOM     62  N   UNL     1     -52.022  39.809  28.294  1.00  0.00    -0.383 N 
ATOM     63  H   UNL     1     -52.862  39.472  28.768  1.00  0.00     0.158 HD
ATOM     64  H   UNL     1     -51.593  40.641  28.676  1.00  0.00     0.158 HD
ENDBRANCH  45  62
ENDBRANCH  30  38
ENDBRANCH   1  26
TORSDOF 10
ENDMDL
MODEL 7
REMARK VINA RESULT:      -8.3      3.582      6.712
REMARK SMILES CNc1ccc2ccc(OC[C@H]3O[C@@H](n4cc(-c5ccc(C)cn5)c5c(N)ncnc54)[C@@H](F)[C@@H]3O)cc2n1
REMARK SMILES IDX 11 1 10 4 9 5 3 6 4 7 38 8 5 9 37 11 6 12 36 14 7 15 8 17
REMARK SMILES IDX 2 20 1 22 12 26 13 27 34 28 14 30 32 31 33 34 35 36 15 38
REMARK SMILES IDX 16 39 31 40 17 41 25 43 30 44 26 45 29 46 28 47 18 49 19 50
REMARK SMILES IDX 24 51 20 52 23 54 21 55 22 58 27 62
REMARK H PARENT 11 2 11 3 4 10 5 13 36 16 7 18 8 19 2 21 1 23 1 24 1 25 12 29
REMARK H PARENT 34 32 14 33 32 35 35 37 16 42 29 48 19 53 20 56 23 57 22 59
REMARK H PARENT 22 60 22 61 27 63 27 64
REMARK Flexibility Score: inf
ROOT
ATOM      1  C   UNL     1     -43.776  40.213  27.729  1.00  0.00     0.117 C 
ATOM      2  H   UNL     1     -43.585  39.205  27.341  1.00  0.00     0.073 H 
ATOM      3  H   UNL     1     -43.102  40.300  28.589  1.00  0.00     0.073 H 
ENDROOT
BRANCH   1   4
ATOM      4  O   UNL     1     -45.156  40.251  28.098  1.00  0.00    -0.491 OA
BRANCH   4   5
ATOM      5  C   UNL     1     -45.927  39.144  27.875  1.00  0.00     0.121 A 
ATOM      6  C   UNL     1     -46.690  34.557  26.863  1.00  0.00     0.126 A 
ATOM      7  C   UNL     1     -48.068  34.712  26.975  1.00  0.00    -0.019 A 
ATOM      8  N   UNL     1     -45.847  35.594  27.044  1.00  0.00    -0.231 NA
ATOM      9  C   UNL     1     -48.592  35.958  27.302  1.00  0.00    -0.049 A 
ATOM     10  H   UNL     1     -48.732  33.872  26.797  1.00  0.00     0.066 H 
ATOM     11  C   UNL     1     -46.345  36.804  27.356  1.00  0.00     0.076 A 
ATOM     12  C   UNL     1     -47.726  37.035  27.501  1.00  0.00     0.001 A 
ATOM     13  H   UNL     1     -49.668  36.080  27.390  1.00  0.00     0.063 H 
ATOM     14  C   UNL     1     -45.470  37.868  27.546  1.00  0.00     0.007 A 
ATOM     15  C   UNL     1     -48.197  38.314  27.832  1.00  0.00    -0.049 A 
ATOM     16  H   UNL     1     -44.413  37.651  27.428  1.00  0.00     0.069 H 
ATOM     17  C   UNL     1     -47.298  39.361  28.019  1.00  0.00    -0.019 A 
ATOM     18  H   UNL     1     -49.262  38.502  27.944  1.00  0.00     0.063 H 
ATOM     19  H   UNL     1     -47.668  40.351  28.273  1.00  0.00     0.066 H 
BRANCH   6  20
ATOM     20  N   UNL     1     -46.200  33.289  26.505  1.00  0.00    -0.373 N 
ATOM     21  H   UNL     1     -45.238  33.206  26.822  1.00  0.00     0.161 HD
BRANCH  20  22
ATOM     22  C   UNL     1     -46.335  32.973  25.093  1.00  0.00     0.005 C 
ATOM     23  H   UNL     1     -45.862  33.733  24.462  1.00  0.00     0.045 H 
ATOM     24  H   UNL     1     -45.833  32.019  24.893  1.00  0.00     0.045 H 
ATOM     25  H   UNL     1     -47.384  32.854  24.806  1.00  0.00     0.045 H 
ENDBRANCH  20  22
ENDBRANCH   6  20
ENDBRANCH   4   5
ENDBRANCH   1   4
BRANCH   1  26
ATOM     26  C   UNL     1     -43.458  41.238  26.639  1.00  0.00     0.123 C 
ATOM     27  O   UNL     1     -44.555  41.356  25.718  1.00  0.00    -0.345 OA
ATOM     28  C   UNL     1     -43.173  42.630  27.200  1.00  0.00     0.119 C 
ATOM     29  H   UNL     1     -42.586  40.897  26.067  1.00  0.00     0.067 H 
ATOM     30  C   UNL     1     -44.626  42.739  25.306  1.00  0.00     0.169 C 
ATOM     31  C   UNL     1     -43.531  43.517  26.028  1.00  0.00     0.173 C 
ATOM     32  H   UNL     1     -43.780  42.878  28.074  1.00  0.00     0.066 H 
ATOM     33  H   UNL     1     -44.429  42.754  24.228  1.00  0.00     0.088 H 
ATOM     34  F   UNL     1     -43.938  44.741  26.442  1.00  0.00    -0.239 F 
ATOM     35  H   UNL     1     -42.664  43.663  25.374  1.00  0.00     0.074 H 
BRANCH  28  36
ATOM     36  O   UNL     1     -41.801  42.774  27.568  1.00  0.00    -0.387 OA
ATOM     37  H   UNL     1     -41.790  43.175  28.459  1.00  0.00     0.211 HD
ENDBRANCH  28  36
BRANCH  30  38
ATOM     38  N   UNL     1     -45.985  43.227  25.492  1.00  0.00    -0.302 N 
ATOM     39  C   UNL     1     -46.864  42.717  26.424  1.00  0.00     0.019 A 
ATOM     40  C   UNL     1     -46.591  44.252  24.810  1.00  0.00     0.148 A 
ATOM     41  C   UNL     1     -48.056  43.418  26.335  1.00  0.00     0.031 A 
ATOM     42  H   UNL     1     -46.564  41.911  27.082  1.00  0.00     0.083 H 
ATOM     43  C   UNL     1     -47.882  44.400  25.306  1.00  0.00     0.071 A 
ATOM     44  N   UNL     1     -46.028  44.984  23.833  1.00  0.00    -0.218 NA
ATOM     45  C   UNL     1     -48.665  45.408  24.719  1.00  0.00     0.137 A 
ATOM     46  C   UNL     1     -46.869  45.919  23.361  1.00  0.00     0.120 A 
ATOM     47  N   UNL     1     -48.131  46.174  23.748  1.00  0.00    -0.219 NA
ATOM     48  H   UNL     1     -46.483  46.551  22.568  1.00  0.00     0.106 H 
BRANCH  41  49
ATOM     49  C   UNL     1     -49.204  43.163  27.197  1.00  0.00     0.073 A 
ATOM     50  C   UNL     1     -50.352  42.544  26.712  1.00  0.00    -0.035 A 
ATOM     51  N   UNL     1     -49.079  43.564  28.486  1.00  0.00    -0.256 NA
ATOM     52  C   UNL     1     -51.413  42.312  27.587  1.00  0.00    -0.056 A 
ATOM     53  H   UNL     1     -50.440  42.256  25.670  1.00  0.00     0.065 H 
ATOM     54  C   UNL     1     -50.123  43.318  29.313  1.00  0.00     0.030 A 
ATOM     55  C   UNL     1     -51.300  42.689  28.924  1.00  0.00    -0.033 A 
ATOM     56  H   UNL     1     -52.320  41.840  27.219  1.00  0.00     0.063 H 
ATOM     57  H   UNL     1     -49.980  43.655  30.336  1.00  0.00     0.084 H 
BRANCH  55  58
ATOM     58  C   UNL     1     -52.425  42.489  29.888  1.00  0.00    -0.038 C 
ATOM     59  H   UNL     1     -52.382  41.482  30.314  1.00  0.00     0.028 H 
ATOM     60  H   UNL     1     -53.393  42.624  29.394  1.00  0.00     0.028 H 
ATOM     61  H   UNL     1     -52.374  43.219  30.704  1.00  0.00     0.028 H 
ENDBRANCH  55  58
ENDBRANCH  41  49
BRANCH  45  62
ATOM     62  N   UNL     1     -49.975  45.681  25.090  1.00  0.00    -0.383 N 
ATOM     63  H   UNL     1     -50.018  46.316  25.890  1.00  0.00     0.158 HD
ATOM     64  H   UNL     1     -50.532  45.934  24.286  1.00  0.00     0.158 HD
ENDBRANCH  45  62
ENDBRANCH  30  38
ENDBRANCH   1  26
TORSDOF 10
ENDMDL
