MODEL 1
REMARK VINA RESULT:      -9.5      0.000      0.000
REMARK SMILES CN(CCO)c1ccc2ccc(OCc3cncc(-n4cc(-c5ccn(C)n5)c5c(N)ncnc54)c3)cc2n1
REMARK SMILES IDX 13 1 12 2 6 3 7 4 39 5 8 6 38 8 9 9 37 11 10 12 11 14 2 17
REMARK SMILES IDX 1 18 3 22 4 25 5 28 14 30 15 33 16 34 36 35 17 36 19 38
REMARK SMILES IDX 18 40 20 42 21 43 35 44 22 45 29 47 34 48 30 49 33 50 32 51
REMARK SMILES IDX 23 53 24 54 28 55 25 56 26 58 27 60 31 64
REMARK H PARENT 7 7 8 10 37 13 10 15 11 16 1 19 1 20 1 21 3 23 3 24 4 26 4 27
REMARK H PARENT 5 29 14 31 14 32 16 37 36 39 18 41 21 46 33 52 24 57 25 59
REMARK H PARENT 27 61 27 62 27 63 31 65 31 66
REMARK Flexibility Score: inf
ROOT
ATOM      1  O   UNL     1     -47.835  33.883  27.109  1.00  0.00    -0.489 OA
ENDROOT
BRANCH   1   2
ATOM      2  C   UNL     1     -47.509  33.045  26.080  1.00  0.00     0.122 A 
ATOM      3  C   UNL     1     -48.806  28.989  23.926  1.00  0.00     0.129 A 
ATOM      4  C   UNL     1     -47.765  29.102  23.006  1.00  0.00    -0.019 A 
ATOM      5  N   UNL     1     -48.980  29.917  24.891  1.00  0.00    -0.231 NA
ATOM      6  C   UNL     1     -46.901  30.192  23.070  1.00  0.00    -0.049 A 
ATOM      7  H   UNL     1     -47.609  28.335  22.256  1.00  0.00     0.066 H 
ATOM      8  C   UNL     1     -48.152  30.975  24.960  1.00  0.00     0.076 A 
ATOM      9  C   UNL     1     -47.087  31.158  24.061  1.00  0.00     0.001 A 
ATOM     10  H   UNL     1     -46.090  30.273  22.354  1.00  0.00     0.063 H 
ATOM     11  C   UNL     1     -48.343  31.929  25.949  1.00  0.00     0.007 A 
ATOM     12  C   UNL     1     -46.245  32.277  24.177  1.00  0.00    -0.049 A 
ATOM     13  H   UNL     1     -49.168  31.795  26.646  1.00  0.00     0.069 H 
ATOM     14  C   UNL     1     -46.457  33.219  25.186  1.00  0.00    -0.019 A 
ATOM     15  H   UNL     1     -45.422  32.421  23.482  1.00  0.00     0.063 H 
ATOM     16  H   UNL     1     -45.790  34.073  25.237  1.00  0.00     0.066 H 
BRANCH   3  17
ATOM     17  N   UNL     1     -49.663  27.868  23.857  1.00  0.00    -0.357 N 
BRANCH  17  18
ATOM     18  C   UNL     1     -51.050  28.255  24.134  1.00  0.00     0.008 C 
ATOM     19  H   UNL     1     -51.740  27.828  23.397  1.00  0.00     0.046 H 
ATOM     20  H   UNL     1     -51.149  29.346  24.098  1.00  0.00     0.046 H 
ATOM     21  H   UNL     1     -51.369  27.950  25.137  1.00  0.00     0.046 H 
ENDBRANCH  17  18
BRANCH  17  22
ATOM     22  C   UNL     1     -49.206  26.718  24.666  1.00  0.00     0.042 C 
ATOM     23  H   UNL     1     -49.333  25.761  24.143  1.00  0.00     0.052 H 
ATOM     24  H   UNL     1     -48.122  26.808  24.826  1.00  0.00     0.052 H 
BRANCH  22  25
ATOM     25  C   UNL     1     -49.863  26.679  26.052  1.00  0.00     0.061 C 
ATOM     26  H   UNL     1     -50.933  26.457  25.985  1.00  0.00     0.058 H 
ATOM     27  H   UNL     1     -49.742  27.641  26.560  1.00  0.00     0.058 H 
BRANCH  25  28
ATOM     28  O   UNL     1     -49.252  25.673  26.862  1.00  0.00    -0.395 OA
ATOM     29  H   UNL     1     -49.026  24.942  26.261  1.00  0.00     0.210 HD
ENDBRANCH  25  28
ENDBRANCH  22  25
ENDBRANCH  17  22
ENDBRANCH   3  17
ENDBRANCH   1   2
BRANCH   1  30
ATOM     30  C   UNL     1     -48.199  35.221  26.774  1.00  0.00     0.115 C 
ATOM     31  H   UNL     1     -48.260  35.342  25.685  1.00  0.00     0.076 H 
ATOM     32  H   UNL     1     -49.165  35.455  27.238  1.00  0.00     0.076 H 
BRANCH  30  33
ATOM     33  C   UNL     1     -47.159  36.183  27.291  1.00  0.00     0.010 A 
ATOM     34  C   UNL     1     -46.327  35.811  28.339  1.00  0.00     0.034 A 
ATOM     35  C   UNL     1     -47.029  37.491  26.802  1.00  0.00    -0.028 A 
ATOM     36  N   UNL     1     -45.402  36.621  28.890  1.00  0.00    -0.262 NA
ATOM     37  H   UNL     1     -46.381  34.821  28.783  1.00  0.00     0.084 H 
ATOM     38  C   UNL     1     -46.074  38.367  27.341  1.00  0.00     0.066 A 
ATOM     39  H   UNL     1     -47.702  37.801  26.008  1.00  0.00     0.065 H 
ATOM     40  C   UNL     1     -45.292  37.876  28.380  1.00  0.00     0.051 A 
ATOM     41  H   UNL     1     -44.511  38.450  28.862  1.00  0.00     0.086 H 
BRANCH  38  42
ATOM     42  N   UNL     1     -45.916  39.695  26.830  1.00  0.00    -0.299 N 
ATOM     43  C   UNL     1     -44.744  40.204  26.303  1.00  0.00     0.021 A 
ATOM     44  C   UNL     1     -46.872  40.712  26.763  1.00  0.00     0.150 A 
ATOM     45  C   UNL     1     -44.933  41.520  25.943  1.00  0.00     0.033 A 
ATOM     46  H   UNL     1     -43.834  39.625  26.251  1.00  0.00     0.083 H 
ATOM     47  C   UNL     1     -46.291  41.845  26.186  1.00  0.00     0.071 A 
ATOM     48  N   UNL     1     -48.158  40.623  27.155  1.00  0.00    -0.218 NA
ATOM     49  C   UNL     1     -47.135  42.951  25.982  1.00  0.00     0.137 A 
ATOM     50  C   UNL     1     -48.852  41.746  26.940  1.00  0.00     0.120 A 
ATOM     51  N   UNL     1     -48.419  42.883  26.378  1.00  0.00    -0.219 NA
ATOM     52  H   UNL     1     -49.891  41.734  27.251  1.00  0.00     0.106 H 
BRANCH  45  53
ATOM     53  C   UNL     1     -43.892  42.393  25.408  1.00  0.00     0.095 A 
ATOM     54  C   UNL     1     -42.724  42.789  26.093  1.00  0.00    -0.016 A 
ATOM     55  N   UNL     1     -43.919  42.856  24.154  1.00  0.00    -0.173 NA
ATOM     56  C   UNL     1     -42.027  43.556  25.186  1.00  0.00     0.025 A 
ATOM     57  H   UNL     1     -42.423  42.544  27.102  1.00  0.00     0.066 H 
ATOM     58  N   UNL     1     -42.775  43.557  24.046  1.00  0.00    -0.275 N 
ATOM     59  H   UNL     1     -41.079  44.069  25.253  1.00  0.00     0.084 H 
BRANCH  58  60
ATOM     60  C   UNL     1     -42.454  44.202  22.796  1.00  0.00     0.030 C 
ATOM     61  H   UNL     1     -42.151  43.434  22.080  1.00  0.00     0.048 H 
ATOM     62  H   UNL     1     -41.638  44.911  22.952  1.00  0.00     0.048 H 
ATOM     63  H   UNL     1     -43.343  44.729  22.442  1.00  0.00     0.048 H 
ENDBRANCH  58  60
ENDBRANCH  45  53
BRANCH  49  64
ATOM     64  N   UNL     1     -46.757  44.129  25.349  1.00  0.00    -0.383 N 
ATOM     65  H   UNL     1     -46.751  44.065  24.338  1.00  0.00     0.158 HD
ATOM     66  H   UNL     1     -47.292  44.905  25.727  1.00  0.00     0.158 HD
ENDBRANCH  49  64
ENDBRANCH  38  42
ENDBRANCH  30  33
ENDBRANCH   1  30
TORSDOF 12
ENDMDL
MODEL 2
REMARK VINA RESULT:      -9.5      3.101     12.555
REMARK SMILES CN(CCO)c1ccc2ccc(OCc3cncc(-n4cc(-c5ccn(C)n5)c5c(N)ncnc54)c3)cc2n1
REMARK SMILES IDX 13 1 12 2 6 3 7 4 39 5 8 6 38 8 9 9 37 11 10 12 11 14 2 17
REMARK SMILES IDX 1 18 3 22 4 25 5 28 14 30 15 33 16 34 36 35 17 36 19 38
REMARK SMILES IDX 18 40 20 42 21 43 35 44 22 45 29 47 34 48 30 49 33 50 32 51
REMARK SMILES IDX 23 53 24 54 28 55 25 56 26 58 27 60 31 64
REMARK H PARENT 7 7 8 10 37 13 10 15 11 16 1 19 1 20 1 21 3 23 3 24 4 26 4 27
REMARK H PARENT 5 29 14 31 14 32 16 37 36 39 18 41 21 46 33 52 24 57 25 59
REMARK H PARENT 27 61 27 62 27 63 31 65 31 66
REMARK Flexibility Score: inf
ROOT
ATOM      1  O   UNL     1     -48.378  36.642  27.189  1.00  0.00    -0.489 OA
ENDROOT
BRANCH   1   2
ATOM      2  C   UNL     1     -47.377  36.957  28.066  1.00  0.00     0.122 A 
ATOM      3  C   UNL     1     -43.691  39.916  28.720  1.00  0.00     0.129 A 
ATOM      4  C   UNL     1     -43.391  39.329  29.948  1.00  0.00    -0.019 A 
ATOM      5  N   UNL     1     -44.725  39.471  27.975  1.00  0.00    -0.231 NA
ATOM      6  C   UNL     1     -44.174  38.279  30.422  1.00  0.00    -0.049 A 
ATOM      7  H   UNL     1     -42.538  39.667  30.525  1.00  0.00     0.066 H 
ATOM      8  C   UNL     1     -45.489  38.459  28.426  1.00  0.00     0.076 A 
ATOM      9  C   UNL     1     -45.249  37.825  29.657  1.00  0.00     0.001 A 
ATOM     10  H   UNL     1     -43.933  37.823  31.378  1.00  0.00     0.063 H 
ATOM     11  C   UNL     1     -46.554  38.012  27.657  1.00  0.00     0.007 A 
ATOM     12  C   UNL     1     -46.072  36.768  30.082  1.00  0.00    -0.049 A 
ATOM     13  H   UNL     1     -46.747  38.501  26.704  1.00  0.00     0.069 H 
ATOM     14  C   UNL     1     -47.134  36.335  29.287  1.00  0.00    -0.019 A 
ATOM     15  H   UNL     1     -45.889  36.277  31.035  1.00  0.00     0.063 H 
ATOM     16  H   UNL     1     -47.751  35.521  29.654  1.00  0.00     0.066 H 
BRANCH   3  17
ATOM     17  N   UNL     1     -42.876  40.969  28.247  1.00  0.00    -0.357 N 
BRANCH  17  18
ATOM     18  C   UNL     1     -42.168  41.617  29.355  1.00  0.00     0.008 C 
ATOM     19  H   UNL     1     -42.038  40.933  30.202  1.00  0.00     0.046 H 
ATOM     20  H   UNL     1     -42.737  42.485  29.707  1.00  0.00     0.046 H 
ATOM     21  H   UNL     1     -41.186  41.995  29.051  1.00  0.00     0.046 H 
ENDBRANCH  17  18
BRANCH  17  22
ATOM     22  C   UNL     1     -43.589  41.925  27.372  1.00  0.00     0.042 C 
ATOM     23  H   UNL     1     -44.299  41.426  26.700  1.00  0.00     0.052 H 
ATOM     24  H   UNL     1     -44.208  42.582  27.998  1.00  0.00     0.052 H 
BRANCH  22  25
ATOM     25  C   UNL     1     -42.628  42.827  26.586  1.00  0.00     0.061 C 
ATOM     26  H   UNL     1     -42.482  43.791  27.081  1.00  0.00     0.058 H 
ATOM     27  H   UNL     1     -43.016  43.013  25.579  1.00  0.00     0.058 H 
BRANCH  25  28
ATOM     28  O   UNL     1     -41.352  42.197  26.456  1.00  0.00    -0.395 OA
ATOM     29  H   UNL     1     -41.093  42.302  25.524  1.00  0.00     0.210 HD
ENDBRANCH  25  28
ENDBRANCH  22  25
ENDBRANCH  17  22
ENDBRANCH   3  17
ENDBRANCH   1   2
BRANCH   1  30
ATOM     30  C   UNL     1     -48.901  35.316  27.240  1.00  0.00     0.115 C 
ATOM     31  H   UNL     1     -48.896  34.940  28.271  1.00  0.00     0.076 H 
ATOM     32  H   UNL     1     -49.923  35.320  26.841  1.00  0.00     0.076 H 
BRANCH  30  33
ATOM     33  C   UNL     1     -48.050  34.393  26.405  1.00  0.00     0.010 A 
ATOM     34  C   UNL     1     -46.815  34.821  25.936  1.00  0.00     0.034 A 
ATOM     35  C   UNL     1     -48.479  33.117  26.011  1.00  0.00    -0.028 A 
ATOM     36  N   UNL     1     -46.010  34.079  25.149  1.00  0.00    -0.262 NA
ATOM     37  H   UNL     1     -46.422  35.803  26.183  1.00  0.00     0.084 H 
ATOM     38  C   UNL     1     -47.671  32.308  25.198  1.00  0.00     0.066 A 
ATOM     39  H   UNL     1     -49.460  32.791  26.343  1.00  0.00     0.065 H 
ATOM     40  C   UNL     1     -46.451  32.842  24.801  1.00  0.00     0.051 A 
ATOM     41  H   UNL     1     -45.735  32.306  24.190  1.00  0.00     0.086 H 
BRANCH  38  42
ATOM     42  N   UNL     1     -48.090  30.994  24.813  1.00  0.00    -0.299 N 
ATOM     43  C   UNL     1     -48.215  29.921  25.676  1.00  0.00     0.021 A 
ATOM     44  C   UNL     1     -48.441  30.539  23.540  1.00  0.00     0.150 A 
ATOM     45  C   UNL     1     -48.599  28.803  24.969  1.00  0.00     0.033 A 
ATOM     46  H   UNL     1     -47.985  29.995  26.729  1.00  0.00     0.083 H 
ATOM     47  C   UNL     1     -48.792  29.189  23.618  1.00  0.00     0.071 A 
ATOM     48  N   UNL     1     -48.475  31.278  22.413  1.00  0.00    -0.218 NA
ATOM     49  C   UNL     1     -49.237  28.584  22.430  1.00  0.00     0.137 A 
ATOM     50  C   UNL     1     -48.883  30.586  21.344  1.00  0.00     0.120 A 
ATOM     51  N   UNL     1     -49.265  29.302  21.294  1.00  0.00    -0.219 NA
ATOM     52  H   UNL     1     -48.916  31.129  20.405  1.00  0.00     0.106 H 
BRANCH  45  53
ATOM     53  C   UNL     1     -48.768  27.472  25.545  1.00  0.00     0.095 A 
ATOM     54  C   UNL     1     -50.000  26.816  25.745  1.00  0.00    -0.016 A 
ATOM     55  N   UNL     1     -47.730  26.701  25.885  1.00  0.00    -0.173 NA
ATOM     56  C   UNL     1     -49.665  25.583  26.256  1.00  0.00     0.025 A 
ATOM     57  H   UNL     1     -50.997  27.183  25.536  1.00  0.00     0.066 H 
ATOM     58  N   UNL     1     -48.303  25.561  26.311  1.00  0.00    -0.275 N 
ATOM     59  H   UNL     1     -50.268  24.739  26.560  1.00  0.00     0.084 H 
BRANCH  58  60
ATOM     60  C   UNL     1     -47.468  24.470  26.754  1.00  0.00     0.030 C 
ATOM     61  H   UNL     1     -47.137  23.911  25.875  1.00  0.00     0.048 H 
ATOM     62  H   UNL     1     -48.043  23.818  27.416  1.00  0.00     0.048 H 
ATOM     63  H   UNL     1     -46.613  24.887  27.290  1.00  0.00     0.048 H 
ENDBRANCH  58  60
ENDBRANCH  45  53
BRANCH  49  64
ATOM     64  N   UNL     1     -49.704  27.278  22.334  1.00  0.00    -0.383 N 
ATOM     65  H   UNL     1     -50.141  27.065  21.446  1.00  0.00     0.158 HD
ATOM     66  H   UNL     1     -48.972  26.634  22.617  1.00  0.00     0.158 HD
ENDBRANCH  49  64
ENDBRANCH  38  42
ENDBRANCH  30  33
ENDBRANCH   1  30
TORSDOF 12
ENDMDL
MODEL 3
REMARK VINA RESULT:      -9.4      2.475      3.801
REMARK SMILES CN(CCO)c1ccc2ccc(OCc3cncc(-n4cc(-c5ccn(C)n5)c5c(N)ncnc54)c3)cc2n1
REMARK SMILES IDX 13 1 12 2 6 3 7 4 39 5 8 6 38 8 9 9 37 11 10 12 11 14 2 17
REMARK SMILES IDX 1 18 3 22 4 25 5 28 14 30 15 33 16 34 36 35 17 36 19 38
REMARK SMILES IDX 18 40 20 42 21 43 35 44 22 45 29 47 34 48 30 49 33 50 32 51
REMARK SMILES IDX 23 53 24 54 28 55 25 56 26 58 27 60 31 64
REMARK H PARENT 7 7 8 10 37 13 10 15 11 16 1 19 1 20 1 21 3 23 3 24 4 26 4 27
REMARK H PARENT 5 29 14 31 14 32 16 37 36 39 18 41 21 46 33 52 24 57 25 59
REMARK H PARENT 27 61 27 62 27 63 31 65 31 66
REMARK Flexibility Score: inf
ROOT
ATOM      1  O   UNL     1     -46.093  35.413  26.739  1.00  0.00    -0.489 OA
ENDROOT
BRANCH   1   2
ATOM      2  C   UNL     1     -46.988  34.464  26.328  1.00  0.00     0.122 A 
ATOM      3  C   UNL     1     -47.384  30.509  23.687  1.00  0.00     0.129 A 
ATOM      4  C   UNL     1     -48.741  30.402  23.987  1.00  0.00    -0.019 A 
ATOM      5  N   UNL     1     -46.645  31.525  24.181  1.00  0.00    -0.231 NA
ATOM      6  C   UNL     1     -49.343  31.344  24.817  1.00  0.00    -0.049 A 
ATOM      7  H   UNL     1     -49.337  29.604  23.558  1.00  0.00     0.066 H 
ATOM      8  C   UNL     1     -47.217  32.440  24.986  1.00  0.00     0.076 A 
ATOM      9  C   UNL     1     -48.577  32.390  25.337  1.00  0.00     0.001 A 
ATOM     10  H   UNL     1     -50.401  31.258  25.044  1.00  0.00     0.063 H 
ATOM     11  C   UNL     1     -46.449  33.477  25.496  1.00  0.00     0.007 A 
ATOM     12  C   UNL     1     -49.130  33.371  26.176  1.00  0.00    -0.049 A 
ATOM     13  H   UNL     1     -45.394  33.519  25.231  1.00  0.00     0.069 H 
ATOM     14  C   UNL     1     -48.335  34.407  26.671  1.00  0.00    -0.019 A 
ATOM     15  H   UNL     1     -50.181  33.333  26.450  1.00  0.00     0.063 H 
ATOM     16  H   UNL     1     -48.797  35.141  27.323  1.00  0.00     0.066 H 
BRANCH   3  17
ATOM     17  N   UNL     1     -46.794  29.554  22.830  1.00  0.00    -0.357 N 
BRANCH  17  18
ATOM     18  C   UNL     1     -46.558  28.293  23.540  1.00  0.00     0.008 C 
ATOM     19  H   UNL     1     -46.527  27.444  22.848  1.00  0.00     0.046 H 
ATOM     20  H   UNL     1     -47.364  28.112  24.261  1.00  0.00     0.046 H 
ATOM     21  H   UNL     1     -45.628  28.314  24.118  1.00  0.00     0.046 H 
ENDBRANCH  17  18
BRANCH  17  22
ATOM     22  C   UNL     1     -45.599  30.053  22.115  1.00  0.00     0.042 C 
ATOM     23  H   UNL     1     -44.805  30.373  22.803  1.00  0.00     0.052 H 
ATOM     24  H   UNL     1     -45.159  29.225  21.543  1.00  0.00     0.052 H 
BRANCH  22  25
ATOM     25  C   UNL     1     -45.938  31.163  21.112  1.00  0.00     0.061 C 
ATOM     26  H   UNL     1     -47.015  31.228  20.929  1.00  0.00     0.058 H 
ATOM     27  H   UNL     1     -45.437  30.981  20.156  1.00  0.00     0.058 H 
BRANCH  25  28
ATOM     28  O   UNL     1     -45.496  32.429  21.606  1.00  0.00    -0.395 OA
ATOM     29  H   UNL     1     -45.345  32.986  20.823  1.00  0.00     0.210 HD
ENDBRANCH  25  28
ENDBRANCH  22  25
ENDBRANCH  17  22
ENDBRANCH   3  17
ENDBRANCH   1   2
BRANCH   1  30
ATOM     30  C   UNL     1     -46.262  35.948  28.051  1.00  0.00     0.115 C 
ATOM     31  H   UNL     1     -47.027  35.386  28.600  1.00  0.00     0.076 H 
ATOM     32  H   UNL     1     -45.302  35.902  28.581  1.00  0.00     0.076 H 
BRANCH  30  33
ATOM     33  C   UNL     1     -46.710  37.385  27.969  1.00  0.00     0.010 A 
ATOM     34  C   UNL     1     -47.990  37.738  28.375  1.00  0.00     0.034 A 
ATOM     35  C   UNL     1     -45.907  38.399  27.427  1.00  0.00    -0.028 A 
ATOM     36  N   UNL     1     -48.488  38.989  28.295  1.00  0.00    -0.262 NA
ATOM     37  H   UNL     1     -48.679  37.006  28.788  1.00  0.00     0.084 H 
ATOM     38  C   UNL     1     -46.381  39.715  27.330  1.00  0.00     0.066 A 
ATOM     39  H   UNL     1     -44.918  38.122  27.072  1.00  0.00     0.065 H 
ATOM     40  C   UNL     1     -47.676  39.948  27.780  1.00  0.00     0.051 A 
ATOM     41  H   UNL     1     -48.143  40.925  27.775  1.00  0.00     0.086 H 
BRANCH  38  42
ATOM     42  N   UNL     1     -45.558  40.762  26.803  1.00  0.00    -0.299 N 
ATOM     43  C   UNL     1     -45.922  41.610  25.774  1.00  0.00     0.021 A 
ATOM     44  C   UNL     1     -44.268  41.127  27.199  1.00  0.00     0.150 A 
ATOM     45  C   UNL     1     -44.881  42.469  25.494  1.00  0.00     0.033 A 
ATOM     46  H   UNL     1     -46.874  41.533  25.270  1.00  0.00     0.083 H 
ATOM     47  C   UNL     1     -43.841  42.205  26.421  1.00  0.00     0.071 A 
ATOM     48  N   UNL     1     -43.551  40.563  28.191  1.00  0.00    -0.218 NA
ATOM     49  C   UNL     1     -42.580  42.745  26.730  1.00  0.00     0.137 A 
ATOM     50  C   UNL     1     -42.358  41.140  28.370  1.00  0.00     0.120 A 
ATOM     51  N   UNL     1     -41.846  42.188  27.709  1.00  0.00    -0.219 NA
ATOM     52  H   UNL     1     -41.732  40.716  29.148  1.00  0.00     0.106 H 
BRANCH  45  53
ATOM     53  C   UNL     1     -44.888  43.462  24.424  1.00  0.00     0.095 A 
ATOM     54  C   UNL     1     -44.102  43.411  23.254  1.00  0.00    -0.016 A 
ATOM     55  N   UNL     1     -45.719  44.510  24.423  1.00  0.00    -0.173 NA
ATOM     56  C   UNL     1     -44.481  44.516  22.526  1.00  0.00     0.025 A 
ATOM     57  H   UNL     1     -43.367  42.669  22.972  1.00  0.00     0.066 H 
ATOM     58  N   UNL     1     -45.452  45.130  23.260  1.00  0.00    -0.275 N 
ATOM     59  H   UNL     1     -44.160  44.892  21.565  1.00  0.00     0.084 H 
BRANCH  58  60
ATOM     60  C   UNL     1     -46.186  46.322  22.907  1.00  0.00     0.030 C 
ATOM     61  H   UNL     1     -45.836  46.665  21.931  1.00  0.00     0.048 H 
ATOM     62  H   UNL     1     -46.011  47.093  23.661  1.00  0.00     0.048 H 
ATOM     63  H   UNL     1     -47.249  46.072  22.869  1.00  0.00     0.048 H 
ENDBRANCH  58  60
ENDBRANCH  45  53
BRANCH  49  64
ATOM     64  N   UNL     1     -42.028  43.867  26.122  1.00  0.00    -0.383 N 
ATOM     65  H   UNL     1     -42.712  44.474  25.687  1.00  0.00     0.158 HD
ATOM     66  H   UNL     1     -41.394  44.326  26.768  1.00  0.00     0.158 HD
ENDBRANCH  49  64
ENDBRANCH  38  42
ENDBRANCH  30  33
ENDBRANCH   1  30
TORSDOF 12
ENDMDL
MODEL 4
REMARK VINA RESULT:      -9.3      1.877      3.081
REMARK SMILES CN(CCO)c1ccc2ccc(OCc3cncc(-n4cc(-c5ccn(C)n5)c5c(N)ncnc54)c3)cc2n1
REMARK SMILES IDX 13 1 12 2 6 3 7 4 39 5 8 6 38 8 9 9 37 11 10 12 11 14 2 17
REMARK SMILES IDX 1 18 3 22 4 25 5 28 14 30 15 33 16 34 36 35 17 36 19 38
REMARK SMILES IDX 18 40 20 42 21 43 35 44 22 45 29 47 34 48 30 49 33 50 32 51
REMARK SMILES IDX 23 53 24 54 28 55 25 56 26 58 27 60 31 64
REMARK H PARENT 7 7 8 10 37 13 10 15 11 16 1 19 1 20 1 21 3 23 3 24 4 26 4 27
REMARK H PARENT 5 29 14 31 14 32 16 37 36 39 18 41 21 46 33 52 24 57 25 59
REMARK H PARENT 27 61 27 62 27 63 31 65 31 66
REMARK Flexibility Score: inf
ROOT
ATOM      1  O   UNL     1     -47.000  33.594  25.265  1.00  0.00    -0.489 OA
ENDROOT
BRANCH   1   2
ATOM      2  C   UNL     1     -46.998  32.351  24.694  1.00  0.00     0.122 A 
ATOM      3  C   UNL     1     -49.189  28.114  24.809  1.00  0.00     0.129 A 
ATOM      4  C   UNL     1     -48.358  27.617  23.807  1.00  0.00    -0.019 A 
ATOM      5  N   UNL     1     -49.047  29.378  25.262  1.00  0.00    -0.231 NA
ATOM      6  C   UNL     1     -47.377  28.434  23.253  1.00  0.00    -0.049 A 
ATOM      7  H   UNL     1     -48.455  26.590  23.473  1.00  0.00     0.066 H 
ATOM      8  C   UNL     1     -48.103  30.177  24.731  1.00  0.00     0.076 A 
ATOM      9  C   UNL     1     -47.235  29.745  23.713  1.00  0.00     0.001 A 
ATOM     10  H   UNL     1     -46.729  28.040  22.476  1.00  0.00     0.063 H 
ATOM     11  C   UNL     1     -47.967  31.477  25.196  1.00  0.00     0.007 A 
ATOM     12  C   UNL     1     -46.261  30.614  23.195  1.00  0.00    -0.049 A 
ATOM     13  H   UNL     1     -48.639  31.818  25.982  1.00  0.00     0.069 H 
ATOM     14  C   UNL     1     -46.144  31.917  23.685  1.00  0.00    -0.019 A 
ATOM     15  H   UNL     1     -45.590  30.283  22.406  1.00  0.00     0.063 H 
ATOM     16  H   UNL     1     -45.384  32.560  23.254  1.00  0.00     0.066 H 
BRANCH   3  17
ATOM     17  N   UNL     1     -50.169  27.265  25.371  1.00  0.00    -0.357 N 
BRANCH  17  18
ATOM     18  C   UNL     1     -49.644  25.907  25.541  1.00  0.00     0.008 C 
ATOM     19  H   UNL     1     -49.192  25.534  24.614  1.00  0.00     0.046 H 
ATOM     20  H   UNL     1     -50.455  25.223  25.819  1.00  0.00     0.046 H 
ATOM     21  H   UNL     1     -48.904  25.849  26.345  1.00  0.00     0.046 H 
ENDBRANCH  17  18
BRANCH  17  22
ATOM     22  C   UNL     1     -51.467  27.304  24.664  1.00  0.00     0.042 C 
ATOM     23  H   UNL     1     -52.114  26.458  24.931  1.00  0.00     0.052 H 
ATOM     24  H   UNL     1     -52.021  28.195  24.993  1.00  0.00     0.052 H 
BRANCH  22  25
ATOM     25  C   UNL     1     -51.303  27.413  23.143  1.00  0.00     0.061 C 
ATOM     26  H   UNL     1     -50.308  27.777  22.869  1.00  0.00     0.058 H 
ATOM     27  H   UNL     1     -52.047  28.099  22.726  1.00  0.00     0.058 H 
BRANCH  25  28
ATOM     28  O   UNL     1     -51.490  26.135  22.532  1.00  0.00    -0.395 OA
ATOM     29  H   UNL     1     -52.420  26.105  22.248  1.00  0.00     0.210 HD
ENDBRANCH  25  28
ENDBRANCH  22  25
ENDBRANCH  17  22
ENDBRANCH   3  17
ENDBRANCH   1   2
BRANCH   1  30
ATOM     30  C   UNL     1     -47.248  33.669  26.668  1.00  0.00     0.115 C 
ATOM     31  H   UNL     1     -48.086  33.018  26.946  1.00  0.00     0.076 H 
ATOM     32  H   UNL     1     -46.340  33.372  27.207  1.00  0.00     0.076 H 
BRANCH  30  33
ATOM     33  C   UNL     1     -47.610  35.081  27.053  1.00  0.00     0.010 A 
ATOM     34  C   UNL     1     -48.933  35.412  27.316  1.00  0.00     0.034 A 
ATOM     35  C   UNL     1     -46.668  36.120  27.093  1.00  0.00    -0.028 A 
ATOM     36  N   UNL     1     -49.351  36.657  27.624  1.00  0.00    -0.262 NA
ATOM     37  H   UNL     1     -49.723  34.667  27.286  1.00  0.00     0.084 H 
ATOM     38  C   UNL     1     -47.058  37.429  27.415  1.00  0.00     0.066 A 
ATOM     39  H   UNL     1     -45.638  35.875  26.850  1.00  0.00     0.065 H 
ATOM     40  C   UNL     1     -48.409  37.634  27.670  1.00  0.00     0.051 A 
ATOM     41  H   UNL     1     -48.824  38.595  27.947  1.00  0.00     0.086 H 
BRANCH  38  42
ATOM     42  N   UNL     1     -46.099  38.490  27.485  1.00  0.00    -0.299 N 
ATOM     43  C   UNL     1     -45.984  39.512  26.562  1.00  0.00     0.021 A 
ATOM     44  C   UNL     1     -45.118  38.703  28.456  1.00  0.00     0.150 A 
ATOM     45  C   UNL     1     -44.936  40.335  26.912  1.00  0.00     0.033 A 
ATOM     46  H   UNL     1     -46.618  39.578  25.689  1.00  0.00     0.083 H 
ATOM     47  C   UNL     1     -44.405  39.861  28.138  1.00  0.00     0.071 A 
ATOM     48  N   UNL     1     -44.902  37.944  29.549  1.00  0.00    -0.218 NA
ATOM     49  C   UNL     1     -43.414  40.263  29.051  1.00  0.00     0.137 A 
ATOM     50  C   UNL     1     -43.916  38.407  30.324  1.00  0.00     0.120 A 
ATOM     51  N   UNL     1     -43.177  39.510  30.140  1.00  0.00    -0.219 NA
ATOM     52  H   UNL     1     -43.689  37.825  31.211  1.00  0.00     0.106 H 
BRANCH  45  53
ATOM     53  C   UNL     1     -44.484  41.484  26.132  1.00  0.00     0.095 A 
ATOM     54  C   UNL     1     -45.323  42.412  25.480  1.00  0.00    -0.016 A 
ATOM     55  N   UNL     1     -43.193  41.810  26.018  1.00  0.00    -0.173 NA
ATOM     56  C   UNL     1     -44.464  43.335  24.927  1.00  0.00     0.025 A 
ATOM     57  H   UNL     1     -46.403  42.418  25.427  1.00  0.00     0.066 H 
ATOM     58  N   UNL     1     -43.210  42.938  25.284  1.00  0.00    -0.275 N 
ATOM     59  H   UNL     1     -44.641  44.226  24.342  1.00  0.00     0.084 H 
BRANCH  58  60
ATOM     60  C   UNL     1     -41.965  43.596  24.967  1.00  0.00     0.030 C 
ATOM     61  H   UNL     1     -42.173  44.652  24.781  1.00  0.00     0.048 H 
ATOM     62  H   UNL     1     -41.528  43.138  24.077  1.00  0.00     0.048 H 
ATOM     63  H   UNL     1     -41.289  43.480  25.817  1.00  0.00     0.048 H 
ENDBRANCH  58  60
ENDBRANCH  45  53
BRANCH  49  64
ATOM     64  N   UNL     1     -42.664  41.428  28.944  1.00  0.00    -0.383 N 
ATOM     65  H   UNL     1     -42.205  41.698  29.805  1.00  0.00     0.158 HD
ATOM     66  H   UNL     1     -42.055  41.366  28.134  1.00  0.00     0.158 HD
ENDBRANCH  49  64
ENDBRANCH  38  42
ENDBRANCH  30  33
ENDBRANCH   1  30
TORSDOF 12
ENDMDL
MODEL 5
REMARK VINA RESULT:      -9.3      2.815     12.768
REMARK SMILES CN(CCO)c1ccc2ccc(OCc3cncc(-n4cc(-c5ccn(C)n5)c5c(N)ncnc54)c3)cc2n1
REMARK SMILES IDX 13 1 12 2 6 3 7 4 39 5 8 6 38 8 9 9 37 11 10 12 11 14 2 17
REMARK SMILES IDX 1 18 3 22 4 25 5 28 14 30 15 33 16 34 36 35 17 36 19 38
REMARK SMILES IDX 18 40 20 42 21 43 35 44 22 45 29 47 34 48 30 49 33 50 32 51
REMARK SMILES IDX 23 53 24 54 28 55 25 56 26 58 27 60 31 64
REMARK H PARENT 7 7 8 10 37 13 10 15 11 16 1 19 1 20 1 21 3 23 3 24 4 26 4 27
REMARK H PARENT 5 29 14 31 14 32 16 37 36 39 18 41 21 46 33 52 24 57 25 59
REMARK H PARENT 27 61 27 62 27 63 31 65 31 66
REMARK Flexibility Score: inf
ROOT
ATOM      1  O   UNL     1     -46.684  37.306  26.975  1.00  0.00    -0.489 OA
ENDROOT
BRANCH   1   2
ATOM      2  C   UNL     1     -45.790  38.261  27.372  1.00  0.00     0.122 A 
ATOM      3  C   UNL     1     -43.864  42.432  26.084  1.00  0.00     0.129 A 
ATOM      4  C   UNL     1     -43.081  42.467  27.236  1.00  0.00    -0.019 A 
ATOM      5  N   UNL     1     -44.699  41.398  25.846  1.00  0.00    -0.231 NA
ATOM      6  C   UNL     1     -43.167  41.432  28.163  1.00  0.00    -0.049 A 
ATOM      7  H   UNL     1     -42.386  43.283  27.403  1.00  0.00     0.066 H 
ATOM      8  C   UNL     1     -44.792  40.394  26.738  1.00  0.00     0.076 A 
ATOM      9  C   UNL     1     -44.038  40.368  27.924  1.00  0.00     0.001 A 
ATOM     10  H   UNL     1     -42.552  41.463  29.057  1.00  0.00     0.063 H 
ATOM     11  C   UNL     1     -45.658  39.339  26.490  1.00  0.00     0.007 A 
ATOM     12  C   UNL     1     -44.165  39.294  28.821  1.00  0.00    -0.049 A 
ATOM     13  H   UNL     1     -46.246  39.355  25.575  1.00  0.00     0.069 H 
ATOM     14  C   UNL     1     -45.041  38.242  28.545  1.00  0.00    -0.019 A 
ATOM     15  H   UNL     1     -43.584  39.273  29.740  1.00  0.00     0.063 H 
ATOM     16  H   UNL     1     -45.117  37.436  29.266  1.00  0.00     0.066 H 
BRANCH   3  17
ATOM     17  N   UNL     1     -43.751  43.483  25.145  1.00  0.00    -0.357 N 
BRANCH  17  18
ATOM     18  C   UNL     1     -44.869  43.457  24.198  1.00  0.00     0.008 C 
ATOM     19  H   UNL     1     -45.619  44.219  24.442  1.00  0.00     0.046 H 
ATOM     20  H   UNL     1     -45.362  42.478  24.226  1.00  0.00     0.046 H 
ATOM     21  H   UNL     1     -44.537  43.604  23.165  1.00  0.00     0.046 H 
ENDBRANCH  17  18
BRANCH  17  22
ATOM     22  C   UNL     1     -42.429  43.551  24.485  1.00  0.00     0.042 C 
ATOM     23  H   UNL     1     -41.699  44.126  25.071  1.00  0.00     0.052 H 
ATOM     24  H   UNL     1     -42.009  42.537  24.431  1.00  0.00     0.052 H 
BRANCH  22  25
ATOM     25  C   UNL     1     -42.519  44.079  23.048  1.00  0.00     0.061 C 
ATOM     26  H   UNL     1     -42.331  45.156  23.000  1.00  0.00     0.058 H 
ATOM     27  H   UNL     1     -43.513  43.885  22.631  1.00  0.00     0.058 H 
BRANCH  25  28
ATOM     28  O   UNL     1     -41.558  43.424  22.218  1.00  0.00    -0.395 OA
ATOM     29  H   UNL     1     -41.880  42.514  22.098  1.00  0.00     0.210 HD
ENDBRANCH  25  28
ENDBRANCH  22  25
ENDBRANCH  17  22
ENDBRANCH   3  17
ENDBRANCH   1   2
BRANCH   1  30
ATOM     30  C   UNL     1     -46.221  35.957  26.920  1.00  0.00     0.115 C 
ATOM     31  H   UNL     1     -45.490  35.834  26.111  1.00  0.00     0.076 H 
ATOM     32  H   UNL     1     -45.770  35.695  27.884  1.00  0.00     0.076 H 
BRANCH  30  33
ATOM     33  C   UNL     1     -47.376  35.026  26.647  1.00  0.00     0.010 A 
ATOM     34  C   UNL     1     -48.673  35.422  26.946  1.00  0.00     0.034 A 
ATOM     35  C   UNL     1     -47.198  33.724  26.159  1.00  0.00    -0.028 A 
ATOM     36  N   UNL     1     -49.757  34.639  26.775  1.00  0.00    -0.262 NA
ATOM     37  H   UNL     1     -48.889  36.409  27.345  1.00  0.00     0.084 H 
ATOM     38  C   UNL     1     -48.299  32.876  25.960  1.00  0.00     0.066 A 
ATOM     39  H   UNL     1     -46.182  33.395  25.960  1.00  0.00     0.065 H 
ATOM     40  C   UNL     1     -49.549  33.389  26.285  1.00  0.00     0.051 A 
ATOM     41  H   UNL     1     -50.472  32.837  26.156  1.00  0.00     0.086 H 
BRANCH  38  42
ATOM     42  N   UNL     1     -48.129  31.554  25.436  1.00  0.00    -0.299 N 
ATOM     43  C   UNL     1     -48.668  30.410  25.994  1.00  0.00     0.021 A 
ATOM     44  C   UNL     1     -47.412  31.160  24.304  1.00  0.00     0.150 A 
ATOM     45  C   UNL     1     -48.276  29.311  25.260  1.00  0.00     0.033 A 
ATOM     46  H   UNL     1     -49.260  30.429  26.897  1.00  0.00     0.083 H 
ATOM     47  C   UNL     1     -47.516  29.775  24.157  1.00  0.00     0.071 A 
ATOM     48  N   UNL     1     -46.749  31.975  23.459  1.00  0.00    -0.218 NA
ATOM     49  C   UNL     1     -46.902  29.214  23.024  1.00  0.00     0.137 A 
ATOM     50  C   UNL     1     -46.181  31.324  22.439  1.00  0.00     0.120 A 
ATOM     51  N   UNL     1     -46.227  30.010  22.177  1.00  0.00    -0.219 NA
ATOM     52  H   UNL     1     -45.622  31.931  21.734  1.00  0.00     0.106 H 
BRANCH  45  53
ATOM     53  C   UNL     1     -48.607  27.928  25.593  1.00  0.00     0.095 A 
ATOM     54  C   UNL     1     -49.884  27.341  25.475  1.00  0.00    -0.016 A 
ATOM     55  N   UNL     1     -47.684  27.045  25.988  1.00  0.00    -0.173 NA
ATOM     56  C   UNL     1     -49.703  26.028  25.847  1.00  0.00     0.025 A 
ATOM     57  H   UNL     1     -50.808  27.803  25.154  1.00  0.00     0.066 H 
ATOM     58  N   UNL     1     -48.376  25.901  26.133  1.00  0.00    -0.275 N 
ATOM     59  H   UNL     1     -50.389  25.195  25.912  1.00  0.00     0.084 H 
BRANCH  58  60
ATOM     60  C   UNL     1     -47.686  24.702  26.545  1.00  0.00     0.030 C 
ATOM     61  H   UNL     1     -48.425  23.909  26.682  1.00  0.00     0.048 H 
ATOM     62  H   UNL     1     -47.161  24.891  27.485  1.00  0.00     0.048 H 
ATOM     63  H   UNL     1     -46.971  24.432  25.766  1.00  0.00     0.048 H 
ENDBRANCH  58  60
ENDBRANCH  45  53
BRANCH  49  64
ATOM     64  N   UNL     1     -46.971  27.871  22.670  1.00  0.00    -0.383 N 
ATOM     65  H   UNL     1     -47.284  27.267  23.420  1.00  0.00     0.158 HD
ATOM     66  H   UNL     1     -47.483  27.775  21.798  1.00  0.00     0.158 HD
ENDBRANCH  49  64
ENDBRANCH  38  42
ENDBRANCH  30  33
ENDBRANCH   1  30
TORSDOF 12
ENDMDL
MODEL 6
REMARK VINA RESULT:      -8.8      2.879     12.280
REMARK SMILES CN(CCO)c1ccc2ccc(OCc3cncc(-n4cc(-c5ccn(C)n5)c5c(N)ncnc54)c3)cc2n1
REMARK SMILES IDX 13 1 12 2 6 3 7 4 39 5 8 6 38 8 9 9 37 11 10 12 11 14 2 17
REMARK SMILES IDX 1 18 3 22 4 25 5 28 14 30 15 33 16 34 36 35 17 36 19 38
REMARK SMILES IDX 18 40 20 42 21 43 35 44 22 45 29 47 34 48 30 49 33 50 32 51
REMARK SMILES IDX 23 53 24 54 28 55 25 56 26 58 27 60 31 64
REMARK H PARENT 7 7 8 10 37 13 10 15 11 16 1 19 1 20 1 21 3 23 3 24 4 26 4 27
REMARK H PARENT 5 29 14 31 14 32 16 37 36 39 18 41 21 46 33 52 24 57 25 59
REMARK H PARENT 27 61 27 62 27 63 31 65 31 66
REMARK Flexibility Score: inf
ROOT
ATOM      1  O   UNL     1     -46.621  36.751  28.460  1.00  0.00    -0.489 OA
ENDROOT
BRANCH   1   2
ATOM      2  C   UNL     1     -45.671  37.714  28.663  1.00  0.00     0.122 A 
ATOM      3  C   UNL     1     -44.007  41.834  26.924  1.00  0.00     0.129 A 
ATOM      4  C   UNL     1     -43.032  41.901  27.918  1.00  0.00    -0.019 A 
ATOM      5  N   UNL     1     -44.870  40.797  26.871  1.00  0.00    -0.231 NA
ATOM      6  C   UNL     1     -42.952  40.895  28.877  1.00  0.00    -0.049 A 
ATOM      7  H   UNL     1     -42.319  42.718  27.933  1.00  0.00     0.066 H 
ATOM      8  C   UNL     1     -44.803  39.822  27.795  1.00  0.00     0.076 A 
ATOM      9  C   UNL     1     -43.851  39.828  28.830  1.00  0.00     0.001 A 
ATOM     10  H   UNL     1     -42.188  40.950  29.646  1.00  0.00     0.063 H 
ATOM     11  C   UNL     1     -45.698  38.763  27.739  1.00  0.00     0.007 A 
ATOM     12  C   UNL     1     -43.816  38.783  29.768  1.00  0.00    -0.049 A 
ATOM     13  H   UNL     1     -46.440  38.755  26.942  1.00  0.00     0.069 H 
ATOM     14  C   UNL     1     -44.726  37.728  29.684  1.00  0.00    -0.019 A 
ATOM     15  H   UNL     1     -43.081  38.787  30.570  1.00  0.00     0.063 H 
ATOM     16  H   UNL     1     -44.672  36.944  30.433  1.00  0.00     0.066 H 
BRANCH   3  17
ATOM     17  N   UNL     1     -44.063  42.855  25.949  1.00  0.00    -0.357 N 
BRANCH  17  18
ATOM     18  C   UNL     1     -44.257  42.286  24.611  1.00  0.00     0.008 C 
ATOM     19  H   UNL     1     -43.358  42.398  23.994  1.00  0.00     0.046 H 
ATOM     20  H   UNL     1     -45.082  42.797  24.102  1.00  0.00     0.046 H 
ATOM     21  H   UNL     1     -44.530  41.226  24.650  1.00  0.00     0.046 H 
ENDBRANCH  17  18
BRANCH  17  22
ATOM     22  C   UNL     1     -42.933  43.807  26.018  1.00  0.00     0.042 C 
ATOM     23  H   UNL     1     -43.268  44.853  26.024  1.00  0.00     0.052 H 
ATOM     24  H   UNL     1     -42.418  43.673  26.979  1.00  0.00     0.052 H 
BRANCH  22  25
ATOM     25  C   UNL     1     -41.897  43.567  24.913  1.00  0.00     0.061 C 
ATOM     26  H   UNL     1     -41.639  44.494  24.393  1.00  0.00     0.058 H 
ATOM     27  H   UNL     1     -42.281  42.854  24.177  1.00  0.00     0.058 H 
BRANCH  25  28
ATOM     28  O   UNL     1     -40.697  43.023  25.469  1.00  0.00    -0.395 OA
ATOM     29  H   UNL     1     -40.218  43.773  25.861  1.00  0.00     0.210 HD
ENDBRANCH  25  28
ENDBRANCH  22  25
ENDBRANCH  17  22
ENDBRANCH   3  17
ENDBRANCH   1   2
BRANCH   1  30
ATOM     30  C   UNL     1     -46.460  35.900  27.326  1.00  0.00     0.115 C 
ATOM     31  H   UNL     1     -46.135  36.480  26.453  1.00  0.00     0.076 H 
ATOM     32  H   UNL     1     -45.722  35.125  27.564  1.00  0.00     0.076 H 
BRANCH  30  33
ATOM     33  C   UNL     1     -47.773  35.243  26.984  1.00  0.00     0.010 A 
ATOM     34  C   UNL     1     -48.969  35.842  27.359  1.00  0.00     0.034 A 
ATOM     35  C   UNL     1     -47.852  33.993  26.352  1.00  0.00    -0.028 A 
ATOM     36  N   UNL     1     -50.184  35.303  27.133  1.00  0.00    -0.262 NA
ATOM     37  H   UNL     1     -48.990  36.801  27.869  1.00  0.00     0.084 H 
ATOM     38  C   UNL     1     -49.095  33.399  26.091  1.00  0.00     0.066 A 
ATOM     39  H   UNL     1     -46.919  33.501  26.091  1.00  0.00     0.065 H 
ATOM     40  C   UNL     1     -50.222  34.100  26.503  1.00  0.00     0.051 A 
ATOM     41  H   UNL     1     -51.235  33.752  26.340  1.00  0.00     0.086 H 
BRANCH  38  42
ATOM     42  N   UNL     1     -49.185  32.136  25.422  1.00  0.00    -0.299 N 
ATOM     43  C   UNL     1     -48.317  31.077  25.614  1.00  0.00     0.021 A 
ATOM     44  C   UNL     1     -50.127  31.727  24.474  1.00  0.00     0.150 A 
ATOM     45  C   UNL     1     -48.671  30.035  24.785  1.00  0.00     0.033 A 
ATOM     46  H   UNL     1     -47.476  31.133  26.290  1.00  0.00     0.083 H 
ATOM     47  C   UNL     1     -49.845  30.414  24.088  1.00  0.00     0.071 A 
ATOM     48  N   UNL     1     -51.165  32.456  24.019  1.00  0.00    -0.218 NA
ATOM     49  C   UNL     1     -50.739  29.819  23.180  1.00  0.00     0.137 A 
ATOM     50  C   UNL     1     -51.924  31.796  23.139  1.00  0.00     0.120 A 
ATOM     51  N   UNL     1     -51.773  30.536  22.707  1.00  0.00    -0.219 NA
ATOM     52  H   UNL     1     -52.768  32.341  22.728  1.00  0.00     0.106 H 
BRANCH  45  53
ATOM     53  C   UNL     1     -47.938  28.776  24.674  1.00  0.00     0.095 A 
ATOM     54  C   UNL     1     -46.894  28.514  23.763  1.00  0.00    -0.016 A 
ATOM     55  N   UNL     1     -48.153  27.746  25.499  1.00  0.00    -0.173 NA
ATOM     56  C   UNL     1     -46.480  27.235  24.060  1.00  0.00     0.025 A 
ATOM     57  H   UNL     1     -46.488  29.168  23.002  1.00  0.00     0.066 H 
ATOM     58  N   UNL     1     -47.253  26.827  25.105  1.00  0.00    -0.275 N 
ATOM     59  H   UNL     1     -45.709  26.609  23.635  1.00  0.00     0.084 H 
BRANCH  58  60
ATOM     60  C   UNL     1     -47.184  25.561  25.796  1.00  0.00     0.030 C 
ATOM     61  H   UNL     1     -48.094  24.999  25.575  1.00  0.00     0.048 H 
ATOM     62  H   UNL     1     -47.106  25.739  26.872  1.00  0.00     0.048 H 
ATOM     63  H   UNL     1     -46.302  25.023  25.442  1.00  0.00     0.048 H 
ENDBRANCH  58  60
ENDBRANCH  45  53
BRANCH  49  64
ATOM     64  N   UNL     1     -50.666  28.500  22.748  1.00  0.00    -0.383 N 
ATOM     65  H   UNL     1     -49.868  27.994  23.113  1.00  0.00     0.158 HD
ATOM     66  H   UNL     1     -51.564  28.046  22.891  1.00  0.00     0.158 HD
ENDBRANCH  49  64
ENDBRANCH  38  42
ENDBRANCH  30  33
ENDBRANCH   1  30
TORSDOF 12
ENDMDL
MODEL 7
REMARK VINA RESULT:      -8.8      1.942      2.786
REMARK SMILES CN(CCO)c1ccc2ccc(OCc3cncc(-n4cc(-c5ccn(C)n5)c5c(N)ncnc54)c3)cc2n1
REMARK SMILES IDX 13 1 12 2 6 3 7 4 39 5 8 6 38 8 9 9 37 11 10 12 11 14 2 17
REMARK SMILES IDX 1 18 3 22 4 25 5 28 14 30 15 33 16 34 36 35 17 36 19 38
REMARK SMILES IDX 18 40 20 42 21 43 35 44 22 45 29 47 34 48 30 49 33 50 32 51
REMARK SMILES IDX 23 53 24 54 28 55 25 56 26 58 27 60 31 64
REMARK H PARENT 7 7 8 10 37 13 10 15 11 16 1 19 1 20 1 21 3 23 3 24 4 26 4 27
REMARK H PARENT 5 29 14 31 14 32 16 37 36 39 18 41 21 46 33 52 24 57 25 59
REMARK H PARENT 27 61 27 62 27 63 31 65 31 66
REMARK Flexibility Score: inf
ROOT
ATOM      1  O   UNL     1     -46.933  34.134  27.881  1.00  0.00    -0.489 OA
ENDROOT
BRANCH   1   2
ATOM      2  C   UNL     1     -46.952  33.432  26.709  1.00  0.00     0.122 A 
ATOM      3  C   UNL     1     -48.932  29.649  24.578  1.00  0.00     0.129 A 
ATOM      4  C   UNL     1     -48.215  29.888  23.407  1.00  0.00    -0.019 A 
ATOM      5  N   UNL     1     -48.785  30.450  25.655  1.00  0.00    -0.231 NA
ATOM      6  C   UNL     1     -47.347  30.974  23.337  1.00  0.00    -0.049 A 
ATOM      7  H   UNL     1     -48.310  29.219  22.559  1.00  0.00     0.066 H 
ATOM      8  C   UNL     1     -47.951  31.504  25.596  1.00  0.00     0.076 A 
ATOM      9  C   UNL     1     -47.203  31.810  24.446  1.00  0.00     0.001 A 
ATOM     10  H   UNL     1     -46.788  31.153  22.424  1.00  0.00     0.063 H 
ATOM     11  C   UNL     1     -47.812  32.328  26.704  1.00  0.00     0.007 A 
ATOM     12  C   UNL     1     -46.340  32.919  24.435  1.00  0.00    -0.049 A 
ATOM     13  H   UNL     1     -48.391  32.099  27.596  1.00  0.00     0.069 H 
ATOM     14  C   UNL     1     -46.215  33.728  25.566  1.00  0.00    -0.019 A 
ATOM     15  H   UNL     1     -45.761  33.158  23.546  1.00  0.00     0.063 H 
ATOM     16  H   UNL     1     -45.544  34.579  25.516  1.00  0.00     0.066 H 
BRANCH   3  17
ATOM     17  N   UNL     1     -49.795  28.532  24.637  1.00  0.00    -0.357 N 
BRANCH  17  18
ATOM     18  C   UNL     1     -49.423  27.644  25.743  1.00  0.00     0.008 C 
ATOM     19  H   UNL     1     -49.779  26.621  25.572  1.00  0.00     0.046 H 
ATOM     20  H   UNL     1     -49.866  28.004  26.679  1.00  0.00     0.046 H 
ATOM     21  H   UNL     1     -48.340  27.620  25.905  1.00  0.00     0.046 H 
ENDBRANCH  17  18
BRANCH  17  22
ATOM     22  C   UNL     1     -49.943  27.825  23.347  1.00  0.00     0.042 C 
ATOM     23  H   UNL     1     -50.364  28.469  22.563  1.00  0.00     0.052 H 
ATOM     24  H   UNL     1     -48.944  27.552  22.978  1.00  0.00     0.052 H 
BRANCH  22  25
ATOM     25  C   UNL     1     -50.745  26.524  23.480  1.00  0.00     0.061 C 
ATOM     26  H   UNL     1     -51.504  26.596  24.264  1.00  0.00     0.058 H 
ATOM     27  H   UNL     1     -50.080  25.688  23.721  1.00  0.00     0.058 H 
BRANCH  25  28
ATOM     28  O   UNL     1     -51.405  26.220  22.250  1.00  0.00    -0.395 OA
ATOM     29  H   UNL     1     -51.511  25.254  22.231  1.00  0.00     0.210 HD
ENDBRANCH  25  28
ENDBRANCH  22  25
ENDBRANCH  17  22
ENDBRANCH   3  17
ENDBRANCH   1   2
BRANCH   1  30
ATOM     30  C   UNL     1     -45.900  35.105  28.048  1.00  0.00     0.115 C 
ATOM     31  H   UNL     1     -45.420  34.991  29.028  1.00  0.00     0.076 H 
ATOM     32  H   UNL     1     -45.163  34.982  27.246  1.00  0.00     0.076 H 
BRANCH  30  33
ATOM     33  C   UNL     1     -46.482  36.494  27.975  1.00  0.00     0.010 A 
ATOM     34  C   UNL     1     -47.829  36.699  28.240  1.00  0.00     0.034 A 
ATOM     35  C   UNL     1     -45.729  37.609  27.577  1.00  0.00    -0.028 A 
ATOM     36  N   UNL     1     -48.440  37.898  28.156  1.00  0.00    -0.262 NA
ATOM     37  H   UNL     1     -48.481  35.882  28.536  1.00  0.00     0.084 H 
ATOM     38  C   UNL     1     -46.322  38.877  27.482  1.00  0.00     0.066 A 
ATOM     39  H   UNL     1     -44.684  37.449  27.330  1.00  0.00     0.065 H 
ATOM     40  C   UNL     1     -47.676  38.958  27.784  1.00  0.00     0.051 A 
ATOM     41  H   UNL     1     -48.238  39.884  27.765  1.00  0.00     0.086 H 
BRANCH  38  42
ATOM     42  N   UNL     1     -45.555  40.025  27.102  1.00  0.00    -0.299 N 
ATOM     43  C   UNL     1     -45.861  40.865  26.047  1.00  0.00     0.021 A 
ATOM     44  C   UNL     1     -44.387  40.515  27.691  1.00  0.00     0.150 A 
ATOM     45  C   UNL     1     -44.895  41.842  25.940  1.00  0.00     0.033 A 
ATOM     46  H   UNL     1     -46.715  40.701  25.406  1.00  0.00     0.083 H 
ATOM     47  C   UNL     1     -43.977  41.661  27.005  1.00  0.00     0.071 A 
ATOM     48  N   UNL     1     -43.761  39.999  28.767  1.00  0.00    -0.218 NA
ATOM     49  C   UNL     1     -42.844  42.325  27.508  1.00  0.00     0.137 A 
ATOM     50  C   UNL     1     -42.681  40.697  29.132  1.00  0.00     0.120 A 
ATOM     51  N   UNL     1     -42.200  41.817  28.574  1.00  0.00    -0.219 NA
ATOM     52  H   UNL     1     -42.130  40.316  29.986  1.00  0.00     0.106 H 
BRANCH  45  53
ATOM     53  C   UNL     1     -44.860  42.865  24.900  1.00  0.00     0.095 A 
ATOM     54  C   UNL     1     -43.954  42.904  23.820  1.00  0.00    -0.016 A 
ATOM     55  N   UNL     1     -45.757  43.854  24.836  1.00  0.00    -0.173 NA
ATOM     56  C   UNL     1     -44.331  44.004  23.082  1.00  0.00     0.025 A 
ATOM     57  H   UNL     1     -43.143  42.222  23.599  1.00  0.00     0.066 H 
ATOM     58  N   UNL     1     -45.414  44.528  23.723  1.00  0.00    -0.275 N 
ATOM     59  H   UNL     1     -43.939  44.431  22.171  1.00  0.00     0.084 H 
BRANCH  58  60
ATOM     60  C   UNL     1     -46.190  45.677  23.323  1.00  0.00     0.030 C 
ATOM     61  H   UNL     1     -46.386  46.285  24.209  1.00  0.00     0.048 H 
ATOM     62  H   UNL     1     -47.132  45.344  22.882  1.00  0.00     0.048 H 
ATOM     63  H   UNL     1     -45.613  46.242  22.587  1.00  0.00     0.048 H 
ENDBRANCH  58  60
ENDBRANCH  45  53
BRANCH  49  64
ATOM     64  N   UNL     1     -42.340  43.521  27.009  1.00  0.00    -0.383 N 
ATOM     65  H   UNL     1     -42.705  43.768  26.097  1.00  0.00     0.158 HD
ATOM     66  H   UNL     1     -42.423  44.245  27.716  1.00  0.00     0.158 HD
ENDBRANCH  49  64
ENDBRANCH  38  42
ENDBRANCH  30  33
ENDBRANCH   1  30
TORSDOF 12
ENDMDL
