MODEL 1
REMARK VINA RESULT:     -10.0      0.000      0.000
REMARK SMILES N#C[C@]12C[C@](CNCc3cc4ccc(CNC(=O)c5cc(=O)n6ccccc6n5)cc4[nH]3)(C1)C2
REMARK SMILES IDX 8 1 7 4 6 6 5 9 3 10 33 11 4 12 34 13 2 20 1 21 9 22 10 23
REMARK SMILES IDX 32 24 11 25 31 27 12 29 30 30 13 31 14 33 15 36 16 39 17 40
REMARK SMILES IDX 18 42 19 43 20 44 29 45 21 46 28 48 22 49 23 50 27 51 24 52
REMARK SMILES IDX 26 53 25 55
REMARK H PARENT 8 2 8 3 7 5 6 7 6 8 33 14 33 15 4 16 4 17 34 18 34 19 10 26
REMARK H PARENT 32 28 12 32 30 34 13 35 15 37 15 38 16 41 20 47 27 54 24 56
REMARK H PARENT 26 57 25 58
REMARK Flexibility Score: inf
ROOT
ATOM      1  C   UNL     1     -45.272  37.639  30.153  1.00  0.00     0.036 C 
ATOM      2  H   UNL     1     -46.017  37.897  30.915  1.00  0.00     0.049 H 
ATOM      3  H   UNL     1     -44.470  37.110  30.681  1.00  0.00     0.049 H 
ENDROOT
BRANCH   1   4
ATOM      4  N   UNL     1     -44.775  38.880  29.564  1.00  0.00    -0.311 NA
ATOM      5  H   UNL     1     -45.006  39.646  30.198  1.00  0.00     0.123 HD
BRANCH   4   6
ATOM      6  C   UNL     1     -45.331  39.149  28.241  1.00  0.00     0.001 C 
ATOM      7  H   UNL     1     -46.383  39.446  28.313  1.00  0.00     0.043 H 
ATOM      8  H   UNL     1     -45.283  38.246  27.624  1.00  0.00     0.043 H 
BRANCH   6   9
ATOM      9  C   UNL     1     -44.550  40.233  27.591  1.00  0.00    -0.013 C 
ATOM     10  C   UNL     1     -43.511  41.621  26.701  1.00  0.00     0.059 C 
ATOM     11  C   UNL     1     -45.030  41.629  27.012  1.00  0.00    -0.027 C 
ATOM     12  C   UNL     1     -43.705  40.149  26.253  1.00  0.00    -0.027 C 
ATOM     13  C   UNL     1     -43.311  41.061  28.133  1.00  0.00    -0.027 C 
ATOM     14  H   UNL     1     -45.391  42.364  27.739  1.00  0.00     0.029 H 
ATOM     15  H   UNL     1     -45.719  41.596  26.161  1.00  0.00     0.029 H 
ATOM     16  H   UNL     1     -42.824  39.499  26.268  1.00  0.00     0.029 H 
ATOM     17  H   UNL     1     -44.265  39.975  25.328  1.00  0.00     0.029 H 
ATOM     18  H   UNL     1     -43.502  41.742  28.970  1.00  0.00     0.029 H 
ATOM     19  H   UNL     1     -42.391  40.499  28.330  1.00  0.00     0.029 H 
BRANCH  10  20
ATOM     20  C   UNL     1     -42.763  42.621  26.055  1.00  0.00     0.069 C 
ATOM     21  N   UNL     1     -42.145  43.449  25.527  1.00  0.00    -0.198 NA
ENDBRANCH  10  20
ENDBRANCH   6   9
ENDBRANCH   4   6
ENDBRANCH   1   4
BRANCH   1  22
ATOM     22  C   UNL     1     -45.921  36.771  29.132  1.00  0.00     0.030 A 
ATOM     23  C   UNL     1     -47.248  36.628  28.775  1.00  0.00    -0.032 A 
ATOM     24  N   UNL     1     -45.196  35.904  28.347  1.00  0.00    -0.357 N 
ATOM     25  C   UNL     1     -47.325  35.663  27.735  1.00  0.00    -0.000 A 
ATOM     26  H   UNL     1     -48.079  37.164  29.215  1.00  0.00     0.065 H 
ATOM     27  C   UNL     1     -46.026  35.226  27.484  1.00  0.00     0.046 A 
ATOM     28  H   UNL     1     -44.194  35.782  28.387  1.00  0.00     0.166 HD
ATOM     29  C   UNL     1     -48.380  35.118  26.980  1.00  0.00    -0.052 A 
ATOM     30  C   UNL     1     -45.726  34.266  26.509  1.00  0.00    -0.033 A 
ATOM     31  C   UNL     1     -48.099  34.157  26.001  1.00  0.00    -0.057 A 
ATOM     32  H   UNL     1     -49.403  35.440  27.152  1.00  0.00     0.063 H 
ATOM     33  C   UNL     1     -46.788  33.722  25.768  1.00  0.00    -0.027 A 
ATOM     34  H   UNL     1     -44.702  33.950  26.330  1.00  0.00     0.065 H 
ATOM     35  H   UNL     1     -48.922  33.746  25.418  1.00  0.00     0.063 H 
BRANCH  33  36
ATOM     36  C   UNL     1     -46.505  32.709  24.689  1.00  0.00     0.043 C 
ATOM     37  H   UNL     1     -46.779  33.103  23.704  1.00  0.00     0.054 H 
ATOM     38  H   UNL     1     -45.436  32.470  24.648  1.00  0.00     0.054 H 
BRANCH  36  39
ATOM     39  N   UNL     1     -47.228  31.490  24.933  1.00  0.00    -0.347 N 
ATOM     40  C   UNL     1     -47.909  30.839  23.935  1.00  0.00     0.270 C 
ATOM     41  H   UNL     1     -47.100  30.986  25.805  1.00  0.00     0.164 HD
ATOM     42  O   UNL     1     -48.050  31.275  22.800  1.00  0.00    -0.268 OA
BRANCH  40  43
ATOM     43  C   UNL     1     -48.461  29.509  24.387  1.00  0.00     0.136 A 
ATOM     44  C   UNL     1     -49.783  29.348  24.289  1.00  0.00     0.035 A 
ATOM     45  N   UNL     1     -47.588  28.555  24.860  1.00  0.00    -0.225 NA
ATOM     46  C   UNL     1     -50.362  28.070  24.716  1.00  0.00     0.258 A 
ATOM     47  H   UNL     1     -50.460  30.105  23.914  1.00  0.00     0.071 H 
ATOM     48  C   UNL     1     -48.104  27.426  25.235  1.00  0.00     0.140 A 
ATOM     49  O   UNL     1     -51.579  27.914  24.633  1.00  0.00    -0.269 OA
ATOM     50  N   UNL     1     -49.461  27.126  25.189  1.00  0.00    -0.268 N 
ATOM     51  C   UNL     1     -47.196  26.363  25.754  1.00  0.00    -0.019 A 
ATOM     52  C   UNL     1     -49.936  25.889  25.611  1.00  0.00     0.014 A 
ATOM     53  C   UNL     1     -47.699  25.188  26.149  1.00  0.00    -0.057 A 
ATOM     54  H   UNL     1     -46.137  26.587  25.794  1.00  0.00     0.066 H 
ATOM     55  C   UNL     1     -49.114  24.940  26.077  1.00  0.00    -0.045 A 
ATOM     56  H   UNL     1     -51.008  25.722  25.548  1.00  0.00     0.082 H 
ATOM     57  H   UNL     1     -47.054  24.402  26.530  1.00  0.00     0.062 H 
ATOM     58  H   UNL     1     -49.495  23.977  26.404  1.00  0.00     0.064 H 
ENDBRANCH  40  43
ENDBRANCH  36  39
ENDBRANCH  33  36
ENDBRANCH   1  22
TORSDOF 8
ENDMDL
MODEL 2
REMARK VINA RESULT:      -9.4      1.701      2.490
REMARK SMILES N#C[C@]12C[C@](CNCc3cc4ccc(CNC(=O)c5cc(=O)n6ccccc6n5)cc4[nH]3)(C1)C2
REMARK SMILES IDX 8 1 7 4 6 6 5 9 3 10 33 11 4 12 34 13 2 20 1 21 9 22 10 23
REMARK SMILES IDX 32 24 11 25 31 27 12 29 30 30 13 31 14 33 15 36 16 39 17 40
REMARK SMILES IDX 18 42 19 43 20 44 29 45 21 46 28 48 22 49 23 50 27 51 24 52
REMARK SMILES IDX 26 53 25 55
REMARK H PARENT 8 2 8 3 7 5 6 7 6 8 33 14 33 15 4 16 4 17 34 18 34 19 10 26
REMARK H PARENT 32 28 12 32 30 34 13 35 15 37 15 38 16 41 20 47 27 54 24 56
REMARK H PARENT 26 57 25 58
REMARK Flexibility Score: inf
ROOT
ATOM      1  C   UNL     1     -46.148  39.321  28.414  1.00  0.00     0.036 C 
ATOM      2  H   UNL     1     -46.999  39.968  28.170  1.00  0.00     0.049 H 
ATOM      3  H   UNL     1     -46.058  39.339  29.507  1.00  0.00     0.049 H 
ENDROOT
BRANCH   1   4
ATOM      4  N   UNL     1     -44.955  39.882  27.785  1.00  0.00    -0.311 NA
ATOM      5  H   UNL     1     -44.711  40.740  28.279  1.00  0.00     0.123 HD
BRANCH   4   6
ATOM      6  C   UNL     1     -45.137  40.165  26.364  1.00  0.00     0.001 C 
ATOM      7  H   UNL     1     -46.178  40.006  26.064  1.00  0.00     0.043 H 
ATOM      8  H   UNL     1     -44.513  39.491  25.766  1.00  0.00     0.043 H 
BRANCH   6   9
ATOM      9  C   UNL     1     -44.746  41.572  26.089  1.00  0.00    -0.013 C 
ATOM     10  C   UNL     1     -44.196  43.413  25.763  1.00  0.00     0.059 C 
ATOM     11  C   UNL     1     -44.280  42.254  24.736  1.00  0.00    -0.027 C 
ATOM     12  C   UNL     1     -43.546  42.386  26.727  1.00  0.00    -0.027 C 
ATOM     13  C   UNL     1     -45.562  42.915  26.304  1.00  0.00    -0.027 C 
ATOM     14  H   UNL     1     -45.032  42.338  23.944  1.00  0.00     0.029 H 
ATOM     15  H   UNL     1     -43.340  41.895  24.303  1.00  0.00     0.029 H 
ATOM     16  H   UNL     1     -43.608  42.594  27.800  1.00  0.00     0.029 H 
ATOM     17  H   UNL     1     -42.534  42.041  26.486  1.00  0.00     0.029 H 
ATOM     18  H   UNL     1     -46.439  43.066  25.666  1.00  0.00     0.029 H 
ATOM     19  H   UNL     1     -45.819  43.175  27.337  1.00  0.00     0.029 H 
BRANCH  10  20
ATOM     20  C   UNL     1     -43.795  44.739  25.529  1.00  0.00     0.069 C 
ATOM     21  N   UNL     1     -43.470  45.836  25.335  1.00  0.00    -0.198 NA
ENDBRANCH  10  20
ENDBRANCH   6   9
ENDBRANCH   4   6
ENDBRANCH   1   4
BRANCH   1  22
ATOM     22  C   UNL     1     -46.438  37.949  27.912  1.00  0.00     0.030 A 
ATOM     23  C   UNL     1     -45.592  36.914  27.562  1.00  0.00    -0.032 A 
ATOM     24  N   UNL     1     -47.724  37.508  27.701  1.00  0.00    -0.357 N 
ATOM     25  C   UNL     1     -46.388  35.814  27.147  1.00  0.00    -0.000 A 
ATOM     26  H   UNL     1     -44.511  36.945  27.605  1.00  0.00     0.065 H 
ATOM     27  C   UNL     1     -47.719  36.210  27.244  1.00  0.00     0.046 A 
ATOM     28  H   UNL     1     -48.559  38.052  27.863  1.00  0.00     0.166 HD
ATOM     29  C   UNL     1     -46.101  34.512  26.696  1.00  0.00    -0.052 A 
ATOM     30  C   UNL     1     -48.787  35.366  26.912  1.00  0.00    -0.033 A 
ATOM     31  C   UNL     1     -47.155  33.653  26.360  1.00  0.00    -0.057 A 
ATOM     32  H   UNL     1     -45.073  34.173  26.612  1.00  0.00     0.063 H 
ATOM     33  C   UNL     1     -48.488  34.072  26.455  1.00  0.00    -0.027 A 
ATOM     34  H   UNL     1     -49.816  35.700  27.006  1.00  0.00     0.065 H 
ATOM     35  H   UNL     1     -46.922  32.646  26.018  1.00  0.00     0.063 H 
BRANCH  33  36
ATOM     36  C   UNL     1     -49.609  33.122  26.116  1.00  0.00     0.043 C 
ATOM     37  H   UNL     1     -50.379  33.137  26.895  1.00  0.00     0.054 H 
ATOM     38  H   UNL     1     -50.100  33.415  25.181  1.00  0.00     0.054 H 
BRANCH  36  39
ATOM     39  N   UNL     1     -49.111  31.782  25.962  1.00  0.00    -0.347 N 
ATOM     40  C   UNL     1     -49.198  31.108  24.770  1.00  0.00     0.270 C 
ATOM     41  H   UNL     1     -48.520  31.371  26.678  1.00  0.00     0.164 HD
ATOM     42  O   UNL     1     -49.783  31.531  23.781  1.00  0.00    -0.268 OA
BRANCH  40  43
ATOM     43  C   UNL     1     -48.475  29.783  24.802  1.00  0.00     0.136 A 
ATOM     44  C   UNL     1     -47.471  29.631  23.936  1.00  0.00     0.035 A 
ATOM     45  N   UNL     1     -48.882  28.828  25.707  1.00  0.00    -0.225 NA
ATOM     46  C   UNL     1     -46.741  28.358  23.933  1.00  0.00     0.258 A 
ATOM     47  H   UNL     1     -47.159  30.389  23.230  1.00  0.00     0.071 H 
ATOM     48  C   UNL     1     -48.233  27.705  25.701  1.00  0.00     0.140 A 
ATOM     49  O   UNL     1     -45.817  28.208  23.135  1.00  0.00    -0.269 OA
ATOM     50  N   UNL     1     -47.171  27.413  24.854  1.00  0.00    -0.268 N 
ATOM     51  C   UNL     1     -48.639  26.642  26.665  1.00  0.00    -0.019 A 
ATOM     52  C   UNL     1     -46.526  26.182  24.911  1.00  0.00     0.014 A 
ATOM     53  C   UNL     1     -47.989  25.472  26.683  1.00  0.00    -0.057 A 
ATOM     54  H   UNL     1     -49.466  26.859  27.330  1.00  0.00     0.066 H 
ATOM     55  C   UNL     1     -46.897  25.232  25.778  1.00  0.00    -0.045 A 
ATOM     56  H   UNL     1     -45.704  26.022  24.218  1.00  0.00     0.082 H 
ATOM     57  H   UNL     1     -48.269  24.686  27.377  1.00  0.00     0.062 H 
ATOM     58  H   UNL     1     -46.387  24.274  25.815  1.00  0.00     0.064 H 
ENDBRANCH  40  43
ENDBRANCH  36  39
ENDBRANCH  33  36
ENDBRANCH   1  22
TORSDOF 8
ENDMDL
MODEL 3
REMARK VINA RESULT:      -9.4      2.833     12.068
REMARK SMILES N#C[C@]12C[C@](CNCc3cc4ccc(CNC(=O)c5cc(=O)n6ccccc6n5)cc4[nH]3)(C1)C2
REMARK SMILES IDX 8 1 7 4 6 6 5 9 3 10 33 11 4 12 34 13 2 20 1 21 9 22 10 23
REMARK SMILES IDX 32 24 11 25 31 27 12 29 30 30 13 31 14 33 15 36 16 39 17 40
REMARK SMILES IDX 18 42 19 43 20 44 29 45 21 46 28 48 22 49 23 50 27 51 24 52
REMARK SMILES IDX 26 53 25 55
REMARK H PARENT 8 2 8 3 7 5 6 7 6 8 33 14 33 15 4 16 4 17 34 18 34 19 10 26
REMARK H PARENT 32 28 12 32 30 34 13 35 15 37 15 38 16 41 20 47 27 54 24 56
REMARK H PARENT 26 57 25 58
REMARK Flexibility Score: inf
ROOT
ATOM      1  C   UNL     1     -48.452  30.296  22.882  1.00  0.00     0.036 C 
ATOM      2  H   UNL     1     -48.870  30.810  22.008  1.00  0.00     0.049 H 
ATOM      3  H   UNL     1     -47.645  29.659  22.499  1.00  0.00     0.049 H 
ENDROOT
BRANCH   1   4
ATOM      4  N   UNL     1     -49.510  29.488  23.483  1.00  0.00    -0.311 NA
ATOM      5  H   UNL     1     -50.408  29.865  23.178  1.00  0.00     0.123 HD
BRANCH   4   6
ATOM      6  C   UNL     1     -49.453  29.464  24.941  1.00  0.00     0.001 C 
ATOM      7  H   UNL     1     -50.451  29.598  25.373  1.00  0.00     0.043 H 
ATOM      8  H   UNL     1     -48.822  30.281  25.305  1.00  0.00     0.043 H 
BRANCH   6   9
ATOM      9  C   UNL     1     -48.886  28.166  25.389  1.00  0.00    -0.013 C 
ATOM     10  C   UNL     1     -48.187  26.441  25.967  1.00  0.00     0.059 C 
ATOM     11  C   UNL     1     -47.650  27.346  24.828  1.00  0.00    -0.027 C 
ATOM     12  C   UNL     1     -49.605  26.754  25.421  1.00  0.00    -0.027 C 
ATOM     13  C   UNL     1     -48.327  27.735  26.810  1.00  0.00    -0.027 C 
ATOM     14  H   UNL     1     -46.660  27.793  24.966  1.00  0.00     0.029 H 
ATOM     15  H   UNL     1     -47.736  26.970  23.803  1.00  0.00     0.029 H 
ATOM     16  H   UNL     1     -50.445  26.646  26.114  1.00  0.00     0.029 H 
ATOM     17  H   UNL     1     -49.878  26.320  24.453  1.00  0.00     0.029 H 
ATOM     18  H   UNL     1     -47.404  28.219  27.143  1.00  0.00     0.029 H 
ATOM     19  H   UNL     1     -49.045  27.721  27.637  1.00  0.00     0.029 H 
BRANCH  10  20
ATOM     20  C   UNL     1     -47.686  25.194  26.380  1.00  0.00     0.069 C 
ATOM     21  N   UNL     1     -47.268  24.168  26.725  1.00  0.00    -0.198 NA
ENDBRANCH  10  20
ENDBRANCH   6   9
ENDBRANCH   4   6
ENDBRANCH   1   4
BRANCH   1  22
ATOM     22  C   UNL     1     -47.938  31.320  23.833  1.00  0.00     0.030 A 
ATOM     23  C   UNL     1     -46.649  31.634  24.218  1.00  0.00    -0.032 A 
ATOM     24  N   UNL     1     -48.781  32.158  24.525  1.00  0.00    -0.357 N 
ATOM     25  C   UNL     1     -46.714  32.700  25.154  1.00  0.00    -0.000 A 
ATOM     26  H   UNL     1     -45.750  31.147  23.861  1.00  0.00     0.065 H 
ATOM     27  C   UNL     1     -48.060  33.012  25.328  1.00  0.00     0.046 A 
ATOM     28  H   UNL     1     -49.789  32.158  24.454  1.00  0.00     0.166 HD
ATOM     29  C   UNL     1     -45.752  33.434  25.872  1.00  0.00    -0.052 A 
ATOM     30  C   UNL     1     -48.497  34.027  26.188  1.00  0.00    -0.033 A 
ATOM     31  C   UNL     1     -46.170  34.453  26.737  1.00  0.00    -0.057 A 
ATOM     32  H   UNL     1     -44.694  33.216  25.756  1.00  0.00     0.063 H 
ATOM     33  C   UNL     1     -47.528  34.747  26.907  1.00  0.00    -0.027 A 
ATOM     34  H   UNL     1     -49.554  34.253  26.298  1.00  0.00     0.065 H 
ATOM     35  H   UNL     1     -45.416  35.019  27.283  1.00  0.00     0.063 H 
BRANCH  33  36
ATOM     36  C   UNL     1     -47.955  35.867  27.821  1.00  0.00     0.043 C 
ATOM     37  H   UNL     1     -48.715  36.493  27.339  1.00  0.00     0.054 H 
ATOM     38  H   UNL     1     -48.406  35.473  28.738  1.00  0.00     0.054 H 
BRANCH  36  39
ATOM     39  N   UNL     1     -46.828  36.682  28.188  1.00  0.00    -0.347 N 
ATOM     40  C   UNL     1     -46.427  37.751  27.427  1.00  0.00     0.270 C 
ATOM     41  H   UNL     1     -46.417  36.598  29.112  1.00  0.00     0.164 HD
ATOM     42  O   UNL     1     -46.910  38.042  26.340  1.00  0.00    -0.268 OA
BRANCH  40  43
ATOM     43  C   UNL     1     -45.326  38.546  28.084  1.00  0.00     0.136 A 
ATOM     44  C   UNL     1     -44.905  38.111  29.274  1.00  0.00     0.035 A 
ATOM     45  N   UNL     1     -44.825  39.650  27.432  1.00  0.00    -0.225 NA
ATOM     46  C   UNL     1     -43.835  38.854  29.949  1.00  0.00     0.258 A 
ATOM     47  H   UNL     1     -45.305  37.240  29.777  1.00  0.00     0.071 H 
ATOM     48  C   UNL     1     -43.879  40.304  28.032  1.00  0.00     0.140 A 
ATOM     49  O   UNL     1     -43.444  38.462  31.047  1.00  0.00    -0.269 OA
ATOM     50  N   UNL     1     -43.349  39.963  29.270  1.00  0.00    -0.268 N 
ATOM     51  C   UNL     1     -43.306  41.507  27.361  1.00  0.00    -0.019 A 
ATOM     52  C   UNL     1     -42.332  40.717  29.847  1.00  0.00     0.014 A 
ATOM     53  C   UNL     1     -42.329  42.201  27.956  1.00  0.00    -0.057 A 
ATOM     54  H   UNL     1     -43.712  41.781  26.395  1.00  0.00     0.066 H 
ATOM     55  C   UNL     1     -41.824  41.796  29.240  1.00  0.00    -0.045 A 
ATOM     56  H   UNL     1     -41.965  40.392  30.817  1.00  0.00     0.082 H 
ATOM     57  H   UNL     1     -41.899  43.080  27.483  1.00  0.00     0.062 H 
ATOM     58  H   UNL     1     -41.030  42.378  29.698  1.00  0.00     0.064 H 
ENDBRANCH  40  43
ENDBRANCH  36  39
ENDBRANCH  33  36
ENDBRANCH   1  22
TORSDOF 8
ENDMDL
MODEL 4
REMARK VINA RESULT:      -9.3      2.961      4.744
REMARK SMILES N#C[C@]12C[C@](CNCc3cc4ccc(CNC(=O)c5cc(=O)n6ccccc6n5)cc4[nH]3)(C1)C2
REMARK SMILES IDX 8 1 7 4 6 6 5 9 3 10 33 11 4 12 34 13 2 20 1 21 9 22 10 23
REMARK SMILES IDX 32 24 11 25 31 27 12 29 30 30 13 31 14 33 15 36 16 39 17 40
REMARK SMILES IDX 18 42 19 43 20 44 29 45 21 46 28 48 22 49 23 50 27 51 24 52
REMARK SMILES IDX 26 53 25 55
REMARK H PARENT 8 2 8 3 7 5 6 7 6 8 33 14 33 15 4 16 4 17 34 18 34 19 10 26
REMARK H PARENT 32 28 12 32 30 34 13 35 15 37 15 38 16 41 20 47 27 54 24 56
REMARK H PARENT 26 57 25 58
REMARK Flexibility Score: inf
ROOT
ATOM      1  C   UNL     1     -43.503  42.159  27.336  1.00  0.00     0.036 C 
ATOM      2  H   UNL     1     -44.061  43.049  27.021  1.00  0.00     0.049 H 
ATOM      3  H   UNL     1     -43.175  42.356  28.364  1.00  0.00     0.049 H 
ENDROOT
BRANCH   1   4
ATOM      4  N   UNL     1     -42.354  42.005  26.446  1.00  0.00    -0.311 NA
ATOM      5  H   UNL     1     -41.582  41.618  26.989  1.00  0.00     0.123 HD
BRANCH   4   6
ATOM      6  C   UNL     1     -41.940  43.258  25.823  1.00  0.00     0.001 C 
ATOM      7  H   UNL     1     -40.904  43.197  25.474  1.00  0.00     0.043 H 
ATOM      8  H   UNL     1     -41.997  44.075  26.551  1.00  0.00     0.043 H 
BRANCH   6   9
ATOM      9  C   UNL     1     -42.836  43.557  24.676  1.00  0.00    -0.013 C 
ATOM     10  C   UNL     1     -44.032  43.987  23.198  1.00  0.00     0.059 C 
ATOM     11  C   UNL     1     -42.482  43.955  23.183  1.00  0.00    -0.027 C 
ATOM     12  C   UNL     1     -43.910  44.716  24.562  1.00  0.00    -0.027 C 
ATOM     13  C   UNL     1     -43.963  42.665  24.005  1.00  0.00    -0.027 C 
ATOM     14  H   UNL     1     -42.001  43.186  22.569  1.00  0.00     0.029 H 
ATOM     15  H   UNL     1     -41.960  44.908  23.040  1.00  0.00     0.029 H 
ATOM     16  H   UNL     1     -44.767  44.661  25.240  1.00  0.00     0.029 H 
ATOM     17  H   UNL     1     -43.526  45.743  24.551  1.00  0.00     0.029 H 
ATOM     18  H   UNL     1     -43.629  41.769  23.472  1.00  0.00     0.029 H 
ATOM     19  H   UNL     1     -44.827  42.411  24.630  1.00  0.00     0.029 H 
BRANCH  10  20
ATOM     20  C   UNL     1     -44.894  44.303  22.134  1.00  0.00     0.069 C 
ATOM     21  N   UNL     1     -45.611  44.561  21.259  1.00  0.00    -0.198 NA
ENDBRANCH  10  20
ENDBRANCH   6   9
ENDBRANCH   4   6
ENDBRANCH   1   4
BRANCH   1  22
ATOM     22  C   UNL     1     -44.411  40.981  27.266  1.00  0.00     0.030 A 
ATOM     23  C   UNL     1     -45.626  40.810  26.630  1.00  0.00    -0.032 A 
ATOM     24  N   UNL     1     -44.121  39.800  27.907  1.00  0.00    -0.357 N 
ATOM     25  C   UNL     1     -46.072  39.484  26.879  1.00  0.00    -0.000 A 
ATOM     26  H   UNL     1     -46.139  41.560  26.043  1.00  0.00     0.065 H 
ATOM     27  C   UNL     1     -45.111  38.872  27.680  1.00  0.00     0.046 A 
ATOM     28  H   UNL     1     -43.295  39.626  28.463  1.00  0.00     0.166 HD
ATOM     29  C   UNL     1     -47.206  38.745  26.497  1.00  0.00    -0.052 A 
ATOM     30  C   UNL     1     -45.227  37.548  28.122  1.00  0.00    -0.033 A 
ATOM     31  C   UNL     1     -47.340  37.419  26.929  1.00  0.00    -0.057 A 
ATOM     32  H   UNL     1     -47.972  39.195  25.872  1.00  0.00     0.063 H 
ATOM     33  C   UNL     1     -46.368  36.821  27.742  1.00  0.00    -0.027 A 
ATOM     34  H   UNL     1     -44.457  37.093  28.739  1.00  0.00     0.065 H 
ATOM     35  H   UNL     1     -48.218  36.854  26.623  1.00  0.00     0.063 H 
BRANCH  33  36
ATOM     36  C   UNL     1     -46.516  35.384  28.171  1.00  0.00     0.043 C 
ATOM     37  H   UNL     1     -45.594  35.022  28.641  1.00  0.00     0.054 H 
ATOM     38  H   UNL     1     -47.313  35.279  28.916  1.00  0.00     0.054 H 
BRANCH  36  39
ATOM     39  N   UNL     1     -46.838  34.547  27.047  1.00  0.00    -0.347 N 
ATOM     40  C   UNL     1     -46.631  33.192  27.068  1.00  0.00     0.270 C 
ATOM     41  H   UNL     1     -47.396  34.913  26.281  1.00  0.00     0.164 HD
ATOM     42  O   UNL     1     -46.071  32.595  27.980  1.00  0.00    -0.268 OA
BRANCH  40  43
ATOM     43  C   UNL     1     -47.183  32.503  25.844  1.00  0.00     0.136 A 
ATOM     44  C   UNL     1     -48.508  32.350  25.794  1.00  0.00     0.035 A 
ATOM     45  N   UNL     1     -46.308  32.085  24.867  1.00  0.00    -0.225 NA
ATOM     46  C   UNL     1     -49.088  31.687  24.621  1.00  0.00     0.258 A 
ATOM     47  H   UNL     1     -49.187  32.684  26.568  1.00  0.00     0.071 H 
ATOM     48  C   UNL     1     -46.825  31.500  23.831  1.00  0.00     0.140 A 
ATOM     49  O   UNL     1     -50.308  31.538  24.568  1.00  0.00    -0.269 OA
ATOM     50  N   UNL     1     -48.185  31.274  23.651  1.00  0.00    -0.268 N 
ATOM     51  C   UNL     1     -45.915  31.031  22.747  1.00  0.00    -0.019 A 
ATOM     52  C   UNL     1     -48.661  30.639  22.510  1.00  0.00     0.014 A 
ATOM     53  C   UNL     1     -46.419  30.423  21.667  1.00  0.00    -0.057 A 
ATOM     54  H   UNL     1     -44.853  31.202  22.878  1.00  0.00     0.066 H 
ATOM     55  C   UNL     1     -47.837  30.219  21.541  1.00  0.00    -0.045 A 
ATOM     56  H   UNL     1     -49.736  30.495  22.435  1.00  0.00     0.082 H 
ATOM     57  H   UNL     1     -45.772  30.075  20.867  1.00  0.00     0.062 H 
ATOM     58  H   UNL     1     -48.219  29.724  20.654  1.00  0.00     0.064 H 
ENDBRANCH  40  43
ENDBRANCH  36  39
ENDBRANCH  33  36
ENDBRANCH   1  22
TORSDOF 8
ENDMDL
MODEL 5
REMARK VINA RESULT:      -9.2      2.873     12.160
REMARK SMILES N#C[C@]12C[C@](CNCc3cc4ccc(CNC(=O)c5cc(=O)n6ccccc6n5)cc4[nH]3)(C1)C2
REMARK SMILES IDX 8 1 7 4 6 6 5 9 3 10 33 11 4 12 34 13 2 20 1 21 9 22 10 23
REMARK SMILES IDX 32 24 11 25 31 27 12 29 30 30 13 31 14 33 15 36 16 39 17 40
REMARK SMILES IDX 18 42 19 43 20 44 29 45 21 46 28 48 22 49 23 50 27 51 24 52
REMARK SMILES IDX 26 53 25 55
REMARK H PARENT 8 2 8 3 7 5 6 7 6 8 33 14 33 15 4 16 4 17 34 18 34 19 10 26
REMARK H PARENT 32 28 12 32 30 34 13 35 15 37 15 38 16 41 20 47 27 54 24 56
REMARK H PARENT 26 57 25 58
REMARK Flexibility Score: inf
ROOT
ATOM      1  C   UNL     1     -48.622  30.694  23.550  1.00  0.00     0.036 C 
ATOM      2  H   UNL     1     -49.211  30.016  24.179  1.00  0.00     0.049 H 
ATOM      3  H   UNL     1     -49.327  31.127  22.830  1.00  0.00     0.049 H 
ENDROOT
BRANCH   1   4
ATOM      4  N   UNL     1     -47.600  29.906  22.865  1.00  0.00    -0.311 NA
ATOM      5  H   UNL     1     -48.029  29.475  22.046  1.00  0.00     0.123 HD
BRANCH   4   6
ATOM      6  C   UNL     1     -47.007  28.877  23.713  1.00  0.00     0.001 C 
ATOM      7  H   UNL     1     -46.352  29.323  24.469  1.00  0.00     0.043 H 
ATOM      8  H   UNL     1     -46.399  28.197  23.107  1.00  0.00     0.043 H 
BRANCH   6   9
ATOM      9  C   UNL     1     -48.089  28.107  24.381  1.00  0.00    -0.013 C 
ATOM     10  C   UNL     1     -49.533  27.096  25.212  1.00  0.00     0.059 C 
ATOM     11  C   UNL     1     -48.032  26.714  25.135  1.00  0.00    -0.027 C 
ATOM     12  C   UNL     1     -49.405  27.518  23.725  1.00  0.00    -0.027 C 
ATOM     13  C   UNL     1     -49.059  28.530  25.563  1.00  0.00    -0.027 C 
ATOM     14  H   UNL     1     -47.471  26.686  26.076  1.00  0.00     0.029 H 
ATOM     15  H   UNL     1     -47.765  25.840  24.531  1.00  0.00     0.029 H 
ATOM     16  H   UNL     1     -50.132  28.243  23.344  1.00  0.00     0.029 H 
ATOM     17  H   UNL     1     -49.271  26.720  22.985  1.00  0.00     0.029 H 
ATOM     18  H   UNL     1     -48.600  28.681  26.546  1.00  0.00     0.029 H 
ATOM     19  H   UNL     1     -49.753  29.353  25.359  1.00  0.00     0.029 H 
BRANCH  10  20
ATOM     20  C   UNL     1     -50.575  26.364  25.807  1.00  0.00     0.069 C 
ATOM     21  N   UNL     1     -51.432  25.754  26.296  1.00  0.00    -0.198 NA
ENDBRANCH  10  20
ENDBRANCH   6   9
ENDBRANCH   4   6
ENDBRANCH   1   4
BRANCH   1  22
ATOM     22  C   UNL     1     -48.016  31.740  24.420  1.00  0.00     0.030 A 
ATOM     23  C   UNL     1     -46.694  32.061  24.665  1.00  0.00    -0.032 A 
ATOM     24  N   UNL     1     -48.785  32.594  25.175  1.00  0.00    -0.357 N 
ATOM     25  C   UNL     1     -46.665  33.149  25.578  1.00  0.00    -0.000 A 
ATOM     26  H   UNL     1     -45.836  31.566  24.229  1.00  0.00     0.065 H 
ATOM     27  C   UNL     1     -47.987  33.465  25.881  1.00  0.00     0.046 A 
ATOM     28  H   UNL     1     -49.795  32.593  25.207  1.00  0.00     0.166 HD
ATOM     29  C   UNL     1     -45.636  33.898  26.176  1.00  0.00    -0.052 A 
ATOM     30  C   UNL     1     -48.336  34.500  26.758  1.00  0.00    -0.033 A 
ATOM     31  C   UNL     1     -45.965  34.937  27.056  1.00  0.00    -0.057 A 
ATOM     32  H   UNL     1     -44.595  33.676  25.958  1.00  0.00     0.063 H 
ATOM     33  C   UNL     1     -47.300  35.236  27.357  1.00  0.00    -0.027 A 
ATOM     34  H   UNL     1     -49.377  34.730  26.969  1.00  0.00     0.065 H 
ATOM     35  H   UNL     1     -45.161  35.514  27.509  1.00  0.00     0.063 H 
BRANCH  33  36
ATOM     36  C   UNL     1     -47.632  36.377  28.284  1.00  0.00     0.043 C 
ATOM     37  H   UNL     1     -48.596  36.826  28.016  1.00  0.00     0.054 H 
ATOM     38  H   UNL     1     -47.724  36.026  29.318  1.00  0.00     0.054 H 
BRANCH  36  39
ATOM     39  N   UNL     1     -46.607  37.385  28.239  1.00  0.00    -0.347 N 
ATOM     40  C   UNL     1     -46.534  38.301  27.221  1.00  0.00     0.270 C 
ATOM     41  H   UNL     1     -46.025  37.557  29.053  1.00  0.00     0.164 HD
ATOM     42  O   UNL     1     -47.250  38.284  26.227  1.00  0.00    -0.268 OA
BRANCH  40  43
ATOM     43  C   UNL     1     -45.477  39.350  27.464  1.00  0.00     0.136 A 
ATOM     44  C   UNL     1     -45.463  40.386  26.622  1.00  0.00     0.035 A 
ATOM     45  N   UNL     1     -44.609  39.185  28.519  1.00  0.00    -0.225 NA
ATOM     46  C   UNL     1     -44.452  41.431  26.821  1.00  0.00     0.258 A 
ATOM     47  H   UNL     1     -46.151  40.507  25.796  1.00  0.00     0.071 H 
ATOM     48  C   UNL     1     -43.718  40.112  28.693  1.00  0.00     0.140 A 
ATOM     49  O   UNL     1     -44.428  42.387  26.048  1.00  0.00    -0.269 OA
ATOM     50  N   UNL     1     -43.589  41.240  27.892  1.00  0.00    -0.268 N 
ATOM     51  C   UNL     1     -42.757  39.975  29.825  1.00  0.00    -0.019 A 
ATOM     52  C   UNL     1     -42.604  42.190  28.144  1.00  0.00     0.014 A 
ATOM     53  C   UNL     1     -41.826  40.914  30.028  1.00  0.00    -0.057 A 
ATOM     54  H   UNL     1     -42.849  39.099  30.455  1.00  0.00     0.066 H 
ATOM     55  C   UNL     1     -41.744  42.059  29.162  1.00  0.00    -0.045 A 
ATOM     56  H   UNL     1     -42.561  43.047  27.478  1.00  0.00     0.082 H 
ATOM     57  H   UNL     1     -41.117  40.832  30.847  1.00  0.00     0.062 H 
ATOM     58  H   UNL     1     -40.979  42.806  29.351  1.00  0.00     0.064 H 
ENDBRANCH  40  43
ENDBRANCH  36  39
ENDBRANCH  33  36
ENDBRANCH   1  22
TORSDOF 8
ENDMDL
MODEL 6
REMARK VINA RESULT:      -9.2      3.610     12.613
REMARK SMILES N#C[C@]12C[C@](CNCc3cc4ccc(CNC(=O)c5cc(=O)n6ccccc6n5)cc4[nH]3)(C1)C2
REMARK SMILES IDX 8 1 7 4 6 6 5 9 3 10 33 11 4 12 34 13 2 20 1 21 9 22 10 23
REMARK SMILES IDX 32 24 11 25 31 27 12 29 30 30 13 31 14 33 15 36 16 39 17 40
REMARK SMILES IDX 18 42 19 43 20 44 29 45 21 46 28 48 22 49 23 50 27 51 24 52
REMARK SMILES IDX 26 53 25 55
REMARK H PARENT 8 2 8 3 7 5 6 7 6 8 33 14 33 15 4 16 4 17 34 18 34 19 10 26
REMARK H PARENT 32 28 12 32 30 34 13 35 15 37 15 38 16 41 20 47 27 54 24 56
REMARK H PARENT 26 57 25 58
REMARK Flexibility Score: inf
ROOT
ATOM      1  C   UNL     1     -46.789  31.985  24.942  1.00  0.00     0.036 C 
ATOM      2  H   UNL     1     -45.814  31.960  24.441  1.00  0.00     0.049 H 
ATOM      3  H   UNL     1     -46.809  31.114  25.608  1.00  0.00     0.049 H 
ENDROOT
BRANCH   1   4
ATOM      4  N   UNL     1     -47.828  31.880  23.920  1.00  0.00    -0.311 NA
ATOM      5  H   UNL     1     -48.009  32.816  23.556  1.00  0.00     0.123 HD
BRANCH   4   6
ATOM      6  C   UNL     1     -49.068  31.296  24.421  1.00  0.00     0.001 C 
ATOM      7  H   UNL     1     -49.869  31.387  23.681  1.00  0.00     0.043 H 
ATOM      8  H   UNL     1     -49.391  31.823  25.326  1.00  0.00     0.043 H 
BRANCH   6   9
ATOM      9  C   UNL     1     -48.842  29.863  24.740  1.00  0.00    -0.013 C 
ATOM     10  C   UNL     1     -48.594  27.973  25.144  1.00  0.00     0.059 C 
ATOM     11  C   UNL     1     -47.804  28.833  24.125  1.00  0.00    -0.027 C 
ATOM     12  C   UNL     1     -49.870  28.665  24.599  1.00  0.00    -0.027 C 
ATOM     13  C   UNL     1     -48.473  29.172  26.119  1.00  0.00    -0.027 C 
ATOM     14  H   UNL     1     -46.745  29.018  24.337  1.00  0.00     0.029 H 
ATOM     15  H   UNL     1     -47.922  28.593  23.063  1.00  0.00     0.029 H 
ATOM     16  H   UNL     1     -50.748  28.691  25.253  1.00  0.00     0.029 H 
ATOM     17  H   UNL     1     -50.187  28.407  23.582  1.00  0.00     0.029 H 
ATOM     18  H   UNL     1     -47.480  29.388  26.527  1.00  0.00     0.029 H 
ATOM     19  H   UNL     1     -49.216  29.246  26.921  1.00  0.00     0.029 H 
BRANCH  10  20
ATOM     20  C   UNL     1     -48.419  26.608  25.432  1.00  0.00     0.069 C 
ATOM     21  N   UNL     1     -48.280  25.480  25.666  1.00  0.00    -0.198 NA
ENDBRANCH  10  20
ENDBRANCH   6   9
ENDBRANCH   4   6
ENDBRANCH   1   4
BRANCH   1  22
ATOM     22  C   UNL     1     -46.897  33.260  25.704  1.00  0.00     0.030 A 
ATOM     23  C   UNL     1     -47.992  34.052  25.994  1.00  0.00    -0.032 A 
ATOM     24  N   UNL     1     -45.797  33.872  26.257  1.00  0.00    -0.357 N 
ATOM     25  C   UNL     1     -47.543  35.163  26.758  1.00  0.00    -0.000 A 
ATOM     26  H   UNL     1     -49.011  33.852  25.690  1.00  0.00     0.065 H 
ATOM     27  C   UNL     1     -46.166  35.026  26.911  1.00  0.00     0.046 A 
ATOM     28  H   UNL     1     -44.850  33.527  26.203  1.00  0.00     0.166 HD
ATOM     29  C   UNL     1     -48.181  36.275  27.337  1.00  0.00    -0.052 A 
ATOM     30  C   UNL     1     -45.387  35.951  27.619  1.00  0.00    -0.033 A 
ATOM     31  C   UNL     1     -47.419  37.210  28.049  1.00  0.00    -0.057 A 
ATOM     32  H   UNL     1     -49.254  36.408  27.236  1.00  0.00     0.063 H 
ATOM     33  C   UNL     1     -46.033  37.062  28.185  1.00  0.00    -0.027 A 
ATOM     34  H   UNL     1     -44.315  35.814  27.729  1.00  0.00     0.065 H 
ATOM     35  H   UNL     1     -47.924  38.064  28.498  1.00  0.00     0.063 H 
BRANCH  33  36
ATOM     36  C   UNL     1     -45.237  38.065  28.980  1.00  0.00     0.043 C 
ATOM     37  H   UNL     1     -45.753  38.318  29.914  1.00  0.00     0.054 H 
ATOM     38  H   UNL     1     -44.260  37.654  29.260  1.00  0.00     0.054 H 
BRANCH  36  39
ATOM     39  N   UNL     1     -45.019  39.263  28.215  1.00  0.00    -0.347 N 
ATOM     40  C   UNL     1     -43.965  40.104  28.470  1.00  0.00     0.270 C 
ATOM     41  H   UNL     1     -45.531  39.419  27.353  1.00  0.00     0.164 HD
ATOM     42  O   UNL     1     -43.193  39.976  29.411  1.00  0.00    -0.268 OA
BRANCH  40  43
ATOM     43  C   UNL     1     -43.850  41.209  27.448  1.00  0.00     0.136 A 
ATOM     44  C   UNL     1     -42.614  41.545  27.071  1.00  0.00     0.035 A 
ATOM     45  N   UNL     1     -45.001  41.793  26.970  1.00  0.00    -0.225 NA
ATOM     46  C   UNL     1     -42.454  42.614  26.080  1.00  0.00     0.258 A 
ATOM     47  H   UNL     1     -41.715  41.078  27.453  1.00  0.00     0.071 H 
ATOM     48  C   UNL     1     -44.855  42.738  26.092  1.00  0.00     0.140 A 
ATOM     49  O   UNL     1     -41.319  42.932  25.730  1.00  0.00    -0.269 OA
ATOM     50  N   UNL     1     -43.630  43.187  25.614  1.00  0.00    -0.268 N 
ATOM     51  C   UNL     1     -46.076  43.399  25.546  1.00  0.00    -0.019 A 
ATOM     52  C   UNL     1     -43.559  44.206  24.671  1.00  0.00     0.014 A 
ATOM     53  C   UNL     1     -45.957  44.376  24.640  1.00  0.00    -0.057 A 
ATOM     54  H   UNL     1     -47.036  43.056  25.912  1.00  0.00     0.066 H 
ATOM     55  C   UNL     1     -44.659  44.796  24.186  1.00  0.00    -0.045 A 
ATOM     56  H   UNL     1     -42.568  44.507  24.341  1.00  0.00     0.082 H 
ATOM     57  H   UNL     1     -46.834  44.869  24.230  1.00  0.00     0.062 H 
ATOM     58  H   UNL     1     -44.593  45.590  23.449  1.00  0.00     0.064 H 
ENDBRANCH  40  43
ENDBRANCH  36  39
ENDBRANCH  33  36
ENDBRANCH   1  22
TORSDOF 8
ENDMDL
MODEL 7
REMARK VINA RESULT:      -9.1      4.056     12.427
REMARK SMILES N#C[C@]12C[C@](CNCc3cc4ccc(CNC(=O)c5cc(=O)n6ccccc6n5)cc4[nH]3)(C1)C2
REMARK SMILES IDX 8 1 7 4 6 6 5 9 3 10 33 11 4 12 34 13 2 20 1 21 9 22 10 23
REMARK SMILES IDX 32 24 11 25 31 27 12 29 30 30 13 31 14 33 15 36 16 39 17 40
REMARK SMILES IDX 18 42 19 43 20 44 29 45 21 46 28 48 22 49 23 50 27 51 24 52
REMARK SMILES IDX 26 53 25 55
REMARK H PARENT 8 2 8 3 7 5 6 7 6 8 33 14 33 15 4 16 4 17 34 18 34 19 10 26
REMARK H PARENT 32 28 12 32 30 34 13 35 15 37 15 38 16 41 20 47 27 54 24 56
REMARK H PARENT 26 57 25 58
REMARK Flexibility Score: inf
ROOT
ATOM      1  C   UNL     1     -46.825  32.160  26.185  1.00  0.00     0.036 C 
ATOM      2  H   UNL     1     -46.522  31.577  27.062  1.00  0.00     0.049 H 
ATOM      3  H   UNL     1     -47.805  31.769  25.886  1.00  0.00     0.049 H 
ENDROOT
BRANCH   1   4
ATOM      4  N   UNL     1     -45.836  31.944  25.132  1.00  0.00    -0.311 NA
ATOM      5  H   UNL     1     -45.050  32.572  25.302  1.00  0.00     0.123 HD
BRANCH   4   6
ATOM      6  C   UNL     1     -46.368  32.169  23.791  1.00  0.00     0.001 C 
ATOM      7  H   UNL     1     -45.558  32.341  23.074  1.00  0.00     0.043 H 
ATOM      8  H   UNL     1     -47.009  33.056  23.787  1.00  0.00     0.043 H 
BRANCH   6   9
ATOM      9  C   UNL     1     -47.162  30.984  23.373  1.00  0.00    -0.013 C 
ATOM     10  C   UNL     1     -48.200  29.448  22.775  1.00  0.00     0.059 C 
ATOM     11  C   UNL     1     -46.838  29.439  23.514  1.00  0.00    -0.027 C 
ATOM     12  C   UNL     1     -47.616  30.592  21.907  1.00  0.00    -0.027 C 
ATOM     13  C   UNL     1     -48.634  30.553  23.773  1.00  0.00    -0.027 C 
ATOM     14  H   UNL     1     -46.820  29.032  24.531  1.00  0.00     0.029 H 
ATOM     15  H   UNL     1     -45.967  29.068  22.962  1.00  0.00     0.029 H 
ATOM     16  H   UNL     1     -48.327  31.264  21.416  1.00  0.00     0.029 H 
ATOM     17  H   UNL     1     -46.821  30.331  21.199  1.00  0.00     0.029 H 
ATOM     18  H   UNL     1     -48.794  30.254  24.814  1.00  0.00     0.029 H 
ATOM     19  H   UNL     1     -49.445  31.222  23.462  1.00  0.00     0.029 H 
BRANCH  10  20
ATOM     20  C   UNL     1     -48.948  28.340  22.340  1.00  0.00     0.069 C 
ATOM     21  N   UNL     1     -49.568  27.429  21.977  1.00  0.00    -0.198 NA
ENDBRANCH  10  20
ENDBRANCH   6   9
ENDBRANCH   4   6
ENDBRANCH   1   4
BRANCH   1  22
ATOM     22  C   UNL     1     -46.904  33.595  26.575  1.00  0.00     0.030 A 
ATOM     23  C   UNL     1     -47.971  34.472  26.592  1.00  0.00    -0.032 A 
ATOM     24  N   UNL     1     -45.799  34.295  26.998  1.00  0.00    -0.357 N 
ATOM     25  C   UNL     1     -47.502  35.731  27.055  1.00  0.00    -0.000 A 
ATOM     26  H   UNL     1     -48.986  34.233  26.304  1.00  0.00     0.065 H 
ATOM     27  C   UNL     1     -46.139  35.593  27.304  1.00  0.00     0.046 A 
ATOM     28  H   UNL     1     -44.866  33.916  27.083  1.00  0.00     0.166 HD
ATOM     29  C   UNL     1     -48.110  36.978  27.287  1.00  0.00    -0.052 A 
ATOM     30  C   UNL     1     -45.346  36.647  27.778  1.00  0.00    -0.033 A 
ATOM     31  C   UNL     1     -47.334  38.043  27.760  1.00  0.00    -0.057 A 
ATOM     32  H   UNL     1     -49.172  37.115  27.104  1.00  0.00     0.063 H 
ATOM     33  C   UNL     1     -45.962  37.891  27.998  1.00  0.00    -0.027 A 
ATOM     34  H   UNL     1     -44.286  36.508  27.971  1.00  0.00     0.065 H 
ATOM     35  H   UNL     1     -47.815  39.002  27.943  1.00  0.00     0.063 H 
BRANCH  33  36
ATOM     36  C   UNL     1     -45.151  39.042  28.535  1.00  0.00     0.043 C 
ATOM     37  H   UNL     1     -45.504  39.333  29.531  1.00  0.00     0.054 H 
ATOM     38  H   UNL     1     -44.097  38.760  28.643  1.00  0.00     0.054 H 
BRANCH  36  39
ATOM     39  N   UNL     1     -45.226  40.174  27.652  1.00  0.00    -0.347 N 
ATOM     40  C   UNL     1     -44.122  40.926  27.340  1.00  0.00     0.270 C 
ATOM     41  H   UNL     1     -46.060  40.332  27.095  1.00  0.00     0.164 HD
ATOM     42  O   UNL     1     -43.019  40.774  27.851  1.00  0.00    -0.268 OA
BRANCH  40  43
ATOM     43  C   UNL     1     -44.409  41.962  26.281  1.00  0.00     0.136 A 
ATOM     44  C   UNL     1     -45.641  42.475  26.269  1.00  0.00     0.035 A 
ATOM     45  N   UNL     1     -43.404  42.313  25.408  1.00  0.00    -0.225 NA
ATOM     46  C   UNL     1     -45.964  43.486  25.256  1.00  0.00     0.258 A 
ATOM     47  H   UNL     1     -46.423  42.192  26.961  1.00  0.00     0.071 H 
ATOM     48  C   UNL     1     -43.694  43.208  24.514  1.00  0.00     0.140 A 
ATOM     49  O   UNL     1     -47.098  43.962  25.235  1.00  0.00    -0.269 OA
ATOM     50  N   UNL     1     -44.934  43.822  24.388  1.00  0.00    -0.268 N 
ATOM     51  C   UNL     1     -42.635  43.620  23.548  1.00  0.00    -0.019 A 
ATOM     52  C   UNL     1     -45.164  44.775  23.401  1.00  0.00     0.014 A 
ATOM     53  C   UNL     1     -42.904  44.541  22.615  1.00  0.00    -0.057 A 
ATOM     54  H   UNL     1     -41.665  43.147  23.638  1.00  0.00     0.066 H 
ATOM     55  C   UNL     1     -44.209  45.139  22.536  1.00  0.00    -0.045 A 
ATOM     56  H   UNL     1     -46.157  45.214  23.360  1.00  0.00     0.082 H 
ATOM     57  H   UNL     1     -42.147  44.854  21.902  1.00  0.00     0.062 H 
ATOM     58  H   UNL     1     -44.399  45.884  21.769  1.00  0.00     0.064 H 
ENDBRANCH  40  43
ENDBRANCH  36  39
ENDBRANCH  33  36
ENDBRANCH   1  22
TORSDOF 8
ENDMDL
