MODEL 1
REMARK VINA RESULT:      -9.4      0.000      0.000
REMARK SMILES CCc1cc(NCCOC)c2ncc(OC[C@H]3O[C@@H](n4cc(-c5ccn(C)n5)c5c(N)ncnc54)[C@H](O)[C@@H]3O)cc2n1
REMARK SMILES IDX 3 1 4 2 5 3 11 4 12 5 13 6 14 7 40 8 41 9 42 10 2 14 1 17
REMARK SMILES IDX 6 21 7 23 8 26 9 29 10 30 15 34 16 35 17 38 18 39 38 40
REMARK SMILES IDX 19 42 36 43 39 47 20 49 21 50 35 51 22 52 29 54 34 55 30 56
REMARK SMILES IDX 33 57 32 58 23 60 24 61 28 62 25 63 26 65 27 67 31 71 37 74
REMARK H PARENT 4 11 13 12 40 13 2 15 2 16 1 18 1 19 1 20 6 22 7 24 7 25 8 27
REMARK H PARENT 8 28 10 31 10 32 10 33 16 36 16 37 17 41 38 44 19 45 36 46
REMARK H PARENT 39 48 21 53 33 59 24 64 25 66 27 68 27 69 27 70 31 72 31 73
REMARK H PARENT 37 75
REMARK Flexibility Score: inf
ROOT
ATOM      1  C   UNL     1     -46.354  31.032  23.248  1.00  0.00     0.043 A 
ATOM      2  C   UNL     1     -47.260  30.078  23.687  1.00  0.00    -0.015 A 
ATOM      3  C   UNL     1     -48.177  30.429  24.680  1.00  0.00     0.064 A 
ATOM      4  C   UNL     1     -48.179  31.723  25.220  1.00  0.00     0.112 A 
ATOM      5  N   UNL     1     -49.074  32.057  26.185  1.00  0.00    -0.249 NA
ATOM      6  C   UNL     1     -48.991  33.304  26.702  1.00  0.00     0.070 A 
ATOM      7  C   UNL     1     -48.044  34.236  26.316  1.00  0.00     0.139 A 
ATOM      8  C   UNL     1     -47.157  33.866  25.307  1.00  0.00     0.010 A 
ATOM      9  C   UNL     1     -47.200  32.607  24.728  1.00  0.00     0.095 A 
ATOM     10  N   UNL     1     -46.319  32.283  23.758  1.00  0.00    -0.251 NA
ATOM     11  H   UNL     1     -47.272  29.082  23.259  1.00  0.00     0.066 H 
ATOM     12  H   UNL     1     -49.738  33.507  27.460  1.00  0.00     0.088 H 
ATOM     13  H   UNL     1     -46.393  34.565  24.973  1.00  0.00     0.069 H 
ENDROOT
BRANCH   1  14
ATOM     14  C   UNL     1     -45.370  30.711  22.154  1.00  0.00    -0.013 C 
ATOM     15  H   UNL     1     -44.372  31.047  22.460  1.00  0.00     0.033 H 
ATOM     16  H   UNL     1     -45.306  29.626  22.017  1.00  0.00     0.033 H 
BRANCH  14  17
ATOM     17  C   UNL     1     -45.751  31.383  20.845  1.00  0.00    -0.060 C 
ATOM     18  H   UNL     1     -44.948  32.037  20.487  1.00  0.00     0.023 H 
ATOM     19  H   UNL     1     -45.944  30.630  20.075  1.00  0.00     0.023 H 
ATOM     20  H   UNL     1     -46.654  31.993  20.957  1.00  0.00     0.023 H 
ENDBRANCH  14  17
ENDBRANCH   1  14
BRANCH   3  21
ATOM     21  N   UNL     1     -49.076  29.440  25.193  1.00  0.00    -0.381 N 
ATOM     22  H   UNL     1     -49.333  29.756  26.136  1.00  0.00     0.160 HD
BRANCH  21  23
ATOM     23  C   UNL     1     -48.464  28.100  25.260  1.00  0.00     0.038 C 
ATOM     24  H   UNL     1     -47.383  28.139  25.081  1.00  0.00     0.051 H 
ATOM     25  H   UNL     1     -48.869  27.504  24.433  1.00  0.00     0.051 H 
BRANCH  23  26
ATOM     26  C   UNL     1     -48.764  27.365  26.575  1.00  0.00     0.063 C 
ATOM     27  H   UNL     1     -49.586  26.655  26.425  1.00  0.00     0.059 H 
ATOM     28  H   UNL     1     -49.057  28.070  27.361  1.00  0.00     0.059 H 
BRANCH  26  29
ATOM     29  O   UNL     1     -47.592  26.666  27.005  1.00  0.00    -0.383 OA
BRANCH  29  30
ATOM     30  C   UNL     1     -47.627  25.303  26.597  1.00  0.00     0.036 C 
ATOM     31  H   UNL     1     -47.396  24.643  27.438  1.00  0.00     0.053 H 
ATOM     32  H   UNL     1     -46.870  25.158  25.822  1.00  0.00     0.053 H 
ATOM     33  H   UNL     1     -48.607  25.055  26.180  1.00  0.00     0.053 H 
ENDBRANCH  29  30
ENDBRANCH  26  29
ENDBRANCH  23  26
ENDBRANCH  21  23
ENDBRANCH   3  21
BRANCH   7  34
ATOM     34  O   UNL     1     -47.863  35.487  26.826  1.00  0.00    -0.489 OA
BRANCH  34  35
ATOM     35  C   UNL     1     -46.562  36.068  26.734  1.00  0.00     0.117 C 
ATOM     36  H   UNL     1     -46.621  37.133  26.485  1.00  0.00     0.073 H 
ATOM     37  H   UNL     1     -46.007  35.533  25.955  1.00  0.00     0.073 H 
BRANCH  35  38
ATOM     38  C   UNL     1     -45.820  35.937  28.075  1.00  0.00     0.123 C 
ATOM     39  O   UNL     1     -44.669  36.813  28.054  1.00  0.00    -0.345 OA
ATOM     40  C   UNL     1     -46.637  36.317  29.307  1.00  0.00     0.114 C 
ATOM     41  H   UNL     1     -45.423  34.918  28.155  1.00  0.00     0.067 H 
ATOM     42  C   UNL     1     -44.857  37.854  29.045  1.00  0.00     0.164 C 
ATOM     43  C   UNL     1     -46.316  37.791  29.507  1.00  0.00     0.128 C 
ATOM     44  H   UNL     1     -47.708  36.111  29.230  1.00  0.00     0.066 H 
ATOM     45  H   UNL     1     -44.158  37.653  29.865  1.00  0.00     0.088 H 
ATOM     46  H   UNL     1     -46.959  38.423  28.888  1.00  0.00     0.068 H 
BRANCH  40  47
ATOM     47  O   UNL     1     -46.147  35.608  30.465  1.00  0.00    -0.387 OA
ATOM     48  H   UNL     1     -46.020  34.677  30.209  1.00  0.00     0.211 HD
ENDBRANCH  40  47
BRANCH  42  49
ATOM     49  N   UNL     1     -44.498  39.135  28.452  1.00  0.00    -0.303 N 
ATOM     50  C   UNL     1     -45.121  39.741  27.390  1.00  0.00     0.019 A 
ATOM     51  C   UNL     1     -43.488  39.948  28.906  1.00  0.00     0.148 A 
ATOM     52  C   UNL     1     -44.516  40.962  27.174  1.00  0.00     0.033 A 
ATOM     53  H   UNL     1     -45.939  39.267  26.867  1.00  0.00     0.083 H 
ATOM     54  C   UNL     1     -43.488  41.118  28.150  1.00  0.00     0.071 A 
ATOM     55  N   UNL     1     -42.660  39.654  29.924  1.00  0.00    -0.218 NA
ATOM     56  C   UNL     1     -42.554  42.098  28.529  1.00  0.00     0.137 A 
ATOM     57  C   UNL     1     -41.800  40.652  30.171  1.00  0.00     0.120 A 
ATOM     58  N   UNL     1     -41.706  41.839  29.545  1.00  0.00    -0.219 NA
ATOM     59  H   UNL     1     -41.096  40.484  30.978  1.00  0.00     0.106 H 
BRANCH  52  60
ATOM     60  C   UNL     1     -44.894  41.911  26.133  1.00  0.00     0.095 A 
ATOM     61  C   UNL     1     -46.140  42.567  26.035  1.00  0.00    -0.016 A 
ATOM     62  N   UNL     1     -44.051  42.293  25.166  1.00  0.00    -0.173 NA
ATOM     63  C   UNL     1     -46.035  43.357  24.913  1.00  0.00     0.025 A 
ATOM     64  H   UNL     1     -46.996  42.473  26.688  1.00  0.00     0.066 H 
ATOM     65  N   UNL     1     -44.779  43.146  24.424  1.00  0.00    -0.275 N 
ATOM     66  H   UNL     1     -46.734  44.027  24.433  1.00  0.00     0.084 H 
BRANCH  65  67
ATOM     67  C   UNL     1     -44.208  43.718  23.229  1.00  0.00     0.030 C 
ATOM     68  H   UNL     1     -44.330  43.017  22.401  1.00  0.00     0.048 H 
ATOM     69  H   UNL     1     -43.148  43.906  23.416  1.00  0.00     0.048 H 
ATOM     70  H   UNL     1     -44.724  44.652  23.002  1.00  0.00     0.048 H 
ENDBRANCH  65  67
ENDBRANCH  52  60
BRANCH  56  71
ATOM     71  N   UNL     1     -42.457  43.361  27.958  1.00  0.00    -0.383 N 
ATOM     72  H   UNL     1     -43.232  43.968  28.200  1.00  0.00     0.158 HD
ATOM     73  H   UNL     1     -41.537  43.745  28.151  1.00  0.00     0.158 HD
ENDBRANCH  56  71
ENDBRANCH  42  49
BRANCH  43  74
ATOM     74  O   UNL     1     -46.514  38.167  30.870  1.00  0.00    -0.386 OA
ATOM     75  H   UNL     1     -47.162  38.901  30.846  1.00  0.00     0.211 HD
ENDBRANCH  43  74
ENDBRANCH  35  38
ENDBRANCH  34  35
ENDBRANCH   7  34
TORSDOF 16
ENDMDL
MODEL 2
REMARK VINA RESULT:      -9.1      1.584      3.020
REMARK SMILES CCc1cc(NCCOC)c2ncc(OC[C@H]3O[C@@H](n4cc(-c5ccn(C)n5)c5c(N)ncnc54)[C@H](O)[C@@H]3O)cc2n1
REMARK SMILES IDX 3 1 4 2 5 3 11 4 12 5 13 6 14 7 40 8 41 9 42 10 2 14 1 17
REMARK SMILES IDX 6 21 7 23 8 26 9 29 10 30 15 34 16 35 17 38 18 39 38 40
REMARK SMILES IDX 19 42 36 43 39 47 20 49 21 50 35 51 22 52 29 54 34 55 30 56
REMARK SMILES IDX 33 57 32 58 23 60 24 61 28 62 25 63 26 65 27 67 31 71 37 74
REMARK H PARENT 4 11 13 12 40 13 2 15 2 16 1 18 1 19 1 20 6 22 7 24 7 25 8 27
REMARK H PARENT 8 28 10 31 10 32 10 33 16 36 16 37 17 41 38 44 19 45 36 46
REMARK H PARENT 39 48 21 53 33 59 24 64 25 66 27 68 27 69 27 70 31 72 31 73
REMARK H PARENT 37 75
REMARK Flexibility Score: inf
ROOT
ATOM      1  C   UNL     1     -48.948  30.550  24.935  1.00  0.00     0.043 A 
ATOM      2  C   UNL     1     -47.795  30.599  24.165  1.00  0.00    -0.015 A 
ATOM      3  C   UNL     1     -46.993  31.740  24.226  1.00  0.00     0.064 A 
ATOM      4  C   UNL     1     -47.351  32.816  25.052  1.00  0.00     0.112 A 
ATOM      5  N   UNL     1     -46.566  33.923  25.107  1.00  0.00    -0.249 NA
ATOM      6  C   UNL     1     -46.993  34.946  25.882  1.00  0.00     0.070 A 
ATOM      7  C   UNL     1     -48.177  34.930  26.596  1.00  0.00     0.139 A 
ATOM      8  C   UNL     1     -48.945  33.768  26.535  1.00  0.00     0.010 A 
ATOM      9  C   UNL     1     -48.555  32.680  25.769  1.00  0.00     0.095 A 
ATOM     10  N   UNL     1     -49.329  31.575  25.729  1.00  0.00    -0.251 NA
ATOM     11  H   UNL     1     -47.507  29.762  23.539  1.00  0.00     0.066 H 
ATOM     12  H   UNL     1     -46.317  35.794  25.886  1.00  0.00     0.088 H 
ATOM     13  H   UNL     1     -49.885  33.711  27.078  1.00  0.00     0.069 H 
ENDROOT
BRANCH   1  14
ATOM     14  C   UNL     1     -49.824  29.326  24.929  1.00  0.00    -0.013 C 
ATOM     15  H   UNL     1     -50.179  29.134  25.948  1.00  0.00     0.033 H 
ATOM     16  H   UNL     1     -50.716  29.508  24.318  1.00  0.00     0.033 H 
BRANCH  14  17
ATOM     17  C   UNL     1     -49.077  28.106  24.414  1.00  0.00    -0.060 C 
ATOM     18  H   UNL     1     -49.339  27.210  24.988  1.00  0.00     0.023 H 
ATOM     19  H   UNL     1     -49.327  27.924  23.365  1.00  0.00     0.023 H 
ATOM     20  H   UNL     1     -47.993  28.244  24.486  1.00  0.00     0.023 H 
ENDBRANCH  14  17
ENDBRANCH   1  14
BRANCH   3  21
ATOM     21  N   UNL     1     -45.835  31.837  23.390  1.00  0.00    -0.381 N 
ATOM     22  H   UNL     1     -46.007  32.632  22.763  1.00  0.00     0.160 HD
BRANCH  21  23
ATOM     23  C   UNL     1     -45.604  30.613  22.601  1.00  0.00     0.038 C 
ATOM     24  H   UNL     1     -46.270  29.799  22.911  1.00  0.00     0.051 H 
ATOM     25  H   UNL     1     -44.592  30.254  22.827  1.00  0.00     0.051 H 
BRANCH  23  26
ATOM     26  C   UNL     1     -45.706  30.843  21.086  1.00  0.00     0.063 C 
ATOM     27  H   UNL     1     -45.730  29.880  20.564  1.00  0.00     0.059 H 
ATOM     28  H   UNL     1     -44.848  31.415  20.717  1.00  0.00     0.059 H 
BRANCH  26  29
ATOM     29  O   UNL     1     -46.900  31.579  20.799  1.00  0.00    -0.383 OA
BRANCH  29  30
ATOM     30  C   UNL     1     -46.876  32.102  19.475  1.00  0.00     0.036 C 
ATOM     31  H   UNL     1     -47.873  32.435  19.175  1.00  0.00     0.053 H 
ATOM     32  H   UNL     1     -46.556  31.306  18.798  1.00  0.00     0.053 H 
ATOM     33  H   UNL     1     -46.163  32.929  19.405  1.00  0.00     0.053 H 
ENDBRANCH  29  30
ENDBRANCH  26  29
ENDBRANCH  23  26
ENDBRANCH  21  23
ENDBRANCH   3  21
BRANCH   7  34
ATOM     34  O   UNL     1     -48.698  35.938  27.352  1.00  0.00    -0.489 OA
BRANCH  34  35
ATOM     35  C   UNL     1     -47.836  37.013  27.723  1.00  0.00     0.117 C 
ATOM     36  H   UNL     1     -48.363  37.748  28.343  1.00  0.00     0.073 H 
ATOM     37  H   UNL     1     -47.476  37.491  26.804  1.00  0.00     0.073 H 
BRANCH  35  38
ATOM     38  C   UNL     1     -46.639  36.486  28.531  1.00  0.00     0.123 C 
ATOM     39  O   UNL     1     -45.432  37.100  28.022  1.00  0.00    -0.345 OA
ATOM     40  C   UNL     1     -46.684  36.784  30.026  1.00  0.00     0.114 C 
ATOM     41  H   UNL     1     -46.535  35.412  28.338  1.00  0.00     0.067 H 
ATOM     42  C   UNL     1     -44.871  37.953  29.051  1.00  0.00     0.164 C 
ATOM     43  C   UNL     1     -45.928  38.099  30.151  1.00  0.00     0.128 C 
ATOM     44  H   UNL     1     -47.688  36.817  30.459  1.00  0.00     0.066 H 
ATOM     45  H   UNL     1     -43.961  37.465  29.420  1.00  0.00     0.088 H 
ATOM     46  H   UNL     1     -46.585  38.953  29.964  1.00  0.00     0.068 H 
BRANCH  40  47
ATOM     47  O   UNL     1     -45.936  35.787  30.755  1.00  0.00    -0.387 OA
ATOM     48  H   UNL     1     -45.951  34.967  30.229  1.00  0.00     0.211 HD
ENDBRANCH  40  47
BRANCH  42  49
ATOM     49  N   UNL     1     -44.489  39.224  28.451  1.00  0.00    -0.303 N 
ATOM     50  C   UNL     1     -45.080  39.818  27.365  1.00  0.00     0.019 A 
ATOM     51  C   UNL     1     -43.486  40.036  28.921  1.00  0.00     0.148 A 
ATOM     52  C   UNL     1     -44.460  41.032  27.148  1.00  0.00     0.033 A 
ATOM     53  H   UNL     1     -45.886  39.342  26.826  1.00  0.00     0.083 H 
ATOM     54  C   UNL     1     -43.458  41.196  28.149  1.00  0.00     0.071 A 
ATOM     55  N   UNL     1     -42.687  39.751  29.964  1.00  0.00    -0.218 NA
ATOM     56  C   UNL     1     -42.529  42.174  28.540  1.00  0.00     0.137 A 
ATOM     57  C   UNL     1     -41.828  40.746  30.220  1.00  0.00     0.120 A 
ATOM     58  N   UNL     1     -41.709  41.924  29.581  1.00  0.00    -0.219 NA
ATOM     59  H   UNL     1     -41.146  40.586  31.049  1.00  0.00     0.106 H 
BRANCH  52  60
ATOM     60  C   UNL     1     -44.805  41.970  26.085  1.00  0.00     0.095 A 
ATOM     61  C   UNL     1     -46.021  42.677  25.977  1.00  0.00    -0.016 A 
ATOM     62  N   UNL     1     -43.954  42.288  25.103  1.00  0.00    -0.173 NA
ATOM     63  C   UNL     1     -45.890  43.431  24.834  1.00  0.00     0.025 A 
ATOM     64  H   UNL     1     -46.875  42.638  26.639  1.00  0.00     0.066 H 
ATOM     65  N   UNL     1     -44.649  43.153  24.343  1.00  0.00    -0.275 N 
ATOM     66  H   UNL     1     -46.563  44.119  24.341  1.00  0.00     0.084 H 
BRANCH  65  67
ATOM     67  C   UNL     1     -44.063  43.667  23.129  1.00  0.00     0.030 C 
ATOM     68  H   UNL     1     -43.585  44.627  23.338  1.00  0.00     0.048 H 
ATOM     69  H   UNL     1     -44.861  43.791  22.393  1.00  0.00     0.048 H 
ATOM     70  H   UNL     1     -43.320  42.955  22.765  1.00  0.00     0.048 H 
ENDBRANCH  65  67
ENDBRANCH  52  60
BRANCH  56  71
ATOM     71  N   UNL     1     -42.407  43.429  27.954  1.00  0.00    -0.383 N 
ATOM     72  H   UNL     1     -43.286  43.790  27.601  1.00  0.00     0.158 HD
ATOM     73  H   UNL     1     -41.915  44.048  28.590  1.00  0.00     0.158 HD
ENDBRANCH  56  71
ENDBRANCH  42  49
BRANCH  43  74
ATOM     74  O   UNL     1     -45.387  38.245  31.465  1.00  0.00    -0.386 OA
ATOM     75  H   UNL     1     -44.450  38.499  31.334  1.00  0.00     0.211 HD
ENDBRANCH  43  74
ENDBRANCH  35  38
ENDBRANCH  34  35
ENDBRANCH   7  34
TORSDOF 16
ENDMDL
MODEL 3
REMARK VINA RESULT:      -8.3      2.047      3.824
REMARK SMILES CCc1cc(NCCOC)c2ncc(OC[C@H]3O[C@@H](n4cc(-c5ccn(C)n5)c5c(N)ncnc54)[C@H](O)[C@@H]3O)cc2n1
REMARK SMILES IDX 3 1 4 2 5 3 11 4 12 5 13 6 14 7 40 8 41 9 42 10 2 14 1 17
REMARK SMILES IDX 6 21 7 23 8 26 9 29 10 30 15 34 16 35 17 38 18 39 38 40
REMARK SMILES IDX 19 42 36 43 39 47 20 49 21 50 35 51 22 52 29 54 34 55 30 56
REMARK SMILES IDX 33 57 32 58 23 60 24 61 28 62 25 63 26 65 27 67 31 71 37 74
REMARK H PARENT 4 11 13 12 40 13 2 15 2 16 1 18 1 19 1 20 6 22 7 24 7 25 8 27
REMARK H PARENT 8 28 10 31 10 32 10 33 16 36 16 37 17 41 38 44 19 45 36 46
REMARK H PARENT 39 48 21 53 33 59 24 64 25 66 27 68 27 69 27 70 31 72 31 73
REMARK H PARENT 37 75
REMARK Flexibility Score: inf
ROOT
ATOM      1  C   UNL     1     -48.574  29.502  24.634  1.00  0.00     0.043 A 
ATOM      2  C   UNL     1     -47.436  29.560  23.843  1.00  0.00    -0.015 A 
ATOM      3  C   UNL     1     -46.679  30.734  23.840  1.00  0.00     0.064 A 
ATOM      4  C   UNL     1     -47.065  31.830  24.625  1.00  0.00     0.112 A 
ATOM      5  N   UNL     1     -46.323  32.968  24.618  1.00  0.00    -0.249 NA
ATOM      6  C   UNL     1     -46.776  34.007  25.355  1.00  0.00     0.070 A 
ATOM      7  C   UNL     1     -47.947  33.977  26.091  1.00  0.00     0.139 A 
ATOM      8  C   UNL     1     -48.669  32.784  26.094  1.00  0.00     0.010 A 
ATOM      9  C   UNL     1     -48.250  31.679  25.368  1.00  0.00     0.095 A 
ATOM     10  N   UNL     1     -48.982  30.545  25.390  1.00  0.00    -0.251 NA
ATOM     11  H   UNL     1     -47.126  28.708  23.248  1.00  0.00     0.066 H 
ATOM     12  H   UNL     1     -46.134  34.879  25.311  1.00  0.00     0.088 H 
ATOM     13  H   UNL     1     -49.598  32.715  26.656  1.00  0.00     0.069 H 
ENDROOT
BRANCH   1  14
ATOM     14  C   UNL     1     -49.401  28.246  24.697  1.00  0.00    -0.013 C 
ATOM     15  H   UNL     1     -50.382  28.484  25.126  1.00  0.00     0.033 H 
ATOM     16  H   UNL     1     -49.586  27.869  23.685  1.00  0.00     0.033 H 
BRANCH  14  17
ATOM     17  C   UNL     1     -48.728  27.174  25.540  1.00  0.00    -0.060 C 
ATOM     18  H   UNL     1     -47.666  27.398  25.690  1.00  0.00     0.023 H 
ATOM     19  H   UNL     1     -49.204  27.111  26.523  1.00  0.00     0.023 H 
ATOM     20  H   UNL     1     -48.798  26.191  25.064  1.00  0.00     0.023 H 
ENDBRANCH  14  17
ENDBRANCH   1  14
BRANCH   3  21
ATOM     21  N   UNL     1     -45.539  30.837  22.980  1.00  0.00    -0.381 N 
ATOM     22  H   UNL     1     -44.783  31.223  23.559  1.00  0.00     0.160 HD
BRANCH  21  23
ATOM     23  C   UNL     1     -45.783  31.716  21.821  1.00  0.00     0.038 C 
ATOM     24  H   UNL     1     -44.848  32.119  21.414  1.00  0.00     0.051 H 
ATOM     25  H   UNL     1     -46.340  32.592  22.174  1.00  0.00     0.051 H 
BRANCH  23  26
ATOM     26  C   UNL     1     -46.604  31.039  20.713  1.00  0.00     0.063 C 
ATOM     27  H   UNL     1     -46.561  29.950  20.831  1.00  0.00     0.059 H 
ATOM     28  H   UNL     1     -46.211  31.293  19.722  1.00  0.00     0.059 H 
BRANCH  26  29
ATOM     29  O   UNL     1     -47.962  31.482  20.792  1.00  0.00    -0.383 OA
BRANCH  29  30
ATOM     30  C   UNL     1     -48.862  30.458  20.379  1.00  0.00     0.036 C 
ATOM     31  H   UNL     1     -48.472  29.472  20.648  1.00  0.00     0.053 H 
ATOM     32  H   UNL     1     -48.964  30.509  19.293  1.00  0.00     0.053 H 
ATOM     33  H   UNL     1     -49.846  30.612  20.831  1.00  0.00     0.053 H 
ENDBRANCH  29  30
ENDBRANCH  26  29
ENDBRANCH  23  26
ENDBRANCH  21  23
ENDBRANCH   3  21
BRANCH   7  34
ATOM     34  O   UNL     1     -48.495  34.996  26.812  1.00  0.00    -0.489 OA
BRANCH  34  35
ATOM     35  C   UNL     1     -47.803  36.245  26.840  1.00  0.00     0.117 C 
ATOM     36  H   UNL     1     -48.449  37.045  27.219  1.00  0.00     0.073 H 
ATOM     37  H   UNL     1     -47.482  36.476  25.818  1.00  0.00     0.073 H 
BRANCH  35  38
ATOM     38  C   UNL     1     -46.573  36.156  27.759  1.00  0.00     0.123 C 
ATOM     39  O   UNL     1     -45.585  37.107  27.299  1.00  0.00    -0.345 OA
ATOM     40  C   UNL     1     -46.837  36.473  29.227  1.00  0.00     0.114 C 
ATOM     41  H   UNL     1     -46.120  35.165  27.637  1.00  0.00     0.067 H 
ATOM     42  C   UNL     1     -45.412  38.127  28.314  1.00  0.00     0.164 C 
ATOM     43  C   UNL     1     -46.549  37.964  29.327  1.00  0.00     0.128 C 
ATOM     44  H   UNL     1     -47.832  36.197  29.586  1.00  0.00     0.066 H 
ATOM     45  H   UNL     1     -44.429  37.969  28.772  1.00  0.00     0.088 H 
ATOM     46  H   UNL     1     -47.425  38.556  29.045  1.00  0.00     0.068 H 
BRANCH  40  47
ATOM     47  O   UNL     1     -45.876  35.792  30.063  1.00  0.00    -0.387 OA
ATOM     48  H   UNL     1     -45.114  36.388  30.180  1.00  0.00     0.211 HD
ENDBRANCH  40  47
BRANCH  42  49
ATOM     49  N   UNL     1     -45.402  39.433  27.668  1.00  0.00    -0.303 N 
ATOM     50  C   UNL     1     -44.304  40.076  27.155  1.00  0.00     0.019 A 
ATOM     51  C   UNL     1     -46.519  40.200  27.446  1.00  0.00     0.148 A 
ATOM     52  C   UNL     1     -44.725  41.260  26.584  1.00  0.00     0.033 A 
ATOM     53  H   UNL     1     -43.311  39.656  27.234  1.00  0.00     0.083 H 
ATOM     54  C   UNL     1     -46.140  41.340  26.740  1.00  0.00     0.071 A 
ATOM     55  N   UNL     1     -47.765  39.880  27.837  1.00  0.00    -0.218 NA
ATOM     56  C   UNL     1     -47.179  42.208  26.366  1.00  0.00     0.137 A 
ATOM     57  C   UNL     1     -48.661  40.797  27.447  1.00  0.00     0.120 A 
ATOM     58  N   UNL     1     -48.442  41.921  26.741  1.00  0.00    -0.219 NA
ATOM     59  H   UNL     1     -49.691  40.608  27.731  1.00  0.00     0.106 H 
BRANCH  52  60
ATOM     60  C   UNL     1     -43.854  42.229  25.927  1.00  0.00     0.095 A 
ATOM     61  C   UNL     1     -42.937  43.081  26.578  1.00  0.00    -0.016 A 
ATOM     62  N   UNL     1     -43.815  42.375  24.598  1.00  0.00    -0.173 NA
ATOM     63  C   UNL     1     -42.347  43.803  25.567  1.00  0.00     0.025 A 
ATOM     64  H   UNL     1     -42.738  43.160  27.638  1.00  0.00     0.066 H 
ATOM     65  N   UNL     1     -42.914  43.356  24.409  1.00  0.00    -0.275 N 
ATOM     66  H   UNL     1     -41.597  44.580  25.576  1.00  0.00     0.084 H 
BRANCH  65  67
ATOM     67  C   UNL     1     -42.655  43.840  23.075  1.00  0.00     0.030 C 
ATOM     68  H   UNL     1     -42.322  43.010  22.449  1.00  0.00     0.048 H 
ATOM     69  H   UNL     1     -41.879  44.606  23.137  1.00  0.00     0.048 H 
ATOM     70  H   UNL     1     -43.574  44.264  22.668  1.00  0.00     0.048 H 
ENDBRANCH  65  67
ENDBRANCH  52  60
BRANCH  56  71
ATOM     71  N   UNL     1     -47.017  43.348  25.586  1.00  0.00    -0.383 N 
ATOM     72  H   UNL     1     -47.218  44.205  26.089  1.00  0.00     0.158 HD
ATOM     73  H   UNL     1     -46.109  43.318  25.137  1.00  0.00     0.158 HD
ENDBRANCH  56  71
ENDBRANCH  42  49
BRANCH  43  74
ATOM     74  O   UNL     1     -46.195  38.319  30.664  1.00  0.00    -0.386 OA
ATOM     75  H   UNL     1     -46.812  37.820  31.239  1.00  0.00     0.211 HD
ENDBRANCH  43  74
ENDBRANCH  35  38
ENDBRANCH  34  35
ENDBRANCH   7  34
TORSDOF 16
ENDMDL
MODEL 4
REMARK VINA RESULT:      -8.2      1.812      2.232
REMARK SMILES CCc1cc(NCCOC)c2ncc(OC[C@H]3O[C@@H](n4cc(-c5ccn(C)n5)c5c(N)ncnc54)[C@H](O)[C@@H]3O)cc2n1
REMARK SMILES IDX 3 1 4 2 5 3 11 4 12 5 13 6 14 7 40 8 41 9 42 10 2 14 1 17
REMARK SMILES IDX 6 21 7 23 8 26 9 29 10 30 15 34 16 35 17 38 18 39 38 40
REMARK SMILES IDX 19 42 36 43 39 47 20 49 21 50 35 51 22 52 29 54 34 55 30 56
REMARK SMILES IDX 33 57 32 58 23 60 24 61 28 62 25 63 26 65 27 67 31 71 37 74
REMARK H PARENT 4 11 13 12 40 13 2 15 2 16 1 18 1 19 1 20 6 22 7 24 7 25 8 27
REMARK H PARENT 8 28 10 31 10 32 10 33 16 36 16 37 17 41 38 44 19 45 36 46
REMARK H PARENT 39 48 21 53 33 59 24 64 25 66 27 68 27 69 27 70 31 72 31 73
REMARK H PARENT 37 75
REMARK Flexibility Score: inf
ROOT
ATOM      1  C   UNL     1     -49.603  30.753  23.358  1.00  0.00     0.043 A 
ATOM      2  C   UNL     1     -49.575  29.687  24.245  1.00  0.00    -0.015 A 
ATOM      3  C   UNL     1     -48.840  29.814  25.426  1.00  0.00     0.064 A 
ATOM      4  C   UNL     1     -48.147  30.999  25.707  1.00  0.00     0.112 A 
ATOM      5  N   UNL     1     -47.435  31.116  26.858  1.00  0.00    -0.249 NA
ATOM      6  C   UNL     1     -46.746  32.265  27.046  1.00  0.00     0.070 A 
ATOM      7  C   UNL     1     -46.715  33.303  26.132  1.00  0.00     0.139 A 
ATOM      8  C   UNL     1     -47.476  33.157  24.974  1.00  0.00     0.010 A 
ATOM      9  C   UNL     1     -48.215  32.010  24.730  1.00  0.00     0.095 A 
ATOM     10  N   UNL     1     -48.933  31.903  23.592  1.00  0.00    -0.251 NA
ATOM     11  H   UNL     1     -50.124  28.775  24.039  1.00  0.00     0.066 H 
ATOM     12  H   UNL     1     -46.207  32.295  27.986  1.00  0.00     0.088 H 
ATOM     13  H   UNL     1     -47.480  33.947  24.226  1.00  0.00     0.069 H 
ENDROOT
BRANCH   1  14
ATOM     14  C   UNL     1     -50.410  30.676  22.090  1.00  0.00    -0.013 C 
ATOM     15  H   UNL     1     -50.766  31.679  21.830  1.00  0.00     0.033 H 
ATOM     16  H   UNL     1     -49.772  30.346  21.262  1.00  0.00     0.033 H 
BRANCH  14  17
ATOM     17  C   UNL     1     -51.599  29.740  22.240  1.00  0.00    -0.060 C 
ATOM     18  H   UNL     1     -52.544  30.275  22.101  1.00  0.00     0.023 H 
ATOM     19  H   UNL     1     -51.548  28.941  21.494  1.00  0.00     0.023 H 
ATOM     20  H   UNL     1     -51.619  29.277  23.232  1.00  0.00     0.023 H 
ENDBRANCH  14  17
ENDBRANCH   1  14
BRANCH   3  21
ATOM     21  N   UNL     1     -48.744  28.701  26.322  1.00  0.00    -0.381 N 
ATOM     22  H   UNL     1     -47.766  28.677  26.637  1.00  0.00     0.160 HD
BRANCH  21  23
ATOM     23  C   UNL     1     -49.098  27.423  25.677  1.00  0.00     0.038 C 
ATOM     24  H   UNL     1     -48.533  27.268  24.750  1.00  0.00     0.051 H 
ATOM     25  H   UNL     1     -50.148  27.484  25.365  1.00  0.00     0.051 H 
BRANCH  23  26
ATOM     26  C   UNL     1     -48.942  26.213  26.610  1.00  0.00     0.063 C 
ATOM     27  H   UNL     1     -48.960  25.287  26.024  1.00  0.00     0.059 H 
ATOM     28  H   UNL     1     -49.756  26.174  27.341  1.00  0.00     0.059 H 
BRANCH  26  29
ATOM     29  O   UNL     1     -47.701  26.316  27.316  1.00  0.00    -0.383 OA
BRANCH  29  30
ATOM     30  C   UNL     1     -46.602  25.990  26.473  1.00  0.00     0.036 C 
ATOM     31  H   UNL     1     -45.701  25.809  27.067  1.00  0.00     0.053 H 
ATOM     32  H   UNL     1     -46.415  26.838  25.808  1.00  0.00     0.053 H 
ATOM     33  H   UNL     1     -46.835  25.113  25.863  1.00  0.00     0.053 H 
ENDBRANCH  29  30
ENDBRANCH  26  29
ENDBRANCH  23  26
ENDBRANCH  21  23
ENDBRANCH   3  21
BRANCH   7  34
ATOM     34  O   UNL     1     -46.004  34.463  26.226  1.00  0.00    -0.489 OA
BRANCH  34  35
ATOM     35  C   UNL     1     -46.727  35.694  26.237  1.00  0.00     0.117 C 
ATOM     36  H   UNL     1     -47.595  35.649  25.570  1.00  0.00     0.073 H 
ATOM     37  H   UNL     1     -46.046  36.489  25.911  1.00  0.00     0.073 H 
BRANCH  35  38
ATOM     38  C   UNL     1     -47.236  36.003  27.655  1.00  0.00     0.123 C 
ATOM     39  O   UNL     1     -46.235  36.786  28.344  1.00  0.00    -0.345 OA
ATOM     40  C   UNL     1     -48.535  36.800  27.718  1.00  0.00     0.114 C 
ATOM     41  H   UNL     1     -47.316  35.060  28.209  1.00  0.00     0.067 H 
ATOM     42  C   UNL     1     -46.773  38.106  28.606  1.00  0.00     0.164 C 
ATOM     43  C   UNL     1     -48.064  38.245  27.793  1.00  0.00     0.128 C 
ATOM     44  H   UNL     1     -49.231  36.611  26.895  1.00  0.00     0.066 H 
ATOM     45  H   UNL     1     -46.959  38.175  29.684  1.00  0.00     0.088 H 
ATOM     46  H   UNL     1     -47.867  38.649  26.795  1.00  0.00     0.068 H 
BRANCH  40  47
ATOM     47  O   UNL     1     -49.236  36.512  28.946  1.00  0.00    -0.387 OA
ATOM     48  H   UNL     1     -50.187  36.465  28.738  1.00  0.00     0.211 HD
ENDBRANCH  40  47
BRANCH  42  49
ATOM     49  N   UNL     1     -45.767  39.101  28.259  1.00  0.00    -0.303 N 
ATOM     50  C   UNL     1     -45.849  40.017  27.241  1.00  0.00     0.019 A 
ATOM     51  C   UNL     1     -44.588  39.286  28.940  1.00  0.00     0.148 A 
ATOM     52  C   UNL     1     -44.719  40.808  27.281  1.00  0.00     0.033 A 
ATOM     53  H   UNL     1     -46.691  40.040  26.565  1.00  0.00     0.083 H 
ATOM     54  C   UNL     1     -43.918  40.370  28.376  1.00  0.00     0.071 A 
ATOM     55  N   UNL     1     -44.177  38.548  29.985  1.00  0.00    -0.218 NA
ATOM     56  C   UNL     1     -42.716  40.744  29.001  1.00  0.00     0.137 A 
ATOM     57  C   UNL     1     -43.008  38.984  30.474  1.00  0.00     0.120 A 
ATOM     58  N   UNL     1     -42.270  40.026  30.051  1.00  0.00    -0.219 NA
ATOM     59  H   UNL     1     -42.609  38.432  31.319  1.00  0.00     0.106 H 
BRANCH  52  60
ATOM     60  C   UNL     1     -44.432  41.905  26.363  1.00  0.00     0.095 A 
ATOM     61  C   UNL     1     -44.351  41.799  24.958  1.00  0.00    -0.016 A 
ATOM     62  N   UNL     1     -44.254  43.164  26.780  1.00  0.00    -0.173 NA
ATOM     63  C   UNL     1     -44.068  43.073  24.524  1.00  0.00     0.025 A 
ATOM     64  H   UNL     1     -44.476  40.915  24.349  1.00  0.00     0.066 H 
ATOM     65  N   UNL     1     -44.006  43.845  25.647  1.00  0.00    -0.275 N 
ATOM     66  H   UNL     1     -43.904  43.480  23.537  1.00  0.00     0.084 H 
BRANCH  65  67
ATOM     67  C   UNL     1     -43.691  45.251  25.714  1.00  0.00     0.030 C 
ATOM     68  H   UNL     1     -43.972  45.637  26.697  1.00  0.00     0.048 H 
ATOM     69  H   UNL     1     -44.254  45.763  24.930  1.00  0.00     0.048 H 
ATOM     70  H   UNL     1     -42.619  45.382  25.558  1.00  0.00     0.048 H 
ENDBRANCH  65  67
ENDBRANCH  52  60
BRANCH  56  71
ATOM     71  N   UNL     1     -41.948  41.847  28.644  1.00  0.00    -0.383 N 
ATOM     72  H   UNL     1     -41.720  41.869  27.656  1.00  0.00     0.158 HD
ATOM     73  H   UNL     1     -42.387  42.689  29.000  1.00  0.00     0.158 HD
ENDBRANCH  56  71
ENDBRANCH  42  49
BRANCH  43  74
ATOM     74  O   UNL     1     -49.057  39.066  28.408  1.00  0.00    -0.386 OA
ATOM     75  H   UNL     1     -48.589  39.555  29.116  1.00  0.00     0.211 HD
ENDBRANCH  43  74
ENDBRANCH  35  38
ENDBRANCH  34  35
ENDBRANCH   7  34
TORSDOF 16
ENDMDL
MODEL 5
REMARK VINA RESULT:      -8.0      2.268      3.062
REMARK SMILES CCc1cc(NCCOC)c2ncc(OC[C@H]3O[C@@H](n4cc(-c5ccn(C)n5)c5c(N)ncnc54)[C@H](O)[C@@H]3O)cc2n1
REMARK SMILES IDX 3 1 4 2 5 3 11 4 12 5 13 6 14 7 40 8 41 9 42 10 2 14 1 17
REMARK SMILES IDX 6 21 7 23 8 26 9 29 10 30 15 34 16 35 17 38 18 39 38 40
REMARK SMILES IDX 19 42 36 43 39 47 20 49 21 50 35 51 22 52 29 54 34 55 30 56
REMARK SMILES IDX 33 57 32 58 23 60 24 61 28 62 25 63 26 65 27 67 31 71 37 74
REMARK H PARENT 4 11 13 12 40 13 2 15 2 16 1 18 1 19 1 20 6 22 7 24 7 25 8 27
REMARK H PARENT 8 28 10 31 10 32 10 33 16 36 16 37 17 41 38 44 19 45 36 46
REMARK H PARENT 39 48 21 53 33 59 24 64 25 66 27 68 27 69 27 70 31 72 31 73
REMARK H PARENT 37 75
REMARK Flexibility Score: inf
ROOT
ATOM      1  C   UNL     1     -46.283  30.119  23.222  1.00  0.00     0.043 A 
ATOM      2  C   UNL     1     -47.355  29.385  23.708  1.00  0.00    -0.015 A 
ATOM      3  C   UNL     1     -48.244  29.998  24.593  1.00  0.00     0.064 A 
ATOM      4  C   UNL     1     -48.054  31.332  24.980  1.00  0.00     0.112 A 
ATOM      5  N   UNL     1     -48.924  31.923  25.840  1.00  0.00    -0.249 NA
ATOM      6  C   UNL     1     -48.657  33.194  26.215  1.00  0.00     0.070 A 
ATOM      7  C   UNL     1     -47.551  33.908  25.788  1.00  0.00     0.139 A 
ATOM      8  C   UNL     1     -46.694  33.278  24.887  1.00  0.00     0.010 A 
ATOM      9  C   UNL     1     -46.921  31.980  24.454  1.00  0.00     0.095 A 
ATOM     10  N   UNL     1     -46.063  31.402  23.587  1.00  0.00    -0.251 NA
ATOM     11  H   UNL     1     -47.513  28.358  23.398  1.00  0.00     0.066 H 
ATOM     12  H   UNL     1     -49.393  33.606  26.896  1.00  0.00     0.088 H 
ATOM     13  H   UNL     1     -45.810  33.799  24.526  1.00  0.00     0.069 H 
ENDROOT
BRANCH   1  14
ATOM     14  C   UNL     1     -45.319  29.512  22.239  1.00  0.00    -0.013 C 
ATOM     15  H   UNL     1     -45.830  29.362  21.281  1.00  0.00     0.033 H 
ATOM     16  H   UNL     1     -44.494  30.208  22.047  1.00  0.00     0.033 H 
BRANCH  14  17
ATOM     17  C   UNL     1     -44.776  28.182  22.737  1.00  0.00    -0.060 C 
ATOM     18  H   UNL     1     -43.949  28.330  23.440  1.00  0.00     0.023 H 
ATOM     19  H   UNL     1     -45.562  27.621  23.250  1.00  0.00     0.023 H 
ATOM     20  H   UNL     1     -44.405  27.568  21.909  1.00  0.00     0.023 H 
ENDBRANCH  14  17
ENDBRANCH   1  14
BRANCH   3  21
ATOM     21  N   UNL     1     -49.317  29.237  25.157  1.00  0.00    -0.381 N 
ATOM     22  H   UNL     1     -49.295  29.425  26.167  1.00  0.00     0.160 HD
BRANCH  21  23
ATOM     23  C   UNL     1     -49.176  27.790  24.910  1.00  0.00     0.038 C 
ATOM     24  H   UNL     1     -48.565  27.589  24.021  1.00  0.00     0.051 H 
ATOM     25  H   UNL     1     -50.170  27.392  24.668  1.00  0.00     0.051 H 
BRANCH  23  26
ATOM     26  C   UNL     1     -48.631  27.021  26.123  1.00  0.00     0.063 C 
ATOM     27  H   UNL     1     -49.435  26.857  26.851  1.00  0.00     0.059 H 
ATOM     28  H   UNL     1     -47.829  27.581  26.614  1.00  0.00     0.059 H 
BRANCH  26  29
ATOM     29  O   UNL     1     -48.107  25.762  25.688  1.00  0.00    -0.383 OA
BRANCH  29  30
ATOM     30  C   UNL     1     -47.464  25.077  26.757  1.00  0.00     0.036 C 
ATOM     31  H   UNL     1     -47.965  24.126  26.961  1.00  0.00     0.053 H 
ATOM     32  H   UNL     1     -47.525  25.701  27.652  1.00  0.00     0.053 H 
ATOM     33  H   UNL     1     -46.410  24.906  26.520  1.00  0.00     0.053 H 
ENDBRANCH  29  30
ENDBRANCH  26  29
ENDBRANCH  23  26
ENDBRANCH  21  23
ENDBRANCH   3  21
BRANCH   7  34
ATOM     34  O   UNL     1     -47.187  35.167  26.162  1.00  0.00    -0.489 OA
BRANCH  34  35
ATOM     35  C   UNL     1     -47.499  35.589  27.489  1.00  0.00     0.117 C 
ATOM     36  H   UNL     1     -47.913  34.764  28.080  1.00  0.00     0.073 H 
ATOM     37  H   UNL     1     -48.231  36.403  27.422  1.00  0.00     0.073 H 
BRANCH  35  38
ATOM     38  C   UNL     1     -46.234  36.094  28.203  1.00  0.00     0.123 C 
ATOM     39  O   UNL     1     -45.795  37.311  27.557  1.00  0.00    -0.345 OA
ATOM     40  C   UNL     1     -46.412  36.422  29.682  1.00  0.00     0.114 C 
ATOM     41  H   UNL     1     -45.433  35.363  28.047  1.00  0.00     0.067 H 
ATOM     42  C   UNL     1     -45.928  38.410  28.493  1.00  0.00     0.164 C 
ATOM     43  C   UNL     1     -46.754  37.905  29.680  1.00  0.00     0.128 C 
ATOM     44  H   UNL     1     -47.149  35.806  30.205  1.00  0.00     0.066 H 
ATOM     45  H   UNL     1     -44.917  38.707  28.794  1.00  0.00     0.088 H 
ATOM     46  H   UNL     1     -47.825  38.064  29.519  1.00  0.00     0.068 H 
BRANCH  40  47
ATOM     47  O   UNL     1     -45.156  36.271  30.379  1.00  0.00    -0.387 OA
ATOM     48  H   UNL     1     -45.100  36.985  31.040  1.00  0.00     0.211 HD
ENDBRANCH  40  47
BRANCH  42  49
ATOM     49  N   UNL     1     -46.541  39.539  27.806  1.00  0.00    -0.303 N 
ATOM     50  C   UNL     1     -47.866  39.892  27.849  1.00  0.00     0.019 A 
ATOM     51  C   UNL     1     -45.857  40.445  27.034  1.00  0.00     0.148 A 
ATOM     52  C   UNL     1     -48.029  41.046  27.111  1.00  0.00     0.033 A 
ATOM     53  H   UNL     1     -48.593  39.304  28.391  1.00  0.00     0.083 H 
ATOM     54  C   UNL     1     -46.751  41.425  26.605  1.00  0.00     0.071 A 
ATOM     55  N   UNL     1     -44.542  40.390  26.762  1.00  0.00    -0.218 NA
ATOM     56  C   UNL     1     -46.199  42.477  25.855  1.00  0.00     0.137 A 
ATOM     57  C   UNL     1     -44.142  41.430  26.018  1.00  0.00     0.120 A 
ATOM     58  N   UNL     1     -44.884  42.456  25.561  1.00  0.00    -0.219 NA
ATOM     59  H   UNL     1     -43.090  41.452  25.755  1.00  0.00     0.106 H 
BRANCH  52  60
ATOM     60  C   UNL     1     -49.296  41.744  26.915  1.00  0.00     0.095 A 
ATOM     61  C   UNL     1     -50.318  41.873  27.879  1.00  0.00    -0.016 A 
ATOM     62  N   UNL     1     -49.597  42.382  25.779  1.00  0.00    -0.173 NA
ATOM     63  C   UNL     1     -51.302  42.603  27.254  1.00  0.00     0.025 A 
ATOM     64  H   UNL     1     -50.336  41.484  28.888  1.00  0.00     0.066 H 
ATOM     65  N   UNL     1     -50.831  42.868  26.001  1.00  0.00    -0.275 N 
ATOM     66  H   UNL     1     -52.274  42.940  27.586  1.00  0.00     0.084 H 
BRANCH  65  67
ATOM     67  C   UNL     1     -51.522  43.571  24.948  1.00  0.00     0.030 C 
ATOM     68  H   UNL     1     -51.628  44.622  25.225  1.00  0.00     0.048 H 
ATOM     69  H   UNL     1     -52.504  43.110  24.820  1.00  0.00     0.048 H 
ATOM     70  H   UNL     1     -50.942  43.489  24.027  1.00  0.00     0.048 H 
ENDBRANCH  65  67
ENDBRANCH  52  60
BRANCH  56  71
ATOM     71  N   UNL     1     -46.907  43.589  25.412  1.00  0.00    -0.383 N 
ATOM     72  H   UNL     1     -46.461  44.466  25.656  1.00  0.00     0.158 HD
ATOM     73  H   UNL     1     -47.122  43.478  24.427  1.00  0.00     0.158 HD
ENDBRANCH  56  71
ENDBRANCH  42  49
BRANCH  43  74
ATOM     74  O   UNL     1     -46.408  38.502  30.930  1.00  0.00    -0.386 OA
ATOM     75  H   UNL     1     -45.431  38.448  30.982  1.00  0.00     0.211 HD
ENDBRANCH  43  74
ENDBRANCH  35  38
ENDBRANCH  34  35
ENDBRANCH   7  34
TORSDOF 16
ENDMDL
MODEL 6
REMARK VINA RESULT:      -7.6      2.298      2.920
REMARK SMILES CCc1cc(NCCOC)c2ncc(OC[C@H]3O[C@@H](n4cc(-c5ccn(C)n5)c5c(N)ncnc54)[C@H](O)[C@@H]3O)cc2n1
REMARK SMILES IDX 3 1 4 2 5 3 11 4 12 5 13 6 14 7 40 8 41 9 42 10 2 14 1 17
REMARK SMILES IDX 6 21 7 23 8 26 9 29 10 30 15 34 16 35 17 38 18 39 38 40
REMARK SMILES IDX 19 42 36 43 39 47 20 49 21 50 35 51 22 52 29 54 34 55 30 56
REMARK SMILES IDX 33 57 32 58 23 60 24 61 28 62 25 63 26 65 27 67 31 71 37 74
REMARK H PARENT 4 11 13 12 40 13 2 15 2 16 1 18 1 19 1 20 6 22 7 24 7 25 8 27
REMARK H PARENT 8 28 10 31 10 32 10 33 16 36 16 37 17 41 38 44 19 45 36 46
REMARK H PARENT 39 48 21 53 33 59 24 64 25 66 27 68 27 69 27 70 31 72 31 73
REMARK H PARENT 37 75
REMARK Flexibility Score: inf
ROOT
ATOM      1  C   UNL     1     -47.487  29.190  23.564  1.00  0.00     0.043 A 
ATOM      2  C   UNL     1     -48.870  29.270  23.638  1.00  0.00    -0.015 A 
ATOM      3  C   UNL     1     -49.449  30.415  24.190  1.00  0.00     0.064 A 
ATOM      4  C   UNL     1     -48.643  31.462  24.658  1.00  0.00     0.112 A 
ATOM      5  N   UNL     1     -49.213  32.574  25.192  1.00  0.00    -0.249 NA
ATOM      6  C   UNL     1     -48.382  33.526  25.674  1.00  0.00     0.070 A 
ATOM      7  C   UNL     1     -47.002  33.420  25.665  1.00  0.00     0.139 A 
ATOM      8  C   UNL     1     -46.453  32.277  25.087  1.00  0.00     0.010 A 
ATOM      9  C   UNL     1     -47.252  31.271  24.565  1.00  0.00     0.095 A 
ATOM     10  N   UNL     1     -46.682  30.176  24.020  1.00  0.00    -0.251 NA
ATOM     11  H   UNL     1     -49.495  28.468  23.261  1.00  0.00     0.066 H 
ATOM     12  H   UNL     1     -48.901  34.387  26.079  1.00  0.00     0.088 H 
ATOM     13  H   UNL     1     -45.373  32.149  25.061  1.00  0.00     0.069 H 
ENDROOT
BRANCH   1  14
ATOM     14  C   UNL     1     -46.819  27.992  22.945  1.00  0.00    -0.013 C 
ATOM     15  H   UNL     1     -47.582  27.350  22.491  1.00  0.00     0.033 H 
ATOM     16  H   UNL     1     -46.157  28.312  22.132  1.00  0.00     0.033 H 
BRANCH  14  17
ATOM     17  C   UNL     1     -46.034  27.195  23.975  1.00  0.00    -0.060 C 
ATOM     18  H   UNL     1     -45.928  27.754  24.912  1.00  0.00     0.023 H 
ATOM     19  H   UNL     1     -46.548  26.255  24.197  1.00  0.00     0.023 H 
ATOM     20  H   UNL     1     -45.029  26.955  23.613  1.00  0.00     0.023 H 
ENDBRANCH  14  17
ENDBRANCH   1  14
BRANCH   3  21
ATOM     21  N   UNL     1     -50.871  30.487  24.336  1.00  0.00    -0.381 N 
ATOM     22  H   UNL     1     -51.141  29.656  24.876  1.00  0.00     0.160 HD
BRANCH  21  23
ATOM     23  C   UNL     1     -51.573  30.496  23.039  1.00  0.00     0.038 C 
ATOM     24  H   UNL     1     -52.661  30.442  23.168  1.00  0.00     0.051 H 
ATOM     25  H   UNL     1     -51.304  29.576  22.506  1.00  0.00     0.051 H 
BRANCH  23  26
ATOM     26  C   UNL     1     -51.195  31.693  22.156  1.00  0.00     0.063 C 
ATOM     27  H   UNL     1     -50.150  31.972  22.335  1.00  0.00     0.059 H 
ATOM     28  H   UNL     1     -51.826  32.560  22.377  1.00  0.00     0.059 H 
BRANCH  26  29
ATOM     29  O   UNL     1     -51.372  31.341  20.780  1.00  0.00    -0.383 OA
BRANCH  29  30
ATOM     30  C   UNL     1     -51.996  30.069  20.650  1.00  0.00     0.036 C 
ATOM     31  H   UNL     1     -53.082  30.178  20.584  1.00  0.00     0.053 H 
ATOM     32  H   UNL     1     -51.758  29.478  21.539  1.00  0.00     0.053 H 
ATOM     33  H   UNL     1     -51.614  29.545  19.769  1.00  0.00     0.053 H 
ENDBRANCH  29  30
ENDBRANCH  26  29
ENDBRANCH  23  26
ENDBRANCH  21  23
ENDBRANCH   3  21
BRANCH   7  34
ATOM     34  O   UNL     1     -46.104  34.308  26.178  1.00  0.00    -0.489 OA
BRANCH  34  35
ATOM     35  C   UNL     1     -46.491  35.679  26.266  1.00  0.00     0.117 C 
ATOM     36  H   UNL     1     -47.372  35.882  25.645  1.00  0.00     0.073 H 
ATOM     37  H   UNL     1     -45.648  36.291  25.926  1.00  0.00     0.073 H 
BRANCH  35  38
ATOM     38  C   UNL     1     -46.841  36.046  27.717  1.00  0.00     0.123 C 
ATOM     39  O   UNL     1     -45.851  36.978  28.210  1.00  0.00    -0.345 OA
ATOM     40  C   UNL     1     -48.201  36.710  27.908  1.00  0.00     0.114 C 
ATOM     41  H   UNL     1     -46.743  35.146  28.336  1.00  0.00     0.067 H 
ATOM     42  C   UNL     1     -46.492  38.253  28.459  1.00  0.00     0.164 C 
ATOM     43  C   UNL     1     -47.886  38.197  27.825  1.00  0.00     0.128 C 
ATOM     44  H   UNL     1     -48.973  36.389  27.203  1.00  0.00     0.066 H 
ATOM     45  H   UNL     1     -46.542  38.387  29.546  1.00  0.00     0.088 H 
ATOM     46  H   UNL     1     -47.867  38.540  26.786  1.00  0.00     0.068 H 
BRANCH  40  47
ATOM     47  O   UNL     1     -48.699  36.450  29.238  1.00  0.00    -0.387 OA
ATOM     48  H   UNL     1     -49.623  36.153  29.153  1.00  0.00     0.211 HD
ENDBRANCH  40  47
BRANCH  42  49
ATOM     49  N   UNL     1     -45.656  39.313  27.913  1.00  0.00    -0.303 N 
ATOM     50  C   UNL     1     -45.923  40.062  26.795  1.00  0.00     0.019 A 
ATOM     51  C   UNL     1     -44.479  39.743  28.474  1.00  0.00     0.148 A 
ATOM     52  C   UNL     1     -44.914  40.993  26.648  1.00  0.00     0.033 A 
ATOM     53  H   UNL     1     -46.797  39.882  26.186  1.00  0.00     0.083 H 
ATOM     54  C   UNL     1     -43.999  40.817  27.727  1.00  0.00     0.071 A 
ATOM     55  N   UNL     1     -43.909  39.215  29.571  1.00  0.00    -0.218 NA
ATOM     56  C   UNL     1     -42.828  41.428  28.207  1.00  0.00     0.137 A 
ATOM     57  C   UNL     1     -42.787  39.863  29.911  1.00  0.00     0.120 A 
ATOM     58  N   UNL     1     -42.227  40.925  29.304  1.00  0.00    -0.219 NA
ATOM     59  H   UNL     1     -42.268  39.490  30.788  1.00  0.00     0.106 H 
BRANCH  52  60
ATOM     60  C   UNL     1     -44.836  41.981  25.578  1.00  0.00     0.095 A 
ATOM     61  C   UNL     1     -43.947  41.935  24.483  1.00  0.00    -0.016 A 
ATOM     62  N   UNL     1     -45.655  43.037  25.512  1.00  0.00    -0.173 NA
ATOM     63  C   UNL     1     -44.238  43.060  23.746  1.00  0.00     0.025 A 
ATOM     64  H   UNL     1     -43.196  41.189  24.265  1.00  0.00     0.066 H 
ATOM     65  N   UNL     1     -45.251  43.689  24.408  1.00  0.00    -0.275 N 
ATOM     66  H   UNL     1     -43.815  43.455  22.833  1.00  0.00     0.084 H 
BRANCH  65  67
ATOM     67  C   UNL     1     -45.874  44.940  24.050  1.00  0.00     0.030 C 
ATOM     68  H   UNL     1     -45.455  45.740  24.664  1.00  0.00     0.048 H 
ATOM     69  H   UNL     1     -46.948  44.847  24.226  1.00  0.00     0.048 H 
ATOM     70  H   UNL     1     -45.680  45.143  22.995  1.00  0.00     0.048 H 
ENDBRANCH  65  67
ENDBRANCH  52  60
BRANCH  56  71
ATOM     71  N   UNL     1     -42.243  42.562  27.655  1.00  0.00    -0.383 N 
ATOM     72  H   UNL     1     -42.510  42.717  26.690  1.00  0.00     0.158 HD
ATOM     73  H   UNL     1     -42.396  43.351  28.273  1.00  0.00     0.158 HD
ENDBRANCH  56  71
ENDBRANCH  42  49
BRANCH  43  74
ATOM     74  O   UNL     1     -48.875  38.959  28.518  1.00  0.00    -0.386 OA
ATOM     75  H   UNL     1     -49.600  38.330  28.712  1.00  0.00     0.211 HD
ENDBRANCH  43  74
ENDBRANCH  35  38
ENDBRANCH  34  35
ENDBRANCH   7  34
TORSDOF 16
ENDMDL
MODEL 7
REMARK VINA RESULT:      -7.3      3.705      7.182
REMARK SMILES CCc1cc(NCCOC)c2ncc(OC[C@H]3O[C@@H](n4cc(-c5ccn(C)n5)c5c(N)ncnc54)[C@H](O)[C@@H]3O)cc2n1
REMARK SMILES IDX 3 1 4 2 5 3 11 4 12 5 13 6 14 7 40 8 41 9 42 10 2 14 1 17
REMARK SMILES IDX 6 21 7 23 8 26 9 29 10 30 15 34 16 35 17 38 18 39 38 40
REMARK SMILES IDX 19 42 36 43 39 47 20 49 21 50 35 51 22 52 29 54 34 55 30 56
REMARK SMILES IDX 33 57 32 58 23 60 24 61 28 62 25 63 26 65 27 67 31 71 37 74
REMARK H PARENT 4 11 13 12 40 13 2 15 2 16 1 18 1 19 1 20 6 22 7 24 7 25 8 27
REMARK H PARENT 8 28 10 31 10 32 10 33 16 36 16 37 17 41 38 44 19 45 36 46
REMARK H PARENT 39 48 21 53 33 59 24 64 25 66 27 68 27 69 27 70 31 72 31 73
REMARK H PARENT 37 75
REMARK Flexibility Score: inf
ROOT
ATOM      1  C   UNL     1     -49.538  37.163  27.889  1.00  0.00     0.043 A 
ATOM      2  C   UNL     1     -48.856  35.962  27.754  1.00  0.00    -0.015 A 
ATOM      3  C   UNL     1     -47.461  35.983  27.707  1.00  0.00     0.064 A 
ATOM      4  C   UNL     1     -46.766  37.198  27.796  1.00  0.00     0.112 A 
ATOM      5  N   UNL     1     -45.408  37.211  27.751  1.00  0.00    -0.249 NA
ATOM      6  C   UNL     1     -44.799  38.418  27.790  1.00  0.00     0.070 A 
ATOM      7  C   UNL     1     -45.477  39.622  27.855  1.00  0.00     0.139 A 
ATOM      8  C   UNL     1     -46.869  39.568  27.924  1.00  0.00     0.010 A 
ATOM      9  C   UNL     1     -47.551  38.361  27.901  1.00  0.00     0.095 A 
ATOM     10  N   UNL     1     -48.899  38.351  27.962  1.00  0.00    -0.251 NA
ATOM     11  H   UNL     1     -49.391  35.020  27.701  1.00  0.00     0.066 H 
ATOM     12  H   UNL     1     -43.717  38.355  27.758  1.00  0.00     0.088 H 
ATOM     13  H   UNL     1     -47.444  40.489  27.972  1.00  0.00     0.069 H 
ENDROOT
BRANCH   1  14
ATOM     14  C   UNL     1     -51.041  37.186  27.979  1.00  0.00    -0.013 C 
ATOM     15  H   UNL     1     -51.463  36.978  26.990  1.00  0.00     0.033 H 
ATOM     16  H   UNL     1     -51.387  36.385  28.642  1.00  0.00     0.033 H 
BRANCH  14  17
ATOM     17  C   UNL     1     -51.550  38.531  28.474  1.00  0.00    -0.060 C 
ATOM     18  H   UNL     1     -50.850  39.336  28.224  1.00  0.00     0.023 H 
ATOM     19  H   UNL     1     -52.514  38.764  28.011  1.00  0.00     0.023 H 
ATOM     20  H   UNL     1     -51.685  38.531  29.560  1.00  0.00     0.023 H 
ENDBRANCH  14  17
ENDBRANCH   1  14
BRANCH   3  21
ATOM     21  N   UNL     1     -46.742  34.763  27.501  1.00  0.00    -0.381 N 
ATOM     22  H   UNL     1     -45.755  35.031  27.403  1.00  0.00     0.160 HD
BRANCH  21  23
ATOM     23  C   UNL     1     -47.190  34.038  26.297  1.00  0.00     0.038 C 
ATOM     24  H   UNL     1     -46.888  34.555  25.378  1.00  0.00     0.051 H 
ATOM     25  H   UNL     1     -48.286  34.052  26.286  1.00  0.00     0.051 H 
BRANCH  23  26
ATOM     26  C   UNL     1     -46.727  32.574  26.267  1.00  0.00     0.063 C 
ATOM     27  H   UNL     1     -47.596  31.908  26.314  1.00  0.00     0.059 H 
ATOM     28  H   UNL     1     -46.075  32.351  27.118  1.00  0.00     0.059 H 
BRANCH  26  29
ATOM     29  O   UNL     1     -45.997  32.333  25.060  1.00  0.00    -0.383 OA
BRANCH  29  30
ATOM     30  C   UNL     1     -46.782  31.606  24.121  1.00  0.00     0.036 C 
ATOM     31  H   UNL     1     -47.848  31.779  24.294  1.00  0.00     0.053 H 
ATOM     32  H   UNL     1     -46.575  30.541  24.253  1.00  0.00     0.053 H 
ATOM     33  H   UNL     1     -46.514  31.891  23.099  1.00  0.00     0.053 H 
ENDBRANCH  29  30
ENDBRANCH  26  29
ENDBRANCH  23  26
ENDBRANCH  21  23
ENDBRANCH   3  21
BRANCH   7  34
ATOM     34  O   UNL     1     -44.938  40.874  27.842  1.00  0.00    -0.489 OA
BRANCH  34  35
ATOM     35  C   UNL     1     -43.519  40.994  27.936  1.00  0.00     0.117 C 
ATOM     36  H   UNL     1     -43.056  40.031  28.181  1.00  0.00     0.073 H 
ATOM     37  H   UNL     1     -43.292  41.727  28.720  1.00  0.00     0.073 H 
BRANCH  35  38
ATOM     38  C   UNL     1     -42.932  41.474  26.599  1.00  0.00     0.123 C 
ATOM     39  O   UNL     1     -44.015  41.650  25.656  1.00  0.00    -0.345 OA
ATOM     40  C   UNL     1     -42.184  42.802  26.658  1.00  0.00     0.114 C 
ATOM     41  H   UNL     1     -42.302  40.676  26.189  1.00  0.00     0.067 H 
ATOM     42  C   UNL     1     -44.123  43.057  25.326  1.00  0.00     0.164 C 
ATOM     43  C   UNL     1     -43.255  43.830  26.324  1.00  0.00     0.128 C 
ATOM     44  H   UNL     1     -41.672  43.000  27.605  1.00  0.00     0.066 H 
ATOM     45  H   UNL     1     -43.770  43.179  24.295  1.00  0.00     0.088 H 
ATOM     46  H   UNL     1     -43.824  44.113  27.214  1.00  0.00     0.068 H 
BRANCH  40  47
ATOM     47  O   UNL     1     -41.190  42.860  25.613  1.00  0.00    -0.387 OA
ATOM     48  H   UNL     1     -40.468  43.436  25.925  1.00  0.00     0.211 HD
ENDBRANCH  40  47
BRANCH  42  49
ATOM     49  N   UNL     1     -45.528  43.442  25.369  1.00  0.00    -0.303 N 
ATOM     50  C   UNL     1     -46.513  42.835  26.107  1.00  0.00     0.019 A 
ATOM     51  C   UNL     1     -46.063  44.510  24.692  1.00  0.00     0.148 A 
ATOM     52  C   UNL     1     -47.688  43.533  25.913  1.00  0.00     0.033 A 
ATOM     53  H   UNL     1     -46.314  41.960  26.707  1.00  0.00     0.083 H 
ATOM     54  C   UNL     1     -47.410  44.619  25.032  1.00  0.00     0.071 A 
ATOM     55  N   UNL     1     -45.382  45.315  23.858  1.00  0.00    -0.218 NA
ATOM     56  C   UNL     1     -48.100  45.710  24.477  1.00  0.00     0.137 A 
ATOM     57  C   UNL     1     -46.153  46.297  23.373  1.00  0.00     0.120 A 
ATOM     58  N   UNL     1     -47.450  46.539  23.635  1.00  0.00    -0.219 NA
ATOM     59  H   UNL     1     -45.672  46.987  22.687  1.00  0.00     0.106 H 
BRANCH  52  60
ATOM     60  C   UNL     1     -48.968  43.203  26.529  1.00  0.00     0.095 A 
ATOM     61  C   UNL     1     -49.415  43.661  27.787  1.00  0.00    -0.016 A 
ATOM     62  N   UNL     1     -49.886  42.445  25.919  1.00  0.00    -0.173 NA
ATOM     63  C   UNL     1     -50.662  43.101  27.943  1.00  0.00     0.025 A 
ATOM     64  H   UNL     1     -48.897  44.304  28.485  1.00  0.00     0.066 H 
ATOM     65  N   UNL     1     -50.890  42.375  26.811  1.00  0.00    -0.275 N 
ATOM     66  H   UNL     1     -51.383  43.154  28.747  1.00  0.00     0.084 H 
BRANCH  65  67
ATOM     67  C   UNL     1     -52.048  41.567  26.520  1.00  0.00     0.030 C 
ATOM     68  H   UNL     1     -51.734  40.534  26.350  1.00  0.00     0.048 H 
ATOM     69  H   UNL     1     -52.528  41.970  25.625  1.00  0.00     0.048 H 
ATOM     70  H   UNL     1     -52.733  41.610  27.368  1.00  0.00     0.048 H 
ENDBRANCH  65  67
ENDBRANCH  52  60
BRANCH  56  71
ATOM     71  N   UNL     1     -49.420  46.040  24.762  1.00  0.00    -0.383 N 
ATOM     72  H   UNL     1     -49.509  46.691  25.534  1.00  0.00     0.158 HD
ATOM     73  H   UNL     1     -49.885  46.325  23.907  1.00  0.00     0.158 HD
ENDBRANCH  56  71
ENDBRANCH  42  49
BRANCH  43  74
ATOM     74  O   UNL     1     -42.664  45.015  25.788  1.00  0.00    -0.386 OA
ATOM     75  H   UNL     1     -43.386  45.473  25.310  1.00  0.00     0.211 HD
ENDBRANCH  43  74
ENDBRANCH  35  38
ENDBRANCH  34  35
ENDBRANCH   7  34
TORSDOF 16
ENDMDL
