MODEL 1
REMARK VINA RESULT:      -9.5      0.000      0.000
REMARK SMILES CNc1cc(N2CCC(O)(CNc3ccc(CN4CCC(C)(C)CC4)cn3)CC2)ncn1
REMARK SMILES IDX 11 1 9 4 6 5 7 6 29 7 8 8 28 11 5 18 3 19 4 20 32 21 31 23
REMARK SMILES IDX 30 24 2 26 1 28 10 32 12 34 13 36 14 37 27 38 15 39 26 41
REMARK SMILES IDX 16 42 17 45 18 48 19 49 25 50 20 51 24 54 21 57 22 62 23 66
REMARK H PARENT 11 2 11 3 7 9 7 10 29 12 29 13 8 14 8 15 28 16 28 17 4 22
REMARK H PARENT 31 25 2 27 1 29 1 30 1 31 10 33 12 35 14 40 15 43 26 44 17 46
REMARK H PARENT 17 47 19 52 19 53 25 55 25 56 20 58 20 59 24 60 24 61 22 63
REMARK H PARENT 22 64 22 65 23 67 23 68 23 69
REMARK Flexibility Score: inf
ROOT
ATOM      1  C   UNL     1     -47.708  35.312  27.365  1.00  0.00     0.045 C 
ATOM      2  H   UNL     1     -48.632  35.633  26.867  1.00  0.00     0.052 H 
ATOM      3  H   UNL     1     -48.043  34.533  28.062  1.00  0.00     0.052 H 
ENDROOT
BRANCH   1   4
ATOM      4  C   UNL     1     -47.157  36.533  28.162  1.00  0.00     0.085 C 
ATOM      5  N   UNL     1     -45.503  38.858  27.422  1.00  0.00    -0.356 N 
ATOM      6  C   UNL     1     -45.115  37.978  28.519  1.00  0.00     0.022 C 
ATOM      7  C   UNL     1     -46.824  38.697  26.820  1.00  0.00     0.022 C 
ATOM      8  C   UNL     1     -45.622  36.567  28.221  1.00  0.00    -0.005 C 
ATOM      9  H   UNL     1     -45.515  38.351  29.470  1.00  0.00     0.049 H 
ATOM     10  H   UNL     1     -44.024  37.916  28.617  1.00  0.00     0.049 H 
ATOM     11  C   UNL     1     -47.753  37.882  27.717  1.00  0.00    -0.005 C 
ATOM     12  H   UNL     1     -46.721  38.228  25.840  1.00  0.00     0.049 H 
ATOM     13  H   UNL     1     -47.304  39.670  26.662  1.00  0.00     0.049 H 
ATOM     14  H   UNL     1     -45.181  36.253  27.272  1.00  0.00     0.031 H 
ATOM     15  H   UNL     1     -45.247  35.883  28.992  1.00  0.00     0.031 H 
ATOM     16  H   UNL     1     -48.721  37.739  27.222  1.00  0.00     0.031 H 
ATOM     17  H   UNL     1     -47.980  38.490  28.605  1.00  0.00     0.031 H 
BRANCH   5  18
ATOM     18  C   UNL     1     -44.723  39.976  27.168  1.00  0.00     0.134 A 
ATOM     19  C   UNL     1     -42.991  41.510  27.718  1.00  0.00     0.131 A 
ATOM     20  C   UNL     1     -43.732  40.389  28.044  1.00  0.00     0.023 A 
ATOM     21  N   UNL     1     -43.218  42.218  26.609  1.00  0.00    -0.219 NA
ATOM     22  H   UNL     1     -43.562  39.882  28.982  1.00  0.00     0.070 H 
ATOM     23  C   UNL     1     -44.203  41.762  25.827  1.00  0.00     0.120 A 
ATOM     24  N   UNL     1     -44.962  40.681  26.048  1.00  0.00    -0.219 NA
ATOM     25  H   UNL     1     -44.408  42.323  24.923  1.00  0.00     0.106 H 
BRANCH  19  26
ATOM     26  N   UNL     1     -41.982  42.007  28.549  1.00  0.00    -0.373 N 
ATOM     27  H   UNL     1     -41.160  42.055  27.947  1.00  0.00     0.161 HD
BRANCH  26  28
ATOM     28  C   UNL     1     -41.734  41.210  29.737  1.00  0.00     0.005 C 
ATOM     29  H   UNL     1     -42.081  41.714  30.644  1.00  0.00     0.045 H 
ATOM     30  H   UNL     1     -42.207  40.223  29.665  1.00  0.00     0.045 H 
ATOM     31  H   UNL     1     -40.655  41.054  29.844  1.00  0.00     0.045 H 
ENDBRANCH  26  28
ENDBRANCH  19  26
ENDBRANCH   5  18
BRANCH   4  32
ATOM     32  O   UNL     1     -47.620  36.352  29.529  1.00  0.00    -0.388 OA
ATOM     33  H   UNL     1     -47.746  35.401  29.688  1.00  0.00     0.211 HD
ENDBRANCH   4  32
ENDBRANCH   1   4
BRANCH   1  34
ATOM     34  N   UNL     1     -46.855  34.761  26.319  1.00  0.00    -0.367 N 
ATOM     35  H   UNL     1     -45.863  34.753  26.544  1.00  0.00     0.162 HD
BRANCH  34  36
ATOM     36  C   UNL     1     -47.134  33.526  25.767  1.00  0.00     0.125 A 
ATOM     37  C   UNL     1     -46.366  32.945  24.766  1.00  0.00    -0.019 A 
ATOM     38  N   UNL     1     -48.214  32.914  26.281  1.00  0.00    -0.239 NA
ATOM     39  C   UNL     1     -46.760  31.721  24.226  1.00  0.00    -0.053 A 
ATOM     40  H   UNL     1     -45.469  33.430  24.401  1.00  0.00     0.066 H 
ATOM     41  C   UNL     1     -48.586  31.731  25.740  1.00  0.00     0.034 A 
ATOM     42  C   UNL     1     -47.912  31.098  24.703  1.00  0.00    -0.015 A 
ATOM     43  H   UNL     1     -46.172  31.271  23.431  1.00  0.00     0.063 H 
ATOM     44  H   UNL     1     -49.487  31.296  26.166  1.00  0.00     0.084 H 
BRANCH  42  45
ATOM     45  C   UNL     1     -48.405  29.791  24.138  1.00  0.00     0.025 C 
ATOM     46  H   UNL     1     -48.017  29.730  23.112  1.00  0.00     0.048 H 
ATOM     47  H   UNL     1     -49.499  29.796  24.054  1.00  0.00     0.048 H 
BRANCH  45  48
ATOM     48  N   UNL     1     -47.958  28.623  24.910  1.00  0.00    -0.299 NA
ATOM     49  C   UNL     1     -47.359  27.602  24.056  1.00  0.00    -0.001 C 
ATOM     50  C   UNL     1     -49.029  28.068  25.759  1.00  0.00    -0.001 C 
ATOM     51  C   UNL     1     -46.628  26.549  24.905  1.00  0.00    -0.035 C 
ATOM     52  H   UNL     1     -46.622  28.046  23.376  1.00  0.00     0.043 H 
ATOM     53  H   UNL     1     -48.119  27.124  23.426  1.00  0.00     0.043 H 
ATOM     54  C   UNL     1     -48.867  26.573  26.071  1.00  0.00    -0.035 C 
ATOM     55  H   UNL     1     -50.014  28.199  25.293  1.00  0.00     0.043 H 
ATOM     56  H   UNL     1     -49.049  28.626  26.703  1.00  0.00     0.043 H 
ATOM     57  C   UNL     1     -47.395  26.138  26.189  1.00  0.00    -0.033 C 
ATOM     58  H   UNL     1     -45.633  26.929  25.170  1.00  0.00     0.029 H 
ATOM     59  H   UNL     1     -46.451  25.676  24.264  1.00  0.00     0.029 H 
ATOM     60  H   UNL     1     -49.418  26.335  26.990  1.00  0.00     0.029 H 
ATOM     61  H   UNL     1     -49.348  25.996  25.268  1.00  0.00     0.029 H 
BRANCH  57  62
ATOM     62  C   UNL     1     -47.326  24.612  26.369  1.00  0.00    -0.060 C 
ATOM     63  H   UNL     1     -47.988  24.098  25.662  1.00  0.00     0.024 H 
ATOM     64  H   UNL     1     -47.631  24.318  27.380  1.00  0.00     0.024 H 
ATOM     65  H   UNL     1     -46.309  24.239  26.204  1.00  0.00     0.024 H 
ENDBRANCH  57  62
BRANCH  57  66
ATOM     66  C   UNL     1     -46.746  26.789  27.428  1.00  0.00    -0.060 C 
ATOM     67  H   UNL     1     -47.216  27.751  27.658  1.00  0.00     0.024 H 
ATOM     68  H   UNL     1     -46.836  26.161  28.320  1.00  0.00     0.024 H 
ATOM     69  H   UNL     1     -45.680  26.975  27.256  1.00  0.00     0.024 H 
ENDBRANCH  57  66
ENDBRANCH  45  48
ENDBRANCH  42  45
ENDBRANCH  34  36
ENDBRANCH   1  34
TORSDOF 11
ENDMDL
MODEL 2
REMARK VINA RESULT:      -9.0      1.056      2.020
REMARK SMILES CNc1cc(N2CCC(O)(CNc3ccc(CN4CCC(C)(C)CC4)cn3)CC2)ncn1
REMARK SMILES IDX 11 1 9 4 6 5 7 6 29 7 8 8 28 11 5 18 3 19 4 20 32 21 31 23
REMARK SMILES IDX 30 24 2 26 1 28 10 32 12 34 13 36 14 37 27 38 15 39 26 41
REMARK SMILES IDX 16 42 17 45 18 48 19 49 25 50 20 51 24 54 21 57 22 62 23 66
REMARK H PARENT 11 2 11 3 7 9 7 10 29 12 29 13 8 14 8 15 28 16 28 17 4 22
REMARK H PARENT 31 25 2 27 1 29 1 30 1 31 10 33 12 35 14 40 15 43 26 44 17 46
REMARK H PARENT 17 47 19 52 19 53 25 55 25 56 20 58 20 59 24 60 24 61 22 63
REMARK H PARENT 22 64 22 65 23 67 23 68 23 69
REMARK Flexibility Score: inf
ROOT
ATOM      1  C   UNL     1     -47.236  36.062  26.891  1.00  0.00     0.045 C 
ATOM      2  H   UNL     1     -46.688  36.336  25.980  1.00  0.00     0.052 H 
ATOM      3  H   UNL     1     -48.290  36.140  26.595  1.00  0.00     0.052 H 
ENDROOT
BRANCH   1   4
ATOM      4  C   UNL     1     -46.911  37.135  27.974  1.00  0.00     0.085 C 
ATOM      5  N   UNL     1     -44.758  39.127  28.272  1.00  0.00    -0.356 N 
ATOM      6  C   UNL     1     -45.038  38.159  29.328  1.00  0.00     0.022 C 
ATOM      7  C   UNL     1     -45.684  39.234  27.147  1.00  0.00     0.022 C 
ATOM      8  C   UNL     1     -45.576  36.878  28.690  1.00  0.00    -0.005 C 
ATOM      9  H   UNL     1     -45.754  38.574  30.048  1.00  0.00     0.049 H 
ATOM     10  H   UNL     1     -44.128  37.890  29.877  1.00  0.00     0.049 H 
ATOM     11  C   UNL     1     -47.029  38.584  27.464  1.00  0.00    -0.005 C 
ATOM     12  H   UNL     1     -45.233  38.782  26.262  1.00  0.00     0.049 H 
ATOM     13  H   UNL     1     -45.885  40.285  26.905  1.00  0.00     0.049 H 
ATOM     14  H   UNL     1     -44.816  36.513  27.995  1.00  0.00     0.031 H 
ATOM     15  H   UNL     1     -45.692  36.114  29.468  1.00  0.00     0.031 H 
ATOM     16  H   UNL     1     -47.687  38.639  26.589  1.00  0.00     0.031 H 
ATOM     17  H   UNL     1     -47.527  39.199  28.229  1.00  0.00     0.031 H 
BRANCH   5  18
ATOM     18  C   UNL     1     -43.782  40.084  28.501  1.00  0.00     0.134 A 
ATOM     19  C   UNL     1     -42.525  42.007  27.882  1.00  0.00     0.131 A 
ATOM     20  C   UNL     1     -43.509  41.084  27.580  1.00  0.00     0.023 A 
ATOM     21  N   UNL     1     -41.815  41.948  29.011  1.00  0.00    -0.219 NA
ATOM     22  H   UNL     1     -44.017  41.126  26.627  1.00  0.00     0.070 H 
ATOM     23  C   UNL     1     -42.128  40.944  29.837  1.00  0.00     0.120 A 
ATOM     24  N   UNL     1     -43.073  40.015  29.641  1.00  0.00    -0.219 NA
ATOM     25  H   UNL     1     -41.561  40.874  30.758  1.00  0.00     0.106 H 
BRANCH  19  26
ATOM     26  N   UNL     1     -42.174  43.039  27.007  1.00  0.00    -0.373 N 
ATOM     27  H   UNL     1     -41.725  43.733  27.603  1.00  0.00     0.161 HD
BRANCH  26  28
ATOM     28  C   UNL     1     -43.288  43.605  26.266  1.00  0.00     0.005 C 
ATOM     29  H   UNL     1     -43.491  44.638  26.564  1.00  0.00     0.045 H 
ATOM     30  H   UNL     1     -43.114  43.566  25.185  1.00  0.00     0.045 H 
ATOM     31  H   UNL     1     -44.191  43.022  26.479  1.00  0.00     0.045 H 
ENDBRANCH  26  28
ENDBRANCH  19  26
ENDBRANCH   5  18
BRANCH   4  32
ATOM     32  O   UNL     1     -47.952  37.006  28.981  1.00  0.00    -0.388 OA
ATOM     33  H   UNL     1     -48.168  36.063  29.081  1.00  0.00     0.211 HD
ENDBRANCH   4  32
ENDBRANCH   1   4
BRANCH   1  34
ATOM     34  N   UNL     1     -46.864  34.684  27.187  1.00  0.00    -0.367 N 
ATOM     35  H   UNL     1     -47.066  34.388  28.139  1.00  0.00     0.162 HD
BRANCH  34  36
ATOM     36  C   UNL     1     -47.283  33.655  26.367  1.00  0.00     0.125 A 
ATOM     37  C   UNL     1     -46.477  33.074  25.396  1.00  0.00    -0.019 A 
ATOM     38  N   UNL     1     -48.544  33.243  26.584  1.00  0.00    -0.239 NA
ATOM     39  C   UNL     1     -47.006  32.080  24.573  1.00  0.00    -0.053 A 
ATOM     40  H   UNL     1     -45.446  33.383  25.272  1.00  0.00     0.066 H 
ATOM     41  C   UNL     1     -49.043  32.284  25.771  1.00  0.00     0.034 A 
ATOM     42  C   UNL     1     -48.331  31.681  24.742  1.00  0.00    -0.015 A 
ATOM     43  H   UNL     1     -46.384  31.635  23.802  1.00  0.00     0.063 H 
ATOM     44  H   UNL     1     -50.079  32.014  25.964  1.00  0.00     0.084 H 
BRANCH  42  45
ATOM     45  C   UNL     1     -48.967  30.636  23.863  1.00  0.00     0.025 C 
ATOM     46  H   UNL     1     -48.427  30.663  22.907  1.00  0.00     0.048 H 
ATOM     47  H   UNL     1     -50.007  30.905  23.637  1.00  0.00     0.048 H 
BRANCH  45  48
ATOM     48  N   UNL     1     -48.902  29.284  24.435  1.00  0.00    -0.299 NA
ATOM     49  C   UNL     1     -48.435  29.300  25.818  1.00  0.00    -0.001 C 
ATOM     50  C   UNL     1     -48.110  28.360  23.601  1.00  0.00    -0.001 C 
ATOM     51  C   UNL     1     -48.671  27.934  26.482  1.00  0.00    -0.035 C 
ATOM     52  H   UNL     1     -48.981  30.050  26.404  1.00  0.00     0.043 H 
ATOM     53  H   UNL     1     -47.374  29.573  25.870  1.00  0.00     0.043 H 
ATOM     54  C   UNL     1     -47.478  27.198  24.383  1.00  0.00    -0.035 C 
ATOM     55  H   UNL     1     -47.296  28.886  23.086  1.00  0.00     0.043 H 
ATOM     56  H   UNL     1     -48.764  27.947  22.823  1.00  0.00     0.043 H 
ATOM     57  C   UNL     1     -48.344  26.727  25.566  1.00  0.00    -0.033 C 
ATOM     58  H   UNL     1     -49.713  27.874  26.821  1.00  0.00     0.029 H 
ATOM     59  H   UNL     1     -48.061  27.904  27.394  1.00  0.00     0.029 H 
ATOM     60  H   UNL     1     -47.275  26.368  23.694  1.00  0.00     0.029 H 
ATOM     61  H   UNL     1     -46.500  27.526  24.763  1.00  0.00     0.029 H 
BRANCH  57  62
ATOM     62  C   UNL     1     -47.578  25.659  26.365  1.00  0.00    -0.060 C 
ATOM     63  H   UNL     1     -46.622  26.049  26.734  1.00  0.00     0.024 H 
ATOM     64  H   UNL     1     -47.360  24.781  25.746  1.00  0.00     0.024 H 
ATOM     65  H   UNL     1     -48.158  25.322  27.232  1.00  0.00     0.024 H 
ENDBRANCH  57  62
BRANCH  57  66
ATOM     66  C   UNL     1     -49.647  26.084  25.048  1.00  0.00    -0.060 C 
ATOM     67  H   UNL     1     -49.432  25.265  24.352  1.00  0.00     0.024 H 
ATOM     68  H   UNL     1     -50.255  25.670  25.858  1.00  0.00     0.024 H 
ATOM     69  H   UNL     1     -50.258  26.820  24.514  1.00  0.00     0.024 H 
ENDBRANCH  57  66
ENDBRANCH  45  48
ENDBRANCH  42  45
ENDBRANCH  34  36
ENDBRANCH   1  34
TORSDOF 11
ENDMDL
MODEL 3
REMARK VINA RESULT:      -8.8      2.675      3.826
REMARK SMILES CNc1cc(N2CCC(O)(CNc3ccc(CN4CCC(C)(C)CC4)cn3)CC2)ncn1
REMARK SMILES IDX 11 1 9 4 6 5 7 6 29 7 8 8 28 11 5 18 3 19 4 20 32 21 31 23
REMARK SMILES IDX 30 24 2 26 1 28 10 32 12 34 13 36 14 37 27 38 15 39 26 41
REMARK SMILES IDX 16 42 17 45 18 48 19 49 25 50 20 51 24 54 21 57 22 62 23 66
REMARK H PARENT 11 2 11 3 7 9 7 10 29 12 29 13 8 14 8 15 28 16 28 17 4 22
REMARK H PARENT 31 25 2 27 1 29 1 30 1 31 10 33 12 35 14 40 15 43 26 44 17 46
REMARK H PARENT 17 47 19 52 19 53 25 55 25 56 20 58 20 59 24 60 24 61 22 63
REMARK H PARENT 22 64 22 65 23 67 23 68 23 69
REMARK Flexibility Score: inf
ROOT
ATOM      1  C   UNL     1     -46.154  36.241  29.910  1.00  0.00     0.045 C 
ATOM      2  H   UNL     1     -46.515  35.886  30.884  1.00  0.00     0.052 H 
ATOM      3  H   UNL     1     -45.258  35.634  29.727  1.00  0.00     0.052 H 
ENDROOT
BRANCH   1   4
ATOM      4  C   UNL     1     -45.754  37.738  30.076  1.00  0.00     0.085 C 
ATOM      5  N   UNL     1     -44.513  39.716  28.277  1.00  0.00    -0.356 N 
ATOM      6  C   UNL     1     -43.939  39.426  29.587  1.00  0.00     0.022 C 
ATOM      7  C   UNL     1     -45.824  39.165  27.942  1.00  0.00     0.022 C 
ATOM      8  C   UNL     1     -44.241  37.972  29.946  1.00  0.00    -0.005 C 
ATOM      9  H   UNL     1     -44.342  40.113  30.342  1.00  0.00     0.049 H 
ATOM     10  H   UNL     1     -42.848  39.539  29.581  1.00  0.00     0.049 H 
ATOM     11  C   UNL     1     -46.571  38.698  29.189  1.00  0.00    -0.005 C 
ATOM     12  H   UNL     1     -45.702  38.345  27.232  1.00  0.00     0.049 H 
ATOM     13  H   UNL     1     -46.453  39.921  27.456  1.00  0.00     0.049 H 
ATOM     14  H   UNL     1     -43.808  37.344  29.164  1.00  0.00     0.031 H 
ATOM     15  H   UNL     1     -43.727  37.721  30.882  1.00  0.00     0.031 H 
ATOM     16  H   UNL     1     -47.530  38.249  28.905  1.00  0.00     0.031 H 
ATOM     17  H   UNL     1     -46.841  39.590  29.773  1.00  0.00     0.031 H 
BRANCH   5  18
ATOM     18  C   UNL     1     -43.925  40.708  27.506  1.00  0.00     0.134 A 
ATOM     19  C   UNL     1     -43.842  42.128  25.601  1.00  0.00     0.131 A 
ATOM     20  C   UNL     1     -44.483  41.129  26.310  1.00  0.00     0.023 A 
ATOM     21  N   UNL     1     -42.696  42.674  26.015  1.00  0.00    -0.219 NA
ATOM     22  H   UNL     1     -45.373  40.666  25.909  1.00  0.00     0.070 H 
ATOM     23  C   UNL     1     -42.216  42.200  27.169  1.00  0.00     0.120 A 
ATOM     24  N   UNL     1     -42.771  41.250  27.934  1.00  0.00    -0.219 NA
ATOM     25  H   UNL     1     -41.285  42.626  27.523  1.00  0.00     0.106 H 
BRANCH  19  26
ATOM     26  N   UNL     1     -44.324  42.604  24.377  1.00  0.00    -0.373 N 
ATOM     27  H   UNL     1     -44.607  41.764  23.874  1.00  0.00     0.161 HD
BRANCH  26  28
ATOM     28  C   UNL     1     -43.368  43.391  23.619  1.00  0.00     0.005 C 
ATOM     29  H   UNL     1     -43.865  44.076  22.925  1.00  0.00     0.045 H 
ATOM     30  H   UNL     1     -42.703  43.961  24.278  1.00  0.00     0.045 H 
ATOM     31  H   UNL     1     -42.746  42.717  23.021  1.00  0.00     0.045 H 
ENDBRANCH  26  28
ENDBRANCH  19  26
ENDBRANCH   5  18
BRANCH   4  32
ATOM     32  O   UNL     1     -46.113  38.092  31.440  1.00  0.00    -0.388 OA
ATOM     33  H   UNL     1     -45.740  37.423  32.040  1.00  0.00     0.211 HD
ENDBRANCH   4  32
ENDBRANCH   1   4
BRANCH   1  34
ATOM     34  N   UNL     1     -47.211  35.936  28.953  1.00  0.00    -0.367 N 
ATOM     35  H   UNL     1     -47.708  36.750  28.600  1.00  0.00     0.162 HD
BRANCH  34  36
ATOM     36  C   UNL     1     -46.952  35.138  27.856  1.00  0.00     0.125 A 
ATOM     37  C   UNL     1     -47.116  35.565  26.544  1.00  0.00    -0.019 A 
ATOM     38  N   UNL     1     -46.516  33.902  28.152  1.00  0.00    -0.239 NA
ATOM     39  C   UNL     1     -46.888  34.669  25.500  1.00  0.00    -0.053 A 
ATOM     40  H   UNL     1     -47.417  36.582  26.324  1.00  0.00     0.066 H 
ATOM     41  C   UNL     1     -46.308  33.044  27.127  1.00  0.00     0.034 A 
ATOM     42  C   UNL     1     -46.493  33.363  25.788  1.00  0.00    -0.015 A 
ATOM     43  H   UNL     1     -47.031  34.994  24.473  1.00  0.00     0.063 H 
ATOM     44  H   UNL     1     -45.992  32.046  27.423  1.00  0.00     0.084 H 
BRANCH  42  45
ATOM     45  C   UNL     1     -46.263  32.342  24.705  1.00  0.00     0.025 C 
ATOM     46  H   UNL     1     -45.762  31.489  25.183  1.00  0.00     0.048 H 
ATOM     47  H   UNL     1     -45.562  32.729  23.954  1.00  0.00     0.048 H 
BRANCH  45  48
ATOM     48  N   UNL     1     -47.505  31.894  24.061  1.00  0.00    -0.299 NA
ATOM     49  C   UNL     1     -48.558  31.626  25.037  1.00  0.00    -0.001 C 
ATOM     50  C   UNL     1     -47.288  30.745  23.161  1.00  0.00    -0.001 C 
ATOM     51  C   UNL     1     -49.916  31.466  24.334  1.00  0.00    -0.035 C 
ATOM     52  H   UNL     1     -48.651  32.457  25.747  1.00  0.00     0.043 H 
ATOM     53  H   UNL     1     -48.326  30.732  25.628  1.00  0.00     0.043 H 
ATOM     54  C   UNL     1     -48.527  29.857  22.972  1.00  0.00    -0.035 C 
ATOM     55  H   UNL     1     -46.478  30.101  23.526  1.00  0.00     0.043 H 
ATOM     56  H   UNL     1     -46.974  31.126  22.182  1.00  0.00     0.043 H 
ATOM     57  C   UNL     1     -49.848  30.647  23.019  1.00  0.00    -0.033 C 
ATOM     58  H   UNL     1     -50.336  32.459  24.133  1.00  0.00     0.029 H 
ATOM     59  H   UNL     1     -50.601  30.993  25.049  1.00  0.00     0.029 H 
ATOM     60  H   UNL     1     -48.436  29.307  22.026  1.00  0.00     0.029 H 
ATOM     61  H   UNL     1     -48.535  29.097  23.767  1.00  0.00     0.029 H 
BRANCH  57  62
ATOM     62  C   UNL     1     -51.031  29.666  22.954  1.00  0.00    -0.060 C 
ATOM     63  H   UNL     1     -50.774  28.703  23.410  1.00  0.00     0.024 H 
ATOM     64  H   UNL     1     -51.330  29.472  21.918  1.00  0.00     0.024 H 
ATOM     65  H   UNL     1     -51.904  30.064  23.486  1.00  0.00     0.024 H 
ENDBRANCH  57  62
BRANCH  57  66
ATOM     66  C   UNL     1     -49.948  31.588  21.801  1.00  0.00    -0.060 C 
ATOM     67  H   UNL     1     -50.553  31.138  21.005  1.00  0.00     0.024 H 
ATOM     68  H   UNL     1     -50.408  32.547  22.056  1.00  0.00     0.024 H 
ATOM     69  H   UNL     1     -48.956  31.792  21.385  1.00  0.00     0.024 H 
ENDBRANCH  57  66
ENDBRANCH  45  48
ENDBRANCH  42  45
ENDBRANCH  34  36
ENDBRANCH   1  34
TORSDOF 11
ENDMDL
MODEL 4
REMARK VINA RESULT:      -8.8      1.785      2.552
REMARK SMILES CNc1cc(N2CCC(O)(CNc3ccc(CN4CCC(C)(C)CC4)cn3)CC2)ncn1
REMARK SMILES IDX 11 1 9 4 6 5 7 6 29 7 8 8 28 11 5 18 3 19 4 20 32 21 31 23
REMARK SMILES IDX 30 24 2 26 1 28 10 32 12 34 13 36 14 37 27 38 15 39 26 41
REMARK SMILES IDX 16 42 17 45 18 48 19 49 25 50 20 51 24 54 21 57 22 62 23 66
REMARK H PARENT 11 2 11 3 7 9 7 10 29 12 29 13 8 14 8 15 28 16 28 17 4 22
REMARK H PARENT 31 25 2 27 1 29 1 30 1 31 10 33 12 35 14 40 15 43 26 44 17 46
REMARK H PARENT 17 47 19 52 19 53 25 55 25 56 20 58 20 59 24 60 24 61 22 63
REMARK H PARENT 22 64 22 65 23 67 23 68 23 69
REMARK Flexibility Score: inf
ROOT
ATOM      1  C   UNL     1     -48.204  36.207  26.998  1.00  0.00     0.045 C 
ATOM      2  H   UNL     1     -47.794  36.271  25.982  1.00  0.00     0.052 H 
ATOM      3  H   UNL     1     -49.234  36.567  26.889  1.00  0.00     0.052 H 
ENDROOT
BRANCH   1   4
ATOM      4  C   UNL     1     -47.392  37.192  27.894  1.00  0.00     0.085 C 
ATOM      5  N   UNL     1     -45.543  39.412  27.306  1.00  0.00    -0.356 N 
ATOM      6  C   UNL     1     -45.141  38.307  28.171  1.00  0.00     0.022 C 
ATOM      7  C   UNL     1     -46.941  39.513  26.893  1.00  0.00     0.022 C 
ATOM      8  C   UNL     1     -45.872  37.041  27.724  1.00  0.00    -0.005 C 
ATOM      9  H   UNL     1     -45.361  38.542  29.220  1.00  0.00     0.049 H 
ATOM     10  H   UNL     1     -44.066  38.106  28.090  1.00  0.00     0.049 H 
ATOM     11  C   UNL     1     -47.850  38.658  27.773  1.00  0.00    -0.005 C 
ATOM     12  H   UNL     1     -47.032  39.223  25.844  1.00  0.00     0.049 H 
ATOM     13  H   UNL     1     -47.299  40.547  26.972  1.00  0.00     0.049 H 
ATOM     14  H   UNL     1     -45.605  36.859  26.680  1.00  0.00     0.031 H 
ATOM     15  H   UNL     1     -45.498  36.190  28.305  1.00  0.00     0.031 H 
ATOM     16  H   UNL     1     -48.884  38.717  27.413  1.00  0.00     0.031 H 
ATOM     17  H   UNL     1     -47.874  39.114  28.773  1.00  0.00     0.031 H 
BRANCH   5  18
ATOM     18  C   UNL     1     -44.657  40.462  27.125  1.00  0.00     0.134 A 
ATOM     19  C   UNL     1     -42.746  41.740  27.735  1.00  0.00     0.131 A 
ATOM     20  C   UNL     1     -43.591  40.674  27.985  1.00  0.00     0.023 A 
ATOM     21  N   UNL     1     -42.940  42.581  26.716  1.00  0.00    -0.219 NA
ATOM     22  H   UNL     1     -43.439  40.056  28.857  1.00  0.00     0.070 H 
ATOM     23  C   UNL     1     -44.000  42.316  25.945  1.00  0.00     0.120 A 
ATOM     24  N   UNL     1     -44.863  41.302  26.095  1.00  0.00    -0.219 NA
ATOM     25  H   UNL     1     -44.180  42.988  25.114  1.00  0.00     0.106 H 
BRANCH  19  26
ATOM     26  N   UNL     1     -41.655  42.038  28.557  1.00  0.00    -0.373 N 
ATOM     27  H   UNL     1     -40.843  41.918  27.952  1.00  0.00     0.161 HD
BRANCH  26  28
ATOM     28  C   UNL     1     -41.562  41.219  29.753  1.00  0.00     0.005 C 
ATOM     29  H   UNL     1     -42.069  41.684  30.604  1.00  0.00     0.045 H 
ATOM     30  H   UNL     1     -41.975  40.217  29.587  1.00  0.00     0.045 H 
ATOM     31  H   UNL     1     -40.508  41.104  30.026  1.00  0.00     0.045 H 
ENDBRANCH  26  28
ENDBRANCH  19  26
ENDBRANCH   5  18
BRANCH   4  32
ATOM     32  O   UNL     1     -47.695  36.816  29.266  1.00  0.00    -0.388 OA
ATOM     33  H   UNL     1     -47.773  35.847  29.310  1.00  0.00     0.211 HD
ENDBRANCH   4  32
ENDBRANCH   1   4
BRANCH   1  34
ATOM     34  N   UNL     1     -48.167  34.795  27.360  1.00  0.00    -0.367 N 
ATOM     35  H   UNL     1     -49.046  34.427  27.715  1.00  0.00     0.162 HD
BRANCH  34  36
ATOM     36  C   UNL     1     -47.690  33.856  26.466  1.00  0.00     0.125 A 
ATOM     37  C   UNL     1     -46.628  34.094  25.601  1.00  0.00    -0.019 A 
ATOM     38  N   UNL     1     -48.331  32.675  26.498  1.00  0.00    -0.239 NA
ATOM     39  C   UNL     1     -46.256  33.106  24.690  1.00  0.00    -0.053 A 
ATOM     40  H   UNL     1     -46.090  35.033  25.626  1.00  0.00     0.066 H 
ATOM     41  C   UNL     1     -47.960  31.732  25.601  1.00  0.00     0.034 A 
ATOM     42  C   UNL     1     -46.947  31.896  24.665  1.00  0.00    -0.015 A 
ATOM     43  H   UNL     1     -45.437  33.294  24.000  1.00  0.00     0.063 H 
ATOM     44  H   UNL     1     -48.535  30.810  25.644  1.00  0.00     0.084 H 
BRANCH  42  45
ATOM     45  C   UNL     1     -46.610  30.804  23.683  1.00  0.00     0.025 C 
ATOM     46  H   UNL     1     -45.908  30.132  24.194  1.00  0.00     0.048 H 
ATOM     47  H   UNL     1     -46.070  31.217  22.821  1.00  0.00     0.048 H 
BRANCH  45  48
ATOM     48  N   UNL     1     -47.788  30.049  23.234  1.00  0.00    -0.299 NA
ATOM     49  C   UNL     1     -47.601  28.609  23.385  1.00  0.00    -0.001 C 
ATOM     50  C   UNL     1     -48.195  30.408  21.863  1.00  0.00    -0.001 C 
ATOM     51  C   UNL     1     -48.938  27.871  23.208  1.00  0.00    -0.035 C 
ATOM     52  H   UNL     1     -47.221  28.368  24.385  1.00  0.00     0.043 H 
ATOM     53  H   UNL     1     -46.859  28.233  22.669  1.00  0.00     0.043 H 
ATOM     54  C   UNL     1     -48.945  29.291  21.121  1.00  0.00    -0.035 C 
ATOM     55  H   UNL     1     -47.328  30.682  21.248  1.00  0.00     0.043 H 
ATOM     56  H   UNL     1     -48.841  31.293  21.912  1.00  0.00     0.043 H 
ATOM     57  C   UNL     1     -49.812  28.425  22.053  1.00  0.00    -0.033 C 
ATOM     58  H   UNL     1     -49.497  27.910  24.151  1.00  0.00     0.029 H 
ATOM     59  H   UNL     1     -48.707  26.810  23.044  1.00  0.00     0.029 H 
ATOM     60  H   UNL     1     -49.554  29.734  20.323  1.00  0.00     0.029 H 
ATOM     61  H   UNL     1     -48.205  28.649  20.621  1.00  0.00     0.029 H 
BRANCH  57  62
ATOM     62  C   UNL     1     -50.415  27.259  21.251  1.00  0.00    -0.060 C 
ATOM     63  H   UNL     1     -50.889  26.525  21.914  1.00  0.00     0.024 H 
ATOM     64  H   UNL     1     -49.646  26.735  20.674  1.00  0.00     0.024 H 
ATOM     65  H   UNL     1     -51.178  27.615  20.549  1.00  0.00     0.024 H 
ENDBRANCH  57  62
BRANCH  57  66
ATOM     66  C   UNL     1     -50.977  29.260  22.622  1.00  0.00    -0.060 C 
ATOM     67  H   UNL     1     -51.552  28.684  23.356  1.00  0.00     0.024 H 
ATOM     68  H   UNL     1     -50.629  30.169  23.123  1.00  0.00     0.024 H 
ATOM     69  H   UNL     1     -51.666  29.560  21.825  1.00  0.00     0.024 H 
ENDBRANCH  57  66
ENDBRANCH  45  48
ENDBRANCH  42  45
ENDBRANCH  34  36
ENDBRANCH   1  34
TORSDOF 11
ENDMDL
MODEL 5
REMARK VINA RESULT:      -8.7      1.777      2.570
REMARK SMILES CNc1cc(N2CCC(O)(CNc3ccc(CN4CCC(C)(C)CC4)cn3)CC2)ncn1
REMARK SMILES IDX 11 1 9 4 6 5 7 6 29 7 8 8 28 11 5 18 3 19 4 20 32 21 31 23
REMARK SMILES IDX 30 24 2 26 1 28 10 32 12 34 13 36 14 37 27 38 15 39 26 41
REMARK SMILES IDX 16 42 17 45 18 48 19 49 25 50 20 51 24 54 21 57 22 62 23 66
REMARK H PARENT 11 2 11 3 7 9 7 10 29 12 29 13 8 14 8 15 28 16 28 17 4 22
REMARK H PARENT 31 25 2 27 1 29 1 30 1 31 10 33 12 35 14 40 15 43 26 44 17 46
REMARK H PARENT 17 47 19 52 19 53 25 55 25 56 20 58 20 59 24 60 24 61 22 63
REMARK H PARENT 22 64 22 65 23 67 23 68 23 69
REMARK Flexibility Score: inf
ROOT
ATOM      1  C   UNL     1     -45.864  34.171  27.812  1.00  0.00     0.045 C 
ATOM      2  H   UNL     1     -46.532  33.386  28.188  1.00  0.00     0.052 H 
ATOM      3  H   UNL     1     -44.868  33.847  28.139  1.00  0.00     0.052 H 
ENDROOT
BRANCH   1   4
ATOM      4  C   UNL     1     -46.250  35.499  28.531  1.00  0.00     0.085 C 
ATOM      5  N   UNL     1     -46.796  38.236  27.581  1.00  0.00    -0.356 N 
ATOM      6  C   UNL     1     -45.789  37.982  28.607  1.00  0.00     0.022 C 
ATOM      7  C   UNL     1     -47.676  37.145  27.170  1.00  0.00     0.022 C 
ATOM      8  C   UNL     1     -45.187  36.597  28.374  1.00  0.00    -0.005 C 
ATOM      9  H   UNL     1     -46.234  38.059  29.607  1.00  0.00     0.049 H 
ATOM     10  H   UNL     1     -44.968  38.707  28.550  1.00  0.00     0.049 H 
ATOM     11  C   UNL     1     -47.664  36.002  28.183  1.00  0.00    -0.005 C 
ATOM     12  H   UNL     1     -47.377  36.790  26.182  1.00  0.00     0.049 H 
ATOM     13  H   UNL     1     -48.714  37.489  27.088  1.00  0.00     0.049 H 
ATOM     14  H   UNL     1     -44.756  36.592  27.370  1.00  0.00     0.031 H 
ATOM     15  H   UNL     1     -44.362  36.444  29.079  1.00  0.00     0.031 H 
ATOM     16  H   UNL     1     -48.297  35.180  27.829  1.00  0.00     0.031 H 
ATOM     17  H   UNL     1     -48.158  36.361  29.099  1.00  0.00     0.031 H 
BRANCH   5  18
ATOM     18  C   UNL     1     -47.059  39.550  27.228  1.00  0.00     0.134 A 
ATOM     19  C   UNL     1     -46.460  41.632  26.244  1.00  0.00     0.131 A 
ATOM     20  C   UNL     1     -46.122  40.331  26.570  1.00  0.00     0.023 A 
ATOM     21  N   UNL     1     -47.641  42.164  26.569  1.00  0.00    -0.219 NA
ATOM     22  H   UNL     1     -45.132  39.957  26.349  1.00  0.00     0.070 H 
ATOM     23  C   UNL     1     -48.480  41.350  27.218  1.00  0.00     0.120 A 
ATOM     24  N   UNL     1     -48.252  40.075  27.560  1.00  0.00    -0.219 NA
ATOM     25  H   UNL     1     -49.444  41.762  27.494  1.00  0.00     0.106 H 
BRANCH  19  26
ATOM     26  N   UNL     1     -45.573  42.494  25.594  1.00  0.00    -0.373 N 
ATOM     27  H   UNL     1     -45.944  42.571  24.647  1.00  0.00     0.161 HD
BRANCH  26  28
ATOM     28  C   UNL     1     -44.190  42.049  25.595  1.00  0.00     0.005 C 
ATOM     29  H   UNL     1     -43.969  41.417  26.460  1.00  0.00     0.045 H 
ATOM     30  H   UNL     1     -43.941  41.508  24.675  1.00  0.00     0.045 H 
ATOM     31  H   UNL     1     -43.534  42.924  25.655  1.00  0.00     0.045 H 
ENDBRANCH  26  28
ENDBRANCH  19  26
ENDBRANCH   5  18
BRANCH   4  32
ATOM     32  O   UNL     1     -46.306  35.176  29.948  1.00  0.00    -0.388 OA
ATOM     33  H   UNL     1     -46.798  34.344  30.055  1.00  0.00     0.211 HD
ENDBRANCH   4  32
ENDBRANCH   1   4
BRANCH   1  34
ATOM     34  N   UNL     1     -45.984  34.143  26.359  1.00  0.00    -0.367 N 
ATOM     35  H   UNL     1     -45.097  34.101  25.862  1.00  0.00     0.162 HD
BRANCH  34  36
ATOM     36  C   UNL     1     -46.813  33.225  25.744  1.00  0.00     0.125 A 
ATOM     37  C   UNL     1     -48.181  33.154  25.977  1.00  0.00    -0.019 A 
ATOM     38  N   UNL     1     -46.193  32.399  24.884  1.00  0.00    -0.239 NA
ATOM     39  C   UNL     1     -48.928  32.153  25.356  1.00  0.00    -0.053 A 
ATOM     40  H   UNL     1     -48.671  33.862  26.633  1.00  0.00     0.066 H 
ATOM     41  C   UNL     1     -46.933  31.430  24.296  1.00  0.00     0.034 A 
ATOM     42  C   UNL     1     -48.294  31.248  24.507  1.00  0.00    -0.015 A 
ATOM     43  H   UNL     1     -49.995  32.083  25.548  1.00  0.00     0.063 H 
ATOM     44  H   UNL     1     -46.377  30.765  23.639  1.00  0.00     0.084 H 
BRANCH  42  45
ATOM     45  C   UNL     1     -49.043  30.127  23.832  1.00  0.00     0.025 C 
ATOM     46  H   UNL     1     -48.628  30.042  22.819  1.00  0.00     0.048 H 
ATOM     47  H   UNL     1     -50.101  30.391  23.711  1.00  0.00     0.048 H 
BRANCH  45  48
ATOM     48  N   UNL     1     -48.913  28.843  24.534  1.00  0.00    -0.299 NA
ATOM     49  C   UNL     1     -48.484  29.019  25.918  1.00  0.00    -0.001 C 
ATOM     50  C   UNL     1     -48.049  27.893  23.809  1.00  0.00    -0.001 C 
ATOM     51  C   UNL     1     -48.656  27.711  26.706  1.00  0.00    -0.035 C 
ATOM     52  H   UNL     1     -49.086  29.788  26.417  1.00  0.00     0.043 H 
ATOM     53  H   UNL     1     -47.441  29.359  25.964  1.00  0.00     0.043 H 
ATOM     54  C   UNL     1     -47.371  26.851  24.712  1.00  0.00    -0.035 C 
ATOM     55  H   UNL     1     -47.254  28.415  23.261  1.00  0.00     0.043 H 
ATOM     56  H   UNL     1     -48.658  27.369  23.062  1.00  0.00     0.043 H 
ATOM     57  C   UNL     1     -48.237  26.444  25.918  1.00  0.00    -0.033 C 
ATOM     58  H   UNL     1     -49.702  27.622  27.029  1.00  0.00     0.029 H 
ATOM     59  H   UNL     1     -48.069  27.805  27.629  1.00  0.00     0.029 H 
ATOM     60  H   UNL     1     -47.103  25.973  24.111  1.00  0.00     0.029 H 
ATOM     61  H   UNL     1     -46.423  27.272  25.077  1.00  0.00     0.029 H 
BRANCH  57  62
ATOM     62  C   UNL     1     -47.431  25.505  26.832  1.00  0.00    -0.060 C 
ATOM     63  H   UNL     1     -46.851  24.782  26.246  1.00  0.00     0.024 H 
ATOM     64  H   UNL     1     -48.091  24.937  27.497  1.00  0.00     0.024 H 
ATOM     65  H   UNL     1     -46.728  26.068  27.456  1.00  0.00     0.024 H 
ENDBRANCH  57  62
BRANCH  57  66
ATOM     66  C   UNL     1     -49.488  25.678  25.439  1.00  0.00    -0.060 C 
ATOM     67  H   UNL     1     -49.253  25.040  24.579  1.00  0.00     0.024 H 
ATOM     68  H   UNL     1     -49.900  25.031  26.220  1.00  0.00     0.024 H 
ATOM     69  H   UNL     1     -50.275  26.373  25.130  1.00  0.00     0.024 H 
ENDBRANCH  57  66
ENDBRANCH  45  48
ENDBRANCH  42  45
ENDBRANCH  34  36
ENDBRANCH   1  34
TORSDOF 11
ENDMDL
MODEL 6
REMARK VINA RESULT:      -8.7      2.762     12.018
REMARK SMILES CNc1cc(N2CCC(O)(CNc3ccc(CN4CCC(C)(C)CC4)cn3)CC2)ncn1
REMARK SMILES IDX 11 1 9 4 6 5 7 6 29 7 8 8 28 11 5 18 3 19 4 20 32 21 31 23
REMARK SMILES IDX 30 24 2 26 1 28 10 32 12 34 13 36 14 37 27 38 15 39 26 41
REMARK SMILES IDX 16 42 17 45 18 48 19 49 25 50 20 51 24 54 21 57 22 62 23 66
REMARK H PARENT 11 2 11 3 7 9 7 10 29 12 29 13 8 14 8 15 28 16 28 17 4 22
REMARK H PARENT 31 25 2 27 1 29 1 30 1 31 10 33 12 35 14 40 15 43 26 44 17 46
REMARK H PARENT 17 47 19 52 19 53 25 55 25 56 20 58 20 59 24 60 24 61 22 63
REMARK H PARENT 22 64 22 65 23 67 23 68 23 69
REMARK Flexibility Score: inf
ROOT
ATOM      1  C   UNL     1     -44.991  37.431  28.957  1.00  0.00     0.045 C 
ATOM      2  H   UNL     1     -44.254  37.342  28.149  1.00  0.00     0.052 H 
ATOM      3  H   UNL     1     -44.534  36.880  29.789  1.00  0.00     0.052 H 
ENDROOT
BRANCH   1   4
ATOM      4  C   UNL     1     -46.288  36.703  28.490  1.00  0.00     0.085 C 
ATOM      5  N   UNL     1     -46.788  34.300  26.857  1.00  0.00    -0.356 N 
ATOM      6  C   UNL     1     -47.394  35.582  26.514  1.00  0.00     0.022 C 
ATOM      7  C   UNL     1     -46.090  34.167  28.134  1.00  0.00     0.022 C 
ATOM      8  C   UNL     1     -46.459  36.705  26.963  1.00  0.00    -0.005 C 
ATOM      9  H   UNL     1     -48.382  35.677  26.982  1.00  0.00     0.049 H 
ATOM     10  H   UNL     1     -47.527  35.685  25.430  1.00  0.00     0.049 H 
ATOM     11  C   UNL     1     -46.459  35.296  29.094  1.00  0.00    -0.005 C 
ATOM     12  H   UNL     1     -45.013  34.144  27.958  1.00  0.00     0.049 H 
ATOM     13  H   UNL     1     -46.356  33.225  28.629  1.00  0.00     0.049 H 
ATOM     14  H   UNL     1     -45.502  36.558  26.456  1.00  0.00     0.031 H 
ATOM     15  H   UNL     1     -46.862  37.664  26.618  1.00  0.00     0.031 H 
ATOM     16  H   UNL     1     -45.888  35.197  30.025  1.00  0.00     0.031 H 
ATOM     17  H   UNL     1     -47.508  35.153  29.392  1.00  0.00     0.031 H 
BRANCH   5  18
ATOM     18  C   UNL     1     -47.118  33.191  26.094  1.00  0.00     0.134 A 
ATOM     19  C   UNL     1     -46.654  31.567  24.419  1.00  0.00     0.131 A 
ATOM     20  C   UNL     1     -46.256  32.681  25.136  1.00  0.00     0.023 A 
ATOM     21  N   UNL     1     -47.844  30.991  24.598  1.00  0.00    -0.219 NA
ATOM     22  H   UNL     1     -45.313  33.158  24.915  1.00  0.00     0.070 H 
ATOM     23  C   UNL     1     -48.622  31.554  25.529  1.00  0.00     0.120 A 
ATOM     24  N   UNL     1     -48.320  32.619  26.284  1.00  0.00    -0.219 NA
ATOM     25  H   UNL     1     -49.595  31.105  25.689  1.00  0.00     0.106 H 
BRANCH  19  26
ATOM     26  N   UNL     1     -45.855  30.995  23.423  1.00  0.00    -0.373 N 
ATOM     27  H   UNL     1     -45.034  31.597  23.382  1.00  0.00     0.161 HD
BRANCH  26  28
ATOM     28  C   UNL     1     -46.502  30.875  22.128  1.00  0.00     0.005 C 
ATOM     29  H   UNL     1     -47.004  31.803  21.838  1.00  0.00     0.045 H 
ATOM     30  H   UNL     1     -45.788  30.588  21.347  1.00  0.00     0.045 H 
ATOM     31  H   UNL     1     -47.267  30.094  22.183  1.00  0.00     0.045 H 
ENDBRANCH  26  28
ENDBRANCH  19  26
ENDBRANCH   5  18
BRANCH   4  32
ATOM     32  O   UNL     1     -47.392  37.479  29.032  1.00  0.00    -0.388 OA
ATOM     33  H   UNL     1     -47.025  38.237  29.520  1.00  0.00     0.211 HD
ENDBRANCH   4  32
ENDBRANCH   1   4
BRANCH   1  34
ATOM     34  N   UNL     1     -45.097  38.855  29.253  1.00  0.00    -0.367 N 
ATOM     35  H   UNL     1     -44.873  39.104  30.214  1.00  0.00     0.162 HD
BRANCH  34  36
ATOM     36  C   UNL     1     -44.460  39.784  28.455  1.00  0.00     0.125 A 
ATOM     37  C   UNL     1     -44.817  40.031  27.135  1.00  0.00    -0.019 A 
ATOM     38  N   UNL     1     -43.460  40.449  29.059  1.00  0.00    -0.239 NA
ATOM     39  C   UNL     1     -44.075  40.946  26.387  1.00  0.00    -0.053 A 
ATOM     40  H   UNL     1     -45.659  39.524  26.682  1.00  0.00     0.066 H 
ATOM     41  C   UNL     1     -42.748  41.327  28.315  1.00  0.00     0.034 A 
ATOM     42  C   UNL     1     -42.996  41.602  26.977  1.00  0.00    -0.015 A 
ATOM     43  H   UNL     1     -44.340  41.130  25.350  1.00  0.00     0.063 H 
ATOM     44  H   UNL     1     -41.926  41.810  28.840  1.00  0.00     0.084 H 
BRANCH  42  45
ATOM     45  C   UNL     1     -42.139  42.577  26.210  1.00  0.00     0.025 C 
ATOM     46  H   UNL     1     -41.379  41.979  25.689  1.00  0.00     0.048 H 
ATOM     47  H   UNL     1     -41.595  43.235  26.900  1.00  0.00     0.048 H 
BRANCH  45  48
ATOM     48  N   UNL     1     -42.901  43.373  25.238  1.00  0.00    -0.299 NA
ATOM     49  C   UNL     1     -42.081  43.770  24.097  1.00  0.00    -0.001 C 
ATOM     50  C   UNL     1     -43.568  44.531  25.862  1.00  0.00    -0.001 C 
ATOM     51  C   UNL     1     -42.962  44.322  22.966  1.00  0.00    -0.035 C 
ATOM     52  H   UNL     1     -41.530  42.910  23.697  1.00  0.00     0.043 H 
ATOM     53  H   UNL     1     -41.330  44.513  24.395  1.00  0.00     0.043 H 
ATOM     54  C   UNL     1     -43.819  45.701  24.899  1.00  0.00    -0.035 C 
ATOM     55  H   UNL     1     -42.983  44.923  26.704  1.00  0.00     0.043 H 
ATOM     56  H   UNL     1     -44.530  44.199  26.272  1.00  0.00     0.043 H 
ATOM     57  C   UNL     1     -44.109  45.243  23.457  1.00  0.00    -0.033 C 
ATOM     58  H   UNL     1     -43.378  43.483  22.392  1.00  0.00     0.029 H 
ATOM     59  H   UNL     1     -42.305  44.860  22.271  1.00  0.00     0.029 H 
ATOM     60  H   UNL     1     -44.642  46.316  25.284  1.00  0.00     0.029 H 
ATOM     61  H   UNL     1     -42.930  46.348  24.897  1.00  0.00     0.029 H 
BRANCH  57  62
ATOM     62  C   UNL     1     -44.215  46.475  22.542  1.00  0.00    -0.060 C 
ATOM     63  H   UNL     1     -45.226  46.579  22.131  1.00  0.00     0.024 H 
ATOM     64  H   UNL     1     -43.521  46.402  21.697  1.00  0.00     0.024 H 
ATOM     65  H   UNL     1     -43.981  47.396  23.089  1.00  0.00     0.024 H 
ENDBRANCH  57  62
BRANCH  57  66
ATOM     66  C   UNL     1     -45.456  44.494  23.398  1.00  0.00    -0.060 C 
ATOM     67  H   UNL     1     -46.220  45.011  23.990  1.00  0.00     0.024 H 
ATOM     68  H   UNL     1     -45.838  44.411  22.376  1.00  0.00     0.024 H 
ATOM     69  H   UNL     1     -45.355  43.481  23.802  1.00  0.00     0.024 H 
ENDBRANCH  57  66
ENDBRANCH  45  48
ENDBRANCH  42  45
ENDBRANCH  34  36
ENDBRANCH   1  34
TORSDOF 11
ENDMDL
