MODEL 1
REMARK VINA RESULT:     -10.7      0.000      0.000
REMARK SMILES CNc1ccc2ccc(OC[C@H]3O[C@@H](n4cc(-c5ccccn5)c5c(N)ncnc54)[C@@H](F)[C@@H]3O)cc2n1
REMARK SMILES IDX 11 1 10 4 9 5 3 6 4 7 37 8 5 9 36 11 6 12 35 14 7 15 8 17
REMARK SMILES IDX 2 20 1 22 12 26 13 27 33 28 14 30 31 31 32 34 34 36 15 38
REMARK SMILES IDX 16 39 30 40 17 41 24 43 29 44 25 45 28 46 27 47 18 49 19 50
REMARK SMILES IDX 23 51 20 52 22 54 21 55 26 59
REMARK H PARENT 11 2 11 3 4 10 5 13 35 16 7 18 8 19 2 21 1 23 1 24 1 25 12 29
REMARK H PARENT 33 32 14 33 31 35 34 37 16 42 28 48 19 53 20 56 22 57 21 58
REMARK H PARENT 26 60 26 61
REMARK Flexibility Score: inf
ROOT
ATOM      1  C   UNL     1     -47.765  36.453  27.343  1.00  0.00     0.117 C 
ATOM      2  H   UNL     1     -47.422  36.773  26.352  1.00  0.00     0.073 H 
ATOM      3  H   UNL     1     -48.394  37.234  27.788  1.00  0.00     0.073 H 
ENDROOT
BRANCH   1   4
ATOM      4  O   UNL     1     -48.493  35.235  27.196  1.00  0.00    -0.491 OA
BRANCH   4   5
ATOM      5  C   UNL     1     -47.952  34.290  26.373  1.00  0.00     0.121 A 
ATOM      6  C   UNL     1     -48.844  30.128  24.244  1.00  0.00     0.126 A 
ATOM      7  C   UNL     1     -47.609  30.140  23.605  1.00  0.00    -0.019 A 
ATOM      8  N   UNL     1     -49.219  31.126  25.067  1.00  0.00    -0.231 NA
ATOM      9  C   UNL     1     -46.728  31.193  23.837  1.00  0.00    -0.049 A 
ATOM     10  H   UNL     1     -47.335  29.342  22.923  1.00  0.00     0.066 H 
ATOM     11  C   UNL     1     -48.375  32.148  25.295  1.00  0.00     0.076 A 
ATOM     12  C   UNL     1     -47.106  32.229  24.695  1.00  0.00     0.001 A 
ATOM     13  H   UNL     1     -45.764  31.202  23.338  1.00  0.00     0.063 H 
ATOM     14  C   UNL     1     -48.766  33.179  26.138  1.00  0.00     0.007 A 
ATOM     15  C   UNL     1     -46.265  33.324  24.956  1.00  0.00    -0.049 A 
ATOM     16  H   UNL     1     -49.745  33.129  26.610  1.00  0.00     0.069 H 
ATOM     17  C   UNL     1     -46.689  34.353  25.796  1.00  0.00    -0.019 A 
ATOM     18  H   UNL     1     -45.278  33.383  24.501  1.00  0.00     0.063 H 
ATOM     19  H   UNL     1     -46.016  35.183  25.988  1.00  0.00     0.066 H 
BRANCH   6  20
ATOM     20  N   UNL     1     -49.726  29.070  23.956  1.00  0.00    -0.373 N 
ATOM     21  H   UNL     1     -49.603  28.344  24.657  1.00  0.00     0.161 HD
BRANCH  20  22
ATOM     22  C   UNL     1     -51.120  29.473  23.849  1.00  0.00     0.005 C 
ATOM     23  H   UNL     1     -51.641  29.196  24.771  1.00  0.00     0.045 H 
ATOM     24  H   UNL     1     -51.219  30.558  23.727  1.00  0.00     0.045 H 
ATOM     25  H   UNL     1     -51.627  28.962  23.023  1.00  0.00     0.045 H 
ENDBRANCH  20  22
ENDBRANCH   6  20
ENDBRANCH   4   5
ENDBRANCH   1   4
BRANCH   1  26
ATOM     26  C   UNL     1     -46.554  36.232  28.259  1.00  0.00     0.123 C 
ATOM     27  O   UNL     1     -45.455  37.033  27.769  1.00  0.00    -0.345 OA
ATOM     28  C   UNL     1     -46.779  36.600  29.730  1.00  0.00     0.119 C 
ATOM     29  H   UNL     1     -46.239  35.187  28.163  1.00  0.00     0.067 H 
ATOM     30  C   UNL     1     -45.011  37.889  28.845  1.00  0.00     0.169 C 
ATOM     31  C   UNL     1     -46.119  37.953  29.881  1.00  0.00     0.173 C 
ATOM     32  H   UNL     1     -47.836  36.609  30.016  1.00  0.00     0.066 H 
ATOM     33  H   UNL     1     -44.117  37.408  29.259  1.00  0.00     0.088 H 
ATOM     34  F   UNL     1     -47.027  38.924  29.589  1.00  0.00    -0.239 F 
ATOM     35  H   UNL     1     -45.732  38.153  30.885  1.00  0.00     0.074 H 
BRANCH  28  36
ATOM     36  O   UNL     1     -46.105  35.663  30.582  1.00  0.00    -0.387 OA
ATOM     37  H   UNL     1     -45.380  35.262  30.071  1.00  0.00     0.211 HD
ENDBRANCH  28  36
BRANCH  30  38
ATOM     38  N   UNL     1     -44.617  39.187  28.324  1.00  0.00    -0.302 N 
ATOM     39  C   UNL     1     -45.182  39.864  27.270  1.00  0.00     0.019 A 
ATOM     40  C   UNL     1     -43.602  39.937  28.858  1.00  0.00     0.148 A 
ATOM     41  C   UNL     1     -44.518  41.072  27.120  1.00  0.00     0.031 A 
ATOM     42  H   UNL     1     -46.001  39.426  26.713  1.00  0.00     0.083 H 
ATOM     43  C   UNL     1     -43.504  41.117  28.132  1.00  0.00     0.071 A 
ATOM     44  N   UNL     1     -42.843  39.573  29.908  1.00  0.00    -0.218 NA
ATOM     45  C   UNL     1     -42.507  42.018  28.544  1.00  0.00     0.137 A 
ATOM     46  C   UNL     1     -41.921  40.507  30.194  1.00  0.00     0.120 A 
ATOM     47  N   UNL     1     -41.707  41.683  29.577  1.00  0.00    -0.219 NA
ATOM     48  H   UNL     1     -41.262  40.286  31.028  1.00  0.00     0.106 H 
BRANCH  41  49
ATOM     49  C   UNL     1     -44.842  42.045  26.083  1.00  0.00     0.073 A 
ATOM     50  C   UNL     1     -44.086  42.145  24.920  1.00  0.00    -0.036 A 
ATOM     51  N   UNL     1     -45.922  42.834  26.323  1.00  0.00    -0.256 NA
ATOM     52  C   UNL     1     -44.437  43.096  23.965  1.00  0.00    -0.059 A 
ATOM     53  H   UNL     1     -43.244  41.488  24.735  1.00  0.00     0.065 H 
ATOM     54  C   UNL     1     -46.230  43.754  25.379  1.00  0.00     0.027 A 
ATOM     55  C   UNL     1     -45.528  43.921  24.198  1.00  0.00    -0.044 A 
ATOM     56  H   UNL     1     -43.861  43.179  23.046  1.00  0.00     0.062 H 
ATOM     57  H   UNL     1     -47.092  44.377  25.606  1.00  0.00     0.084 H 
ATOM     58  H   UNL     1     -45.826  44.671  23.475  1.00  0.00     0.064 H 
ENDBRANCH  41  49
BRANCH  45  59
ATOM     59  N   UNL     1     -42.280  43.245  27.935  1.00  0.00    -0.383 N 
ATOM     60  H   UNL     1     -41.294  43.513  27.979  1.00  0.00     0.158 HD
ATOM     61  H   UNL     1     -42.949  43.934  28.248  1.00  0.00     0.158 HD
ENDBRANCH  45  59
ENDBRANCH  30  38
ENDBRANCH   1  26
TORSDOF 9
ENDMDL
MODEL 2
REMARK VINA RESULT:     -10.0      1.538      2.131
REMARK SMILES CNc1ccc2ccc(OC[C@H]3O[C@@H](n4cc(-c5ccccn5)c5c(N)ncnc54)[C@@H](F)[C@@H]3O)cc2n1
REMARK SMILES IDX 11 1 10 4 9 5 3 6 4 7 37 8 5 9 36 11 6 12 35 14 7 15 8 17
REMARK SMILES IDX 2 20 1 22 12 26 13 27 33 28 14 30 31 31 32 34 34 36 15 38
REMARK SMILES IDX 16 39 30 40 17 41 24 43 29 44 25 45 28 46 27 47 18 49 19 50
REMARK SMILES IDX 23 51 20 52 22 54 21 55 26 59
REMARK H PARENT 11 2 11 3 4 10 5 13 35 16 7 18 8 19 2 21 1 23 1 24 1 25 12 29
REMARK H PARENT 33 32 14 33 31 35 34 37 16 42 28 48 19 53 20 56 22 57 21 58
REMARK H PARENT 26 60 26 61
REMARK Flexibility Score: inf
ROOT
ATOM      1  C   UNL     1     -45.618  35.162  27.269  1.00  0.00     0.117 C 
ATOM      2  H   UNL     1     -45.449  34.125  27.581  1.00  0.00     0.073 H 
ATOM      3  H   UNL     1     -44.656  35.652  27.076  1.00  0.00     0.073 H 
ENDROOT
BRANCH   1   4
ATOM      4  O   UNL     1     -46.430  35.153  26.096  1.00  0.00    -0.491 OA
BRANCH   4   5
ATOM      5  C   UNL     1     -47.027  33.970  25.770  1.00  0.00     0.121 A 
ATOM      6  C   UNL     1     -46.567  30.088  23.055  1.00  0.00     0.126 A 
ATOM      7  C   UNL     1     -47.724  29.528  23.583  1.00  0.00    -0.019 A 
ATOM      8  N   UNL     1     -46.125  31.296  23.455  1.00  0.00    -0.231 NA
ATOM      9  C   UNL     1     -48.459  30.237  24.529  1.00  0.00    -0.049 A 
ATOM     10  H   UNL     1     -48.049  28.541  23.271  1.00  0.00     0.066 H 
ATOM     11  C   UNL     1     -46.827  31.988  24.370  1.00  0.00     0.076 A 
ATOM     12  C   UNL     1     -48.012  31.494  24.945  1.00  0.00     0.001 A 
ATOM     13  H   UNL     1     -49.363  29.799  24.942  1.00  0.00     0.063 H 
ATOM     14  C   UNL     1     -46.367  33.229  24.786  1.00  0.00     0.007 A 
ATOM     15  C   UNL     1     -48.704  32.250  25.907  1.00  0.00    -0.049 A 
ATOM     16  H   UNL     1     -45.452  33.623  24.350  1.00  0.00     0.069 H 
ATOM     17  C   UNL     1     -48.211  33.489  26.317  1.00  0.00    -0.019 A 
ATOM     18  H   UNL     1     -49.626  31.875  26.344  1.00  0.00     0.063 H 
ATOM     19  H   UNL     1     -48.770  34.056  27.055  1.00  0.00     0.066 H 
BRANCH   6  20
ATOM     20  N   UNL     1     -45.827  29.327  22.131  1.00  0.00    -0.373 N 
ATOM     21  H   UNL     1     -45.761  29.846  21.261  1.00  0.00     0.161 HD
BRANCH  20  22
ATOM     22  C   UNL     1     -44.513  28.925  22.611  1.00  0.00     0.005 C 
ATOM     23  H   UNL     1     -44.627  28.420  23.575  1.00  0.00     0.045 H 
ATOM     24  H   UNL     1     -44.030  28.220  21.924  1.00  0.00     0.045 H 
ATOM     25  H   UNL     1     -43.859  29.789  22.772  1.00  0.00     0.045 H 
ENDBRANCH  20  22
ENDBRANCH   6  20
ENDBRANCH   4   5
ENDBRANCH   1   4
BRANCH   1  26
ATOM     26  C   UNL     1     -46.330  35.927  28.393  1.00  0.00     0.123 C 
ATOM     27  O   UNL     1     -45.499  37.042  28.787  1.00  0.00    -0.345 OA
ATOM     28  C   UNL     1     -47.711  36.482  28.025  1.00  0.00     0.119 C 
ATOM     29  H   UNL     1     -46.395  35.268  29.266  1.00  0.00     0.067 H 
ATOM     30  C   UNL     1     -46.280  38.250  28.656  1.00  0.00     0.169 C 
ATOM     31  C   UNL     1     -47.462  37.949  27.751  1.00  0.00     0.173 C 
ATOM     32  H   UNL     1     -48.172  35.965  27.177  1.00  0.00     0.066 H 
ATOM     33  H   UNL     1     -46.618  38.497  29.670  1.00  0.00     0.088 H 
ATOM     34  F   UNL     1     -47.144  38.108  26.438  1.00  0.00    -0.239 F 
ATOM     35  H   UNL     1     -48.319  38.596  27.965  1.00  0.00     0.074 H 
BRANCH  28  36
ATOM     36  O   UNL     1     -48.603  36.368  29.143  1.00  0.00    -0.387 OA
ATOM     37  H   UNL     1     -49.059  37.222  29.249  1.00  0.00     0.211 HD
ENDBRANCH  28  36
BRANCH  30  38
ATOM     38  N   UNL     1     -45.444  39.341  28.188  1.00  0.00    -0.302 N 
ATOM     39  C   UNL     1     -45.698  40.189  27.138  1.00  0.00     0.019 A 
ATOM     40  C   UNL     1     -44.254  39.686  28.777  1.00  0.00     0.148 A 
ATOM     41  C   UNL     1     -44.654  41.098  27.046  1.00  0.00     0.031 A 
ATOM     42  H   UNL     1     -46.595  40.071  26.541  1.00  0.00     0.083 H 
ATOM     43  C   UNL     1     -43.728  40.773  28.090  1.00  0.00     0.071 A 
ATOM     44  N   UNL     1     -43.710  39.065  29.838  1.00  0.00    -0.218 NA
ATOM     45  C   UNL     1     -42.500  41.267  28.560  1.00  0.00     0.137 A 
ATOM     46  C   UNL     1     -42.536  39.618  30.181  1.00  0.00     0.120 A 
ATOM     47  N   UNL     1     -41.906  40.660  29.608  1.00  0.00    -0.219 NA
ATOM     48  H   UNL     1     -42.027  39.169  31.029  1.00  0.00     0.106 H 
BRANCH  41  49
ATOM     49  C   UNL     1     -44.582  42.140  26.029  1.00  0.00     0.073 A 
ATOM     50  C   UNL     1     -44.048  41.890  24.769  1.00  0.00    -0.036 A 
ATOM     51  N   UNL     1     -45.070  43.357  26.387  1.00  0.00    -0.256 NA
ATOM     52  C   UNL     1     -43.999  42.924  23.838  1.00  0.00    -0.059 A 
ATOM     53  H   UNL     1     -43.689  40.905  24.493  1.00  0.00     0.065 H 
ATOM     54  C   UNL     1     -44.998  44.343  25.463  1.00  0.00     0.027 A 
ATOM     55  C   UNL     1     -44.478  44.178  24.190  1.00  0.00    -0.044 A 
ATOM     56  H   UNL     1     -43.594  42.741  22.845  1.00  0.00     0.062 H 
ATOM     57  H   UNL     1     -45.386  45.306  25.784  1.00  0.00     0.084 H 
ATOM     58  H   UNL     1     -44.453  45.003  23.488  1.00  0.00     0.064 H 
ENDBRANCH  41  49
BRANCH  45  59
ATOM     59  N   UNL     1     -41.840  42.351  27.996  1.00  0.00    -0.383 N 
ATOM     60  H   UNL     1     -41.075  42.054  27.387  1.00  0.00     0.158 HD
ATOM     61  H   UNL     1     -41.615  43.044  28.697  1.00  0.00     0.158 HD
ENDBRANCH  45  59
ENDBRANCH  30  38
ENDBRANCH   1  26
TORSDOF 9
ENDMDL
MODEL 3
REMARK VINA RESULT:      -9.1      3.845      5.881
REMARK SMILES CNc1ccc2ccc(OC[C@H]3O[C@@H](n4cc(-c5ccccn5)c5c(N)ncnc54)[C@@H](F)[C@@H]3O)cc2n1
REMARK SMILES IDX 11 1 10 4 9 5 3 6 4 7 37 8 5 9 36 11 6 12 35 14 7 15 8 17
REMARK SMILES IDX 2 20 1 22 12 26 13 27 33 28 14 30 31 31 32 34 34 36 15 38
REMARK SMILES IDX 16 39 30 40 17 41 24 43 29 44 25 45 28 46 27 47 18 49 19 50
REMARK SMILES IDX 23 51 20 52 22 54 21 55 26 59
REMARK H PARENT 11 2 11 3 4 10 5 13 35 16 7 18 8 19 2 21 1 23 1 24 1 25 12 29
REMARK H PARENT 33 32 14 33 31 35 34 37 16 42 28 48 19 53 20 56 22 57 21 58
REMARK H PARENT 26 60 26 61
REMARK Flexibility Score: inf
ROOT
ATOM      1  C   UNL     1     -47.583  36.291  27.332  1.00  0.00     0.117 C 
ATOM      2  H   UNL     1     -47.496  35.570  26.511  1.00  0.00     0.073 H 
ATOM      3  H   UNL     1     -47.565  37.312  26.931  1.00  0.00     0.073 H 
ENDROOT
BRANCH   1   4
ATOM      4  O   UNL     1     -48.803  36.037  28.026  1.00  0.00    -0.491 OA
BRANCH   4   5
ATOM      5  C   UNL     1     -49.781  36.984  27.916  1.00  0.00     0.121 A 
ATOM      6  C   UNL     1     -50.560  41.679  27.935  1.00  0.00     0.126 A 
ATOM      7  C   UNL     1     -51.913  41.500  27.677  1.00  0.00    -0.019 A 
ATOM      8  N   UNL     1     -49.723  40.630  28.058  1.00  0.00    -0.231 NA
ATOM      9  C   UNL     1     -52.425  40.210  27.565  1.00  0.00    -0.049 A 
ATOM     10  H   UNL     1     -52.568  42.357  27.552  1.00  0.00     0.066 H 
ATOM     11  C   UNL     1     -50.207  39.381  27.949  1.00  0.00     0.076 A 
ATOM     12  C   UNL     1     -51.566  39.116  27.698  1.00  0.00     0.001 A 
ATOM     13  H   UNL     1     -53.483  40.071  27.363  1.00  0.00     0.063 H 
ATOM     14  C   UNL     1     -49.343  38.302  28.070  1.00  0.00     0.007 A 
ATOM     15  C   UNL     1     -52.022  37.792  27.581  1.00  0.00    -0.049 A 
ATOM     16  H   UNL     1     -48.290  38.492  28.264  1.00  0.00     0.069 H 
ATOM     17  C   UNL     1     -51.128  36.727  27.692  1.00  0.00    -0.019 A 
ATOM     18  H   UNL     1     -53.074  37.585  27.397  1.00  0.00     0.063 H 
ATOM     19  H   UNL     1     -51.509  35.713  27.606  1.00  0.00     0.066 H 
BRANCH   6  20
ATOM     20  N   UNL     1     -50.069  42.996  28.002  1.00  0.00    -0.373 N 
ATOM     21  H   UNL     1     -49.802  43.292  27.068  1.00  0.00     0.161 HD
BRANCH  20  22
ATOM     22  C   UNL     1     -50.990  43.942  28.616  1.00  0.00     0.005 C 
ATOM     23  H   UNL     1     -51.594  43.415  29.361  1.00  0.00     0.045 H 
ATOM     24  H   UNL     1     -50.456  44.748  29.133  1.00  0.00     0.045 H 
ATOM     25  H   UNL     1     -51.679  44.370  27.881  1.00  0.00     0.045 H 
ENDBRANCH  20  22
ENDBRANCH   6  20
ENDBRANCH   4   5
ENDBRANCH   1   4
BRANCH   1  26
ATOM     26  C   UNL     1     -46.393  36.129  28.287  1.00  0.00     0.123 C 
ATOM     27  O   UNL     1     -45.309  36.960  27.815  1.00  0.00    -0.345 OA
ATOM     28  C   UNL     1     -46.675  36.514  29.744  1.00  0.00     0.119 C 
ATOM     29  H   UNL     1     -46.039  35.094  28.219  1.00  0.00     0.067 H 
ATOM     30  C   UNL     1     -44.928  37.851  28.887  1.00  0.00     0.169 C 
ATOM     31  C   UNL     1     -46.069  37.892  29.890  1.00  0.00     0.173 C 
ATOM     32  H   UNL     1     -47.739  36.490  29.998  1.00  0.00     0.066 H 
ATOM     33  H   UNL     1     -44.030  37.409  29.336  1.00  0.00     0.088 H 
ATOM     34  F   UNL     1     -47.000  38.825  29.553  1.00  0.00    -0.239 F 
ATOM     35  H   UNL     1     -45.719  38.124  30.901  1.00  0.00     0.074 H 
BRANCH  28  36
ATOM     36  O   UNL     1     -45.994  35.617  30.633  1.00  0.00    -0.387 OA
ATOM     37  H   UNL     1     -46.200  35.886  31.545  1.00  0.00     0.211 HD
ENDBRANCH  28  36
BRANCH  30  38
ATOM     38  N   UNL     1     -44.565  39.152  28.355  1.00  0.00    -0.302 N 
ATOM     39  C   UNL     1     -45.150  39.809  27.299  1.00  0.00     0.019 A 
ATOM     40  C   UNL     1     -43.563  39.928  28.878  1.00  0.00     0.148 A 
ATOM     41  C   UNL     1     -44.513  41.031  27.137  1.00  0.00     0.031 A 
ATOM     42  H   UNL     1     -45.962  39.350  26.750  1.00  0.00     0.083 H 
ATOM     43  C   UNL     1     -43.495  41.105  28.142  1.00  0.00     0.071 A 
ATOM     44  N   UNL     1     -42.791  39.589  29.926  1.00  0.00    -0.218 NA
ATOM     45  C   UNL     1     -42.515  42.029  28.542  1.00  0.00     0.137 A 
ATOM     46  C   UNL     1     -41.888  40.544  30.200  1.00  0.00     0.120 A 
ATOM     47  N   UNL     1     -41.703  41.720  29.573  1.00  0.00    -0.219 NA
ATOM     48  H   UNL     1     -41.220  40.343  31.032  1.00  0.00     0.106 H 
BRANCH  41  49
ATOM     49  C   UNL     1     -44.863  41.988  26.095  1.00  0.00     0.073 A 
ATOM     50  C   UNL     1     -46.070  42.679  26.119  1.00  0.00    -0.036 A 
ATOM     51  N   UNL     1     -43.941  42.163  25.111  1.00  0.00    -0.256 NA
ATOM     52  C   UNL     1     -46.356  43.578  25.095  1.00  0.00    -0.059 A 
ATOM     53  H   UNL     1     -46.781  42.546  26.927  1.00  0.00     0.065 H 
ATOM     54  C   UNL     1     -44.254  43.036  24.126  1.00  0.00     0.027 A 
ATOM     55  C   UNL     1     -45.434  43.759  24.074  1.00  0.00    -0.044 A 
ATOM     56  H   UNL     1     -47.291  44.133  25.105  1.00  0.00     0.062 H 
ATOM     57  H   UNL     1     -43.501  43.145  23.349  1.00  0.00     0.084 H 
ATOM     58  H   UNL     1     -45.627  44.451  23.262  1.00  0.00     0.064 H 
ENDBRANCH  41  49
BRANCH  45  59
ATOM     59  N   UNL     1     -42.318  43.257  27.923  1.00  0.00    -0.383 N 
ATOM     60  H   UNL     1     -42.311  43.170  26.904  1.00  0.00     0.158 HD
ATOM     61  H   UNL     1     -41.541  43.752  28.338  1.00  0.00     0.158 HD
ENDBRANCH  45  59
ENDBRANCH  30  38
ENDBRANCH   1  26
TORSDOF 9
ENDMDL
MODEL 4
REMARK VINA RESULT:      -8.9      1.985      2.752
REMARK SMILES CNc1ccc2ccc(OC[C@H]3O[C@@H](n4cc(-c5ccccn5)c5c(N)ncnc54)[C@@H](F)[C@@H]3O)cc2n1
REMARK SMILES IDX 11 1 10 4 9 5 3 6 4 7 37 8 5 9 36 11 6 12 35 14 7 15 8 17
REMARK SMILES IDX 2 20 1 22 12 26 13 27 33 28 14 30 31 31 32 34 34 36 15 38
REMARK SMILES IDX 16 39 30 40 17 41 24 43 29 44 25 45 28 46 27 47 18 49 19 50
REMARK SMILES IDX 23 51 20 52 22 54 21 55 26 59
REMARK H PARENT 11 2 11 3 4 10 5 13 35 16 7 18 8 19 2 21 1 23 1 24 1 25 12 29
REMARK H PARENT 33 32 14 33 31 35 34 37 16 42 28 48 19 53 20 56 22 57 21 58
REMARK H PARENT 26 60 26 61
REMARK Flexibility Score: inf
ROOT
ATOM      1  C   UNL     1     -46.797  37.109  26.337  1.00  0.00     0.117 C 
ATOM      2  H   UNL     1     -46.094  37.564  25.630  1.00  0.00     0.073 H 
ATOM      3  H   UNL     1     -47.790  37.034  25.877  1.00  0.00     0.073 H 
ENDROOT
BRANCH   1   4
ATOM      4  O   UNL     1     -46.305  35.819  26.696  1.00  0.00    -0.491 OA
BRANCH   4   5
ATOM      5  C   UNL     1     -47.066  34.747  26.329  1.00  0.00     0.121 A 
ATOM      6  C   UNL     1     -46.947  30.619  23.963  1.00  0.00     0.126 A 
ATOM      7  C   UNL     1     -48.267  30.339  24.296  1.00  0.00    -0.019 A 
ATOM      8  N   UNL     1     -46.343  31.752  24.372  1.00  0.00    -0.231 NA
ATOM      9  C   UNL     1     -48.993  31.258  25.048  1.00  0.00    -0.049 A 
ATOM     10  H   UNL     1     -48.728  29.408  23.983  1.00  0.00     0.066 H 
ATOM     11  C   UNL     1     -47.036  32.644  25.102  1.00  0.00     0.076 A 
ATOM     12  C   UNL     1     -48.378  32.440  25.471  1.00  0.00     0.001 A 
ATOM     13  H   UNL     1     -50.024  31.039  25.308  1.00  0.00     0.063 H 
ATOM     14  C   UNL     1     -46.411  33.807  25.528  1.00  0.00     0.007 A 
ATOM     15  C   UNL     1     -49.056  33.397  26.245  1.00  0.00    -0.049 A 
ATOM     16  H   UNL     1     -45.374  33.979  25.249  1.00  0.00     0.069 H 
ATOM     17  C   UNL     1     -48.399  34.551  26.671  1.00  0.00    -0.019 A 
ATOM     18  H   UNL     1     -50.097  33.245  26.522  1.00  0.00     0.063 H 
ATOM     19  H   UNL     1     -48.949  35.279  27.261  1.00  0.00     0.066 H 
BRANCH   6  20
ATOM     20  N   UNL     1     -46.230  29.650  23.236  1.00  0.00    -0.373 N 
ATOM     21  H   UNL     1     -46.864  28.898  22.982  1.00  0.00     0.161 HD
BRANCH  20  22
ATOM     22  C   UNL     1     -45.537  30.178  22.069  1.00  0.00     0.005 C 
ATOM     23  H   UNL     1     -44.462  30.015  22.192  1.00  0.00     0.045 H 
ATOM     24  H   UNL     1     -45.846  29.665  21.151  1.00  0.00     0.045 H 
ATOM     25  H   UNL     1     -45.692  31.256  21.959  1.00  0.00     0.045 H 
ENDBRANCH  20  22
ENDBRANCH   6  20
ENDBRANCH   4   5
ENDBRANCH   1   4
BRANCH   1  26
ATOM     26  C   UNL     1     -46.913  37.992  27.587  1.00  0.00     0.123 C 
ATOM     27  O   UNL     1     -45.727  38.812  27.682  1.00  0.00    -0.345 OA
ATOM     28  C   UNL     1     -48.129  38.926  27.609  1.00  0.00     0.119 C 
ATOM     29  H   UNL     1     -46.907  37.339  28.467  1.00  0.00     0.067 H 
ATOM     30  C   UNL     1     -46.143  40.195  27.733  1.00  0.00     0.169 C 
ATOM     31  C   UNL     1     -47.569  40.276  27.218  1.00  0.00     0.173 C 
ATOM     32  H   UNL     1     -48.939  38.596  26.951  1.00  0.00     0.066 H 
ATOM     33  H   UNL     1     -46.093  40.481  28.791  1.00  0.00     0.088 H 
ATOM     34  F   UNL     1     -47.609  40.397  25.864  1.00  0.00    -0.239 F 
ATOM     35  H   UNL     1     -48.112  41.126  27.643  1.00  0.00     0.074 H 
BRANCH  28  36
ATOM     36  O   UNL     1     -48.658  39.016  28.940  1.00  0.00    -0.387 OA
ATOM     37  H   UNL     1     -49.472  39.550  28.902  1.00  0.00     0.211 HD
ENDBRANCH  28  36
BRANCH  30  38
ATOM     38  N   UNL     1     -45.205  41.029  27.002  1.00  0.00    -0.302 N 
ATOM     39  C   UNL     1     -45.459  41.768  25.872  1.00  0.00     0.019 A 
ATOM     40  C   UNL     1     -43.898  41.204  27.379  1.00  0.00     0.148 A 
ATOM     41  C   UNL     1     -44.295  42.432  25.512  1.00  0.00     0.031 A 
ATOM     42  H   UNL     1     -46.441  41.753  25.416  1.00  0.00     0.083 H 
ATOM     43  C   UNL     1     -43.296  42.068  26.472  1.00  0.00     0.071 A 
ATOM     44  N   UNL     1     -43.320  40.630  28.449  1.00  0.00    -0.218 NA
ATOM     45  C   UNL     1     -41.943  42.365  26.705  1.00  0.00     0.137 A 
ATOM     46  C   UNL     1     -42.028  40.979  28.555  1.00  0.00     0.120 A 
ATOM     47  N   UNL     1     -41.316  41.792  27.753  1.00  0.00    -0.219 NA
ATOM     48  H   UNL     1     -41.486  40.552  29.393  1.00  0.00     0.106 H 
BRANCH  41  49
ATOM     49  C   UNL     1     -44.192  43.299  24.345  1.00  0.00     0.073 A 
ATOM     50  C   UNL     1     -45.234  44.141  23.971  1.00  0.00    -0.036 A 
ATOM     51  N   UNL     1     -43.022  43.235  23.656  1.00  0.00    -0.256 NA
ATOM     52  C   UNL     1     -45.084  44.944  22.844  1.00  0.00    -0.059 A 
ATOM     53  H   UNL     1     -46.150  44.197  24.549  1.00  0.00     0.065 H 
ATOM     54  C   UNL     1     -42.912  44.021  22.560  1.00  0.00     0.027 A 
ATOM     55  C   UNL     1     -43.902  44.882  22.119  1.00  0.00    -0.044 A 
ATOM     56  H   UNL     1     -45.886  45.615  22.545  1.00  0.00     0.062 H 
ATOM     57  H   UNL     1     -41.969  43.939  22.026  1.00  0.00     0.084 H 
ATOM     58  H   UNL     1     -43.755  45.494  21.237  1.00  0.00     0.064 H 
ENDBRANCH  41  49
BRANCH  45  59
ATOM     59  N   UNL     1     -41.193  43.215  25.903  1.00  0.00    -0.383 N 
ATOM     60  H   UNL     1     -40.495  42.704  25.358  1.00  0.00     0.158 HD
ATOM     61  H   UNL     1     -40.859  44.010  26.430  1.00  0.00     0.158 HD
ENDBRANCH  45  59
ENDBRANCH  30  38
ENDBRANCH   1  26
TORSDOF 9
ENDMDL
MODEL 5
REMARK VINA RESULT:      -8.8      2.094      3.871
REMARK SMILES CNc1ccc2ccc(OC[C@H]3O[C@@H](n4cc(-c5ccccn5)c5c(N)ncnc54)[C@@H](F)[C@@H]3O)cc2n1
REMARK SMILES IDX 11 1 10 4 9 5 3 6 4 7 37 8 5 9 36 11 6 12 35 14 7 15 8 17
REMARK SMILES IDX 2 20 1 22 12 26 13 27 33 28 14 30 31 31 32 34 34 36 15 38
REMARK SMILES IDX 16 39 30 40 17 41 24 43 29 44 25 45 28 46 27 47 18 49 19 50
REMARK SMILES IDX 23 51 20 52 22 54 21 55 26 59
REMARK H PARENT 11 2 11 3 4 10 5 13 35 16 7 18 8 19 2 21 1 23 1 24 1 25 12 29
REMARK H PARENT 33 32 14 33 31 35 34 37 16 42 28 48 19 53 20 56 22 57 21 58
REMARK H PARENT 26 60 26 61
REMARK Flexibility Score: inf
ROOT
ATOM      1  C   UNL     1     -46.083  34.832  28.143  1.00  0.00     0.117 C 
ATOM      2  H   UNL     1     -46.184  33.824  28.560  1.00  0.00     0.073 H 
ATOM      3  H   UNL     1     -45.170  35.303  28.530  1.00  0.00     0.073 H 
ENDROOT
BRANCH   1   4
ATOM      4  O   UNL     1     -46.038  34.730  26.721  1.00  0.00    -0.491 OA
BRANCH   4   5
ATOM      5  C   UNL     1     -46.570  33.600  26.169  1.00  0.00     0.121 A 
ATOM      6  C   UNL     1     -46.572  30.915  22.240  1.00  0.00     0.126 A 
ATOM      7  C   UNL     1     -47.426  29.985  22.822  1.00  0.00    -0.019 A 
ATOM      8  N   UNL     1     -46.165  32.012  22.908  1.00  0.00    -0.231 NA
ATOM      9  C   UNL     1     -47.891  30.200  24.117  1.00  0.00    -0.049 A 
ATOM     10  H   UNL     1     -47.720  29.093  22.279  1.00  0.00     0.066 H 
ATOM     11  C   UNL     1     -46.608  32.226  24.160  1.00  0.00     0.076 A 
ATOM     12  C   UNL     1     -47.481  31.338  24.815  1.00  0.00     0.001 A 
ATOM     13  H   UNL     1     -48.558  29.473  24.571  1.00  0.00     0.063 H 
ATOM     14  C   UNL     1     -46.183  33.352  24.849  1.00  0.00     0.007 A 
ATOM     15  C   UNL     1     -47.906  31.600  26.129  1.00  0.00    -0.049 A 
ATOM     16  H   UNL     1     -45.509  34.048  24.355  1.00  0.00     0.069 H 
ATOM     17  C   UNL     1     -47.451  32.732  26.804  1.00  0.00    -0.019 A 
ATOM     18  H   UNL     1     -48.588  30.919  26.633  1.00  0.00     0.063 H 
ATOM     19  H   UNL     1     -47.803  32.915  27.815  1.00  0.00     0.066 H 
BRANCH   6  20
ATOM     20  N   UNL     1     -46.089  30.648  20.945  1.00  0.00    -0.373 N 
ATOM     21  H   UNL     1     -46.615  29.871  20.555  1.00  0.00     0.161 HD
BRANCH  20  22
ATOM     22  C   UNL     1     -46.106  31.800  20.056  1.00  0.00     0.005 C 
ATOM     23  H   UNL     1     -45.161  32.343  20.162  1.00  0.00     0.045 H 
ATOM     24  H   UNL     1     -46.197  31.498  19.006  1.00  0.00     0.045 H 
ATOM     25  H   UNL     1     -46.912  32.496  20.311  1.00  0.00     0.045 H 
ENDBRANCH  20  22
ENDBRANCH   6  20
ENDBRANCH   4   5
ENDBRANCH   1   4
BRANCH   1  26
ATOM     26  C   UNL     1     -47.283  35.689  28.570  1.00  0.00     0.123 C 
ATOM     27  O   UNL     1     -46.795  36.976  29.010  1.00  0.00    -0.345 OA
ATOM     28  C   UNL     1     -48.324  35.936  27.473  1.00  0.00     0.119 C 
ATOM     29  H   UNL     1     -47.743  35.218  29.446  1.00  0.00     0.067 H 
ATOM     30  C   UNL     1     -47.456  37.996  28.229  1.00  0.00     0.169 C 
ATOM     31  C   UNL     1     -48.029  37.337  26.987  1.00  0.00     0.173 C 
ATOM     32  H   UNL     1     -48.291  35.192  26.670  1.00  0.00     0.066 H 
ATOM     33  H   UNL     1     -48.257  38.387  28.868  1.00  0.00     0.088 H 
ATOM     34  F   UNL     1     -47.113  37.275  25.982  1.00  0.00    -0.239 F 
ATOM     35  H   UNL     1     -48.904  37.873  26.604  1.00  0.00     0.074 H 
BRANCH  28  36
ATOM     36  O   UNL     1     -49.646  35.913  28.032  1.00  0.00    -0.387 OA
ATOM     37  H   UNL     1     -49.610  36.352  28.901  1.00  0.00     0.211 HD
ENDBRANCH  28  36
BRANCH  30  38
ATOM     38  N   UNL     1     -46.539  39.086  27.948  1.00  0.00    -0.302 N 
ATOM     39  C   UNL     1     -45.201  39.146  28.256  1.00  0.00     0.019 A 
ATOM     40  C   UNL     1     -46.909  40.232  27.292  1.00  0.00     0.148 A 
ATOM     41  C   UNL     1     -44.698  40.352  27.792  1.00  0.00     0.031 A 
ATOM     42  H   UNL     1     -44.723  38.330  28.785  1.00  0.00     0.083 H 
ATOM     43  C   UNL     1     -45.790  41.050  27.180  1.00  0.00     0.071 A 
ATOM     44  N   UNL     1     -48.148  40.498  26.841  1.00  0.00    -0.218 NA
ATOM     45  C   UNL     1     -45.984  42.278  26.527  1.00  0.00     0.137 A 
ATOM     46  C   UNL     1     -48.207  41.703  26.251  1.00  0.00     0.120 A 
ATOM     47  N   UNL     1     -47.216  42.597  26.080  1.00  0.00    -0.219 NA
ATOM     48  H   UNL     1     -49.178  41.996  25.864  1.00  0.00     0.106 H 
BRANCH  41  49
ATOM     49  C   UNL     1     -43.310  40.763  27.961  1.00  0.00     0.073 A 
ATOM     50  C   UNL     1     -42.687  40.725  29.204  1.00  0.00    -0.036 A 
ATOM     51  N   UNL     1     -42.669  41.176  26.835  1.00  0.00    -0.256 NA
ATOM     52  C   UNL     1     -41.360  41.134  29.309  1.00  0.00    -0.059 A 
ATOM     53  H   UNL     1     -43.207  40.366  30.085  1.00  0.00     0.065 H 
ATOM     54  C   UNL     1     -41.384  41.577  26.973  1.00  0.00     0.027 A 
ATOM     55  C   UNL     1     -40.694  41.573  28.174  1.00  0.00    -0.044 A 
ATOM     56  H   UNL     1     -40.857  41.100  30.272  1.00  0.00     0.062 H 
ATOM     57  H   UNL     1     -40.904  41.911  26.057  1.00  0.00     0.084 H 
ATOM     58  H   UNL     1     -39.661  41.899  28.223  1.00  0.00     0.064 H 
ENDBRANCH  41  49
BRANCH  45  59
ATOM     59  N   UNL     1     -44.973  43.209  26.322  1.00  0.00    -0.383 N 
ATOM     60  H   UNL     1     -45.129  44.062  26.863  1.00  0.00     0.158 HD
ATOM     61  H   UNL     1     -44.784  43.327  25.337  1.00  0.00     0.158 HD
ENDBRANCH  45  59
ENDBRANCH  30  38
ENDBRANCH   1  26
TORSDOF 9
ENDMDL
MODEL 6
REMARK VINA RESULT:      -8.7      2.073      3.237
REMARK SMILES CNc1ccc2ccc(OC[C@H]3O[C@@H](n4cc(-c5ccccn5)c5c(N)ncnc54)[C@@H](F)[C@@H]3O)cc2n1
REMARK SMILES IDX 11 1 10 4 9 5 3 6 4 7 37 8 5 9 36 11 6 12 35 14 7 15 8 17
REMARK SMILES IDX 2 20 1 22 12 26 13 27 33 28 14 30 31 31 32 34 34 36 15 38
REMARK SMILES IDX 16 39 30 40 17 41 24 43 29 44 25 45 28 46 27 47 18 49 19 50
REMARK SMILES IDX 23 51 20 52 22 54 21 55 26 59
REMARK H PARENT 11 2 11 3 4 10 5 13 35 16 7 18 8 19 2 21 1 23 1 24 1 25 12 29
REMARK H PARENT 33 32 14 33 31 35 34 37 16 42 28 48 19 53 20 56 22 57 21 58
REMARK H PARENT 26 60 26 61
REMARK Flexibility Score: inf
ROOT
ATOM      1  C   UNL     1     -45.286  35.557  27.083  1.00  0.00     0.117 C 
ATOM      2  H   UNL     1     -45.109  34.493  27.279  1.00  0.00     0.073 H 
ATOM      3  H   UNL     1     -44.397  36.001  26.617  1.00  0.00     0.073 H 
ENDROOT
BRANCH   1   4
ATOM      4  O   UNL     1     -46.421  35.674  26.226  1.00  0.00    -0.491 OA
BRANCH   4   5
ATOM      5  C   UNL     1     -47.129  34.533  25.984  1.00  0.00     0.121 A 
ATOM      6  C   UNL     1     -46.907  30.297  23.824  1.00  0.00     0.126 A 
ATOM      7  C   UNL     1     -48.168  29.945  24.288  1.00  0.00    -0.019 A 
ATOM      8  N   UNL     1     -46.357  31.491  24.120  1.00  0.00    -0.231 NA
ATOM      9  C   UNL     1     -48.893  30.851  25.057  1.00  0.00    -0.049 A 
ATOM     10  H   UNL     1     -48.584  28.968  24.065  1.00  0.00     0.066 H 
ATOM     11  C   UNL     1     -47.048  32.372  24.864  1.00  0.00     0.076 A 
ATOM     12  C   UNL     1     -48.334  32.094  25.363  1.00  0.00     0.001 A 
ATOM     13  H   UNL     1     -49.879  30.575  25.420  1.00  0.00     0.063 H 
ATOM     14  C   UNL     1     -46.478  33.598  25.174  1.00  0.00     0.007 A 
ATOM     15  C   UNL     1     -49.012  33.044  26.147  1.00  0.00    -0.049 A 
ATOM     16  H   UNL     1     -45.484  33.826  24.794  1.00  0.00     0.069 H 
ATOM     17  C   UNL     1     -48.409  34.263  26.455  1.00  0.00    -0.019 A 
ATOM     18  H   UNL     1     -50.010  32.835  26.525  1.00  0.00     0.063 H 
ATOM     19  H   UNL     1     -48.958  34.982  27.055  1.00  0.00     0.066 H 
BRANCH   6  20
ATOM     20  N   UNL     1     -46.185  29.342  23.084  1.00  0.00    -0.373 N 
ATOM     21  H   UNL     1     -45.211  29.628  23.046  1.00  0.00     0.161 HD
BRANCH  20  22
ATOM     22  C   UNL     1     -46.320  27.981  23.581  1.00  0.00     0.005 C 
ATOM     23  H   UNL     1     -46.982  27.423  22.911  1.00  0.00     0.045 H 
ATOM     24  H   UNL     1     -45.355  27.460  23.600  1.00  0.00     0.045 H 
ATOM     25  H   UNL     1     -46.771  27.957  24.578  1.00  0.00     0.045 H 
ENDBRANCH  20  22
ENDBRANCH   6  20
ENDBRANCH   4   5
ENDBRANCH   1   4
BRANCH   1  26
ATOM     26  C   UNL     1     -45.550  36.287  28.406  1.00  0.00     0.123 C 
ATOM     27  O   UNL     1     -44.973  37.609  28.325  1.00  0.00    -0.345 OA
ATOM     28  C   UNL     1     -47.030  36.447  28.774  1.00  0.00     0.119 C 
ATOM     29  H   UNL     1     -45.006  35.763  29.200  1.00  0.00     0.067 H 
ATOM     30  C   UNL     1     -46.018  38.571  28.593  1.00  0.00     0.169 C 
ATOM     31  C   UNL     1     -47.355  37.876  28.402  1.00  0.00     0.173 C 
ATOM     32  H   UNL     1     -47.679  35.720  28.275  1.00  0.00     0.066 H 
ATOM     33  H   UNL     1     -45.881  38.874  29.638  1.00  0.00     0.088 H 
ATOM     34  F   UNL     1     -47.762  37.916  27.105  1.00  0.00    -0.239 F 
ATOM     35  H   UNL     1     -48.144  38.329  29.011  1.00  0.00     0.074 H 
BRANCH  28  36
ATOM     36  O   UNL     1     -47.207  36.288  30.189  1.00  0.00    -0.387 OA
ATOM     37  H   UNL     1     -47.313  37.174  30.578  1.00  0.00     0.211 HD
ENDBRANCH  28  36
BRANCH  30  38
ATOM     38  N   UNL     1     -45.843  39.749  27.762  1.00  0.00    -0.302 N 
ATOM     39  C   UNL     1     -44.683  40.177  27.164  1.00  0.00     0.019 A 
ATOM     40  C   UNL     1     -46.866  40.604  27.441  1.00  0.00     0.148 A 
ATOM     41  C   UNL     1     -44.961  41.330  26.445  1.00  0.00     0.031 A 
ATOM     42  H   UNL     1     -43.758  39.631  27.306  1.00  0.00     0.083 H 
ATOM     43  C   UNL     1     -46.355  41.607  26.626  1.00  0.00     0.071 A 
ATOM     44  N   UNL     1     -48.139  40.474  27.855  1.00  0.00    -0.218 NA
ATOM     45  C   UNL     1     -47.270  42.581  26.195  1.00  0.00     0.137 A 
ATOM     46  C   UNL     1     -48.910  41.471  27.390  1.00  0.00     0.120 A 
ATOM     47  N   UNL     1     -48.553  42.503  26.605  1.00  0.00    -0.219 NA
ATOM     48  H   UNL     1     -49.955  41.442  27.684  1.00  0.00     0.106 H 
BRANCH  41  49
ATOM     49  C   UNL     1     -43.955  42.072  25.694  1.00  0.00     0.073 A 
ATOM     50  C   UNL     1     -42.753  42.461  26.277  1.00  0.00    -0.036 A 
ATOM     51  N   UNL     1     -44.262  42.350  24.399  1.00  0.00    -0.256 NA
ATOM     52  C   UNL     1     -41.831  43.173  25.515  1.00  0.00    -0.059 A 
ATOM     53  H   UNL     1     -42.515  42.206  27.304  1.00  0.00     0.065 H 
ATOM     54  C   UNL     1     -43.348  43.051  23.689  1.00  0.00     0.027 A 
ATOM     55  C   UNL     1     -42.133  43.479  24.196  1.00  0.00    -0.044 A 
ATOM     56  H   UNL     1     -40.883  43.475  25.954  1.00  0.00     0.062 H 
ATOM     57  H   UNL     1     -43.628  43.266  22.661  1.00  0.00     0.084 H 
ATOM     58  H   UNL     1     -41.435  44.032  23.577  1.00  0.00     0.064 H 
ENDBRANCH  41  49
BRANCH  45  59
ATOM     59  N   UNL     1     -46.930  43.646  25.370  1.00  0.00    -0.383 N 
ATOM     60  H   UNL     1     -46.204  43.387  24.699  1.00  0.00     0.158 HD
ATOM     61  H   UNL     1     -46.767  44.484  25.909  1.00  0.00     0.158 HD
ENDBRANCH  45  59
ENDBRANCH  30  38
ENDBRANCH   1  26
TORSDOF 9
ENDMDL
MODEL 7
REMARK VINA RESULT:      -8.7      2.510      3.564
REMARK SMILES CNc1ccc2ccc(OC[C@H]3O[C@@H](n4cc(-c5ccccn5)c5c(N)ncnc54)[C@@H](F)[C@@H]3O)cc2n1
REMARK SMILES IDX 11 1 10 4 9 5 3 6 4 7 37 8 5 9 36 11 6 12 35 14 7 15 8 17
REMARK SMILES IDX 2 20 1 22 12 26 13 27 33 28 14 30 31 31 32 34 34 36 15 38
REMARK SMILES IDX 16 39 30 40 17 41 24 43 29 44 25 45 28 46 27 47 18 49 19 50
REMARK SMILES IDX 23 51 20 52 22 54 21 55 26 59
REMARK H PARENT 11 2 11 3 4 10 5 13 35 16 7 18 8 19 2 21 1 23 1 24 1 25 12 29
REMARK H PARENT 33 32 14 33 31 35 34 37 16 42 28 48 19 53 20 56 22 57 21 58
REMARK H PARENT 26 60 26 61
REMARK Flexibility Score: inf
ROOT
ATOM      1  C   UNL     1     -46.572  34.964  26.637  1.00  0.00     0.117 C 
ATOM      2  H   UNL     1     -45.800  34.444  26.059  1.00  0.00     0.073 H 
ATOM      3  H   UNL     1     -46.986  35.790  26.044  1.00  0.00     0.073 H 
ENDROOT
BRANCH   1   4
ATOM      4  O   UNL     1     -47.590  34.024  26.978  1.00  0.00    -0.491 OA
BRANCH   4   5
ATOM      5  C   UNL     1     -47.982  33.160  25.997  1.00  0.00     0.121 A 
ATOM      6  C   UNL     1     -46.355  30.352  22.516  1.00  0.00     0.126 A 
ATOM      7  C   UNL     1     -47.636  29.905  22.217  1.00  0.00    -0.019 A 
ATOM      8  N   UNL     1     -46.133  31.247  23.498  1.00  0.00    -0.231 NA
ATOM      9  C   UNL     1     -48.721  30.408  22.930  1.00  0.00    -0.049 A 
ATOM     10  H   UNL     1     -47.793  29.161  21.443  1.00  0.00     0.066 H 
ATOM     11  C   UNL     1     -47.175  31.738  24.194  1.00  0.00     0.076 A 
ATOM     12  C   UNL     1     -48.502  31.343  23.946  1.00  0.00     0.001 A 
ATOM     13  H   UNL     1     -49.722  30.058  22.697  1.00  0.00     0.063 H 
ATOM     14  C   UNL     1     -46.945  32.655  25.209  1.00  0.00     0.007 A 
ATOM     15  C   UNL     1     -49.556  31.875  24.708  1.00  0.00    -0.049 A 
ATOM     16  H   UNL     1     -45.923  32.969  25.411  1.00  0.00     0.069 H 
ATOM     17  C   UNL     1     -49.295  32.785  25.733  1.00  0.00    -0.019 A 
ATOM     18  H   UNL     1     -50.584  31.579  24.511  1.00  0.00     0.063 H 
ATOM     19  H   UNL     1     -50.128  33.188  26.300  1.00  0.00     0.066 H 
BRANCH   6  20
ATOM     20  N   UNL     1     -45.277  29.793  21.804  1.00  0.00    -0.373 N 
ATOM     21  H   UNL     1     -44.604  30.526  21.603  1.00  0.00     0.161 HD
BRANCH  20  22
ATOM     22  C   UNL     1     -44.648  28.663  22.472  1.00  0.00     0.005 C 
ATOM     23  H   UNL     1     -45.428  28.001  22.861  1.00  0.00     0.045 H 
ATOM     24  H   UNL     1     -44.033  28.076  21.779  1.00  0.00     0.045 H 
ATOM     25  H   UNL     1     -44.039  28.983  23.323  1.00  0.00     0.045 H 
ENDBRANCH  20  22
ENDBRANCH   6  20
ENDBRANCH   4   5
ENDBRANCH   1   4
BRANCH   1  26
ATOM     26  C   UNL     1     -45.953  35.552  27.912  1.00  0.00     0.123 C 
ATOM     27  O   UNL     1     -45.584  36.925  27.653  1.00  0.00    -0.345 OA
ATOM     28  C   UNL     1     -46.868  35.540  29.142  1.00  0.00     0.119 C 
ATOM     29  H   UNL     1     -45.019  35.016  28.116  1.00  0.00     0.067 H 
ATOM     30  C   UNL     1     -46.241  37.757  28.634  1.00  0.00     0.169 C 
ATOM     31  C   UNL     1     -47.382  36.958  29.238  1.00  0.00     0.173 C 
ATOM     32  H   UNL     1     -47.672  34.800  29.074  1.00  0.00     0.066 H 
ATOM     33  H   UNL     1     -45.479  37.983  29.390  1.00  0.00     0.088 H 
ATOM     34  F   UNL     1     -48.520  37.069  28.501  1.00  0.00    -0.239 F 
ATOM     35  H   UNL     1     -47.616  37.282  30.258  1.00  0.00     0.074 H 
BRANCH  28  36
ATOM     36  O   UNL     1     -46.105  35.246  30.322  1.00  0.00    -0.387 OA
ATOM     37  H   UNL     1     -46.186  36.006  30.926  1.00  0.00     0.211 HD
ENDBRANCH  28  36
BRANCH  30  38
ATOM     38  N   UNL     1     -46.655  39.012  28.032  1.00  0.00    -0.302 N 
ATOM     39  C   UNL     1     -47.894  39.601  28.111  1.00  0.00     0.019 A 
ATOM     40  C   UNL     1     -45.817  39.809  27.296  1.00  0.00     0.148 A 
ATOM     41  C   UNL     1     -47.855  40.798  27.412  1.00  0.00     0.031 A 
ATOM     42  H   UNL     1     -48.699  39.115  28.649  1.00  0.00     0.083 H 
ATOM     43  C   UNL     1     -46.529  40.930  26.886  1.00  0.00     0.071 A 
ATOM     44  N   UNL     1     -44.527  39.534  27.030  1.00  0.00    -0.218 NA
ATOM     45  C   UNL     1     -45.821  41.866  26.115  1.00  0.00     0.137 A 
ATOM     46  C   UNL     1     -43.967  40.493  26.276  1.00  0.00     0.120 A 
ATOM     47  N   UNL     1     -44.532  41.619  25.804  1.00  0.00    -0.219 NA
ATOM     48  H   UNL     1     -42.924  40.343  26.011  1.00  0.00     0.106 H 
BRANCH  41  49
ATOM     49  C   UNL     1     -49.005  41.684  27.270  1.00  0.00     0.073 A 
ATOM     50  C   UNL     1     -50.235  41.212  26.824  1.00  0.00    -0.036 A 
ATOM     51  N   UNL     1     -48.799  42.986  27.602  1.00  0.00    -0.256 NA
ATOM     52  C   UNL     1     -51.297  42.103  26.701  1.00  0.00    -0.059 A 
ATOM     53  H   UNL     1     -50.386  40.164  26.589  1.00  0.00     0.065 H 
ATOM     54  C   UNL     1     -49.850  43.828  27.462  1.00  0.00     0.027 A 
ATOM     55  C   UNL     1     -51.103  43.439  27.022  1.00  0.00    -0.044 A 
ATOM     56  H   UNL     1     -52.268  41.747  26.363  1.00  0.00     0.062 H 
ATOM     57  H   UNL     1     -49.649  44.863  27.726  1.00  0.00     0.084 H 
ATOM     58  H   UNL     1     -51.910  44.158  26.936  1.00  0.00     0.064 H 
ENDBRANCH  41  49
BRANCH  45  59
ATOM     59  N   UNL     1     -46.377  43.043  25.632  1.00  0.00    -0.383 N 
ATOM     60  H   UNL     1     -46.344  43.087  24.611  1.00  0.00     0.158 HD
ATOM     61  H   UNL     1     -46.017  43.845  26.129  1.00  0.00     0.158 HD
ENDBRANCH  45  59
ENDBRANCH  30  38
ENDBRANCH   1  26
TORSDOF 9
ENDMDL
