MODEL 1
REMARK VINA RESULT:     -10.4      0.000      0.000
REMARK SMILES Cn1ccc(-c2cn([C@@H]3C[C@H](COc4ccc5ccc(N6CCC6)nc5c4)[C@@H](O)C3)c3ncnc(N)c23)n1
REMARK SMILES IDX 9 1 10 2 11 3 28 4 30 5 8 13 6 14 7 15 37 16 31 18 35 19
REMARK SMILES IDX 32 20 34 21 33 22 5 24 2 25 3 26 38 27 4 28 1 31 36 35 12 38
REMARK SMILES IDX 13 41 14 42 15 43 27 44 16 45 26 47 17 49 25 51 18 52 20 53
REMARK SMILES IDX 19 54 21 57 22 58 24 59 23 60 29 67
REMARK H PARENT 9 6 10 7 10 8 11 9 28 10 30 11 30 12 7 17 33 23 3 29 4 30 1 32
REMARK H PARENT 1 33 1 34 36 36 36 37 12 39 12 40 15 46 27 48 16 50 18 55
REMARK H PARENT 19 56 22 61 22 62 24 63 24 64 23 65 23 66 29 68
REMARK Flexibility Score: inf
ROOT
ATOM      1  C   UNL     1     -45.829  37.971  28.571  1.00  0.00     0.038 C 
ATOM      2  C   UNL     1     -45.301  36.662  27.957  1.00  0.00    -0.024 C 
ATOM      3  C   UNL     1     -46.560  35.838  27.683  1.00  0.00     0.021 C 
ATOM      4  C   UNL     1     -47.571  36.895  27.256  1.00  0.00     0.062 C 
ATOM      5  C   UNL     1     -47.330  38.036  28.239  1.00  0.00    -0.006 C 
ATOM      6  H   UNL     1     -45.735  37.904  29.664  1.00  0.00     0.054 H 
ATOM      7  H   UNL     1     -44.624  36.146  28.648  1.00  0.00     0.029 H 
ATOM      8  H   UNL     1     -44.741  36.837  27.031  1.00  0.00     0.029 H 
ATOM      9  H   UNL     1     -46.883  35.361  28.619  1.00  0.00     0.037 H 
ATOM     10  H   UNL     1     -47.398  37.218  26.223  1.00  0.00     0.061 H 
ATOM     11  H   UNL     1     -47.918  37.876  29.152  1.00  0.00     0.031 H 
ATOM     12  H   UNL     1     -47.659  38.997  27.829  1.00  0.00     0.031 H 
ENDROOT
BRANCH   1  13
ATOM     13  N   UNL     1     -45.075  39.147  28.168  1.00  0.00    -0.328 N 
ATOM     14  C   UNL     1     -44.432  40.923  26.988  1.00  0.00     0.033 A 
ATOM     15  C   UNL     1     -45.365  39.908  27.064  1.00  0.00     0.016 A 
ATOM     16  C   UNL     1     -43.568  40.812  28.117  1.00  0.00     0.071 A 
ATOM     17  H   UNL     1     -46.195  39.671  26.410  1.00  0.00     0.083 H 
ATOM     18  C   UNL     1     -43.982  39.677  28.811  1.00  0.00     0.146 A 
ATOM     19  C   UNL     1     -42.491  41.519  28.676  1.00  0.00     0.137 A 
ATOM     20  N   UNL     1     -43.427  39.178  29.930  1.00  0.00    -0.218 NA
ATOM     21  N   UNL     1     -41.907  41.048  29.796  1.00  0.00    -0.219 NA
ATOM     22  C   UNL     1     -42.392  39.922  30.347  1.00  0.00     0.120 A 
ATOM     23  H   UNL     1     -41.887  39.579  31.245  1.00  0.00     0.106 H 
BRANCH  14  24
ATOM     24  C   UNL     1     -44.370  41.924  25.926  1.00  0.00     0.095 A 
ATOM     25  N   UNL     1     -43.598  43.210  24.439  1.00  0.00    -0.275 N 
ATOM     26  C   UNL     1     -44.923  43.525  24.508  1.00  0.00     0.025 A 
ATOM     27  N   UNL     1     -43.232  42.243  25.298  1.00  0.00    -0.173 NA
ATOM     28  C   UNL     1     -45.455  42.710  25.481  1.00  0.00    -0.016 A 
ATOM     29  H   UNL     1     -45.368  44.290  23.886  1.00  0.00     0.084 H 
ATOM     30  H   UNL     1     -46.479  42.692  25.826  1.00  0.00     0.066 H 
BRANCH  25  31
ATOM     31  C   UNL     1     -42.608  43.802  23.575  1.00  0.00     0.030 C 
ATOM     32  H   UNL     1     -41.975  43.015  23.155  1.00  0.00     0.048 H 
ATOM     33  H   UNL     1     -43.124  44.333  22.771  1.00  0.00     0.048 H 
ATOM     34  H   UNL     1     -42.001  44.492  24.166  1.00  0.00     0.048 H 
ENDBRANCH  25  31
ENDBRANCH  14  24
BRANCH  19  35
ATOM     35  N   UNL     1     -41.989  42.718  28.184  1.00  0.00    -0.383 N 
ATOM     36  H   UNL     1     -42.480  43.533  28.533  1.00  0.00     0.158 HD
ATOM     37  H   UNL     1     -40.982  42.738  28.307  1.00  0.00     0.158 HD
ENDBRANCH  19  35
ENDBRANCH   1  13
BRANCH   3  38
ATOM     38  C   UNL     1     -46.362  34.748  26.633  1.00  0.00     0.094 C 
ATOM     39  H   UNL     1     -46.371  35.201  25.634  1.00  0.00     0.071 H 
ATOM     40  H   UNL     1     -45.403  34.241  26.799  1.00  0.00     0.071 H 
BRANCH  38  41
ATOM     41  O   UNL     1     -47.436  33.814  26.752  1.00  0.00    -0.493 OA
BRANCH  41  42
ATOM     42  C   UNL     1     -47.403  32.719  25.933  1.00  0.00     0.121 A 
ATOM     43  C   UNL     1     -46.621  32.873  24.789  1.00  0.00    -0.019 A 
ATOM     44  C   UNL     1     -48.066  31.509  26.149  1.00  0.00     0.007 A 
ATOM     45  C   UNL     1     -46.506  31.832  23.872  1.00  0.00    -0.049 A 
ATOM     46  H   UNL     1     -46.100  33.812  24.614  1.00  0.00     0.066 H 
ATOM     47  C   UNL     1     -47.970  30.453  25.249  1.00  0.00     0.076 A 
ATOM     48  H   UNL     1     -48.679  31.349  27.030  1.00  0.00     0.069 H 
ATOM     49  C   UNL     1     -47.178  30.621  24.098  1.00  0.00     0.001 A 
ATOM     50  H   UNL     1     -45.890  31.970  22.986  1.00  0.00     0.063 H 
ATOM     51  N   UNL     1     -48.632  29.311  25.506  1.00  0.00    -0.231 NA
ATOM     52  C   UNL     1     -47.088  29.550  23.206  1.00  0.00    -0.049 A 
ATOM     53  C   UNL     1     -48.545  28.281  24.633  1.00  0.00     0.129 A 
ATOM     54  C   UNL     1     -47.775  28.372  23.478  1.00  0.00    -0.019 A 
ATOM     55  H   UNL     1     -46.484  29.623  22.305  1.00  0.00     0.063 H 
ATOM     56  H   UNL     1     -47.697  27.532  22.797  1.00  0.00     0.066 H 
BRANCH  53  57
ATOM     57  N   UNL     1     -49.235  27.089  24.923  1.00  0.00    -0.356 N 
ATOM     58  C   UNL     1     -48.708  26.031  25.741  1.00  0.00     0.021 C 
ATOM     59  C   UNL     1     -50.540  26.981  25.508  1.00  0.00     0.021 C 
ATOM     60  C   UNL     1     -50.155  25.546  25.886  1.00  0.00    -0.018 C 
ATOM     61  H   UNL     1     -48.032  25.363  25.203  1.00  0.00     0.049 H 
ATOM     62  H   UNL     1     -48.248  26.390  26.666  1.00  0.00     0.049 H 
ATOM     63  H   UNL     1     -50.687  27.658  26.356  1.00  0.00     0.049 H 
ATOM     64  H   UNL     1     -51.353  27.078  24.786  1.00  0.00     0.049 H 
ATOM     65  H   UNL     1     -50.454  24.789  25.151  1.00  0.00     0.030 H 
ATOM     66  H   UNL     1     -50.450  25.221  26.886  1.00  0.00     0.030 H 
ENDBRANCH  53  57
ENDBRANCH  41  42
ENDBRANCH  38  41
ENDBRANCH   3  38
BRANCH   4  67
ATOM     67  O   UNL     1     -48.894  36.400  27.358  1.00  0.00    -0.393 OA
ATOM     68  H   UNL     1     -49.466  37.149  27.604  1.00  0.00     0.210 HD
ENDBRANCH   4  67
TORSDOF 9
ENDMDL
MODEL 2
REMARK VINA RESULT:      -9.6      2.773      3.806
REMARK SMILES Cn1ccc(-c2cn([C@@H]3C[C@H](COc4ccc5ccc(N6CCC6)nc5c4)[C@@H](O)C3)c3ncnc(N)c23)n1
REMARK SMILES IDX 9 1 10 2 11 3 28 4 30 5 8 13 6 14 7 15 37 16 31 18 35 19
REMARK SMILES IDX 32 20 34 21 33 22 5 24 2 25 3 26 38 27 4 28 1 31 36 35 12 38
REMARK SMILES IDX 13 41 14 42 15 43 27 44 16 45 26 47 17 49 25 51 18 52 20 53
REMARK SMILES IDX 19 54 21 57 22 58 24 59 23 60 29 67
REMARK H PARENT 9 6 10 7 10 8 11 9 28 10 30 11 30 12 7 17 33 23 3 29 4 30 1 32
REMARK H PARENT 1 33 1 34 36 36 36 37 12 39 12 40 15 46 27 48 16 50 18 55
REMARK H PARENT 19 56 22 61 22 62 24 63 24 64 23 65 23 66 29 68
REMARK Flexibility Score: inf
ROOT
ATOM      1  C   UNL     1     -45.556  38.423  27.714  1.00  0.00     0.038 C 
ATOM      2  C   UNL     1     -46.163  37.120  27.166  1.00  0.00    -0.024 C 
ATOM      3  C   UNL     1     -45.986  36.113  28.304  1.00  0.00     0.021 C 
ATOM      4  C   UNL     1     -46.210  36.964  29.547  1.00  0.00     0.062 C 
ATOM      5  C   UNL     1     -45.453  38.251  29.238  1.00  0.00    -0.006 C 
ATOM      6  H   UNL     1     -44.534  38.521  27.322  1.00  0.00     0.054 H 
ATOM      7  H   UNL     1     -45.646  36.794  26.256  1.00  0.00     0.029 H 
ATOM      8  H   UNL     1     -47.223  37.234  26.908  1.00  0.00     0.029 H 
ATOM      9  H   UNL     1     -44.955  35.733  28.285  1.00  0.00     0.037 H 
ATOM     10  H   UNL     1     -47.277  37.160  29.710  1.00  0.00     0.061 H 
ATOM     11  H   UNL     1     -44.400  38.146  29.529  1.00  0.00     0.031 H 
ATOM     12  H   UNL     1     -45.845  39.096  29.815  1.00  0.00     0.031 H 
ENDROOT
BRANCH   1  13
ATOM     13  N   UNL     1     -46.270  39.618  27.292  1.00  0.00    -0.328 N 
ATOM     14  C   UNL     1     -47.927  41.078  27.001  1.00  0.00     0.033 A 
ATOM     15  C   UNL     1     -47.590  39.866  27.572  1.00  0.00     0.016 A 
ATOM     16  C   UNL     1     -46.756  41.618  26.393  1.00  0.00     0.071 A 
ATOM     17  H   UNL     1     -48.194  39.168  28.138  1.00  0.00     0.083 H 
ATOM     18  C   UNL     1     -45.753  40.667  26.569  1.00  0.00     0.146 A 
ATOM     19  C   UNL     1     -46.380  42.794  25.722  1.00  0.00     0.137 A 
ATOM     20  N   UNL     1     -44.486  40.750  26.127  1.00  0.00    -0.218 NA
ATOM     21  N   UNL     1     -45.119  42.912  25.262  1.00  0.00    -0.219 NA
ATOM     22  C   UNL     1     -44.260  41.901  25.478  1.00  0.00     0.120 A 
ATOM     23  H   UNL     1     -43.257  42.040  25.085  1.00  0.00     0.106 H 
BRANCH  14  24
ATOM     24  C   UNL     1     -49.258  41.678  27.036  1.00  0.00     0.095 A 
ATOM     25  N   UNL     1     -51.009  42.687  26.422  1.00  0.00    -0.275 N 
ATOM     26  C   UNL     1     -51.198  42.456  27.752  1.00  0.00     0.025 A 
ATOM     27  N   UNL     1     -49.831  42.230  25.961  1.00  0.00    -0.173 NA
ATOM     28  C   UNL     1     -50.065  41.808  28.188  1.00  0.00    -0.016 A 
ATOM     29  H   UNL     1     -52.093  42.772  28.271  1.00  0.00     0.084 H 
ATOM     30  H   UNL     1     -49.849  41.483  29.196  1.00  0.00     0.066 H 
BRANCH  25  31
ATOM     31  C   UNL     1     -51.913  43.353  25.517  1.00  0.00     0.030 C 
ATOM     32  H   UNL     1     -52.901  43.426  25.979  1.00  0.00     0.048 H 
ATOM     33  H   UNL     1     -51.521  44.352  25.312  1.00  0.00     0.048 H 
ATOM     34  H   UNL     1     -51.975  42.767  24.597  1.00  0.00     0.048 H 
ENDBRANCH  25  31
ENDBRANCH  14  24
BRANCH  19  35
ATOM     35  N   UNL     1     -47.208  43.892  25.524  1.00  0.00    -0.383 N 
ATOM     36  H   UNL     1     -47.465  44.363  26.385  1.00  0.00     0.158 HD
ATOM     37  H   UNL     1     -46.809  44.492  24.810  1.00  0.00     0.158 HD
ENDBRANCH  19  35
ENDBRANCH   1  13
BRANCH   3  38
ATOM     38  C   UNL     1     -46.937  34.922  28.220  1.00  0.00     0.094 C 
ATOM     39  H   UNL     1     -46.368  33.993  28.350  1.00  0.00     0.071 H 
ATOM     40  H   UNL     1     -47.700  34.999  29.006  1.00  0.00     0.071 H 
BRANCH  38  41
ATOM     41  O   UNL     1     -47.558  34.935  26.933  1.00  0.00    -0.493 OA
BRANCH  41  42
ATOM     42  C   UNL     1     -47.449  33.800  26.178  1.00  0.00     0.121 A 
ATOM     43  C   UNL     1     -46.438  33.835  25.220  1.00  0.00    -0.019 A 
ATOM     44  C   UNL     1     -48.243  32.657  26.292  1.00  0.00     0.007 A 
ATOM     45  C   UNL     1     -46.224  32.742  24.384  1.00  0.00    -0.049 A 
ATOM     46  H   UNL     1     -45.813  34.720  25.125  1.00  0.00     0.066 H 
ATOM     47  C   UNL     1     -48.054  31.552  25.470  1.00  0.00     0.076 A 
ATOM     48  H   UNL     1     -49.037  32.590  27.029  1.00  0.00     0.069 H 
ATOM     49  C   UNL     1     -47.030  31.599  24.506  1.00  0.00     0.001 A 
ATOM     50  H   UNL     1     -45.430  32.786  23.643  1.00  0.00     0.063 H 
ATOM     51  N   UNL     1     -48.850  30.478  25.621  1.00  0.00    -0.231 NA
ATOM     52  C   UNL     1     -46.849  30.479  23.691  1.00  0.00    -0.049 A 
ATOM     53  C   UNL     1     -48.673  29.401  24.822  1.00  0.00     0.129 A 
ATOM     54  C   UNL     1     -47.675  29.373  23.853  1.00  0.00    -0.019 A 
ATOM     55  H   UNL     1     -46.068  30.459  22.935  1.00  0.00     0.063 H 
ATOM     56  H   UNL     1     -47.530  28.495  23.233  1.00  0.00     0.066 H 
BRANCH  53  57
ATOM     57  N   UNL     1     -49.507  28.282  25.003  1.00  0.00    -0.356 N 
ATOM     58  C   UNL     1     -49.807  27.325  23.974  1.00  0.00     0.021 C 
ATOM     59  C   UNL     1     -49.362  27.263  26.001  1.00  0.00     0.021 C 
ATOM     60  C   UNL     1     -50.238  26.382  25.103  1.00  0.00    -0.018 C 
ATOM     61  H   UNL     1     -50.598  27.650  23.295  1.00  0.00     0.049 H 
ATOM     62  H   UNL     1     -48.923  27.001  23.416  1.00  0.00     0.049 H 
ATOM     63  H   UNL     1     -48.328  26.920  26.116  1.00  0.00     0.049 H 
ATOM     64  H   UNL     1     -49.794  27.531  26.967  1.00  0.00     0.049 H 
ATOM     65  H   UNL     1     -51.308  26.419  25.338  1.00  0.00     0.030 H 
ATOM     66  H   UNL     1     -49.922  25.341  25.000  1.00  0.00     0.030 H 
ENDBRANCH  53  57
ENDBRANCH  41  42
ENDBRANCH  38  41
ENDBRANCH   3  38
BRANCH   4  67
ATOM     67  O   UNL     1     -45.689  36.325  30.698  1.00  0.00    -0.393 OA
ATOM     68  H   UNL     1     -45.049  36.936  31.106  1.00  0.00     0.210 HD
ENDBRANCH   4  67
TORSDOF 9
ENDMDL
MODEL 3
REMARK VINA RESULT:      -9.6      1.958     12.611
REMARK SMILES Cn1ccc(-c2cn([C@@H]3C[C@H](COc4ccc5ccc(N6CCC6)nc5c4)[C@@H](O)C3)c3ncnc(N)c23)n1
REMARK SMILES IDX 9 1 10 2 11 3 28 4 30 5 8 13 6 14 7 15 37 16 31 18 35 19
REMARK SMILES IDX 32 20 34 21 33 22 5 24 2 25 3 26 38 27 4 28 1 31 36 35 12 38
REMARK SMILES IDX 13 41 14 42 15 43 27 44 16 45 26 47 17 49 25 51 18 52 20 53
REMARK SMILES IDX 19 54 21 57 22 58 24 59 23 60 29 67
REMARK H PARENT 9 6 10 7 10 8 11 9 28 10 30 11 30 12 7 17 33 23 3 29 4 30 1 32
REMARK H PARENT 1 33 1 34 36 36 36 37 12 39 12 40 15 46 27 48 16 50 18 55
REMARK H PARENT 19 56 22 61 22 62 24 63 24 64 23 65 23 66 29 68
REMARK Flexibility Score: inf
ROOT
ATOM      1  C   UNL     1     -48.429  32.331  24.380  1.00  0.00     0.038 C 
ATOM      2  C   UNL     1     -47.158  32.649  25.188  1.00  0.00    -0.024 C 
ATOM      3  C   UNL     1     -47.573  33.798  26.108  1.00  0.00     0.021 C 
ATOM      4  C   UNL     1     -49.013  33.448  26.461  1.00  0.00     0.062 C 
ATOM      5  C   UNL     1     -49.601  32.981  25.133  1.00  0.00    -0.006 C 
ATOM      6  H   UNL     1     -48.350  32.826  23.402  1.00  0.00     0.054 H 
ATOM      7  H   UNL     1     -46.331  32.938  24.529  1.00  0.00     0.029 H 
ATOM      8  H   UNL     1     -46.815  31.787  25.772  1.00  0.00     0.029 H 
ATOM      9  H   UNL     1     -47.540  34.738  25.539  1.00  0.00     0.037 H 
ATOM     10  H   UNL     1     -49.056  32.654  27.215  1.00  0.00     0.061 H 
ATOM     11  H   UNL     1     -49.975  33.842  24.565  1.00  0.00     0.031 H 
ATOM     12  H   UNL     1     -50.461  32.319  25.286  1.00  0.00     0.031 H 
ENDROOT
BRANCH   1  13
ATOM     13  N   UNL     1     -48.603  30.914  24.106  1.00  0.00    -0.328 N 
ATOM     14  C   UNL     1     -48.820  28.723  24.447  1.00  0.00     0.033 A 
ATOM     15  C   UNL     1     -48.670  29.945  25.074  1.00  0.00     0.016 A 
ATOM     16  C   UNL     1     -48.901  28.958  23.043  1.00  0.00     0.071 A 
ATOM     17  H   UNL     1     -48.594  30.184  26.128  1.00  0.00     0.083 H 
ATOM     18  C   UNL     1     -48.732  30.330  22.869  1.00  0.00     0.146 A 
ATOM     19  C   UNL     1     -49.111  28.208  21.874  1.00  0.00     0.137 A 
ATOM     20  N   UNL     1     -48.711  30.989  21.697  1.00  0.00    -0.218 NA
ATOM     21  N   UNL     1     -49.093  28.835  20.680  1.00  0.00    -0.219 NA
ATOM     22  C   UNL     1     -48.891  30.163  20.657  1.00  0.00     0.120 A 
ATOM     23  H   UNL     1     -48.880  30.623  19.673  1.00  0.00     0.106 H 
BRANCH  14  24
ATOM     24  C   UNL     1     -48.886  27.434  25.130  1.00  0.00     0.095 A 
ATOM     25  N   UNL     1     -48.286  25.633  26.056  1.00  0.00    -0.275 N 
ATOM     26  C   UNL     1     -49.647  25.563  26.025  1.00  0.00     0.025 A 
ATOM     27  N   UNL     1     -47.795  26.760  25.510  1.00  0.00    -0.173 NA
ATOM     28  C   UNL     1     -50.071  26.721  25.414  1.00  0.00    -0.016 A 
ATOM     29  H   UNL     1     -50.190  24.715  26.419  1.00  0.00     0.084 H 
ATOM     30  H   UNL     1     -51.091  27.005  25.197  1.00  0.00     0.066 H 
BRANCH  25  31
ATOM     31  C   UNL     1     -47.376  24.649  26.588  1.00  0.00     0.030 C 
ATOM     32  H   UNL     1     -46.348  24.945  26.361  1.00  0.00     0.048 H 
ATOM     33  H   UNL     1     -47.520  24.597  27.670  1.00  0.00     0.048 H 
ATOM     34  H   UNL     1     -47.598  23.686  26.122  1.00  0.00     0.048 H 
ENDBRANCH  25  31
ENDBRANCH  14  24
BRANCH  19  35
ATOM     35  N   UNL     1     -49.384  26.846  21.843  1.00  0.00    -0.383 N 
ATOM     36  H   UNL     1     -50.095  26.564  22.509  1.00  0.00     0.158 HD
ATOM     37  H   UNL     1     -49.553  26.556  20.886  1.00  0.00     0.158 HD
ENDBRANCH  19  35
ENDBRANCH   1  13
BRANCH   3  38
ATOM     38  C   UNL     1     -46.681  33.952  27.337  1.00  0.00     0.094 C 
ATOM     39  H   UNL     1     -46.671  33.009  27.898  1.00  0.00     0.071 H 
ATOM     40  H   UNL     1     -45.659  34.206  27.026  1.00  0.00     0.071 H 
BRANCH  38  41
ATOM     41  O   UNL     1     -47.219  34.995  28.151  1.00  0.00    -0.493 OA
BRANCH  41  42
ATOM     42  C   UNL     1     -46.516  36.167  28.206  1.00  0.00     0.121 A 
ATOM     43  C   UNL     1     -45.646  36.272  29.290  1.00  0.00    -0.019 A 
ATOM     44  C   UNL     1     -46.600  37.221  27.294  1.00  0.00     0.007 A 
ATOM     45  C   UNL     1     -44.873  37.418  29.462  1.00  0.00    -0.049 A 
ATOM     46  H   UNL     1     -45.572  35.456  30.005  1.00  0.00     0.066 H 
ATOM     47  C   UNL     1     -45.841  38.377  27.441  1.00  0.00     0.076 A 
ATOM     48  H   UNL     1     -47.261  37.174  26.434  1.00  0.00     0.069 H 
ATOM     49  C   UNL     1     -44.968  38.472  28.540  1.00  0.00     0.001 A 
ATOM     50  H   UNL     1     -44.200  37.482  30.313  1.00  0.00     0.063 H 
ATOM     51  N   UNL     1     -45.965  39.363  26.534  1.00  0.00    -0.231 NA
ATOM     52  C   UNL     1     -44.210  39.637  28.672  1.00  0.00    -0.049 A 
ATOM     53  C   UNL     1     -45.232  40.491  26.673  1.00  0.00     0.129 A 
ATOM     54  C   UNL     1     -44.342  40.651  27.730  1.00  0.00    -0.019 A 
ATOM     55  H   UNL     1     -43.514  39.760  29.498  1.00  0.00     0.063 H 
ATOM     56  H   UNL     1     -43.745  41.553  27.819  1.00  0.00     0.066 H 
BRANCH  53  57
ATOM     57  N   UNL     1     -45.365  41.506  25.708  1.00  0.00    -0.356 N 
ATOM     58  C   UNL     1     -46.089  42.730  25.919  1.00  0.00     0.021 C 
ATOM     59  C   UNL     1     -44.298  42.177  25.024  1.00  0.00     0.021 C 
ATOM     60  C   UNL     1     -45.309  43.291  24.724  1.00  0.00    -0.018 C 
ATOM     61  H   UNL     1     -47.167  42.627  25.779  1.00  0.00     0.049 H 
ATOM     62  H   UNL     1     -45.863  43.203  26.879  1.00  0.00     0.049 H 
ATOM     63  H   UNL     1     -43.478  42.466  25.690  1.00  0.00     0.049 H 
ATOM     64  H   UNL     1     -43.923  41.632  24.156  1.00  0.00     0.049 H 
ATOM     65  H   UNL     1     -45.823  43.188  23.761  1.00  0.00     0.030 H 
ATOM     66  H   UNL     1     -44.939  44.313  24.835  1.00  0.00     0.030 H 
ENDBRANCH  53  57
ENDBRANCH  41  42
ENDBRANCH  38  41
ENDBRANCH   3  38
BRANCH   4  67
ATOM     67  O   UNL     1     -49.702  34.580  26.958  1.00  0.00    -0.393 OA
ATOM     68  H   UNL     1     -49.219  34.893  27.744  1.00  0.00     0.210 HD
ENDBRANCH   4  67
TORSDOF 9
ENDMDL
MODEL 4
REMARK VINA RESULT:      -9.4      1.937     12.304
REMARK SMILES Cn1ccc(-c2cn([C@@H]3C[C@H](COc4ccc5ccc(N6CCC6)nc5c4)[C@@H](O)C3)c3ncnc(N)c23)n1
REMARK SMILES IDX 9 1 10 2 11 3 28 4 30 5 8 13 6 14 7 15 37 16 31 18 35 19
REMARK SMILES IDX 32 20 34 21 33 22 5 24 2 25 3 26 38 27 4 28 1 31 36 35 12 38
REMARK SMILES IDX 13 41 14 42 15 43 27 44 16 45 26 47 17 49 25 51 18 52 20 53
REMARK SMILES IDX 19 54 21 57 22 58 24 59 23 60 29 67
REMARK H PARENT 9 6 10 7 10 8 11 9 28 10 30 11 30 12 7 17 33 23 3 29 4 30 1 32
REMARK H PARENT 1 33 1 34 36 36 36 37 12 39 12 40 15 46 27 48 16 50 18 55
REMARK H PARENT 19 56 22 61 22 62 24 63 24 64 23 65 23 66 29 68
REMARK Flexibility Score: inf
ROOT
ATOM      1  C   UNL     1     -47.939  32.534  26.593  1.00  0.00     0.038 C 
ATOM      2  C   UNL     1     -48.334  33.975  26.227  1.00  0.00    -0.024 C 
ATOM      3  C   UNL     1     -47.327  34.846  26.979  1.00  0.00     0.021 C 
ATOM      4  C   UNL     1     -46.044  34.028  26.897  1.00  0.00     0.062 C 
ATOM      5  C   UNL     1     -46.513  32.602  27.165  1.00  0.00    -0.006 C 
ATOM      6  H   UNL     1     -48.602  32.187  27.398  1.00  0.00     0.054 H 
ATOM      7  H   UNL     1     -49.363  34.194  26.533  1.00  0.00     0.029 H 
ATOM      8  H   UNL     1     -48.276  34.157  25.147  1.00  0.00     0.029 H 
ATOM      9  H   UNL     1     -47.650  34.940  28.025  1.00  0.00     0.037 H 
ATOM     10  H   UNL     1     -45.578  34.114  25.908  1.00  0.00     0.061 H 
ATOM     11  H   UNL     1     -46.538  32.411  28.246  1.00  0.00     0.031 H 
ATOM     12  H   UNL     1     -45.822  31.865  26.741  1.00  0.00     0.031 H 
ENDROOT
BRANCH   1  13
ATOM     13  N   UNL     1     -48.101  31.591  25.498  1.00  0.00    -0.328 N 
ATOM     14  C   UNL     1     -48.858  29.864  24.312  1.00  0.00     0.033 A 
ATOM     15  C   UNL     1     -48.997  30.553  25.501  1.00  0.00     0.016 A 
ATOM     16  C   UNL     1     -47.876  30.537  23.527  1.00  0.00     0.071 A 
ATOM     17  H   UNL     1     -49.654  30.368  26.342  1.00  0.00     0.083 H 
ATOM     18  C   UNL     1     -47.407  31.589  24.311  1.00  0.00     0.146 A 
ATOM     19  C   UNL     1     -47.314  30.425  22.245  1.00  0.00     0.137 A 
ATOM     20  N   UNL     1     -46.449  32.471  23.975  1.00  0.00    -0.218 NA
ATOM     21  N   UNL     1     -46.349  31.290  21.873  1.00  0.00    -0.219 NA
ATOM     22  C   UNL     1     -45.971  32.242  22.743  1.00  0.00     0.120 A 
ATOM     23  H   UNL     1     -45.188  32.912  22.402  1.00  0.00     0.106 H 
BRANCH  14  24
ATOM     24  C   UNL     1     -49.604  28.663  23.948  1.00  0.00     0.095 A 
ATOM     25  N   UNL     1     -50.857  27.338  22.881  1.00  0.00    -0.275 N 
ATOM     26  C   UNL     1     -50.545  26.665  24.025  1.00  0.00     0.025 A 
ATOM     27  N   UNL     1     -50.303  28.562  22.812  1.00  0.00    -0.173 NA
ATOM     28  C   UNL     1     -49.736  27.509  24.751  1.00  0.00    -0.016 A 
ATOM     29  H   UNL     1     -50.921  25.672  24.231  1.00  0.00     0.084 H 
ATOM     30  H   UNL     1     -49.310  27.321  25.726  1.00  0.00     0.066 H 
BRANCH  25  31
ATOM     31  C   UNL     1     -51.693  26.877  21.801  1.00  0.00     0.030 C 
ATOM     32  H   UNL     1     -52.059  27.736  21.233  1.00  0.00     0.048 H 
ATOM     33  H   UNL     1     -51.095  26.230  21.155  1.00  0.00     0.048 H 
ATOM     34  H   UNL     1     -52.535  26.326  22.227  1.00  0.00     0.048 H 
ENDBRANCH  25  31
ENDBRANCH  14  24
BRANCH  19  35
ATOM     35  N   UNL     1     -47.707  29.500  21.285  1.00  0.00    -0.383 N 
ATOM     36  H   UNL     1     -46.931  29.001  20.866  1.00  0.00     0.158 HD
ATOM     37  H   UNL     1     -48.443  28.913  21.662  1.00  0.00     0.158 HD
ENDBRANCH  19  35
ENDBRANCH   1  13
BRANCH   3  38
ATOM     38  C   UNL     1     -47.174  36.249  26.397  1.00  0.00     0.094 C 
ATOM     39  H   UNL     1     -46.177  36.351  25.952  1.00  0.00     0.071 H 
ATOM     40  H   UNL     1     -47.939  36.418  25.628  1.00  0.00     0.071 H 
BRANCH  38  41
ATOM     41  O   UNL     1     -47.331  37.192  27.459  1.00  0.00    -0.493 OA
BRANCH  41  42
ATOM     42  C   UNL     1     -46.330  38.107  27.632  1.00  0.00     0.121 A 
ATOM     43  C   UNL     1     -45.595  37.948  28.805  1.00  0.00    -0.019 A 
ATOM     44  C   UNL     1     -46.003  39.144  26.756  1.00  0.00     0.007 A 
ATOM     45  C   UNL     1     -44.548  38.817  29.100  1.00  0.00    -0.049 A 
ATOM     46  H   UNL     1     -45.841  37.142  29.492  1.00  0.00     0.066 H 
ATOM     47  C   UNL     1     -44.964  40.028  27.026  1.00  0.00     0.076 A 
ATOM     48  H   UNL     1     -46.549  39.297  25.830  1.00  0.00     0.069 H 
ATOM     49  C   UNL     1     -44.229  39.858  28.214  1.00  0.00     0.001 A 
ATOM     50  H   UNL     1     -43.984  38.678  30.020  1.00  0.00     0.063 H 
ATOM     51  N   UNL     1     -44.694  41.011  26.149  1.00  0.00    -0.231 NA
ATOM     52  C   UNL     1     -43.186  40.750  28.470  1.00  0.00    -0.049 A 
ATOM     53  C   UNL     1     -43.686  41.876  26.407  1.00  0.00     0.129 A 
ATOM     54  C   UNL     1     -42.912  41.764  27.558  1.00  0.00    -0.019 A 
ATOM     55  H   UNL     1     -42.581  40.661  29.368  1.00  0.00     0.063 H 
ATOM     56  H   UNL     1     -42.094  42.451  27.743  1.00  0.00     0.066 H 
BRANCH  53  57
ATOM     57  N   UNL     1     -43.411  42.891  25.472  1.00  0.00    -0.356 N 
ATOM     58  C   UNL     1     -42.091  43.375  25.172  1.00  0.00     0.021 C 
ATOM     59  C   UNL     1     -43.803  42.909  24.093  1.00  0.00     0.021 C 
ATOM     60  C   UNL     1     -42.692  43.944  23.882  1.00  0.00    -0.018 C 
ATOM     61  H   UNL     1     -41.724  44.110  25.892  1.00  0.00     0.049 H 
ATOM     62  H   UNL     1     -41.362  42.573  25.026  1.00  0.00     0.049 H 
ATOM     63  H   UNL     1     -43.642  41.949  23.590  1.00  0.00     0.049 H 
ATOM     64  H   UNL     1     -44.821  43.267  23.931  1.00  0.00     0.049 H 
ATOM     65  H   UNL     1     -43.024  44.986  23.959  1.00  0.00     0.030 H 
ATOM     66  H   UNL     1     -42.088  43.818  22.980  1.00  0.00     0.030 H 
ENDBRANCH  53  57
ENDBRANCH  41  42
ENDBRANCH  38  41
ENDBRANCH   3  38
BRANCH   4  67
ATOM     67  O   UNL     1     -45.110  34.453  27.873  1.00  0.00    -0.393 OA
ATOM     68  H   UNL     1     -45.233  35.411  27.996  1.00  0.00     0.210 HD
ENDBRANCH   4  67
TORSDOF 9
ENDMDL
MODEL 5
REMARK VINA RESULT:      -9.4      1.494      2.163
REMARK SMILES Cn1ccc(-c2cn([C@@H]3C[C@H](COc4ccc5ccc(N6CCC6)nc5c4)[C@@H](O)C3)c3ncnc(N)c23)n1
REMARK SMILES IDX 9 1 10 2 11 3 28 4 30 5 8 13 6 14 7 15 37 16 31 18 35 19
REMARK SMILES IDX 32 20 34 21 33 22 5 24 2 25 3 26 38 27 4 28 1 31 36 35 12 38
REMARK SMILES IDX 13 41 14 42 15 43 27 44 16 45 26 47 17 49 25 51 18 52 20 53
REMARK SMILES IDX 19 54 21 57 22 58 24 59 23 60 29 67
REMARK H PARENT 9 6 10 7 10 8 11 9 28 10 30 11 30 12 7 17 33 23 3 29 4 30 1 32
REMARK H PARENT 1 33 1 34 36 36 36 37 12 39 12 40 15 46 27 48 16 50 18 55
REMARK H PARENT 19 56 22 61 22 62 24 63 24 64 23 65 23 66 29 68
REMARK Flexibility Score: inf
ROOT
ATOM      1  C   UNL     1     -44.658  38.154  28.121  1.00  0.00     0.038 C 
ATOM      2  C   UNL     1     -45.914  37.492  27.527  1.00  0.00    -0.024 C 
ATOM      3  C   UNL     1     -46.372  36.511  28.608  1.00  0.00     0.021 C 
ATOM      4  C   UNL     1     -46.057  37.258  29.898  1.00  0.00     0.062 C 
ATOM      5  C   UNL     1     -44.685  37.866  29.631  1.00  0.00    -0.006 C 
ATOM      6  H   UNL     1     -43.773  37.653  27.705  1.00  0.00     0.054 H 
ATOM      7  H   UNL     1     -45.684  36.977  26.587  1.00  0.00     0.029 H 
ATOM      8  H   UNL     1     -46.701  38.224  27.307  1.00  0.00     0.029 H 
ATOM      9  H   UNL     1     -45.763  35.599  28.540  1.00  0.00     0.037 H 
ATOM     10  H   UNL     1     -46.803  38.035  30.102  1.00  0.00     0.061 H 
ATOM     11  H   UNL     1     -43.897  37.145  29.885  1.00  0.00     0.031 H 
ATOM     12  H   UNL     1     -44.506  38.746  30.260  1.00  0.00     0.031 H 
ENDROOT
BRANCH   1  13
ATOM     13  N   UNL     1     -44.527  39.561  27.780  1.00  0.00    -0.328 N 
ATOM     14  C   UNL     1     -44.901  41.524  26.796  1.00  0.00     0.033 A 
ATOM     15  C   UNL     1     -45.326  40.213  26.876  1.00  0.00     0.016 A 
ATOM     16  C   UNL     1     -43.834  41.697  27.726  1.00  0.00     0.071 A 
ATOM     17  H   UNL     1     -46.123  39.704  26.347  1.00  0.00     0.083 H 
ATOM     18  C   UNL     1     -43.611  40.446  28.298  1.00  0.00     0.146 A 
ATOM     19  C   UNL     1     -43.020  42.743  28.193  1.00  0.00     0.137 A 
ATOM     20  N   UNL     1     -42.673  40.141  29.212  1.00  0.00    -0.218 NA
ATOM     21  N   UNL     1     -42.067  42.474  29.107  1.00  0.00    -0.219 NA
ATOM     22  C   UNL     1     -41.943  41.212  29.553  1.00  0.00     0.120 A 
ATOM     23  H   UNL     1     -41.159  41.043  30.285  1.00  0.00     0.106 H 
BRANCH  14  24
ATOM     24  C   UNL     1     -45.468  42.536  25.909  1.00  0.00     0.095 A 
ATOM     25  N   UNL     1     -45.646  43.949  24.349  1.00  0.00    -0.275 N 
ATOM     26  C   UNL     1     -46.823  44.043  25.030  1.00  0.00     0.025 A 
ATOM     27  N   UNL     1     -44.798  43.043  24.868  1.00  0.00    -0.173 NA
ATOM     28  C   UNL     1     -46.735  43.141  26.064  1.00  0.00    -0.016 A 
ATOM     29  H   UNL     1     -47.604  44.733  24.739  1.00  0.00     0.084 H 
ATOM     30  H   UNL     1     -47.477  42.952  26.828  1.00  0.00     0.066 H 
BRANCH  25  31
ATOM     31  C   UNL     1     -45.250  44.705  23.187  1.00  0.00     0.030 C 
ATOM     32  H   UNL     1     -45.308  45.773  23.411  1.00  0.00     0.048 H 
ATOM     33  H   UNL     1     -44.222  44.432  22.932  1.00  0.00     0.048 H 
ATOM     34  H   UNL     1     -45.928  44.458  22.367  1.00  0.00     0.048 H 
ENDBRANCH  25  31
ENDBRANCH  14  24
BRANCH  19  35
ATOM     35  N   UNL     1     -43.143  44.074  27.813  1.00  0.00    -0.383 N 
ATOM     36  H   UNL     1     -44.061  44.462  28.000  1.00  0.00     0.158 HD
ATOM     37  H   UNL     1     -42.366  44.606  28.190  1.00  0.00     0.158 HD
ENDBRANCH  19  35
ENDBRANCH   1  13
BRANCH   3  38
ATOM     38  C   UNL     1     -47.842  36.117  28.494  1.00  0.00     0.094 C 
ATOM     39  H   UNL     1     -47.990  35.134  28.958  1.00  0.00     0.071 H 
ATOM     40  H   UNL     1     -48.468  36.862  29.000  1.00  0.00     0.071 H 
BRANCH  38  41
ATOM     41  O   UNL     1     -48.181  36.054  27.107  1.00  0.00    -0.493 OA
BRANCH  41  42
ATOM     42  C   UNL     1     -47.893  34.891  26.447  1.00  0.00     0.121 A 
ATOM     43  C   UNL     1     -46.658  34.881  25.801  1.00  0.00    -0.019 A 
ATOM     44  C   UNL     1     -48.709  33.761  26.378  1.00  0.00     0.007 A 
ATOM     45  C   UNL     1     -46.246  33.756  25.092  1.00  0.00    -0.049 A 
ATOM     46  H   UNL     1     -46.014  35.756  25.851  1.00  0.00     0.066 H 
ATOM     47  C   UNL     1     -48.325  32.624  25.676  1.00  0.00     0.076 A 
ATOM     48  H   UNL     1     -49.675  33.728  26.873  1.00  0.00     0.069 H 
ATOM     49  C   UNL     1     -47.076  32.626  25.026  1.00  0.00     0.001 A 
ATOM     50  H   UNL     1     -45.279  33.765  24.594  1.00  0.00     0.063 H 
ATOM     51  N   UNL     1     -49.152  31.564  25.639  1.00  0.00    -0.231 NA
ATOM     52  C   UNL     1     -46.702  31.476  24.329  1.00  0.00    -0.049 A 
ATOM     53  C   UNL     1     -48.785  30.456  24.955  1.00  0.00     0.129 A 
ATOM     54  C   UNL     1     -47.562  30.383  24.296  1.00  0.00    -0.019 A 
ATOM     55  H   UNL     1     -45.746  31.419  23.815  1.00  0.00     0.063 H 
ATOM     56  H   UNL     1     -47.271  29.482  23.768  1.00  0.00     0.066 H 
BRANCH  53  57
ATOM     57  N   UNL     1     -49.659  29.353  24.938  1.00  0.00    -0.356 N 
ATOM     58  C   UNL     1     -50.460  28.976  23.806  1.00  0.00     0.021 C 
ATOM     59  C   UNL     1     -49.318  27.992  25.234  1.00  0.00     0.021 C 
ATOM     60  C   UNL     1     -50.588  27.600  24.470  1.00  0.00    -0.018 C 
ATOM     61  H   UNL     1     -51.384  29.551  23.717  1.00  0.00     0.049 H 
ATOM     62  H   UNL     1     -49.904  28.983  22.864  1.00  0.00     0.049 H 
ATOM     63  H   UNL     1     -48.380  27.674  24.765  1.00  0.00     0.049 H 
ATOM     64  H   UNL     1     -49.317  27.762  26.301  1.00  0.00     0.049 H 
ATOM     65  H   UNL     1     -51.477  27.484  25.100  1.00  0.00     0.030 H 
ATOM     66  H   UNL     1     -50.498  26.740  23.803  1.00  0.00     0.030 H 
ENDBRANCH  53  57
ENDBRANCH  41  42
ENDBRANCH  38  41
ENDBRANCH   3  38
BRANCH   4  67
ATOM     67  O   UNL     1     -46.019  36.369  31.000  1.00  0.00    -0.393 OA
ATOM     68  H   UNL     1     -46.835  35.838  30.974  1.00  0.00     0.210 HD
ENDBRANCH   4  67
TORSDOF 9
ENDMDL
MODEL 6
REMARK VINA RESULT:      -9.2      1.831      2.622
REMARK SMILES Cn1ccc(-c2cn([C@@H]3C[C@H](COc4ccc5ccc(N6CCC6)nc5c4)[C@@H](O)C3)c3ncnc(N)c23)n1
REMARK SMILES IDX 9 1 10 2 11 3 28 4 30 5 8 13 6 14 7 15 37 16 31 18 35 19
REMARK SMILES IDX 32 20 34 21 33 22 5 24 2 25 3 26 38 27 4 28 1 31 36 35 12 38
REMARK SMILES IDX 13 41 14 42 15 43 27 44 16 45 26 47 17 49 25 51 18 52 20 53
REMARK SMILES IDX 19 54 21 57 22 58 24 59 23 60 29 67
REMARK H PARENT 9 6 10 7 10 8 11 9 28 10 30 11 30 12 7 17 33 23 3 29 4 30 1 32
REMARK H PARENT 1 33 1 34 36 36 36 37 12 39 12 40 15 46 27 48 16 50 18 55
REMARK H PARENT 19 56 22 61 22 62 24 63 24 64 23 65 23 66 29 68
REMARK Flexibility Score: inf
ROOT
ATOM      1  C   UNL     1     -45.760  38.325  28.744  1.00  0.00     0.038 C 
ATOM      2  C   UNL     1     -44.954  37.018  28.634  1.00  0.00    -0.024 C 
ATOM      3  C   UNL     1     -46.008  35.947  28.352  1.00  0.00     0.021 C 
ATOM      4  C   UNL     1     -47.002  36.676  27.457  1.00  0.00     0.062 C 
ATOM      5  C   UNL     1     -47.135  38.045  28.115  1.00  0.00    -0.006 C 
ATOM      6  H   UNL     1     -45.922  38.543  29.809  1.00  0.00     0.054 H 
ATOM      7  H   UNL     1     -44.407  36.811  29.561  1.00  0.00     0.029 H 
ATOM      8  H   UNL     1     -44.213  37.058  27.827  1.00  0.00     0.029 H 
ATOM      9  H   UNL     1     -46.488  35.662  29.299  1.00  0.00     0.037 H 
ATOM     10  H   UNL     1     -46.626  36.763  26.431  1.00  0.00     0.061 H 
ATOM     11  H   UNL     1     -47.902  38.012  28.900  1.00  0.00     0.031 H 
ATOM     12  H   UNL     1     -47.466  38.805  27.398  1.00  0.00     0.031 H 
ENDROOT
BRANCH   1  13
ATOM     13  N   UNL     1     -45.072  39.480  28.192  1.00  0.00    -0.328 N 
ATOM     14  C   UNL     1     -44.593  41.192  26.849  1.00  0.00     0.033 A 
ATOM     15  C   UNL     1     -45.499  40.178  27.091  1.00  0.00     0.016 A 
ATOM     16  C   UNL     1     -43.600  41.146  27.872  1.00  0.00     0.071 A 
ATOM     17  H   UNL     1     -46.398  39.902  26.554  1.00  0.00     0.083 H 
ATOM     18  C   UNL     1     -43.916  40.049  28.671  1.00  0.00     0.146 A 
ATOM     19  C   UNL     1     -42.472  41.888  28.260  1.00  0.00     0.137 A 
ATOM     20  N   UNL     1     -43.226  39.615  29.741  1.00  0.00    -0.218 NA
ATOM     21  N   UNL     1     -41.754  41.481  29.326  1.00  0.00    -0.219 NA
ATOM     22  C   UNL     1     -42.158  40.385  29.991  1.00  0.00     0.120 A 
ATOM     23  H   UNL     1     -41.546  40.093  30.839  1.00  0.00     0.106 H 
BRANCH  14  24
ATOM     24  C   UNL     1     -44.668  42.134  25.736  1.00  0.00     0.095 A 
ATOM     25  N   UNL     1     -45.380  43.651  24.451  1.00  0.00    -0.275 N 
ATOM     26  C   UNL     1     -44.246  43.196  23.846  1.00  0.00     0.025 A 
ATOM     27  N   UNL     1     -45.665  43.015  25.601  1.00  0.00    -0.173 NA
ATOM     28  C   UNL     1     -43.762  42.194  24.655  1.00  0.00    -0.016 A 
ATOM     29  H   UNL     1     -43.889  43.602  22.909  1.00  0.00     0.084 H 
ATOM     30  H   UNL     1     -42.884  41.587  24.484  1.00  0.00     0.066 H 
BRANCH  25  31
ATOM     31  C   UNL     1     -46.257  44.694  23.982  1.00  0.00     0.030 C 
ATOM     32  H   UNL     1     -46.418  44.579  22.907  1.00  0.00     0.048 H 
ATOM     33  H   UNL     1     -47.209  44.609  24.513  1.00  0.00     0.048 H 
ATOM     34  H   UNL     1     -45.787  45.660  24.187  1.00  0.00     0.048 H 
ENDBRANCH  25  31
ENDBRANCH  14  24
BRANCH  19  35
ATOM     35  N   UNL     1     -42.044  43.060  27.648  1.00  0.00    -0.383 N 
ATOM     36  H   UNL     1     -42.761  43.775  27.605  1.00  0.00     0.158 HD
ATOM     37  H   UNL     1     -41.166  43.356  28.061  1.00  0.00     0.158 HD
ENDBRANCH  19  35
ENDBRANCH   1  13
BRANCH   3  38
ATOM     38  C   UNL     1     -45.441  34.685  27.705  1.00  0.00     0.094 C 
ATOM     39  H   UNL     1     -44.346  34.716  27.749  1.00  0.00     0.071 H 
ATOM     40  H   UNL     1     -45.807  33.798  28.237  1.00  0.00     0.071 H 
BRANCH  38  41
ATOM     41  O   UNL     1     -45.871  34.651  26.343  1.00  0.00    -0.493 OA
BRANCH  41  42
ATOM     42  C   UNL     1     -46.545  33.534  25.930  1.00  0.00     0.121 A 
ATOM     43  C   UNL     1     -47.104  32.781  26.961  1.00  0.00    -0.019 A 
ATOM     44  C   UNL     1     -46.707  33.113  24.609  1.00  0.00     0.007 A 
ATOM     45  C   UNL     1     -47.815  31.618  26.673  1.00  0.00    -0.049 A 
ATOM     46  H   UNL     1     -46.985  33.103  27.993  1.00  0.00     0.066 H 
ATOM     47  C   UNL     1     -47.410  31.955  24.293  1.00  0.00     0.076 A 
ATOM     48  H   UNL     1     -46.291  33.676  23.780  1.00  0.00     0.069 H 
ATOM     49  C   UNL     1     -47.970  31.202  25.342  1.00  0.00     0.001 A 
ATOM     50  H   UNL     1     -48.246  31.043  27.490  1.00  0.00     0.063 H 
ATOM     51  N   UNL     1     -47.533  31.594  23.004  1.00  0.00    -0.231 NA
ATOM     52  C   UNL     1     -48.677  30.045  25.009  1.00  0.00    -0.049 A 
ATOM     53  C   UNL     1     -48.213  30.467  22.690  1.00  0.00     0.129 A 
ATOM     54  C   UNL     1     -48.800  29.678  23.673  1.00  0.00    -0.019 A 
ATOM     55  H   UNL     1     -49.136  29.429  25.778  1.00  0.00     0.063 H 
ATOM     56  H   UNL     1     -49.361  28.788  23.407  1.00  0.00     0.066 H 
BRANCH  53  57
ATOM     57  N   UNL     1     -48.341  30.111  21.335  1.00  0.00    -0.356 N 
ATOM     58  C   UNL     1     -49.191  29.056  20.855  1.00  0.00     0.021 C 
ATOM     59  C   UNL     1     -48.703  30.983  20.255  1.00  0.00     0.021 C 
ATOM     60  C   UNL     1     -49.081  29.717  19.477  1.00  0.00    -0.018 C 
ATOM     61  H   UNL     1     -48.743  28.063  20.945  1.00  0.00     0.049 H 
ATOM     62  H   UNL     1     -50.191  29.074  21.297  1.00  0.00     0.049 H 
ATOM     63  H   UNL     1     -49.543  31.642  20.501  1.00  0.00     0.049 H 
ATOM     64  H   UNL     1     -47.864  31.553  19.853  1.00  0.00     0.049 H 
ATOM     65  H   UNL     1     -48.279  29.318  18.846  1.00  0.00     0.030 H 
ATOM     66  H   UNL     1     -50.007  29.771  18.900  1.00  0.00     0.030 H 
ENDBRANCH  53  57
ENDBRANCH  41  42
ENDBRANCH  38  41
ENDBRANCH   3  38
BRANCH   4  67
ATOM     67  O   UNL     1     -48.246  35.998  27.426  1.00  0.00    -0.393 OA
ATOM     68  H   UNL     1     -48.082  35.105  27.075  1.00  0.00     0.210 HD
ENDBRANCH   4  67
TORSDOF 9
ENDMDL
MODEL 7
REMARK VINA RESULT:      -9.0      5.606      9.583
REMARK SMILES Cn1ccc(-c2cn([C@@H]3C[C@H](COc4ccc5ccc(N6CCC6)nc5c4)[C@@H](O)C3)c3ncnc(N)c23)n1
REMARK SMILES IDX 9 1 10 2 11 3 28 4 30 5 8 13 6 14 7 15 37 16 31 18 35 19
REMARK SMILES IDX 32 20 34 21 33 22 5 24 2 25 3 26 38 27 4 28 1 31 36 35 12 38
REMARK SMILES IDX 13 41 14 42 15 43 27 44 16 45 26 47 17 49 25 51 18 52 20 53
REMARK SMILES IDX 19 54 21 57 22 58 24 59 23 60 29 67
REMARK H PARENT 9 6 10 7 10 8 11 9 28 10 30 11 30 12 7 17 33 23 3 29 4 30 1 32
REMARK H PARENT 1 33 1 34 36 36 36 37 12 39 12 40 15 46 27 48 16 50 18 55
REMARK H PARENT 19 56 22 61 22 62 24 63 24 64 23 65 23 66 29 68
REMARK Flexibility Score: inf
ROOT
ATOM      1  C   UNL     1     -45.932  44.499  24.705  1.00  0.00     0.038 C 
ATOM      2  C   UNL     1     -44.876  43.383  24.626  1.00  0.00    -0.024 C 
ATOM      3  C   UNL     1     -43.559  44.085  24.959  1.00  0.00     0.021 C 
ATOM      4  C   UNL     1     -43.974  45.100  26.017  1.00  0.00     0.062 C 
ATOM      5  C   UNL     1     -45.285  45.661  25.476  1.00  0.00    -0.006 C 
ATOM      6  H   UNL     1     -46.139  44.853  23.686  1.00  0.00     0.054 H 
ATOM      7  H   UNL     1     -44.850  42.932  23.627  1.00  0.00     0.029 H 
ATOM      8  H   UNL     1     -45.077  42.573  25.337  1.00  0.00     0.029 H 
ATOM      9  H   UNL     1     -43.194  44.601  24.060  1.00  0.00     0.037 H 
ATOM     10  H   UNL     1     -44.119  44.622  26.993  1.00  0.00     0.061 H 
ATOM     11  H   UNL     1     -45.083  46.494  24.790  1.00  0.00     0.031 H 
ATOM     12  H   UNL     1     -45.907  46.071  26.279  1.00  0.00     0.031 H 
ENDROOT
BRANCH   1  13
ATOM     13  N   UNL     1     -47.206  44.055  25.248  1.00  0.00    -0.328 N 
ATOM     14  C   UNL     1     -48.683  42.939  26.488  1.00  0.00     0.033 A 
ATOM     15  C   UNL     1     -47.335  43.122  26.246  1.00  0.00     0.016 A 
ATOM     16  C   UNL     1     -49.406  43.832  25.643  1.00  0.00     0.071 A 
ATOM     17  H   UNL     1     -46.474  42.649  26.700  1.00  0.00     0.083 H 
ATOM     18  C   UNL     1     -48.453  44.488  24.866  1.00  0.00     0.146 A 
ATOM     19  C   UNL     1     -50.743  44.205  25.425  1.00  0.00     0.137 A 
ATOM     20  N   UNL     1     -48.694  45.401  23.909  1.00  0.00    -0.218 NA
ATOM     21  N   UNL     1     -51.023  45.116  24.472  1.00  0.00    -0.219 NA
ATOM     22  C   UNL     1     -50.005  45.648  23.775  1.00  0.00     0.120 A 
ATOM     23  H   UNL     1     -50.280  46.374  23.015  1.00  0.00     0.106 H 
BRANCH  14  24
ATOM     24  C   UNL     1     -49.239  41.994  27.451  1.00  0.00     0.095 A 
ATOM     25  N   UNL     1     -50.360  41.214  29.063  1.00  0.00    -0.275 N 
ATOM     26  C   UNL     1     -49.613  40.160  28.626  1.00  0.00     0.025 A 
ATOM     27  N   UNL     1     -50.146  42.346  28.370  1.00  0.00    -0.173 NA
ATOM     28  C   UNL     1     -48.860  40.640  27.579  1.00  0.00    -0.016 A 
ATOM     29  H   UNL     1     -49.667  39.183  29.087  1.00  0.00     0.084 H 
ATOM     30  H   UNL     1     -48.132  40.092  26.997  1.00  0.00     0.066 H 
BRANCH  25  31
ATOM     31  C   UNL     1     -51.302  41.219  30.154  1.00  0.00     0.030 C 
ATOM     32  H   UNL     1     -51.334  42.215  30.602  1.00  0.00     0.048 H 
ATOM     33  H   UNL     1     -52.287  40.954  29.760  1.00  0.00     0.048 H 
ATOM     34  H   UNL     1     -50.975  40.486  30.897  1.00  0.00     0.048 H 
ENDBRANCH  25  31
ENDBRANCH  14  24
BRANCH  19  35
ATOM     35  N   UNL     1     -51.827  43.732  26.156  1.00  0.00    -0.383 N 
ATOM     36  H   UNL     1     -52.647  43.555  25.588  1.00  0.00     0.158 HD
ATOM     37  H   UNL     1     -51.530  42.956  26.737  1.00  0.00     0.158 HD
ENDBRANCH  19  35
ENDBRANCH   1  13
BRANCH   3  38
ATOM     38  C   UNL     1     -42.465  43.137  25.443  1.00  0.00     0.094 C 
ATOM     39  H   UNL     1     -42.715  42.111  25.145  1.00  0.00     0.071 H 
ATOM     40  H   UNL     1     -41.501  43.424  25.003  1.00  0.00     0.071 H 
BRANCH  38  41
ATOM     41  O   UNL     1     -42.397  43.224  26.868  1.00  0.00    -0.493 OA
BRANCH  41  42
ATOM     42  C   UNL     1     -42.796  42.127  27.580  1.00  0.00     0.121 A 
ATOM     43  C   UNL     1     -42.031  41.860  28.714  1.00  0.00    -0.019 A 
ATOM     44  C   UNL     1     -43.869  41.290  27.267  1.00  0.00     0.007 A 
ATOM     45  C   UNL     1     -42.334  40.769  29.524  1.00  0.00    -0.049 A 
ATOM     46  H   UNL     1     -41.194  42.508  28.966  1.00  0.00     0.066 H 
ATOM     47  C   UNL     1     -44.193  40.192  28.057  1.00  0.00     0.076 A 
ATOM     48  H   UNL     1     -44.492  41.468  26.396  1.00  0.00     0.069 H 
ATOM     49  C   UNL     1     -43.413  39.932  29.199  1.00  0.00     0.001 A 
ATOM     50  H   UNL     1     -41.726  40.577  30.405  1.00  0.00     0.063 H 
ATOM     51  N   UNL     1     -45.236  39.417  27.708  1.00  0.00    -0.231 NA
ATOM     52  C   UNL     1     -43.753  38.829  29.985  1.00  0.00    -0.049 A 
ATOM     53  C   UNL     1     -45.554  38.346  28.470  1.00  0.00     0.129 A 
ATOM     54  C   UNL     1     -44.833  38.033  29.618  1.00  0.00    -0.019 A 
ATOM     55  H   UNL     1     -43.189  38.587  30.882  1.00  0.00     0.063 H 
ATOM     56  H   UNL     1     -45.111  37.183  30.232  1.00  0.00     0.066 H 
BRANCH  53  57
ATOM     57  N   UNL     1     -46.655  37.554  28.096  1.00  0.00    -0.356 N 
ATOM     58  C   UNL     1     -46.839  36.996  26.784  1.00  0.00     0.021 C 
ATOM     59  C   UNL     1     -47.099  36.353  28.741  1.00  0.00     0.021 C 
ATOM     60  C   UNL     1     -47.833  36.027  27.434  1.00  0.00    -0.018 C 
ATOM     61  H   UNL     1     -47.262  37.703  26.067  1.00  0.00     0.049 H 
ATOM     62  H   UNL     1     -45.934  36.529  26.384  1.00  0.00     0.049 H 
ATOM     63  H   UNL     1     -46.278  35.672  28.992  1.00  0.00     0.049 H 
ATOM     64  H   UNL     1     -47.737  36.532  29.609  1.00  0.00     0.049 H 
ATOM     65  H   UNL     1     -48.876  36.363  27.405  1.00  0.00     0.030 H 
ATOM     66  H   UNL     1     -47.773  34.989  27.100  1.00  0.00     0.030 H 
ENDBRANCH  53  57
ENDBRANCH  41  42
ENDBRANCH  38  41
ENDBRANCH   3  38
BRANCH   4  67
ATOM     67  O   UNL     1     -42.997  46.117  26.153  1.00  0.00    -0.393 OA
ATOM     68  H   UNL     1     -42.153  45.682  26.369  1.00  0.00     0.210 HD
ENDBRANCH   4  67
TORSDOF 9
ENDMDL
