MODEL 1
REMARK VINA RESULT:     -11.9      0.000      0.000
REMARK SMILES O=C(NCc1ccc2cc(CN3CC4(C3)CC(F)(F)C4)[nH]c2c1)c1cc(=O)n2ccccc2n1
REMARK SMILES IDX 5 1 6 2 7 3 8 4 9 5 10 6 21 7 22 8 23 9 4 15 3 18 1 19 2 20
REMARK SMILES IDX 24 22 25 23 34 24 26 25 33 27 27 28 28 29 32 30 29 31 31 32
REMARK SMILES IDX 30 34 11 38 12 41 13 42 15 43 14 44 16 49 20 50 17 51 18 56
REMARK SMILES IDX 19 57
REMARK H PARENT 6 10 7 11 9 12 21 13 23 14 4 16 4 17 3 21 25 26 32 33 29 35
REMARK H PARENT 31 36 30 37 11 39 11 40 13 45 13 46 15 47 15 48 16 52 16 53
REMARK H PARENT 20 54 20 55
REMARK Flexibility Score: inf
ROOT
ATOM      1  C   UNL     1     -48.109  34.689  26.572  1.00  0.00    -0.027 A 
ATOM      2  C   UNL     1     -46.843  34.676  25.974  1.00  0.00    -0.057 A 
ATOM      3  C   UNL     1     -46.442  33.617  25.147  1.00  0.00    -0.052 A 
ATOM      4  C   UNL     1     -47.326  32.546  24.923  1.00  0.00    -0.000 A 
ATOM      5  C   UNL     1     -47.249  31.341  24.169  1.00  0.00    -0.032 A 
ATOM      6  C   UNL     1     -48.438  30.660  24.331  1.00  0.00     0.030 A 
ATOM      7  N   UNL     1     -49.232  31.421  25.156  1.00  0.00    -0.357 N 
ATOM      8  C   UNL     1     -48.578  32.570  25.532  1.00  0.00     0.046 A 
ATOM      9  C   UNL     1     -48.996  33.618  26.362  1.00  0.00    -0.033 A 
ATOM     10  H   UNL     1     -46.149  35.495  26.148  1.00  0.00     0.063 H 
ATOM     11  H   UNL     1     -45.458  33.625  24.689  1.00  0.00     0.063 H 
ATOM     12  H   UNL     1     -46.409  31.012  23.572  1.00  0.00     0.065 H 
ATOM     13  H   UNL     1     -50.156  31.144  25.462  1.00  0.00     0.166 HD
ATOM     14  H   UNL     1     -49.975  33.603  26.831  1.00  0.00     0.065 H 
ENDROOT
BRANCH   1  15
ATOM     15  C   UNL     1     -48.505  35.820  27.485  1.00  0.00     0.043 C 
ATOM     16  H   UNL     1     -49.414  36.316  27.123  1.00  0.00     0.054 H 
ATOM     17  H   UNL     1     -48.730  35.447  28.491  1.00  0.00     0.054 H 
BRANCH  15  18
ATOM     18  N   UNL     1     -47.455  36.797  27.573  1.00  0.00    -0.347 N 
ATOM     19  O   UNL     1     -46.865  36.321  29.738  1.00  0.00    -0.268 OA
ATOM     20  C   UNL     1     -46.720  36.979  28.716  1.00  0.00     0.270 C 
ATOM     21  H   UNL     1     -47.270  37.424  26.795  1.00  0.00     0.164 HD
BRANCH  20  22
ATOM     22  C   UNL     1     -45.708  38.090  28.580  1.00  0.00     0.136 A 
ATOM     23  C   UNL     1     -44.833  38.223  29.580  1.00  0.00     0.035 A 
ATOM     24  N   UNL     1     -45.743  38.885  27.457  1.00  0.00    -0.225 NA
ATOM     25  C   UNL     1     -43.829  39.291  29.488  1.00  0.00     0.258 A 
ATOM     26  H   UNL     1     -44.814  37.591  30.458  1.00  0.00     0.071 H 
ATOM     27  C   UNL     1     -44.853  39.827  27.380  1.00  0.00     0.140 A 
ATOM     28  O   UNL     1     -43.019  39.421  30.404  1.00  0.00    -0.269 OA
ATOM     29  N   UNL     1     -43.886  40.076  28.346  1.00  0.00    -0.268 N 
ATOM     30  C   UNL     1     -44.854  40.712  26.180  1.00  0.00    -0.019 A 
ATOM     31  C   UNL     1     -42.966  41.108  28.187  1.00  0.00     0.014 A 
ATOM     32  C   UNL     1     -43.948  41.691  26.072  1.00  0.00    -0.057 A 
ATOM     33  H   UNL     1     -45.604  40.524  25.421  1.00  0.00     0.066 H 
ATOM     34  C   UNL     1     -42.971  41.898  27.107  1.00  0.00    -0.045 A 
ATOM     35  H   UNL     1     -42.237  41.246  28.982  1.00  0.00     0.082 H 
ATOM     36  H   UNL     1     -43.932  42.345  25.206  1.00  0.00     0.062 H 
ATOM     37  H   UNL     1     -42.249  42.700  26.993  1.00  0.00     0.064 H 
ENDBRANCH  20  22
ENDBRANCH  15  18
ENDBRANCH   1  15
BRANCH   6  38
ATOM     38  C   UNL     1     -48.910  29.358  23.773  1.00  0.00     0.039 C 
ATOM     39  H   UNL     1     -48.222  29.019  22.986  1.00  0.00     0.050 H 
ATOM     40  H   UNL     1     -49.882  29.532  23.291  1.00  0.00     0.050 H 
BRANCH  38  41
ATOM     41  N   UNL     1     -49.080  28.362  24.838  1.00  0.00    -0.296 NA
ATOM     42  C   UNL     1     -49.019  26.984  24.269  1.00  0.00     0.006 C 
ATOM     43  C   UNL     1     -47.787  28.115  25.546  1.00  0.00     0.006 C 
ATOM     44  C   UNL     1     -48.079  26.642  25.390  1.00  0.00     0.007 C 
ATOM     45  H   UNL     1     -49.978  26.459  24.266  1.00  0.00     0.044 H 
ATOM     46  H   UNL     1     -48.573  26.901  23.270  1.00  0.00     0.044 H 
ATOM     47  H   UNL     1     -47.757  28.499  26.570  1.00  0.00     0.044 H 
ATOM     48  H   UNL     1     -46.883  28.453  25.023  1.00  0.00     0.044 H 
ATOM     49  C   UNL     1     -48.583  25.878  26.589  1.00  0.00     0.019 C 
ATOM     50  C   UNL     1     -46.946  25.679  25.187  1.00  0.00     0.019 C 
ATOM     51  C   UNL     1     -47.165  25.242  26.665  1.00  0.00     0.249 C 
ATOM     52  H   UNL     1     -49.371  25.148  26.373  1.00  0.00     0.033 H 
ATOM     53  H   UNL     1     -48.875  26.466  27.464  1.00  0.00     0.033 H 
ATOM     54  H   UNL     1     -45.966  26.113  24.973  1.00  0.00     0.033 H 
ATOM     55  H   UNL     1     -47.148  24.879  24.466  1.00  0.00     0.033 H 
ATOM     56  F   UNL     1     -46.326  25.816  27.560  1.00  0.00    -0.207 F 
ATOM     57  F   UNL     1     -47.132  23.911  26.891  1.00  0.00    -0.207 F 
ENDBRANCH  38  41
ENDBRANCH   6  38
TORSDOF 5
ENDMDL
MODEL 2
REMARK VINA RESULT:     -11.3      1.332      2.029
REMARK SMILES O=C(NCc1ccc2cc(CN3CC4(C3)CC(F)(F)C4)[nH]c2c1)c1cc(=O)n2ccccc2n1
REMARK SMILES IDX 5 1 6 2 7 3 8 4 9 5 10 6 21 7 22 8 23 9 4 15 3 18 1 19 2 20
REMARK SMILES IDX 24 22 25 23 34 24 26 25 33 27 27 28 28 29 32 30 29 31 31 32
REMARK SMILES IDX 30 34 11 38 12 41 13 42 15 43 14 44 16 49 20 50 17 51 18 56
REMARK SMILES IDX 19 57
REMARK H PARENT 6 10 7 11 9 12 21 13 23 14 4 16 4 17 3 21 25 26 32 33 29 35
REMARK H PARENT 31 36 30 37 11 39 11 40 13 45 13 46 15 47 15 48 16 52 16 53
REMARK H PARENT 20 54 20 55
REMARK Flexibility Score: inf
ROOT
ATOM      1  C   UNL     1     -47.730  34.823  26.849  1.00  0.00    -0.027 A 
ATOM      2  C   UNL     1     -46.445  34.699  26.306  1.00  0.00    -0.057 A 
ATOM      3  C   UNL     1     -46.144  33.698  25.373  1.00  0.00    -0.052 A 
ATOM      4  C   UNL     1     -47.151  32.795  24.983  1.00  0.00    -0.000 A 
ATOM      5  C   UNL     1     -47.196  31.688  24.090  1.00  0.00    -0.032 A 
ATOM      6  C   UNL     1     -48.473  31.168  24.119  1.00  0.00     0.030 A 
ATOM      7  N   UNL     1     -49.203  31.934  24.997  1.00  0.00    -0.357 N 
ATOM      8  C   UNL     1     -48.421  32.927  25.538  1.00  0.00     0.046 A 
ATOM      9  C   UNL     1     -48.741  33.921  26.471  1.00  0.00    -0.033 A 
ATOM     10  H   UNL     1     -45.658  35.386  26.609  1.00  0.00     0.063 H 
ATOM     11  H   UNL     1     -45.143  33.619  24.960  1.00  0.00     0.063 H 
ATOM     12  H   UNL     1     -46.374  31.314  23.493  1.00  0.00     0.065 H 
ATOM     13  H   UNL     1     -50.172  31.758  25.228  1.00  0.00     0.166 HD
ATOM     14  H   UNL     1     -49.739  33.990  26.894  1.00  0.00     0.065 H 
ENDROOT
BRANCH   1  15
ATOM     15  C   UNL     1     -48.022  35.886  27.875  1.00  0.00     0.043 C 
ATOM     16  H   UNL     1     -49.026  36.301  27.736  1.00  0.00     0.054 H 
ATOM     17  H   UNL     1     -47.993  35.466  28.888  1.00  0.00     0.054 H 
BRANCH  15  18
ATOM     18  N   UNL     1     -47.067  36.957  27.787  1.00  0.00    -0.347 N 
ATOM     19  O   UNL     1     -46.362  36.831  29.966  1.00  0.00    -0.268 OA
ATOM     20  C   UNL     1     -46.315  37.356  28.861  1.00  0.00     0.270 C 
ATOM     21  H   UNL     1     -46.969  37.488  26.926  1.00  0.00     0.164 HD
BRANCH  20  22
ATOM     22  C   UNL     1     -45.419  38.526  28.535  1.00  0.00     0.136 A 
ATOM     23  C   UNL     1     -45.720  39.217  27.434  1.00  0.00     0.035 A 
ATOM     24  N   UNL     1     -44.365  38.807  29.375  1.00  0.00    -0.225 NA
ATOM     25  C   UNL     1     -44.875  40.365  27.080  1.00  0.00     0.258 A 
ATOM     26  H   UNL     1     -46.552  38.987  26.781  1.00  0.00     0.071 H 
ATOM     27  C   UNL     1     -43.622  39.823  29.059  1.00  0.00     0.140 A 
ATOM     28  O   UNL     1     -45.145  41.008  26.067  1.00  0.00    -0.269 OA
ATOM     29  N   UNL     1     -43.822  40.628  27.943  1.00  0.00    -0.268 N 
ATOM     30  C   UNL     1     -42.470  40.165  29.941  1.00  0.00    -0.019 A 
ATOM     31  C   UNL     1     -42.978  41.701  27.675  1.00  0.00     0.014 A 
ATOM     32  C   UNL     1     -41.685  41.208  29.642  1.00  0.00    -0.057 A 
ATOM     33  H   UNL     1     -42.307  39.545  30.813  1.00  0.00     0.066 H 
ATOM     34  C   UNL     1     -41.945  42.003  28.471  1.00  0.00    -0.045 A 
ATOM     35  H   UNL     1     -43.192  42.287  26.785  1.00  0.00     0.082 H 
ATOM     36  H   UNL     1     -40.843  41.473  30.272  1.00  0.00     0.062 H 
ATOM     37  H   UNL     1     -41.292  42.842  28.253  1.00  0.00     0.064 H 
ENDBRANCH  20  22
ENDBRANCH  15  18
ENDBRANCH   1  15
BRANCH   6  38
ATOM     38  C   UNL     1     -49.085  30.020  23.385  1.00  0.00     0.039 C 
ATOM     39  H   UNL     1     -49.086  30.226  22.306  1.00  0.00     0.050 H 
ATOM     40  H   UNL     1     -50.136  29.946  23.695  1.00  0.00     0.050 H 
BRANCH  38  41
ATOM     41  N   UNL     1     -48.402  28.763  23.718  1.00  0.00    -0.296 NA
ATOM     42  C   UNL     1     -47.928  28.794  25.133  1.00  0.00     0.006 C 
ATOM     43  C   UNL     1     -49.390  27.703  24.084  1.00  0.00     0.006 C 
ATOM     44  C   UNL     1     -48.517  27.421  25.283  1.00  0.00     0.007 C 
ATOM     45  H   UNL     1     -46.842  28.869  25.239  1.00  0.00     0.044 H 
ATOM     46  H   UNL     1     -48.393  29.554  25.774  1.00  0.00     0.044 H 
ATOM     47  H   UNL     1     -49.479  26.899  23.347  1.00  0.00     0.044 H 
ATOM     48  H   UNL     1     -50.399  28.055  24.336  1.00  0.00     0.044 H 
ATOM     49  C   UNL     1     -47.619  26.208  25.249  1.00  0.00     0.019 C 
ATOM     50  C   UNL     1     -49.147  26.982  26.573  1.00  0.00     0.019 C 
ATOM     51  C   UNL     1     -48.617  25.554  26.248  1.00  0.00     0.249 C 
ATOM     52  H   UNL     1     -46.621  26.361  25.675  1.00  0.00     0.033 H 
ATOM     53  H   UNL     1     -47.520  25.693  24.290  1.00  0.00     0.033 H 
ATOM     54  H   UNL     1     -50.234  27.068  26.641  1.00  0.00     0.033 H 
ATOM     55  H   UNL     1     -48.697  27.415  27.473  1.00  0.00     0.033 H 
ATOM     56  F   UNL     1     -49.526  24.722  25.689  1.00  0.00    -0.207 F 
ATOM     57  F   UNL     1     -48.058  24.890  27.283  1.00  0.00    -0.207 F 
ENDBRANCH  38  41
ENDBRANCH   6  38
TORSDOF 5
ENDMDL
MODEL 3
REMARK VINA RESULT:     -10.9      2.044      2.931
REMARK SMILES O=C(NCc1ccc2cc(CN3CC4(C3)CC(F)(F)C4)[nH]c2c1)c1cc(=O)n2ccccc2n1
REMARK SMILES IDX 5 1 6 2 7 3 8 4 9 5 10 6 21 7 22 8 23 9 4 15 3 18 1 19 2 20
REMARK SMILES IDX 24 22 25 23 34 24 26 25 33 27 27 28 28 29 32 30 29 31 31 32
REMARK SMILES IDX 30 34 11 38 12 41 13 42 15 43 14 44 16 49 20 50 17 51 18 56
REMARK SMILES IDX 19 57
REMARK H PARENT 6 10 7 11 9 12 21 13 23 14 4 16 4 17 3 21 25 26 32 33 29 35
REMARK H PARENT 31 36 30 37 11 39 11 40 13 45 13 46 15 47 15 48 16 52 16 53
REMARK H PARENT 20 54 20 55
REMARK Flexibility Score: inf
ROOT
ATOM      1  C   UNL     1     -46.401  35.366  27.747  1.00  0.00    -0.027 A 
ATOM      2  C   UNL     1     -47.779  35.497  27.539  1.00  0.00    -0.057 A 
ATOM      3  C   UNL     1     -48.468  34.637  26.673  1.00  0.00    -0.052 A 
ATOM      4  C   UNL     1     -47.758  33.630  25.994  1.00  0.00    -0.000 A 
ATOM      5  C   UNL     1     -48.123  32.615  25.065  1.00  0.00    -0.032 A 
ATOM      6  C   UNL     1     -46.984  31.914  24.728  1.00  0.00     0.030 A 
ATOM      7  N   UNL     1     -45.942  32.472  25.432  1.00  0.00    -0.357 N 
ATOM      8  C   UNL     1     -46.386  33.518  26.206  1.00  0.00     0.046 A 
ATOM      9  C   UNL     1     -45.680  34.368  27.066  1.00  0.00    -0.033 A 
ATOM     10  H   UNL     1     -48.336  36.278  28.052  1.00  0.00     0.063 H 
ATOM     11  H   UNL     1     -49.538  34.751  26.527  1.00  0.00     0.063 H 
ATOM     12  H   UNL     1     -49.119  32.424  24.686  1.00  0.00     0.065 H 
ATOM     13  H   UNL     1     -44.982  32.165  25.354  1.00  0.00     0.166 HD
ATOM     14  H   UNL     1     -44.608  34.262  27.201  1.00  0.00     0.065 H 
ENDROOT
BRANCH   1  15
ATOM     15  C   UNL     1     -45.676  36.323  28.656  1.00  0.00     0.043 C 
ATOM     16  H   UNL     1     -46.250  36.506  29.571  1.00  0.00     0.054 H 
ATOM     17  H   UNL     1     -44.710  35.907  28.968  1.00  0.00     0.054 H 
BRANCH  15  18
ATOM     18  N   UNL     1     -45.451  37.582  27.997  1.00  0.00    -0.347 N 
ATOM     19  O   UNL     1     -44.453  38.614  29.787  1.00  0.00    -0.268 OA
ATOM     20  C   UNL     1     -44.862  38.644  28.633  1.00  0.00     0.270 C 
ATOM     21  H   UNL     1     -45.782  37.731  27.048  1.00  0.00     0.164 HD
BRANCH  20  22
ATOM     22  C   UNL     1     -44.776  39.867  27.753  1.00  0.00     0.136 A 
ATOM     23  C   UNL     1     -45.918  40.287  27.204  1.00  0.00     0.035 A 
ATOM     24  N   UNL     1     -43.550  40.466  27.571  1.00  0.00    -0.225 NA
ATOM     25  C   UNL     1     -45.879  41.475  26.342  1.00  0.00     0.258 A 
ATOM     26  H   UNL     1     -46.876  39.807  27.355  1.00  0.00     0.071 H 
ATOM     27  C   UNL     1     -43.521  41.516  26.809  1.00  0.00     0.140 A 
ATOM     28  O   UNL     1     -46.927  41.870  25.832  1.00  0.00    -0.269 OA
ATOM     29  N   UNL     1     -44.633  42.061  26.177  1.00  0.00    -0.268 N 
ATOM     30  C   UNL     1     -42.215  42.199  26.585  1.00  0.00    -0.019 A 
ATOM     31  C   UNL     1     -44.517  43.192  25.375  1.00  0.00     0.014 A 
ATOM     32  C   UNL     1     -42.153  43.285  25.805  1.00  0.00    -0.057 A 
ATOM     33  H   UNL     1     -41.343  41.783  27.075  1.00  0.00     0.066 H 
ATOM     34  C   UNL     1     -43.341  43.800  25.178  1.00  0.00    -0.045 A 
ATOM     35  H   UNL     1     -45.427  43.563  24.910  1.00  0.00     0.082 H 
ATOM     36  H   UNL     1     -41.212  43.796  25.631  1.00  0.00     0.062 H 
ATOM     37  H   UNL     1     -43.262  44.682  24.550  1.00  0.00     0.064 H 
ENDBRANCH  20  22
ENDBRANCH  15  18
ENDBRANCH   1  15
BRANCH   6  38
ATOM     38  C   UNL     1     -46.778  30.754  23.811  1.00  0.00     0.039 C 
ATOM     39  H   UNL     1     -45.866  30.211  24.097  1.00  0.00     0.050 H 
ATOM     40  H   UNL     1     -46.607  31.150  22.801  1.00  0.00     0.050 H 
BRANCH  38  41
ATOM     41  N   UNL     1     -47.963  29.889  23.787  1.00  0.00    -0.296 NA
ATOM     42  C   UNL     1     -47.585  28.509  23.363  1.00  0.00     0.006 C 
ATOM     43  C   UNL     1     -48.272  29.371  25.156  1.00  0.00     0.006 C 
ATOM     44  C   UNL     1     -48.402  28.008  24.520  1.00  0.00     0.007 C 
ATOM     45  H   UNL     1     -47.940  28.234  22.366  1.00  0.00     0.044 H 
ATOM     46  H   UNL     1     -46.517  28.266  23.431  1.00  0.00     0.044 H 
ATOM     47  H   UNL     1     -49.180  29.790  25.599  1.00  0.00     0.044 H 
ATOM     48  H   UNL     1     -47.460  29.449  25.890  1.00  0.00     0.044 H 
ATOM     49  C   UNL     1     -49.786  27.456  24.281  1.00  0.00     0.019 C 
ATOM     50  C   UNL     1     -47.991  26.788  25.291  1.00  0.00     0.019 C 
ATOM     51  C   UNL     1     -49.510  26.498  25.476  1.00  0.00     0.249 C 
ATOM     52  H   UNL     1     -49.915  26.930  23.329  1.00  0.00     0.033 H 
ATOM     53  H   UNL     1     -50.624  28.143  24.423  1.00  0.00     0.033 H 
ATOM     54  H   UNL     1     -47.436  26.957  26.217  1.00  0.00     0.033 H 
ATOM     55  H   UNL     1     -47.474  26.024  24.699  1.00  0.00     0.033 H 
ATOM     56  F   UNL     1     -50.026  26.896  26.662  1.00  0.00    -0.207 F 
ATOM     57  F   UNL     1     -49.884  25.213  25.294  1.00  0.00    -0.207 F 
ENDBRANCH  38  41
ENDBRANCH   6  38
TORSDOF 5
ENDMDL
MODEL 4
REMARK VINA RESULT:     -10.9      2.520      3.810
REMARK SMILES O=C(NCc1ccc2cc(CN3CC4(C3)CC(F)(F)C4)[nH]c2c1)c1cc(=O)n2ccccc2n1
REMARK SMILES IDX 5 1 6 2 7 3 8 4 9 5 10 6 21 7 22 8 23 9 4 15 3 18 1 19 2 20
REMARK SMILES IDX 24 22 25 23 34 24 26 25 33 27 27 28 28 29 32 30 29 31 31 32
REMARK SMILES IDX 30 34 11 38 12 41 13 42 15 43 14 44 16 49 20 50 17 51 18 56
REMARK SMILES IDX 19 57
REMARK H PARENT 6 10 7 11 9 12 21 13 23 14 4 16 4 17 3 21 25 26 32 33 29 35
REMARK H PARENT 31 36 30 37 11 39 11 40 13 45 13 46 15 47 15 48 16 52 16 53
REMARK H PARENT 20 54 20 55
REMARK Flexibility Score: inf
ROOT
ATOM      1  C   UNL     1     -46.594  36.845  28.568  1.00  0.00    -0.027 A 
ATOM      2  C   UNL     1     -47.958  36.820  28.251  1.00  0.00    -0.057 A 
ATOM      3  C   UNL     1     -48.473  35.889  27.339  1.00  0.00    -0.052 A 
ATOM      4  C   UNL     1     -47.602  34.970  26.726  1.00  0.00    -0.000 A 
ATOM      5  C   UNL     1     -47.775  33.922  25.778  1.00  0.00    -0.032 A 
ATOM      6  C   UNL     1     -46.541  33.355  25.538  1.00  0.00     0.030 A 
ATOM      7  N   UNL     1     -45.628  34.025  26.318  1.00  0.00    -0.357 N 
ATOM      8  C   UNL     1     -46.248  35.013  27.047  1.00  0.00     0.046 A 
ATOM      9  C   UNL     1     -45.713  35.936  27.955  1.00  0.00    -0.033 A 
ATOM     10  H   UNL     1     -48.638  37.532  28.712  1.00  0.00     0.063 H 
ATOM     11  H   UNL     1     -49.534  35.881  27.107  1.00  0.00     0.063 H 
ATOM     12  H   UNL     1     -48.709  33.619  25.323  1.00  0.00     0.065 H 
ATOM     13  H   UNL     1     -44.636  33.829  26.320  1.00  0.00     0.166 HD
ATOM     14  H   UNL     1     -44.650  35.952  28.176  1.00  0.00     0.065 H 
ENDROOT
BRANCH   1  15
ATOM     15  C   UNL     1     -46.057  37.877  29.525  1.00  0.00     0.043 C 
ATOM     16  H   UNL     1     -46.873  38.415  30.020  1.00  0.00     0.054 H 
ATOM     17  H   UNL     1     -45.466  37.402  30.318  1.00  0.00     0.054 H 
BRANCH  15  18
ATOM     18  N   UNL     1     -45.231  38.831  28.836  1.00  0.00    -0.347 N 
ATOM     19  O   UNL     1     -46.961  40.033  27.928  1.00  0.00    -0.268 OA
ATOM     20  C   UNL     1     -45.761  39.838  28.071  1.00  0.00     0.270 C 
ATOM     21  H   UNL     1     -44.219  38.744  28.856  1.00  0.00     0.164 HD
BRANCH  20  22
ATOM     22  C   UNL     1     -44.698  40.683  27.413  1.00  0.00     0.136 A 
ATOM     23  C   UNL     1     -43.528  40.770  28.051  1.00  0.00     0.035 A 
ATOM     24  N   UNL     1     -44.989  41.302  26.219  1.00  0.00    -0.225 NA
ATOM     25  C   UNL     1     -42.464  41.581  27.444  1.00  0.00     0.258 A 
ATOM     26  H   UNL     1     -43.310  40.278  28.990  1.00  0.00     0.071 H 
ATOM     27  C   UNL     1     -44.045  42.016  25.686  1.00  0.00     0.140 A 
ATOM     28  O   UNL     1     -41.383  41.667  28.025  1.00  0.00    -0.269 OA
ATOM     29  N   UNL     1     -42.783  42.192  26.241  1.00  0.00    -0.268 N 
ATOM     30  C   UNL     1     -44.316  42.704  24.392  1.00  0.00    -0.019 A 
ATOM     31  C   UNL     1     -41.826  42.976  25.605  1.00  0.00     0.014 A 
ATOM     32  C   UNL     1     -43.363  43.448  23.817  1.00  0.00    -0.057 A 
ATOM     33  H   UNL     1     -45.297  42.572  23.951  1.00  0.00     0.066 H 
ATOM     34  C   UNL     1     -42.075  43.591  24.443  1.00  0.00    -0.045 A 
ATOM     35  H   UNL     1     -40.860  43.071  26.096  1.00  0.00     0.082 H 
ATOM     36  H   UNL     1     -43.540  43.955  22.875  1.00  0.00     0.062 H 
ATOM     37  H   UNL     1     -41.320  44.200  23.955  1.00  0.00     0.064 H 
ENDBRANCH  20  22
ENDBRANCH  15  18
ENDBRANCH   1  15
BRANCH   6  38
ATOM     38  C   UNL     1     -46.132  32.227  24.649  1.00  0.00     0.039 C 
ATOM     39  H   UNL     1     -45.615  31.457  25.239  1.00  0.00     0.050 H 
ATOM     40  H   UNL     1     -45.401  32.616  23.927  1.00  0.00     0.050 H 
BRANCH  38  41
ATOM     41  N   UNL     1     -47.287  31.694  23.916  1.00  0.00    -0.296 NA
ATOM     42  C   UNL     1     -46.829  30.768  22.839  1.00  0.00     0.006 C 
ATOM     43  C   UNL     1     -47.889  30.534  24.642  1.00  0.00     0.006 C 
ATOM     44  C   UNL     1     -47.881  29.809  23.318  1.00  0.00     0.007 C 
ATOM     45  H   UNL     1     -46.959  31.161  21.826  1.00  0.00     0.044 H 
ATOM     46  H   UNL     1     -45.803  30.393  22.938  1.00  0.00     0.044 H 
ATOM     47  H   UNL     1     -48.870  30.739  25.079  1.00  0.00     0.044 H 
ATOM     48  H   UNL     1     -47.256  30.072  25.412  1.00  0.00     0.044 H 
ATOM     49  C   UNL     1     -49.182  29.677  22.563  1.00  0.00     0.019 C 
ATOM     50  C   UNL     1     -47.653  28.325  23.286  1.00  0.00     0.019 C 
ATOM     51  C   UNL     1     -49.176  28.183  22.997  1.00  0.00     0.249 C 
ATOM     52  H   UNL     1     -49.101  29.812  21.479  1.00  0.00     0.033 H 
ATOM     53  H   UNL     1     -50.028  30.263  22.931  1.00  0.00     0.033 H 
ATOM     54  H   UNL     1     -47.313  27.862  24.216  1.00  0.00     0.033 H 
ATOM     55  H   UNL     1     -47.022  27.977  22.461  1.00  0.00     0.033 H 
ATOM     56  F   UNL     1     -49.938  27.896  24.078  1.00  0.00    -0.207 F 
ATOM     57  F   UNL     1     -49.506  27.294  22.035  1.00  0.00    -0.207 F 
ENDBRANCH  38  41
ENDBRANCH   6  38
TORSDOF 5
ENDMDL
MODEL 5
REMARK VINA RESULT:     -10.5      5.443     12.302
REMARK SMILES O=C(NCc1ccc2cc(CN3CC4(C3)CC(F)(F)C4)[nH]c2c1)c1cc(=O)n2ccccc2n1
REMARK SMILES IDX 5 1 6 2 7 3 8 4 9 5 10 6 21 7 22 8 23 9 4 15 3 18 1 19 2 20
REMARK SMILES IDX 24 22 25 23 34 24 26 25 33 27 27 28 28 29 32 30 29 31 31 32
REMARK SMILES IDX 30 34 11 38 12 41 13 42 15 43 14 44 16 49 20 50 17 51 18 56
REMARK SMILES IDX 19 57
REMARK H PARENT 6 10 7 11 9 12 21 13 23 14 4 16 4 17 3 21 25 26 32 33 29 35
REMARK H PARENT 31 36 30 37 11 39 11 40 13 45 13 46 15 47 15 48 16 52 16 53
REMARK H PARENT 20 54 20 55
REMARK Flexibility Score: inf
ROOT
ATOM      1  C   UNL     1     -47.882  34.401  26.756  1.00  0.00    -0.027 A 
ATOM      2  C   UNL     1     -46.728  33.819  27.295  1.00  0.00    -0.057 A 
ATOM      3  C   UNL     1     -45.680  34.607  27.790  1.00  0.00    -0.052 A 
ATOM      4  C   UNL     1     -45.787  36.009  27.734  1.00  0.00    -0.000 A 
ATOM      5  C   UNL     1     -44.940  37.082  28.127  1.00  0.00    -0.032 A 
ATOM      6  C   UNL     1     -45.577  38.265  27.815  1.00  0.00     0.030 A 
ATOM      7  N   UNL     1     -46.787  37.937  27.251  1.00  0.00    -0.357 N 
ATOM      8  C   UNL     1     -46.937  36.572  27.188  1.00  0.00     0.046 A 
ATOM      9  C   UNL     1     -47.995  35.801  26.688  1.00  0.00    -0.033 A 
ATOM     10  H   UNL     1     -46.632  32.735  27.335  1.00  0.00     0.063 H 
ATOM     11  H   UNL     1     -44.794  34.138  28.208  1.00  0.00     0.063 H 
ATOM     12  H   UNL     1     -43.965  36.992  28.590  1.00  0.00     0.065 H 
ATOM     13  H   UNL     1     -47.451  38.617  26.904  1.00  0.00     0.166 HD
ATOM     14  H   UNL     1     -48.874  36.271  26.258  1.00  0.00     0.065 H 
ENDROOT
BRANCH   1  15
ATOM     15  C   UNL     1     -48.980  33.534  26.199  1.00  0.00     0.043 C 
ATOM     16  H   UNL     1     -49.822  33.470  26.899  1.00  0.00     0.054 H 
ATOM     17  H   UNL     1     -49.376  33.959  25.269  1.00  0.00     0.054 H 
BRANCH  15  18
ATOM     18  N   UNL     1     -48.500  32.205  25.939  1.00  0.00    -0.347 N 
ATOM     19  O   UNL     1     -50.005  31.727  24.275  1.00  0.00    -0.268 OA
ATOM     20  C   UNL     1     -49.071  31.393  24.993  1.00  0.00     0.270 C 
ATOM     21  H   UNL     1     -47.750  31.811  26.501  1.00  0.00     0.164 HD
BRANCH  20  22
ATOM     22  C   UNL     1     -48.423  30.032  24.935  1.00  0.00     0.136 A 
ATOM     23  C   UNL     1     -47.485  29.858  24.001  1.00  0.00     0.035 A 
ATOM     24  N   UNL     1     -48.828  29.067  25.829  1.00  0.00    -0.225 NA
ATOM     25  C   UNL     1     -46.828  28.548  23.910  1.00  0.00     0.258 A 
ATOM     26  H   UNL     1     -47.175  30.625  23.302  1.00  0.00     0.071 H 
ATOM     27  C   UNL     1     -48.244  27.911  25.745  1.00  0.00     0.140 A 
ATOM     28  O   UNL     1     -45.963  28.379  23.052  1.00  0.00    -0.269 OA
ATOM     29  N   UNL     1     -47.253  27.595  24.823  1.00  0.00    -0.268 N 
ATOM     30  C   UNL     1     -48.650  26.836  26.695  1.00  0.00    -0.019 A 
ATOM     31  C   UNL     1     -46.676  26.329  24.799  1.00  0.00     0.014 A 
ATOM     32  C   UNL     1     -48.065  25.634  26.634  1.00  0.00    -0.057 A 
ATOM     33  H   UNL     1     -49.421  27.074  27.418  1.00  0.00     0.066 H 
ATOM     34  C   UNL     1     -47.045  25.369  25.655  1.00  0.00    -0.045 A 
ATOM     35  H   UNL     1     -45.907  26.151  24.051  1.00  0.00     0.082 H 
ATOM     36  H   UNL     1     -48.346  24.839  27.317  1.00  0.00     0.062 H 
ATOM     37  H   UNL     1     -46.588  24.385  25.628  1.00  0.00     0.064 H 
ENDBRANCH  20  22
ENDBRANCH  15  18
ENDBRANCH   1  15
BRANCH   6  38
ATOM     38  C   UNL     1     -45.162  39.687  28.007  1.00  0.00     0.039 C 
ATOM     39  H   UNL     1     -44.376  39.745  28.773  1.00  0.00     0.050 H 
ATOM     40  H   UNL     1     -46.027  40.239  28.399  1.00  0.00     0.050 H 
BRANCH  38  41
ATOM     41  N   UNL     1     -44.752  40.289  26.733  1.00  0.00    -0.296 NA
ATOM     42  C   UNL     1     -45.452  41.591  26.530  1.00  0.00     0.006 C 
ATOM     43  C   UNL     1     -43.457  41.022  26.884  1.00  0.00     0.006 C 
ATOM     44  C   UNL     1     -44.118  42.167  26.153  1.00  0.00     0.007 C 
ATOM     45  H   UNL     1     -46.210  41.572  25.741  1.00  0.00     0.044 H 
ATOM     46  H   UNL     1     -45.897  42.038  27.428  1.00  0.00     0.044 H 
ATOM     47  H   UNL     1     -42.612  40.547  26.379  1.00  0.00     0.044 H 
ATOM     48  H   UNL     1     -43.159  41.258  27.914  1.00  0.00     0.044 H 
ATOM     49  C   UNL     1     -43.774  42.387  24.700  1.00  0.00     0.019 C 
ATOM     50  C   UNL     1     -43.754  43.580  26.506  1.00  0.00     0.019 C 
ATOM     51  C   UNL     1     -42.944  43.614  25.177  1.00  0.00     0.249 C 
ATOM     52  H   UNL     1     -44.621  42.660  24.062  1.00  0.00     0.033 H 
ATOM     53  H   UNL     1     -43.196  41.601  24.205  1.00  0.00     0.033 H 
ATOM     54  H   UNL     1     -43.161  43.721  27.414  1.00  0.00     0.033 H 
ATOM     55  H   UNL     1     -44.596  44.281  26.518  1.00  0.00     0.033 H 
ATOM     56  F   UNL     1     -41.616  43.392  25.312  1.00  0.00    -0.207 F 
ATOM     57  F   UNL     1     -43.084  44.736  24.438  1.00  0.00    -0.207 F 
ENDBRANCH  38  41
ENDBRANCH   6  38
TORSDOF 5
ENDMDL
MODEL 6
REMARK VINA RESULT:     -10.1      2.805      4.066
REMARK SMILES O=C(NCc1ccc2cc(CN3CC4(C3)CC(F)(F)C4)[nH]c2c1)c1cc(=O)n2ccccc2n1
REMARK SMILES IDX 5 1 6 2 7 3 8 4 9 5 10 6 21 7 22 8 23 9 4 15 3 18 1 19 2 20
REMARK SMILES IDX 24 22 25 23 34 24 26 25 33 27 27 28 28 29 32 30 29 31 31 32
REMARK SMILES IDX 30 34 11 38 12 41 13 42 15 43 14 44 16 49 20 50 17 51 18 56
REMARK SMILES IDX 19 57
REMARK H PARENT 6 10 7 11 9 12 21 13 23 14 4 16 4 17 3 21 25 26 32 33 29 35
REMARK H PARENT 31 36 30 37 11 39 11 40 13 45 13 46 15 47 15 48 16 52 16 53
REMARK H PARENT 20 54 20 55
REMARK Flexibility Score: inf
ROOT
ATOM      1  C   UNL     1     -46.276  35.735  27.827  1.00  0.00    -0.027 A 
ATOM      2  C   UNL     1     -47.670  35.796  27.711  1.00  0.00    -0.057 A 
ATOM      3  C   UNL     1     -48.369  34.904  26.886  1.00  0.00    -0.052 A 
ATOM      4  C   UNL     1     -47.654  33.937  26.156  1.00  0.00    -0.000 A 
ATOM      5  C   UNL     1     -48.027  32.908  25.246  1.00  0.00    -0.032 A 
ATOM      6  C   UNL     1     -46.878  32.268  24.831  1.00  0.00     0.030 A 
ATOM      7  N   UNL     1     -45.823  32.876  25.468  1.00  0.00    -0.357 N 
ATOM      8  C   UNL     1     -46.267  33.895  26.276  1.00  0.00     0.046 A 
ATOM      9  C   UNL     1     -45.551  34.778  27.095  1.00  0.00    -0.033 A 
ATOM     10  H   UNL     1     -48.231  36.546  28.264  1.00  0.00     0.063 H 
ATOM     11  H   UNL     1     -49.450  34.964  26.811  1.00  0.00     0.063 H 
ATOM     12  H   UNL     1     -49.034  32.667  24.932  1.00  0.00     0.065 H 
ATOM     13  H   UNL     1     -44.855  32.619  25.326  1.00  0.00     0.166 HD
ATOM     14  H   UNL     1     -44.468  34.727  27.159  1.00  0.00     0.065 H 
ENDROOT
BRANCH   1  15
ATOM     15  C   UNL     1     -45.543  36.726  28.693  1.00  0.00     0.043 C 
ATOM     16  H   UNL     1     -46.117  36.956  29.598  1.00  0.00     0.054 H 
ATOM     17  H   UNL     1     -44.582  36.315  29.025  1.00  0.00     0.054 H 
BRANCH  15  18
ATOM     18  N   UNL     1     -45.305  37.951  27.978  1.00  0.00    -0.347 N 
ATOM     19  O   UNL     1     -44.138  38.987  29.660  1.00  0.00    -0.268 OA
ATOM     20  C   UNL     1     -44.624  39.002  28.536  1.00  0.00     0.270 C 
ATOM     21  H   UNL     1     -45.694  38.087  27.049  1.00  0.00     0.164 HD
BRANCH  20  22
ATOM     22  C   UNL     1     -44.541  40.191  27.611  1.00  0.00     0.136 A 
ATOM     23  C   UNL     1     -45.689  40.607  27.072  1.00  0.00     0.035 A 
ATOM     24  N   UNL     1     -43.312  40.767  27.382  1.00  0.00    -0.225 NA
ATOM     25  C   UNL     1     -45.653  41.763  26.167  1.00  0.00     0.258 A 
ATOM     26  H   UNL     1     -46.650  40.146  27.259  1.00  0.00     0.071 H 
ATOM     27  C   UNL     1     -43.286  41.789  26.583  1.00  0.00     0.140 A 
ATOM     28  O   UNL     1     -46.706  42.153  25.665  1.00  0.00    -0.269 OA
ATOM     29  N   UNL     1     -44.404  42.326  25.955  1.00  0.00    -0.268 N 
ATOM     30  C   UNL     1     -41.976  42.446  26.307  1.00  0.00    -0.019 A 
ATOM     31  C   UNL     1     -44.290  43.426  25.110  1.00  0.00     0.014 A 
ATOM     32  C   UNL     1     -41.917  43.502  25.487  1.00  0.00    -0.057 A 
ATOM     33  H   UNL     1     -41.099  42.036  26.793  1.00  0.00     0.066 H 
ATOM     34  C   UNL     1     -43.112  44.011  24.867  1.00  0.00    -0.045 A 
ATOM     35  H   UNL     1     -45.206  43.792  24.652  1.00  0.00     0.082 H 
ATOM     36  H   UNL     1     -40.974  43.995  25.275  1.00  0.00     0.062 H 
ATOM     37  H   UNL     1     -43.035  44.868  24.206  1.00  0.00     0.064 H 
ENDBRANCH  20  22
ENDBRANCH  15  18
ENDBRANCH   1  15
BRANCH   6  38
ATOM     38  C   UNL     1     -46.673  31.123  23.895  1.00  0.00     0.039 C 
ATOM     39  H   UNL     1     -45.802  30.533  24.213  1.00  0.00     0.050 H 
ATOM     40  H   UNL     1     -46.432  31.536  22.906  1.00  0.00     0.050 H 
BRANCH  38  41
ATOM     41  N   UNL     1     -47.892  30.312  23.786  1.00  0.00    -0.296 NA
ATOM     42  C   UNL     1     -48.810  30.898  22.766  1.00  0.00     0.006 C 
ATOM     43  C   UNL     1     -47.669  29.134  22.891  1.00  0.00     0.006 C 
ATOM     44  C   UNL     1     -48.965  29.510  22.214  1.00  0.00     0.007 C 
ATOM     45  H   UNL     1     -49.712  31.354  23.185  1.00  0.00     0.044 H 
ATOM     46  H   UNL     1     -48.353  31.610  22.066  1.00  0.00     0.044 H 
ATOM     47  H   UNL     1     -47.654  28.173  23.413  1.00  0.00     0.044 H 
ATOM     48  H   UNL     1     -46.788  29.190  22.240  1.00  0.00     0.044 H 
ATOM     49  C   UNL     1     -50.202  28.706  22.532  1.00  0.00     0.019 C 
ATOM     50  C   UNL     1     -49.127  29.272  20.740  1.00  0.00     0.019 C 
ATOM     51  C   UNL     1     -50.041  28.071  21.120  1.00  0.00     0.249 C 
ATOM     52  H   UNL     1     -51.120  29.294  22.637  1.00  0.00     0.033 H 
ATOM     53  H   UNL     1     -50.133  28.003  23.366  1.00  0.00     0.033 H 
ATOM     54  H   UNL     1     -48.223  29.010  20.184  1.00  0.00     0.033 H 
ATOM     55  H   UNL     1     -49.658  30.067  20.204  1.00  0.00     0.033 H 
ATOM     56  F   UNL     1     -49.431  26.862  21.101  1.00  0.00    -0.207 F 
ATOM     57  F   UNL     1     -51.176  27.952  20.399  1.00  0.00    -0.207 F 
ENDBRANCH  38  41
ENDBRANCH   6  38
TORSDOF 5
ENDMDL
MODEL 7
REMARK VINA RESULT:      -9.9      1.606      2.338
REMARK SMILES O=C(NCc1ccc2cc(CN3CC4(C3)CC(F)(F)C4)[nH]c2c1)c1cc(=O)n2ccccc2n1
REMARK SMILES IDX 5 1 6 2 7 3 8 4 9 5 10 6 21 7 22 8 23 9 4 15 3 18 1 19 2 20
REMARK SMILES IDX 24 22 25 23 34 24 26 25 33 27 27 28 28 29 32 30 29 31 31 32
REMARK SMILES IDX 30 34 11 38 12 41 13 42 15 43 14 44 16 49 20 50 17 51 18 56
REMARK SMILES IDX 19 57
REMARK H PARENT 6 10 7 11 9 12 21 13 23 14 4 16 4 17 3 21 25 26 32 33 29 35
REMARK H PARENT 31 36 30 37 11 39 11 40 13 45 13 46 15 47 15 48 16 52 16 53
REMARK H PARENT 20 54 20 55
REMARK Flexibility Score: inf
ROOT
ATOM      1  C   UNL     1     -46.970  36.181  27.758  1.00  0.00    -0.027 A 
ATOM      2  C   UNL     1     -45.695  35.602  27.727  1.00  0.00    -0.057 A 
ATOM      3  C   UNL     1     -45.463  34.393  27.058  1.00  0.00    -0.052 A 
ATOM      4  C   UNL     1     -46.535  33.745  26.415  1.00  0.00    -0.000 A 
ATOM      5  C   UNL     1     -46.658  32.539  25.669  1.00  0.00    -0.032 A 
ATOM      6  C   UNL     1     -47.976  32.409  25.284  1.00  0.00     0.030 A 
ATOM      7  N   UNL     1     -48.651  33.505  25.769  1.00  0.00    -0.357 N 
ATOM      8  C   UNL     1     -47.797  34.330  26.463  1.00  0.00     0.046 A 
ATOM      9  C   UNL     1     -48.049  35.538  27.126  1.00  0.00    -0.033 A 
ATOM     10  H   UNL     1     -44.862  36.090  28.229  1.00  0.00     0.063 H 
ATOM     11  H   UNL     1     -44.468  33.960  27.041  1.00  0.00     0.063 H 
ATOM     12  H   UNL     1     -45.862  31.843  25.443  1.00  0.00     0.065 H 
ATOM     13  H   UNL     1     -49.644  33.653  25.652  1.00  0.00     0.166 HD
ATOM     14  H   UNL     1     -49.048  35.962  27.154  1.00  0.00     0.065 H 
ENDROOT
BRANCH   1  15
ATOM     15  C   UNL     1     -47.202  37.464  28.512  1.00  0.00     0.043 C 
ATOM     16  H   UNL     1     -48.225  37.828  28.361  1.00  0.00     0.054 H 
ATOM     17  H   UNL     1     -47.080  37.308  29.591  1.00  0.00     0.054 H 
BRANCH  15  18
ATOM     18  N   UNL     1     -46.285  38.484  28.080  1.00  0.00    -0.347 N 
ATOM     19  O   UNL     1     -44.778  38.188  29.784  1.00  0.00    -0.268 OA
ATOM     20  C   UNL     1     -45.138  38.775  28.772  1.00  0.00     0.270 C 
ATOM     21  H   UNL     1     -46.501  39.059  27.271  1.00  0.00     0.164 HD
BRANCH  20  22
ATOM     22  C   UNL     1     -44.362  39.910  28.150  1.00  0.00     0.136 A 
ATOM     23  C   UNL     1     -43.312  40.361  28.839  1.00  0.00     0.035 A 
ATOM     24  N   UNL     1     -44.773  40.405  26.933  1.00  0.00    -0.225 NA
ATOM     25  C   UNL     1     -42.527  41.464  28.270  1.00  0.00     0.258 A 
ATOM     26  H   UNL     1     -42.997  39.964  29.796  1.00  0.00     0.071 H 
ATOM     27  C   UNL     1     -44.076  41.379  26.433  1.00  0.00     0.140 A 
ATOM     28  O   UNL     1     -41.558  41.886  28.898  1.00  0.00    -0.269 OA
ATOM     29  N   UNL     1     -42.962  41.943  27.043  1.00  0.00    -0.268 N 
ATOM     30  C   UNL     1     -44.485  41.945  25.116  1.00  0.00    -0.019 A 
ATOM     31  C   UNL     1     -42.268  42.987  26.439  1.00  0.00     0.014 A 
ATOM     32  C   UNL     1     -43.786  42.950  24.574  1.00  0.00    -0.057 A 
ATOM     33  H   UNL     1     -45.352  41.512  24.633  1.00  0.00     0.066 H 
ATOM     34  C   UNL     1     -42.640  43.491  25.256  1.00  0.00    -0.045 A 
ATOM     35  H   UNL     1     -41.406  43.380  26.972  1.00  0.00     0.082 H 
ATOM     36  H   UNL     1     -44.066  43.375  23.616  1.00  0.00     0.062 H 
ATOM     37  H   UNL     1     -42.092  44.306  24.794  1.00  0.00     0.064 H 
ENDBRANCH  20  22
ENDBRANCH  15  18
ENDBRANCH   1  15
BRANCH   6  38
ATOM     38  C   UNL     1     -48.669  31.353  24.486  1.00  0.00     0.039 C 
ATOM     39  H   UNL     1     -48.042  31.061  23.632  1.00  0.00     0.050 H 
ATOM     40  H   UNL     1     -49.585  31.793  24.070  1.00  0.00     0.050 H 
BRANCH  38  41
ATOM     41  N   UNL     1     -49.033  30.212  25.334  1.00  0.00    -0.296 NA
ATOM     42  C   UNL     1     -50.100  29.402  24.676  1.00  0.00     0.006 C 
ATOM     43  C   UNL     1     -48.073  29.081  25.144  1.00  0.00     0.006 C 
ATOM     44  C   UNL     1     -49.283  28.187  25.012  1.00  0.00     0.007 C 
ATOM     45  H   UNL     1     -51.079  29.475  25.159  1.00  0.00     0.044 H 
ATOM     46  H   UNL     1     -50.230  29.571  23.600  1.00  0.00     0.044 H 
ATOM     47  H   UNL     1     -47.424  28.896  26.004  1.00  0.00     0.044 H 
ATOM     48  H   UNL     1     -47.450  29.130  24.242  1.00  0.00     0.044 H 
ATOM     49  C   UNL     1     -49.668  27.321  26.187  1.00  0.00     0.019 C 
ATOM     50  C   UNL     1     -49.234  27.004  24.090  1.00  0.00     0.019 C 
ATOM     51  C   UNL     1     -49.114  26.121  25.366  1.00  0.00     0.249 C 
ATOM     52  H   UNL     1     -50.745  27.253  26.376  1.00  0.00     0.033 H 
ATOM     53  H   UNL     1     -49.154  27.513  27.132  1.00  0.00     0.033 H 
ATOM     54  H   UNL     1     -48.382  26.950  23.407  1.00  0.00     0.033 H 
ATOM     55  H   UNL     1     -50.156  26.825  23.525  1.00  0.00     0.033 H 
ATOM     56  F   UNL     1     -47.853  25.744  25.682  1.00  0.00    -0.207 F 
ATOM     57  F   UNL     1     -49.874  25.004  25.376  1.00  0.00    -0.207 F 
ENDBRANCH  38  41
ENDBRANCH   6  38
TORSDOF 5
ENDMDL
