MODEL 1
REMARK VINA RESULT:     -10.6      0.000      0.000
REMARK SMILES Nc1ncnc2c1c([C@@H]1CCCO1)cn2-c1cncc(COc2ccc3ccc(N4CCC4)nc3c2)n1
REMARK SMILES IDX 21 1 20 4 16 5 17 6 37 7 18 8 19 10 15 12 2 13 3 14 7 15
REMARK SMILES IDX 4 16 6 17 8 18 5 19 14 21 1 23 9 26 10 27 13 28 11 30 12 33
REMARK SMILES IDX 22 38 23 39 24 40 36 41 25 42 35 44 26 46 34 48 27 49 29 50
REMARK SMILES IDX 28 51 30 54 31 55 33 56 32 57
REMARK H PARENT 21 2 21 3 17 9 19 11 4 20 14 22 1 24 1 25 9 29 10 31 10 32
REMARK H PARENT 11 34 11 35 12 36 12 37 24 43 36 45 25 47 27 52 28 53 31 58
REMARK H PARENT 31 59 33 60 33 61 32 62 32 63
REMARK Flexibility Score: inf
ROOT
ATOM      1  C   UNL     1     -46.738  34.728  27.079  1.00  0.00     0.132 C 
ATOM      2  H   UNL     1     -46.102  34.685  26.187  1.00  0.00     0.078 H 
ATOM      3  H   UNL     1     -46.114  34.331  27.888  1.00  0.00     0.078 H 
ENDROOT
BRANCH   1   4
ATOM      4  C   UNL     1     -47.130  36.162  27.325  1.00  0.00     0.099 A 
ATOM      5  C   UNL     1     -46.537  38.400  27.528  1.00  0.00     0.157 A 
ATOM      6  C   UNL     1     -47.856  38.702  27.842  1.00  0.00     0.070 A 
ATOM      7  N   UNL     1     -46.165  37.116  27.251  1.00  0.00    -0.228 NA
ATOM      8  N   UNL     1     -48.830  37.756  27.912  1.00  0.00    -0.259 NA
ATOM      9  H   UNL     1     -48.207  39.698  28.075  1.00  0.00     0.088 H 
ATOM     10  C   UNL     1     -48.435  36.489  27.663  1.00  0.00     0.052 A 
ATOM     11  H   UNL     1     -49.210  35.734  27.748  1.00  0.00     0.086 H 
BRANCH   5  12
ATOM     12  N   UNL     1     -45.514  39.395  27.516  1.00  0.00    -0.284 N 
ATOM     13  C   UNL     1     -42.602  41.029  28.758  1.00  0.00     0.136 A 
ATOM     14  N   UNL     1     -42.337  40.330  29.877  1.00  0.00    -0.219 NA
ATOM     15  C   UNL     1     -43.707  40.669  27.967  1.00  0.00     0.067 A 
ATOM     16  C   UNL     1     -43.155  39.319  30.200  1.00  0.00     0.120 A 
ATOM     17  C   UNL     1     -44.472  39.593  28.412  1.00  0.00     0.151 A 
ATOM     18  C   UNL     1     -44.290  41.149  26.748  1.00  0.00     0.012 A 
ATOM     19  N   UNL     1     -44.234  38.884  29.534  1.00  0.00    -0.218 NA
ATOM     20  H   UNL     1     -42.912  38.787  31.115  1.00  0.00     0.106 H 
ATOM     21  C   UNL     1     -45.410  40.366  26.532  1.00  0.00     0.019 A 
ATOM     22  H   UNL     1     -46.141  40.399  25.732  1.00  0.00     0.083 H 
BRANCH  13  23
ATOM     23  N   UNL     1     -41.738  42.072  28.447  1.00  0.00    -0.383 N 
ATOM     24  H   UNL     1     -41.595  42.665  29.254  1.00  0.00     0.158 HD
ATOM     25  H   UNL     1     -40.888  41.745  27.984  1.00  0.00     0.158 HD
ENDBRANCH  13  23
BRANCH  18  26
ATOM     26  C   UNL     1     -43.805  42.294  25.909  1.00  0.00     0.085 C 
ATOM     27  C   UNL     1     -44.250  43.676  26.372  1.00  0.00    -0.020 C 
ATOM     28  O   UNL     1     -44.252  42.179  24.534  1.00  0.00    -0.373 OA
ATOM     29  H   UNL     1     -42.707  42.258  25.878  1.00  0.00     0.066 H 
ATOM     30  C   UNL     1     -44.197  44.473  25.095  1.00  0.00    -0.027 C 
ATOM     31  H   UNL     1     -43.614  44.080  27.164  1.00  0.00     0.030 H 
ATOM     32  H   UNL     1     -45.283  43.661  26.742  1.00  0.00     0.030 H 
ATOM     33  C   UNL     1     -44.714  43.465  24.097  1.00  0.00     0.048 C 
ATOM     34  H   UNL     1     -43.159  44.736  24.864  1.00  0.00     0.029 H 
ATOM     35  H   UNL     1     -44.790  45.390  25.119  1.00  0.00     0.029 H 
ATOM     36  H   UNL     1     -45.809  43.441  24.084  1.00  0.00     0.057 H 
ATOM     37  H   UNL     1     -44.358  43.658  23.080  1.00  0.00     0.057 H 
ENDBRANCH  18  26
ENDBRANCH   5  12
ENDBRANCH   1   4
BRANCH   1  38
ATOM     38  O   UNL     1     -47.881  33.910  26.808  1.00  0.00    -0.487 OA
BRANCH  38  39
ATOM     39  C   UNL     1     -47.719  32.824  25.993  1.00  0.00     0.122 A 
ATOM     40  C   UNL     1     -46.833  33.020  24.934  1.00  0.00    -0.019 A 
ATOM     41  C   UNL     1     -48.321  31.574  26.155  1.00  0.00     0.007 A 
ATOM     42  C   UNL     1     -46.577  31.989  24.034  1.00  0.00    -0.049 A 
ATOM     43  H   UNL     1     -46.351  33.985  24.802  1.00  0.00     0.066 H 
ATOM     44  C   UNL     1     -48.070  30.520  25.283  1.00  0.00     0.076 A 
ATOM     45  H   UNL     1     -49.003  31.371  26.973  1.00  0.00     0.069 H 
ATOM     46  C   UNL     1     -47.192  30.739  24.205  1.00  0.00     0.001 A 
ATOM     47  H   UNL     1     -45.894  32.164  23.206  1.00  0.00     0.063 H 
ATOM     48  N   UNL     1     -48.659  29.330  25.500  1.00  0.00    -0.231 NA
ATOM     49  C   UNL     1     -46.958  29.677  23.328  1.00  0.00    -0.049 A 
ATOM     50  C   UNL     1     -48.408  28.299  24.662  1.00  0.00     0.129 A 
ATOM     51  C   UNL     1     -47.575  28.450  23.558  1.00  0.00    -0.019 A 
ATOM     52  H   UNL     1     -46.299  29.792  22.473  1.00  0.00     0.063 H 
ATOM     53  H   UNL     1     -47.399  27.625  22.877  1.00  0.00     0.066 H 
BRANCH  50  54
ATOM     54  N   UNL     1     -49.023  27.060  24.918  1.00  0.00    -0.356 N 
ATOM     55  C   UNL     1     -50.420  26.904  25.215  1.00  0.00     0.021 C 
ATOM     56  C   UNL     1     -48.640  26.101  25.914  1.00  0.00     0.021 C 
ATOM     57  C   UNL     1     -50.054  25.526  25.776  1.00  0.00    -0.018 C 
ATOM     58  H   UNL     1     -51.060  26.905  24.331  1.00  0.00     0.049 H 
ATOM     59  H   UNL     1     -50.783  27.623  25.957  1.00  0.00     0.049 H 
ATOM     60  H   UNL     1     -47.828  25.443  25.598  1.00  0.00     0.049 H 
ATOM     61  H   UNL     1     -48.420  26.557  26.886  1.00  0.00     0.049 H 
ATOM     62  H   UNL     1     -50.140  24.708  25.052  1.00  0.00     0.030 H 
ATOM     63  H   UNL     1     -50.548  25.244  26.708  1.00  0.00     0.030 H 
ENDBRANCH  50  54
ENDBRANCH  38  39
ENDBRANCH   1  38
TORSDOF 7
ENDMDL
MODEL 2
REMARK VINA RESULT:     -10.2      2.499     12.463
REMARK SMILES Nc1ncnc2c1c([C@@H]1CCCO1)cn2-c1cncc(COc2ccc3ccc(N4CCC4)nc3c2)n1
REMARK SMILES IDX 21 1 20 4 16 5 17 6 37 7 18 8 19 10 15 12 2 13 3 14 7 15
REMARK SMILES IDX 4 16 6 17 8 18 5 19 14 21 1 23 9 26 10 27 13 28 11 30 12 33
REMARK SMILES IDX 22 38 23 39 24 40 36 41 25 42 35 44 26 46 34 48 27 49 29 50
REMARK SMILES IDX 28 51 30 54 31 55 33 56 32 57
REMARK H PARENT 21 2 21 3 17 9 19 11 4 20 14 22 1 24 1 25 9 29 10 31 10 32
REMARK H PARENT 11 34 11 35 12 36 12 37 24 43 36 45 25 47 27 52 28 53 31 58
REMARK H PARENT 31 59 33 60 33 61 32 62 32 63
REMARK Flexibility Score: inf
ROOT
ATOM      1  C   UNL     1     -48.356  35.050  27.345  1.00  0.00     0.132 C 
ATOM      2  H   UNL     1     -49.448  34.953  27.391  1.00  0.00     0.078 H 
ATOM      3  H   UNL     1     -48.010  34.809  28.356  1.00  0.00     0.078 H 
ENDROOT
BRANCH   1   4
ATOM      4  C   UNL     1     -47.828  34.075  26.325  1.00  0.00     0.099 A 
ATOM      5  C   UNL     1     -48.083  32.122  25.092  1.00  0.00     0.157 A 
ATOM      6  C   UNL     1     -46.819  32.318  24.553  1.00  0.00     0.070 A 
ATOM      7  N   UNL     1     -48.607  33.017  25.980  1.00  0.00    -0.228 NA
ATOM      8  N   UNL     1     -46.034  33.377  24.886  1.00  0.00    -0.259 NA
ATOM      9  H   UNL     1     -46.351  31.641  23.851  1.00  0.00     0.088 H 
ATOM     10  C   UNL     1     -46.559  34.235  25.788  1.00  0.00     0.052 A 
ATOM     11  H   UNL     1     -45.918  35.063  26.072  1.00  0.00     0.086 H 
BRANCH   5  12
ATOM     12  N   UNL     1     -48.871  30.973  24.778  1.00  0.00    -0.284 N 
ATOM     13  C   UNL     1     -51.680  29.281  23.385  1.00  0.00     0.136 A 
ATOM     14  N   UNL     1     -52.423  30.300  22.916  1.00  0.00    -0.219 NA
ATOM     15  C   UNL     1     -50.455  29.558  24.018  1.00  0.00     0.067 A 
ATOM     16  C   UNL     1     -51.966  31.548  23.087  1.00  0.00     0.120 A 
ATOM     17  C   UNL     1     -50.093  30.899  24.123  1.00  0.00     0.151 A 
ATOM     18  C   UNL     1     -49.418  28.773  24.622  1.00  0.00     0.012 A 
ATOM     19  N   UNL     1     -50.824  31.937  23.671  1.00  0.00    -0.218 NA
ATOM     20  H   UNL     1     -52.601  32.342  22.701  1.00  0.00     0.106 H 
ATOM     21  C   UNL     1     -48.491  29.680  25.104  1.00  0.00     0.019 A 
ATOM     22  H   UNL     1     -47.562  29.513  25.637  1.00  0.00     0.083 H 
BRANCH  13  23
ATOM     23  N   UNL     1     -52.178  27.998  23.196  1.00  0.00    -0.383 N 
ATOM     24  H   UNL     1     -52.632  27.667  24.038  1.00  0.00     0.158 HD
ATOM     25  H   UNL     1     -52.727  27.920  22.339  1.00  0.00     0.158 HD
ENDBRANCH  13  23
BRANCH  18  26
ATOM     26  C   UNL     1     -49.375  27.279  24.741  1.00  0.00     0.085 C 
ATOM     27  C   UNL     1     -50.263  26.686  25.829  1.00  0.00    -0.020 C 
ATOM     28  O   UNL     1     -48.035  26.800  25.026  1.00  0.00    -0.373 OA
ATOM     29  H   UNL     1     -49.654  26.847  23.770  1.00  0.00     0.066 H 
ATOM     30  C   UNL     1     -49.566  25.386  26.136  1.00  0.00    -0.027 C 
ATOM     31  H   UNL     1     -51.299  26.559  25.505  1.00  0.00     0.030 H 
ATOM     32  H   UNL     1     -50.263  27.312  26.731  1.00  0.00     0.030 H 
ATOM     33  C   UNL     1     -48.116  25.800  26.051  1.00  0.00     0.048 C 
ATOM     34  H   UNL     1     -49.796  24.648  25.359  1.00  0.00     0.029 H 
ATOM     35  H   UNL     1     -49.829  24.960  27.107  1.00  0.00     0.029 H 
ATOM     36  H   UNL     1     -47.774  26.252  26.988  1.00  0.00     0.057 H 
ATOM     37  H   UNL     1     -47.454  24.965  25.803  1.00  0.00     0.057 H 
ENDBRANCH  18  26
ENDBRANCH   5  12
ENDBRANCH   1   4
BRANCH   1  38
ATOM     38  O   UNL     1     -48.079  36.403  26.971  1.00  0.00    -0.487 OA
BRANCH  38  39
ATOM     39  C   UNL     1     -47.073  37.060  27.627  1.00  0.00     0.122 A 
ATOM     40  C   UNL     1     -46.679  36.469  28.826  1.00  0.00    -0.019 A 
ATOM     41  C   UNL     1     -46.416  38.211  27.186  1.00  0.00     0.007 A 
ATOM     42  C   UNL     1     -45.661  37.039  29.586  1.00  0.00    -0.049 A 
ATOM     43  H   UNL     1     -47.176  35.569  29.176  1.00  0.00     0.066 H 
ATOM     44  C   UNL     1     -45.383  38.791  27.915  1.00  0.00     0.076 A 
ATOM     45  H   UNL     1     -46.678  38.695  26.251  1.00  0.00     0.069 H 
ATOM     46  C   UNL     1     -45.011  38.198  29.135  1.00  0.00     0.001 A 
ATOM     47  H   UNL     1     -45.375  36.571  30.526  1.00  0.00     0.063 H 
ATOM     48  N   UNL     1     -44.769  39.887  27.431  1.00  0.00    -0.231 NA
ATOM     49  C   UNL     1     -43.982  38.797  29.864  1.00  0.00    -0.049 A 
ATOM     50  C   UNL     1     -43.757  40.446  28.130  1.00  0.00     0.129 A 
ATOM     51  C   UNL     1     -43.354  39.932  29.359  1.00  0.00    -0.019 A 
ATOM     52  H   UNL     1     -43.660  38.389  30.819  1.00  0.00     0.063 H 
ATOM     53  H   UNL     1     -42.557  40.402  29.924  1.00  0.00     0.066 H 
BRANCH  50  54
ATOM     54  N   UNL     1     -43.118  41.581  27.597  1.00  0.00    -0.356 N 
ATOM     55  C   UNL     1     -43.624  42.336  26.484  1.00  0.00     0.021 C 
ATOM     56  C   UNL     1     -41.768  41.661  27.119  1.00  0.00     0.021 C 
ATOM     57  C   UNL     1     -42.210  42.911  26.348  1.00  0.00    -0.018 C 
ATOM     58  H   UNL     1     -44.404  43.049  26.754  1.00  0.00     0.049 H 
ATOM     59  H   UNL     1     -43.947  41.704  25.649  1.00  0.00     0.049 H 
ATOM     60  H   UNL     1     -41.033  41.828  27.909  1.00  0.00     0.049 H 
ATOM     61  H   UNL     1     -41.483  40.809  26.492  1.00  0.00     0.049 H 
ATOM     62  H   UNL     1     -42.053  43.852  26.886  1.00  0.00     0.030 H 
ATOM     63  H   UNL     1     -41.828  43.003  25.329  1.00  0.00     0.030 H 
ENDBRANCH  50  54
ENDBRANCH  38  39
ENDBRANCH   1  38
TORSDOF 7
ENDMDL
MODEL 3
REMARK VINA RESULT:      -9.9      2.306     12.233
REMARK SMILES Nc1ncnc2c1c([C@@H]1CCCO1)cn2-c1cncc(COc2ccc3ccc(N4CCC4)nc3c2)n1
REMARK SMILES IDX 21 1 20 4 16 5 17 6 37 7 18 8 19 10 15 12 2 13 3 14 7 15
REMARK SMILES IDX 4 16 6 17 8 18 5 19 14 21 1 23 9 26 10 27 13 28 11 30 12 33
REMARK SMILES IDX 22 38 23 39 24 40 36 41 25 42 35 44 26 46 34 48 27 49 29 50
REMARK SMILES IDX 28 51 30 54 31 55 33 56 32 57
REMARK H PARENT 21 2 21 3 17 9 19 11 4 20 14 22 1 24 1 25 9 29 10 31 10 32
REMARK H PARENT 11 34 11 35 12 36 12 37 24 43 36 45 25 47 27 52 28 53 31 58
REMARK H PARENT 31 59 33 60 33 61 32 62 32 63
REMARK Flexibility Score: inf
ROOT
ATOM      1  C   UNL     1     -46.388  35.721  26.925  1.00  0.00     0.132 C 
ATOM      2  H   UNL     1     -45.675  35.234  27.601  1.00  0.00     0.078 H 
ATOM      3  H   UNL     1     -45.815  35.930  26.015  1.00  0.00     0.078 H 
ENDROOT
BRANCH   1   4
ATOM      4  C   UNL     1     -47.530  34.772  26.663  1.00  0.00     0.099 A 
ATOM      5  C   UNL     1     -48.307  32.742  25.842  1.00  0.00     0.157 A 
ATOM      6  C   UNL     1     -49.603  33.137  26.144  1.00  0.00     0.070 A 
ATOM      7  N   UNL     1     -47.249  33.561  26.115  1.00  0.00    -0.228 NA
ATOM      8  N   UNL     1     -49.893  34.344  26.699  1.00  0.00    -0.259 NA
ATOM      9  H   UNL     1     -50.478  32.534  25.945  1.00  0.00     0.088 H 
ATOM     10  C   UNL     1     -48.836  35.150  26.935  1.00  0.00     0.052 A 
ATOM     11  H   UNL     1     -49.076  36.123  27.351  1.00  0.00     0.086 H 
BRANCH   5  12
ATOM     12  N   UNL     1     -48.022  31.497  25.204  1.00  0.00    -0.284 N 
ATOM     13  C   UNL     1     -46.476  29.410  22.766  1.00  0.00     0.136 A 
ATOM     14  N   UNL     1     -45.808  30.300  22.010  1.00  0.00    -0.219 NA
ATOM     15  C   UNL     1     -47.226  29.865  23.865  1.00  0.00     0.067 A 
ATOM     16  C   UNL     1     -45.898  31.598  22.332  1.00  0.00     0.120 A 
ATOM     17  C   UNL     1     -47.229  31.240  24.095  1.00  0.00     0.151 A 
ATOM     18  C   UNL     1     -48.039  29.249  24.873  1.00  0.00     0.012 A 
ATOM     19  N   UNL     1     -46.577  32.152  23.347  1.00  0.00    -0.218 NA
ATOM     20  H   UNL     1     -45.351  32.284  21.691  1.00  0.00     0.106 H 
ATOM     21  C   UNL     1     -48.533  30.285  25.644  1.00  0.00     0.019 A 
ATOM     22  H   UNL     1     -49.194  30.262  26.503  1.00  0.00     0.083 H 
BRANCH  13  23
ATOM     23  N   UNL     1     -46.366  28.071  22.410  1.00  0.00    -0.383 N 
ATOM     24  H   UNL     1     -47.252  27.722  22.068  1.00  0.00     0.158 HD
ATOM     25  H   UNL     1     -45.561  27.898  21.805  1.00  0.00     0.158 HD
ENDBRANCH  13  23
BRANCH  18  26
ATOM     26  C   UNL     1     -48.324  27.784  25.026  1.00  0.00     0.085 C 
ATOM     27  C   UNL     1     -48.996  27.384  26.334  1.00  0.00    -0.020 C 
ATOM     28  O   UNL     1     -47.112  26.990  24.949  1.00  0.00    -0.373 OA
ATOM     29  H   UNL     1     -48.952  27.465  24.183  1.00  0.00     0.066 H 
ATOM     30  C   UNL     1     -48.574  25.945  26.482  1.00  0.00    -0.027 C 
ATOM     31  H   UNL     1     -50.081  27.519  26.309  1.00  0.00     0.030 H 
ATOM     32  H   UNL     1     -48.601  27.961  27.180  1.00  0.00     0.030 H 
ATOM     33  C   UNL     1     -47.147  26.004  25.990  1.00  0.00     0.048 C 
ATOM     34  H   UNL     1     -49.176  25.311  25.821  1.00  0.00     0.029 H 
ATOM     35  H   UNL     1     -48.656  25.561  27.501  1.00  0.00     0.029 H 
ATOM     36  H   UNL     1     -46.465  26.329  26.783  1.00  0.00     0.057 H 
ATOM     37  H   UNL     1     -46.797  25.044  25.599  1.00  0.00     0.057 H 
ENDBRANCH  18  26
ENDBRANCH   5  12
ENDBRANCH   1   4
BRANCH   1  38
ATOM     38  O   UNL     1     -46.834  36.910  27.586  1.00  0.00    -0.487 OA
BRANCH  38  39
ATOM     39  C   UNL     1     -45.890  37.807  28.006  1.00  0.00     0.122 A 
ATOM     40  C   UNL     1     -45.232  37.450  29.181  1.00  0.00    -0.019 A 
ATOM     41  C   UNL     1     -45.526  38.987  27.352  1.00  0.00     0.007 A 
ATOM     42  C   UNL     1     -44.245  38.278  29.711  1.00  0.00    -0.049 A 
ATOM     43  H   UNL     1     -45.498  36.531  29.695  1.00  0.00     0.066 H 
ATOM     44  C   UNL     1     -44.531  39.823  27.847  1.00  0.00     0.076 A 
ATOM     45  H   UNL     1     -45.999  39.295  26.426  1.00  0.00     0.069 H 
ATOM     46  C   UNL     1     -43.891  39.463  29.048  1.00  0.00     0.001 A 
ATOM     47  H   UNL     1     -43.751  37.991  30.637  1.00  0.00     0.063 H 
ATOM     48  N   UNL     1     -44.205  40.936  27.164  1.00  0.00    -0.231 NA
ATOM     49  C   UNL     1     -42.904  40.318  29.541  1.00  0.00    -0.049 A 
ATOM     50  C   UNL     1     -43.230  41.744  27.635  1.00  0.00     0.129 A 
ATOM     51  C   UNL     1     -42.575  41.469  28.831  1.00  0.00    -0.019 A 
ATOM     52  H   UNL     1     -42.385  40.096  30.470  1.00  0.00     0.063 H 
ATOM     53  H   UNL     1     -41.811  42.136  29.213  1.00  0.00     0.066 H 
BRANCH  50  54
ATOM     54  N   UNL     1     -42.894  42.894  26.896  1.00  0.00    -0.356 N 
ATOM     55  C   UNL     1     -43.719  44.068  26.821  1.00  0.00     0.021 C 
ATOM     56  C   UNL     1     -42.576  42.952  25.498  1.00  0.00     0.021 C 
ATOM     57  C   UNL     1     -42.910  44.447  25.576  1.00  0.00    -0.018 C 
ATOM     58  H   UNL     1     -43.614  44.735  27.679  1.00  0.00     0.049 H 
ATOM     59  H   UNL     1     -44.774  43.840  26.634  1.00  0.00     0.049 H 
ATOM     60  H   UNL     1     -41.534  42.711  25.277  1.00  0.00     0.049 H 
ATOM     61  H   UNL     1     -43.256  42.359  24.877  1.00  0.00     0.049 H 
ATOM     62  H   UNL     1     -42.048  45.093  25.778  1.00  0.00     0.030 H 
ATOM     63  H   UNL     1     -43.484  44.852  24.740  1.00  0.00     0.030 H 
ENDBRANCH  50  54
ENDBRANCH  38  39
ENDBRANCH   1  38
TORSDOF 7
ENDMDL
MODEL 4
REMARK VINA RESULT:      -9.7      2.086      3.124
REMARK SMILES Nc1ncnc2c1c([C@@H]1CCCO1)cn2-c1cncc(COc2ccc3ccc(N4CCC4)nc3c2)n1
REMARK SMILES IDX 21 1 20 4 16 5 17 6 37 7 18 8 19 10 15 12 2 13 3 14 7 15
REMARK SMILES IDX 4 16 6 17 8 18 5 19 14 21 1 23 9 26 10 27 13 28 11 30 12 33
REMARK SMILES IDX 22 38 23 39 24 40 36 41 25 42 35 44 26 46 34 48 27 49 29 50
REMARK SMILES IDX 28 51 30 54 31 55 33 56 32 57
REMARK H PARENT 21 2 21 3 17 9 19 11 4 20 14 22 1 24 1 25 9 29 10 31 10 32
REMARK H PARENT 11 34 11 35 12 36 12 37 24 43 36 45 25 47 27 52 28 53 31 58
REMARK H PARENT 31 59 33 60 33 61 32 62 32 63
REMARK Flexibility Score: inf
ROOT
ATOM      1  C   UNL     1     -47.907  36.014  26.968  1.00  0.00     0.132 C 
ATOM      2  H   UNL     1     -48.885  36.293  27.378  1.00  0.00     0.078 H 
ATOM      3  H   UNL     1     -48.038  36.052  25.881  1.00  0.00     0.078 H 
ENDROOT
BRANCH   1   4
ATOM      4  C   UNL     1     -46.882  37.011  27.444  1.00  0.00     0.099 A 
ATOM      5  C   UNL     1     -45.949  39.137  27.344  1.00  0.00     0.157 A 
ATOM      6  C   UNL     1     -44.990  38.740  28.266  1.00  0.00     0.070 A 
ATOM      7  N   UNL     1     -46.920  38.269  26.934  1.00  0.00    -0.228 NA
ATOM      8  N   UNL     1     -44.948  37.485  28.788  1.00  0.00    -0.259 NA
ATOM      9  H   UNL     1     -44.195  39.380  28.623  1.00  0.00     0.088 H 
ATOM     10  C   UNL     1     -45.899  36.634  28.347  1.00  0.00     0.052 A 
ATOM     11  H   UNL     1     -45.844  35.626  28.745  1.00  0.00     0.086 H 
BRANCH   5  12
ATOM     12  N   UNL     1     -45.945  40.439  26.759  1.00  0.00    -0.284 N 
ATOM     13  C   UNL     1     -47.439  43.496  25.702  1.00  0.00     0.136 A 
ATOM     14  N   UNL     1     -48.736  43.297  25.998  1.00  0.00    -0.219 NA
ATOM     15  C   UNL     1     -46.505  42.484  25.987  1.00  0.00     0.067 A 
ATOM     16  C   UNL     1     -49.089  42.125  26.544  1.00  0.00     0.120 A 
ATOM     17  C   UNL     1     -47.003  41.316  26.563  1.00  0.00     0.151 A 
ATOM     18  C   UNL     1     -45.088  42.327  25.828  1.00  0.00     0.012 A 
ATOM     19  N   UNL     1     -48.298  41.089  26.859  1.00  0.00    -0.218 NA
ATOM     20  H   UNL     1     -50.147  42.002  26.760  1.00  0.00     0.106 H 
ATOM     21  C   UNL     1     -44.798  41.052  26.279  1.00  0.00     0.019 A 
ATOM     22  H   UNL     1     -43.850  40.528  26.326  1.00  0.00     0.083 H 
BRANCH  13  23
ATOM     23  N   UNL     1     -47.102  44.719  25.136  1.00  0.00    -0.383 N 
ATOM     24  H   UNL     1     -47.669  44.898  24.317  1.00  0.00     0.158 HD
ATOM     25  H   UNL     1     -47.075  45.470  25.827  1.00  0.00     0.158 HD
ENDBRANCH  13  23
BRANCH  18  26
ATOM     26  C   UNL     1     -44.133  43.329  25.252  1.00  0.00     0.085 C 
ATOM     27  C   UNL     1     -43.728  43.085  23.804  1.00  0.00    -0.020 C 
ATOM     28  O   UNL     1     -42.892  43.380  26.002  1.00  0.00    -0.373 OA
ATOM     29  H   UNL     1     -44.584  44.326  25.339  1.00  0.00     0.066 H 
ATOM     30  C   UNL     1     -42.387  43.767  23.728  1.00  0.00    -0.027 C 
ATOM     31  H   UNL     1     -44.457  43.477  23.090  1.00  0.00     0.030 H 
ATOM     32  H   UNL     1     -43.595  42.014  23.599  1.00  0.00     0.030 H 
ATOM     33  C   UNL     1     -41.799  43.414  25.073  1.00  0.00     0.048 C 
ATOM     34  H   UNL     1     -42.525  44.851  23.648  1.00  0.00     0.029 H 
ATOM     35  H   UNL     1     -41.766  43.434  22.893  1.00  0.00     0.029 H 
ATOM     36  H   UNL     1     -41.340  42.420  25.060  1.00  0.00     0.057 H 
ATOM     37  H   UNL     1     -41.053  44.140  25.410  1.00  0.00     0.057 H 
ENDBRANCH  18  26
ENDBRANCH   5  12
ENDBRANCH   1   4
BRANCH   1  38
ATOM     38  O   UNL     1     -47.621  34.696  27.448  1.00  0.00    -0.487 OA
BRANCH  38  39
ATOM     39  C   UNL     1     -47.514  33.686  26.531  1.00  0.00     0.122 A 
ATOM     40  C   UNL     1     -46.493  33.855  25.597  1.00  0.00    -0.019 A 
ATOM     41  C   UNL     1     -48.295  32.529  26.485  1.00  0.00     0.007 A 
ATOM     42  C   UNL     1     -46.277  32.893  24.613  1.00  0.00    -0.049 A 
ATOM     43  H   UNL     1     -45.872  34.746  25.627  1.00  0.00     0.066 H 
ATOM     44  C   UNL     1     -48.090  31.543  25.526  1.00  0.00     0.076 A 
ATOM     45  H   UNL     1     -49.088  32.347  27.202  1.00  0.00     0.069 H 
ATOM     46  C   UNL     1     -47.072  31.737  24.574  1.00  0.00     0.001 A 
ATOM     47  H   UNL     1     -45.485  33.048  23.885  1.00  0.00     0.063 H 
ATOM     48  N   UNL     1     -48.857  30.437  25.543  1.00  0.00    -0.231 NA
ATOM     49  C   UNL     1     -46.884  30.746  23.609  1.00  0.00    -0.049 A 
ATOM     50  C   UNL     1     -48.652  29.471  24.620  1.00  0.00     0.129 A 
ATOM     51  C   UNL     1     -47.684  29.608  23.630  1.00  0.00    -0.019 A 
ATOM     52  H   UNL     1     -46.120  30.849  22.842  1.00  0.00     0.063 H 
ATOM     53  H   UNL     1     -47.544  28.838  22.880  1.00  0.00     0.066 H 
BRANCH  50  54
ATOM     54  N   UNL     1     -49.455  28.316  24.667  1.00  0.00    -0.356 N 
ATOM     55  C   UNL     1     -49.488  27.407  25.780  1.00  0.00     0.021 C 
ATOM     56  C   UNL     1     -49.476  27.246  23.711  1.00  0.00     0.021 C 
ATOM     57  C   UNL     1     -50.112  26.393  24.816  1.00  0.00    -0.018 C 
ATOM     58  H   UNL     1     -50.126  27.740  26.600  1.00  0.00     0.049 H 
ATOM     59  H   UNL     1     -48.490  27.142  26.146  1.00  0.00     0.049 H 
ATOM     60  H   UNL     1     -50.110  27.446  22.845  1.00  0.00     0.049 H 
ATOM     61  H   UNL     1     -48.475  26.928  23.400  1.00  0.00     0.049 H 
ATOM     62  H   UNL     1     -51.208  26.390  24.811  1.00  0.00     0.030 H 
ATOM     63  H   UNL     1     -49.743  25.367  24.898  1.00  0.00     0.030 H 
ENDBRANCH  50  54
ENDBRANCH  38  39
ENDBRANCH   1  38
TORSDOF 7
ENDMDL
MODEL 5
REMARK VINA RESULT:      -9.5      2.315      3.381
REMARK SMILES Nc1ncnc2c1c([C@@H]1CCCO1)cn2-c1cncc(COc2ccc3ccc(N4CCC4)nc3c2)n1
REMARK SMILES IDX 21 1 20 4 16 5 17 6 37 7 18 8 19 10 15 12 2 13 3 14 7 15
REMARK SMILES IDX 4 16 6 17 8 18 5 19 14 21 1 23 9 26 10 27 13 28 11 30 12 33
REMARK SMILES IDX 22 38 23 39 24 40 36 41 25 42 35 44 26 46 34 48 27 49 29 50
REMARK SMILES IDX 28 51 30 54 31 55 33 56 32 57
REMARK H PARENT 21 2 21 3 17 9 19 11 4 20 14 22 1 24 1 25 9 29 10 31 10 32
REMARK H PARENT 11 34 11 35 12 36 12 37 24 43 36 45 25 47 27 52 28 53 31 58
REMARK H PARENT 31 59 33 60 33 61 32 62 32 63
REMARK Flexibility Score: inf
ROOT
ATOM      1  C   UNL     1     -47.267  33.763  25.775  1.00  0.00     0.132 C 
ATOM      2  H   UNL     1     -47.170  34.240  24.792  1.00  0.00     0.078 H 
ATOM      3  H   UNL     1     -46.565  32.922  25.749  1.00  0.00     0.078 H 
ENDROOT
BRANCH   1   4
ATOM      4  C   UNL     1     -46.899  34.767  26.837  1.00  0.00     0.099 A 
ATOM      5  C   UNL     1     -46.751  36.974  27.551  1.00  0.00     0.157 A 
ATOM      6  C   UNL     1     -46.163  36.534  28.730  1.00  0.00     0.070 A 
ATOM      7  N   UNL     1     -47.140  36.082  26.593  1.00  0.00    -0.228 NA
ATOM      8  N   UNL     1     -45.925  35.220  28.986  1.00  0.00    -0.259 NA
ATOM      9  H   UNL     1     -45.831  37.193  29.520  1.00  0.00     0.088 H 
ATOM     10  C   UNL     1     -46.290  34.357  28.014  1.00  0.00     0.052 A 
ATOM     11  H   UNL     1     -46.072  33.312  28.212  1.00  0.00     0.086 H 
BRANCH   5  12
ATOM     12  N   UNL     1     -46.940  38.360  27.269  1.00  0.00    -0.284 N 
ATOM     13  C   UNL     1     -48.738  41.435  27.310  1.00  0.00     0.136 A 
ATOM     14  N   UNL     1     -49.896  41.082  27.897  1.00  0.00    -0.219 NA
ATOM     15  C   UNL     1     -47.740  40.464  27.117  1.00  0.00     0.067 A 
ATOM     16  C   UNL     1     -50.055  39.802  28.264  1.00  0.00     0.120 A 
ATOM     17  C   UNL     1     -48.030  39.173  27.551  1.00  0.00     0.151 A 
ATOM     18  C   UNL     1     -46.421  40.454  26.553  1.00  0.00     0.012 A 
ATOM     19  N   UNL     1     -49.185  38.791  28.132  1.00  0.00    -0.218 NA
ATOM     20  H   UNL     1     -51.007  39.557  28.727  1.00  0.00     0.106 H 
ATOM     21  C   UNL     1     -45.987  39.143  26.635  1.00  0.00     0.019 A 
ATOM     22  H   UNL     1     -45.052  38.696  26.315  1.00  0.00     0.083 H 
BRANCH  13  23
ATOM     23  N   UNL     1     -48.600  42.768  26.940  1.00  0.00    -0.383 N 
ATOM     24  H   UNL     1     -47.636  42.974  26.713  1.00  0.00     0.158 HD
ATOM     25  H   UNL     1     -49.288  43.046  26.238  1.00  0.00     0.158 HD
ENDBRANCH  13  23
BRANCH  18  26
ATOM     26  C   UNL     1     -45.688  41.620  25.961  1.00  0.00     0.085 C 
ATOM     27  C   UNL     1     -44.300  41.307  25.413  1.00  0.00    -0.020 C 
ATOM     28  O   UNL     1     -45.495  42.682  26.930  1.00  0.00    -0.373 OA
ATOM     29  H   UNL     1     -46.306  42.046  25.159  1.00  0.00     0.066 H 
ATOM     30  C   UNL     1     -43.612  42.644  25.507  1.00  0.00    -0.027 C 
ATOM     31  H   UNL     1     -44.329  40.902  24.398  1.00  0.00     0.030 H 
ATOM     32  H   UNL     1     -43.770  40.588  26.051  1.00  0.00     0.030 H 
ATOM     33  C   UNL     1     -44.148  43.162  26.819  1.00  0.00     0.048 C 
ATOM     34  H   UNL     1     -43.939  43.289  24.683  1.00  0.00     0.029 H 
ATOM     35  H   UNL     1     -42.521  42.584  25.487  1.00  0.00     0.029 H 
ATOM     36  H   UNL     1     -43.580  42.764  27.667  1.00  0.00     0.057 H 
ATOM     37  H   UNL     1     -44.141  44.255  26.876  1.00  0.00     0.057 H 
ENDBRANCH  18  26
ENDBRANCH   5  12
ENDBRANCH   1   4
BRANCH   1  38
ATOM     38  O   UNL     1     -48.630  33.345  25.896  1.00  0.00    -0.487 OA
BRANCH  38  39
ATOM     39  C   UNL     1     -48.980  32.128  25.378  1.00  0.00     0.122 A 
ATOM     40  C   UNL     1     -49.881  32.186  24.317  1.00  0.00    -0.019 A 
ATOM     41  C   UNL     1     -48.494  30.885  25.793  1.00  0.00     0.007 A 
ATOM     42  C   UNL     1     -50.313  31.015  23.699  1.00  0.00    -0.049 A 
ATOM     43  H   UNL     1     -50.260  33.146  23.978  1.00  0.00     0.066 H 
ATOM     44  C   UNL     1     -48.893  29.701  25.183  1.00  0.00     0.076 A 
ATOM     45  H   UNL     1     -47.780  30.794  26.603  1.00  0.00     0.069 H 
ATOM     46  C   UNL     1     -49.822  29.772  24.128  1.00  0.00     0.001 A 
ATOM     47  H   UNL     1     -51.027  31.078  22.881  1.00  0.00     0.063 H 
ATOM     48  N   UNL     1     -48.376  28.534  25.608  1.00  0.00    -0.231 NA
ATOM     49  C   UNL     1     -50.224  28.575  23.532  1.00  0.00    -0.049 A 
ATOM     50  C   UNL     1     -48.751  27.381  25.008  1.00  0.00     0.129 A 
ATOM     51  C   UNL     1     -49.687  27.372  23.980  1.00  0.00    -0.019 A 
ATOM     52  H   UNL     1     -50.947  28.569  22.721  1.00  0.00     0.063 H 
ATOM     53  H   UNL     1     -50.000  26.440  23.522  1.00  0.00     0.066 H 
BRANCH  50  54
ATOM     54  N   UNL     1     -48.184  26.174  25.459  1.00  0.00    -0.356 N 
ATOM     55  C   UNL     1     -48.715  25.396  26.543  1.00  0.00     0.021 C 
ATOM     56  C   UNL     1     -46.831  25.970  25.890  1.00  0.00     0.021 C 
ATOM     57  C   UNL     1     -47.344  24.713  26.603  1.00  0.00    -0.018 C 
ATOM     58  H   UNL     1     -49.553  24.758  26.258  1.00  0.00     0.049 H 
ATOM     59  H   UNL     1     -48.968  26.000  27.421  1.00  0.00     0.049 H 
ATOM     60  H   UNL     1     -46.133  25.796  25.069  1.00  0.00     0.049 H 
ATOM     61  H   UNL     1     -46.468  26.762  26.553  1.00  0.00     0.049 H 
ATOM     62  H   UNL     1     -47.271  23.795  26.010  1.00  0.00     0.030 H 
ATOM     63  H   UNL     1     -46.943  24.536  27.604  1.00  0.00     0.030 H 
ENDBRANCH  50  54
ENDBRANCH  38  39
ENDBRANCH   1  38
TORSDOF 7
ENDMDL
MODEL 6
REMARK VINA RESULT:      -9.3      2.848     12.110
REMARK SMILES Nc1ncnc2c1c([C@@H]1CCCO1)cn2-c1cncc(COc2ccc3ccc(N4CCC4)nc3c2)n1
REMARK SMILES IDX 21 1 20 4 16 5 17 6 37 7 18 8 19 10 15 12 2 13 3 14 7 15
REMARK SMILES IDX 4 16 6 17 8 18 5 19 14 21 1 23 9 26 10 27 13 28 11 30 12 33
REMARK SMILES IDX 22 38 23 39 24 40 36 41 25 42 35 44 26 46 34 48 27 49 29 50
REMARK SMILES IDX 28 51 30 54 31 55 33 56 32 57
REMARK H PARENT 21 2 21 3 17 9 19 11 4 20 14 22 1 24 1 25 9 29 10 31 10 32
REMARK H PARENT 11 34 11 35 12 36 12 37 24 43 36 45 25 47 27 52 28 53 31 58
REMARK H PARENT 31 59 33 60 33 61 32 62 32 63
REMARK Flexibility Score: inf
ROOT
ATOM      1  C   UNL     1     -48.456  34.941  27.342  1.00  0.00     0.132 C 
ATOM      2  H   UNL     1     -49.548  34.844  27.365  1.00  0.00     0.078 H 
ATOM      3  H   UNL     1     -48.137  34.765  28.375  1.00  0.00     0.078 H 
ENDROOT
BRANCH   1   4
ATOM      4  C   UNL     1     -47.900  33.905  26.400  1.00  0.00     0.099 A 
ATOM      5  C   UNL     1     -48.225  32.069  25.013  1.00  0.00     0.157 A 
ATOM      6  C   UNL     1     -46.857  32.026  24.779  1.00  0.00     0.070 A 
ATOM      7  N   UNL     1     -48.762  33.028  25.823  1.00  0.00    -0.228 NA
ATOM      8  N   UNL     1     -45.987  32.903  25.346  1.00  0.00    -0.259 NA
ATOM      9  H   UNL     1     -46.376  31.287  24.153  1.00  0.00     0.088 H 
ATOM     10  C   UNL     1     -46.534  33.825  26.166  1.00  0.00     0.052 A 
ATOM     11  H   UNL     1     -45.833  34.505  26.638  1.00  0.00     0.086 H 
BRANCH   5  12
ATOM     12  N   UNL     1     -49.120  31.104  24.459  1.00  0.00    -0.284 N 
ATOM     13  C   UNL     1     -50.648  27.895  24.224  1.00  0.00     0.136 A 
ATOM     14  N   UNL     1     -49.997  27.198  25.172  1.00  0.00    -0.219 NA
ATOM     15  C   UNL     1     -50.318  29.246  24.013  1.00  0.00     0.067 A 
ATOM     16  C   UNL     1     -49.041  27.824  25.874  1.00  0.00     0.120 A 
ATOM     17  C   UNL     1     -49.311  29.777  24.816  1.00  0.00     0.151 A 
ATOM     18  C   UNL     1     -50.773  30.283  23.133  1.00  0.00     0.012 A 
ATOM     19  N   UNL     1     -48.637  29.098  25.765  1.00  0.00    -0.218 NA
ATOM     20  H   UNL     1     -48.534  27.223  26.624  1.00  0.00     0.106 H 
ATOM     21  C   UNL     1     -49.989  31.387  23.416  1.00  0.00     0.019 A 
ATOM     22  H   UNL     1     -49.994  32.378  22.975  1.00  0.00     0.083 H 
BRANCH  13  23
ATOM     23  N   UNL     1     -51.633  27.221  23.512  1.00  0.00    -0.383 N 
ATOM     24  H   UNL     1     -51.671  26.250  23.793  1.00  0.00     0.158 HD
ATOM     25  H   UNL     1     -52.525  27.719  23.521  1.00  0.00     0.158 HD
ENDBRANCH  13  23
BRANCH  18  26
ATOM     26  C   UNL     1     -51.848  30.172  22.094  1.00  0.00     0.085 C 
ATOM     27  C   UNL     1     -51.452  29.428  20.824  1.00  0.00    -0.020 C 
ATOM     28  O   UNL     1     -52.308  31.476  21.655  1.00  0.00    -0.373 OA
ATOM     29  H   UNL     1     -52.718  29.677  22.547  1.00  0.00     0.066 H 
ATOM     30  C   UNL     1     -52.396  30.012  19.804  1.00  0.00    -0.027 C 
ATOM     31  H   UNL     1     -51.540  28.343  20.926  1.00  0.00     0.030 H 
ATOM     32  H   UNL     1     -50.420  29.659  20.529  1.00  0.00     0.030 H 
ATOM     33  C   UNL     1     -52.425  31.462  20.226  1.00  0.00     0.048 C 
ATOM     34  H   UNL     1     -53.390  29.564  19.918  1.00  0.00     0.029 H 
ATOM     35  H   UNL     1     -52.071  29.877  18.770  1.00  0.00     0.029 H 
ATOM     36  H   UNL     1     -51.573  32.014  19.814  1.00  0.00     0.057 H 
ATOM     37  H   UNL     1     -53.347  31.969  19.927  1.00  0.00     0.057 H 
ENDBRANCH  18  26
ENDBRANCH   5  12
ENDBRANCH   1   4
BRANCH   1  38
ATOM     38  O   UNL     1     -48.171  36.269  26.891  1.00  0.00    -0.487 OA
BRANCH  38  39
ATOM     39  C   UNL     1     -47.189  36.972  27.535  1.00  0.00     0.122 A 
ATOM     40  C   UNL     1     -46.875  36.498  28.807  1.00  0.00    -0.019 A 
ATOM     41  C   UNL     1     -46.483  38.062  27.020  1.00  0.00     0.007 A 
ATOM     42  C   UNL     1     -45.889  37.125  29.565  1.00  0.00    -0.049 A 
ATOM     43  H   UNL     1     -47.411  35.646  29.216  1.00  0.00     0.066 H 
ATOM     44  C   UNL     1     -45.480  38.695  27.746  1.00  0.00     0.076 A 
ATOM     45  H   UNL     1     -46.682  38.453  26.029  1.00  0.00     0.069 H 
ATOM     46  C   UNL     1     -45.189  38.222  29.039  1.00  0.00     0.001 A 
ATOM     47  H   UNL     1     -45.666  36.749  30.561  1.00  0.00     0.063 H 
ATOM     48  N   UNL     1     -44.816  39.726  27.192  1.00  0.00    -0.231 NA
ATOM     49  C   UNL     1     -44.189  38.874  29.763  1.00  0.00    -0.049 A 
ATOM     50  C   UNL     1     -43.832  40.336  27.889  1.00  0.00     0.129 A 
ATOM     51  C   UNL     1     -43.510  39.942  29.184  1.00  0.00    -0.019 A 
ATOM     52  H   UNL     1     -43.931  38.559  30.770  1.00  0.00     0.063 H 
ATOM     53  H   UNL     1     -42.736  40.453  29.744  1.00  0.00     0.066 H 
BRANCH  50  54
ATOM     54  N   UNL     1     -43.139  41.401  27.283  1.00  0.00    -0.356 N 
ATOM     55  C   UNL     1     -42.780  42.614  27.965  1.00  0.00     0.021 C 
ATOM     56  C   UNL     1     -43.523  42.108  26.095  1.00  0.00     0.021 C 
ATOM     57  C   UNL     1     -42.598  43.234  26.575  1.00  0.00    -0.018 C 
ATOM     58  H   UNL     1     -41.875  42.527  28.569  1.00  0.00     0.049 H 
ATOM     59  H   UNL     1     -43.602  43.035  28.554  1.00  0.00     0.049 H 
ATOM     60  H   UNL     1     -43.220  41.608  25.172  1.00  0.00     0.049 H 
ATOM     61  H   UNL     1     -44.587  42.363  26.071  1.00  0.00     0.049 H 
ATOM     62  H   UNL     1     -41.576  43.176  26.185  1.00  0.00     0.030 H 
ATOM     63  H   UNL     1     -42.981  44.250  26.452  1.00  0.00     0.030 H 
ENDBRANCH  50  54
ENDBRANCH  38  39
ENDBRANCH   1  38
TORSDOF 7
ENDMDL
