MODEL 1
REMARK VINA RESULT:     -11.4      0.000      0.000
REMARK SMILES O=C(NCc1ccc2cc(CNCC3CC(F)(F)C3)[nH]c2c1)c1cc(=O)n2ccccc2n1
REMARK SMILES IDX 5 1 6 2 7 3 8 4 9 5 10 6 20 7 21 8 22 9 4 15 3 18 1 19 2 20
REMARK SMILES IDX 23 22 24 23 33 24 25 25 32 27 26 28 27 29 31 30 28 31 30 32
REMARK SMILES IDX 29 34 11 38 12 41 13 43 14 46 15 47 19 48 16 50 17 55 18 56
REMARK H PARENT 6 10 7 11 9 12 20 13 22 14 4 16 4 17 3 21 24 26 31 33 28 35
REMARK H PARENT 30 36 29 37 11 39 11 40 12 42 13 44 13 45 14 49 15 51 15 52
REMARK H PARENT 19 53 19 54
REMARK Flexibility Score: inf
ROOT
ATOM      1  C   UNL     1     -47.880  34.846  26.541  1.00  0.00    -0.027 A 
ATOM      2  C   UNL     1     -46.625  34.814  25.921  1.00  0.00    -0.057 A 
ATOM      3  C   UNL     1     -46.229  33.720  25.141  1.00  0.00    -0.052 A 
ATOM      4  C   UNL     1     -47.107  32.633  24.984  1.00  0.00    -0.000 A 
ATOM      5  C   UNL     1     -47.036  31.396  24.288  1.00  0.00    -0.032 A 
ATOM      6  C   UNL     1     -48.217  30.711  24.501  1.00  0.00     0.030 A 
ATOM      7  N   UNL     1     -48.999  31.502  25.309  1.00  0.00    -0.357 N 
ATOM      8  C   UNL     1     -48.348  32.676  25.615  1.00  0.00     0.046 A 
ATOM      9  C   UNL     1     -48.761  33.759  26.400  1.00  0.00    -0.033 A 
ATOM     10  H   UNL     1     -45.934  35.648  26.042  1.00  0.00     0.063 H 
ATOM     11  H   UNL     1     -45.254  33.712  24.664  1.00  0.00     0.063 H 
ATOM     12  H   UNL     1     -46.204  31.035  23.695  1.00  0.00     0.065 H 
ATOM     13  H   UNL     1     -49.926  31.266  25.637  1.00  0.00     0.166 HD
ATOM     14  H   UNL     1     -49.731  33.761  26.889  1.00  0.00     0.065 H 
ENDROOT
BRANCH   1  15
ATOM     15  C   UNL     1     -48.272  36.018  27.403  1.00  0.00     0.043 C 
ATOM     16  H   UNL     1     -49.203  36.473  27.044  1.00  0.00     0.054 H 
ATOM     17  H   UNL     1     -48.456  35.698  28.436  1.00  0.00     0.054 H 
BRANCH  15  18
ATOM     18  N   UNL     1     -47.244  37.024  27.393  1.00  0.00    -0.347 N 
ATOM     19  O   UNL     1     -46.545  36.672  29.551  1.00  0.00    -0.268 OA
ATOM     20  C   UNL     1     -46.489  37.303  28.503  1.00  0.00     0.270 C 
ATOM     21  H   UNL     1     -47.174  37.671  26.613  1.00  0.00     0.164 HD
BRANCH  20  22
ATOM     22  C   UNL     1     -45.579  38.490  28.296  1.00  0.00     0.136 A 
ATOM     23  C   UNL     1     -45.838  39.263  27.239  1.00  0.00     0.035 A 
ATOM     24  N   UNL     1     -44.553  38.700  29.190  1.00  0.00    -0.225 NA
ATOM     25  C   UNL     1     -44.977  40.427  27.000  1.00  0.00     0.258 A 
ATOM     26  H   UNL     1     -46.648  39.086  26.543  1.00  0.00     0.071 H 
ATOM     27  C   UNL     1     -43.793  39.730  28.975  1.00  0.00     0.140 A 
ATOM     28  O   UNL     1     -45.210  41.146  26.031  1.00  0.00    -0.269 OA
ATOM     29  N   UNL     1     -43.951  40.617  27.915  1.00  0.00    -0.268 N 
ATOM     30  C   UNL     1     -42.669  39.997  29.917  1.00  0.00    -0.019 A 
ATOM     31  C   UNL     1     -43.092  41.700  27.755  1.00  0.00     0.014 A 
ATOM     32  C   UNL     1     -41.869  41.052  29.721  1.00  0.00    -0.057 A 
ATOM     33  H   UNL     1     -42.538  39.312  30.746  1.00  0.00     0.066 H 
ATOM     34  C   UNL     1     -42.085  41.933  28.605  1.00  0.00    -0.045 A 
ATOM     35  H   UNL     1     -43.273  42.352  26.904  1.00  0.00     0.082 H 
ATOM     36  H   UNL     1     -41.046  41.263  30.396  1.00  0.00     0.062 H 
ATOM     37  H   UNL     1     -41.420  42.780  28.469  1.00  0.00     0.064 H 
ENDBRANCH  20  22
ENDBRANCH  15  18
ENDBRANCH   1  15
BRANCH   6  38
ATOM     38  C   UNL     1     -48.673  29.383  24.008  1.00  0.00     0.036 C 
ATOM     39  H   UNL     1     -47.874  28.933  23.405  1.00  0.00     0.049 H 
ATOM     40  H   UNL     1     -49.552  29.503  23.362  1.00  0.00     0.049 H 
BRANCH  38  41
ATOM     41  N   UNL     1     -48.986  28.533  25.149  1.00  0.00    -0.311 NA
ATOM     42  H   UNL     1     -49.720  28.977  25.700  1.00  0.00     0.123 HD
BRANCH  41  43
ATOM     43  C   UNL     1     -49.407  27.202  24.724  1.00  0.00    -0.001 C 
ATOM     44  H   UNL     1     -50.476  27.060  24.921  1.00  0.00     0.043 H 
ATOM     45  H   UNL     1     -49.247  27.085  23.645  1.00  0.00     0.043 H 
BRANCH  43  46
ATOM     46  C   UNL     1     -48.608  26.151  25.483  1.00  0.00    -0.017 C 
ATOM     47  C   UNL     1     -47.078  26.169  25.254  1.00  0.00     0.015 C 
ATOM     48  C   UNL     1     -48.305  26.432  26.978  1.00  0.00     0.015 C 
ATOM     49  H   UNL     1     -49.022  25.142  25.330  1.00  0.00     0.032 H 
ATOM     50  C   UNL     1     -46.912  25.805  26.748  1.00  0.00     0.248 C 
ATOM     51  H   UNL     1     -46.704  25.426  24.545  1.00  0.00     0.033 H 
ATOM     52  H   UNL     1     -46.659  27.149  24.995  1.00  0.00     0.033 H 
ATOM     53  H   UNL     1     -48.266  27.493  27.250  1.00  0.00     0.033 H 
ATOM     54  H   UNL     1     -48.945  25.905  27.691  1.00  0.00     0.033 H 
ATOM     55  F   UNL     1     -45.883  26.404  27.385  1.00  0.00    -0.207 F 
ATOM     56  F   UNL     1     -46.820  24.481  27.010  1.00  0.00    -0.207 F 
ENDBRANCH  43  46
ENDBRANCH  41  43
ENDBRANCH  38  41
ENDBRANCH   6  38
TORSDOF 7
ENDMDL
MODEL 2
REMARK VINA RESULT:     -10.5      2.777      3.227
REMARK SMILES O=C(NCc1ccc2cc(CNCC3CC(F)(F)C3)[nH]c2c1)c1cc(=O)n2ccccc2n1
REMARK SMILES IDX 5 1 6 2 7 3 8 4 9 5 10 6 20 7 21 8 22 9 4 15 3 18 1 19 2 20
REMARK SMILES IDX 23 22 24 23 33 24 25 25 32 27 26 28 27 29 31 30 28 31 30 32
REMARK SMILES IDX 29 34 11 38 12 41 13 43 14 46 15 47 19 48 16 50 17 55 18 56
REMARK H PARENT 6 10 7 11 9 12 20 13 22 14 4 16 4 17 3 21 24 26 31 33 28 35
REMARK H PARENT 30 36 29 37 11 39 11 40 12 42 13 44 13 45 14 49 15 51 15 52
REMARK H PARENT 19 53 19 54
REMARK Flexibility Score: inf
ROOT
ATOM      1  C   UNL     1     -47.847  35.614  26.796  1.00  0.00    -0.027 A 
ATOM      2  C   UNL     1     -46.567  35.399  26.270  1.00  0.00    -0.057 A 
ATOM      3  C   UNL     1     -46.213  34.167  25.705  1.00  0.00    -0.052 A 
ATOM      4  C   UNL     1     -47.159  33.127  25.673  1.00  0.00    -0.000 A 
ATOM      5  C   UNL     1     -47.143  31.789  25.194  1.00  0.00    -0.032 A 
ATOM      6  C   UNL     1     -48.382  31.226  25.442  1.00  0.00     0.030 A 
ATOM      7  N   UNL     1     -49.144  32.190  26.058  1.00  0.00    -0.357 N 
ATOM      8  C   UNL     1     -48.425  33.354  26.209  1.00  0.00     0.046 A 
ATOM      9  C   UNL     1     -48.796  34.578  26.779  1.00  0.00    -0.033 A 
ATOM     10  H   UNL     1     -45.824  36.195  26.295  1.00  0.00     0.063 H 
ATOM     11  H   UNL     1     -45.217  34.017  25.298  1.00  0.00     0.063 H 
ATOM     12  H   UNL     1     -46.312  31.282  24.722  1.00  0.00     0.065 H 
ATOM     13  H   UNL     1     -50.101  32.071  26.361  1.00  0.00     0.166 HD
ATOM     14  H   UNL     1     -49.788  34.723  27.199  1.00  0.00     0.065 H 
ENDROOT
BRANCH   1  15
ATOM     15  C   UNL     1     -48.195  36.936  27.429  1.00  0.00     0.043 C 
ATOM     16  H   UNL     1     -48.984  37.445  26.862  1.00  0.00     0.054 H 
ATOM     17  H   UNL     1     -48.581  36.792  28.445  1.00  0.00     0.054 H 
BRANCH  15  18
ATOM     18  N   UNL     1     -47.044  37.798  27.474  1.00  0.00    -0.347 N 
ATOM     19  O   UNL     1     -48.215  39.739  27.841  1.00  0.00    -0.268 OA
ATOM     20  C   UNL     1     -47.159  39.156  27.630  1.00  0.00     0.270 C 
ATOM     21  H   UNL     1     -46.130  37.440  27.217  1.00  0.00     0.164 HD
BRANCH  20  22
ATOM     22  C   UNL     1     -45.831  39.864  27.502  1.00  0.00     0.136 A 
ATOM     23  C   UNL     1     -45.621  40.535  26.367  1.00  0.00     0.035 A 
ATOM     24  N   UNL     1     -44.932  39.776  28.541  1.00  0.00    -0.225 NA
ATOM     25  C   UNL     1     -44.343  41.237  26.201  1.00  0.00     0.258 A 
ATOM     26  H   UNL     1     -46.336  40.595  25.557  1.00  0.00     0.071 H 
ATOM     27  C   UNL     1     -43.803  40.398  28.389  1.00  0.00     0.140 A 
ATOM     28  O   UNL     1     -44.142  41.859  25.160  1.00  0.00    -0.269 OA
ATOM     29  N   UNL     1     -43.455  41.134  27.261  1.00  0.00    -0.268 N 
ATOM     30  C   UNL     1     -42.798  40.331  29.489  1.00  0.00    -0.019 A 
ATOM     31  C   UNL     1     -42.222  41.772  27.177  1.00  0.00     0.014 A 
ATOM     32  C   UNL     1     -41.625  40.962  29.360  1.00  0.00    -0.057 A 
ATOM     33  H   UNL     1     -43.060  39.761  30.371  1.00  0.00     0.066 H 
ATOM     34  C   UNL     1     -41.324  41.707  28.168  1.00  0.00    -0.045 A 
ATOM     35  H   UNL     1     -42.015  42.329  26.266  1.00  0.00     0.082 H 
ATOM     36  H   UNL     1     -40.881  40.925  30.150  1.00  0.00     0.062 H 
ATOM     37  H   UNL     1     -40.364  42.209  28.091  1.00  0.00     0.064 H 
ENDBRANCH  20  22
ENDBRANCH  15  18
ENDBRANCH   1  15
BRANCH   6  38
ATOM     38  C   UNL     1     -48.907  29.866  25.144  1.00  0.00     0.036 C 
ATOM     39  H   UNL     1     -49.773  29.957  24.476  1.00  0.00     0.049 H 
ATOM     40  H   UNL     1     -49.248  29.384  26.069  1.00  0.00     0.049 H 
BRANCH  38  41
ATOM     41  N   UNL     1     -47.858  29.079  24.509  1.00  0.00    -0.311 NA
ATOM     42  H   UNL     1     -47.648  28.274  25.098  1.00  0.00     0.123 HD
BRANCH  41  43
ATOM     43  C   UNL     1     -48.252  28.640  23.175  1.00  0.00    -0.001 C 
ATOM     44  H   UNL     1     -48.168  27.551  23.092  1.00  0.00     0.043 H 
ATOM     45  H   UNL     1     -49.299  28.911  22.985  1.00  0.00     0.043 H 
BRANCH  43  46
ATOM     46  C   UNL     1     -47.352  29.299  22.138  1.00  0.00    -0.017 C 
ATOM     47  C   UNL     1     -47.659  30.782  21.821  1.00  0.00     0.015 C 
ATOM     48  C   UNL     1     -45.953  29.774  22.611  1.00  0.00     0.015 C 
ATOM     49  H   UNL     1     -47.292  28.698  21.217  1.00  0.00     0.032 H 
ATOM     50  C   UNL     1     -46.133  31.006  21.697  1.00  0.00     0.248 C 
ATOM     51  H   UNL     1     -48.234  30.955  20.908  1.00  0.00     0.033 H 
ATOM     52  H   UNL     1     -48.117  31.347  22.641  1.00  0.00     0.033 H 
ATOM     53  H   UNL     1     -45.887  30.026  23.676  1.00  0.00     0.033 H 
ATOM     54  H   UNL     1     -45.123  29.113  22.350  1.00  0.00     0.033 H 
ATOM     55  F   UNL     1     -45.672  32.177  22.189  1.00  0.00    -0.207 F 
ATOM     56  F   UNL     1     -45.633  30.880  20.447  1.00  0.00    -0.207 F 
ENDBRANCH  43  46
ENDBRANCH  41  43
ENDBRANCH  38  41
ENDBRANCH   6  38
TORSDOF 7
ENDMDL
MODEL 3
REMARK VINA RESULT:     -10.2      4.984     12.064
REMARK SMILES O=C(NCc1ccc2cc(CNCC3CC(F)(F)C3)[nH]c2c1)c1cc(=O)n2ccccc2n1
REMARK SMILES IDX 5 1 6 2 7 3 8 4 9 5 10 6 20 7 21 8 22 9 4 15 3 18 1 19 2 20
REMARK SMILES IDX 23 22 24 23 33 24 25 25 32 27 26 28 27 29 31 30 28 31 30 32
REMARK SMILES IDX 29 34 11 38 12 41 13 43 14 46 15 47 19 48 16 50 17 55 18 56
REMARK H PARENT 6 10 7 11 9 12 20 13 22 14 4 16 4 17 3 21 24 26 31 33 28 35
REMARK H PARENT 30 36 29 37 11 39 11 40 12 42 13 44 13 45 14 49 15 51 15 52
REMARK H PARENT 19 53 19 54
REMARK Flexibility Score: inf
ROOT
ATOM      1  C   UNL     1     -46.430  33.405  25.635  1.00  0.00    -0.027 A 
ATOM      2  C   UNL     1     -46.208  32.781  26.869  1.00  0.00    -0.057 A 
ATOM      3  C   UNL     1     -46.165  33.520  28.057  1.00  0.00    -0.052 A 
ATOM      4  C   UNL     1     -46.342  34.915  28.008  1.00  0.00    -0.000 A 
ATOM      5  C   UNL     1     -46.356  35.945  28.986  1.00  0.00    -0.032 A 
ATOM      6  C   UNL     1     -46.572  37.149  28.342  1.00  0.00     0.030 A 
ATOM      7  N   UNL     1     -46.687  36.872  27.001  1.00  0.00    -0.357 N 
ATOM      8  C   UNL     1     -46.553  35.521  26.772  1.00  0.00     0.046 A 
ATOM      9  C   UNL     1     -46.598  34.799  25.573  1.00  0.00    -0.033 A 
ATOM     10  H   UNL     1     -46.063  31.702  26.917  1.00  0.00     0.063 H 
ATOM     11  H   UNL     1     -45.995  33.021  29.007  1.00  0.00     0.063 H 
ATOM     12  H   UNL     1     -46.217  35.825  30.053  1.00  0.00     0.065 H 
ATOM     13  H   UNL     1     -46.850  37.556  26.275  1.00  0.00     0.166 HD
ATOM     14  H   UNL     1     -46.753  35.300  24.621  1.00  0.00     0.065 H 
ENDROOT
BRANCH   1  15
ATOM     15  C   UNL     1     -46.439  32.595  24.364  1.00  0.00     0.043 C 
ATOM     16  H   UNL     1     -47.014  33.103  23.581  1.00  0.00     0.054 H 
ATOM     17  H   UNL     1     -45.422  32.467  23.976  1.00  0.00     0.054 H 
BRANCH  15  18
ATOM     18  N   UNL     1     -47.028  31.301  24.589  1.00  0.00    -0.347 N 
ATOM     19  O   UNL     1     -48.385  31.333  22.737  1.00  0.00    -0.268 OA
ATOM     20  C   UNL     1     -48.003  30.794  23.769  1.00  0.00     0.270 C 
ATOM     21  H   UNL     1     -46.859  30.810  25.461  1.00  0.00     0.164 HD
BRANCH  20  22
ATOM     22  C   UNL     1     -48.569  29.492  24.284  1.00  0.00     0.136 A 
ATOM     23  C   UNL     1     -49.890  29.332  24.172  1.00  0.00     0.035 A 
ATOM     24  N   UNL     1     -47.709  28.567  24.831  1.00  0.00    -0.225 NA
ATOM     25  C   UNL     1     -50.482  28.081  24.661  1.00  0.00     0.258 A 
ATOM     26  H   UNL     1     -50.555  30.068  23.741  1.00  0.00     0.071 H 
ATOM     27  C   UNL     1     -48.237  27.463  25.263  1.00  0.00     0.140 A 
ATOM     28  O   UNL     1     -51.697  27.923  24.560  1.00  0.00    -0.269 OA
ATOM     29  N   UNL     1     -49.594  27.165  25.207  1.00  0.00    -0.268 N 
ATOM     30  C   UNL     1     -47.343  26.432  25.863  1.00  0.00    -0.019 A 
ATOM     31  C   UNL     1     -50.082  25.956  25.693  1.00  0.00     0.014 A 
ATOM     32  C   UNL     1     -47.859  25.284  26.318  1.00  0.00    -0.057 A 
ATOM     33  H   UNL     1     -46.285  26.654  25.911  1.00  0.00     0.066 H 
ATOM     34  C   UNL     1     -49.273  25.035  26.231  1.00  0.00    -0.045 A 
ATOM     35  H   UNL     1     -51.153  25.790  25.618  1.00  0.00     0.082 H 
ATOM     36  H   UNL     1     -47.225  24.520  26.758  1.00  0.00     0.062 H 
ATOM     37  H   UNL     1     -49.665  24.095  26.608  1.00  0.00     0.064 H 
ENDBRANCH  20  22
ENDBRANCH  15  18
ENDBRANCH   1  15
BRANCH   6  38
ATOM     38  C   UNL     1     -46.683  38.532  28.881  1.00  0.00     0.036 C 
ATOM     39  H   UNL     1     -47.146  38.492  29.874  1.00  0.00     0.049 H 
ATOM     40  H   UNL     1     -47.331  39.137  28.234  1.00  0.00     0.049 H 
BRANCH  38  41
ATOM     41  N   UNL     1     -45.351  39.118  28.966  1.00  0.00    -0.311 NA
ATOM     42  H   UNL     1     -44.666  38.369  29.049  1.00  0.00     0.123 HD
BRANCH  41  43
ATOM     43  C   UNL     1     -45.057  39.946  27.800  1.00  0.00    -0.001 C 
ATOM     44  H   UNL     1     -45.261  39.391  26.878  1.00  0.00     0.043 H 
ATOM     45  H   UNL     1     -45.695  40.838  27.803  1.00  0.00     0.043 H 
BRANCH  43  46
ATOM     46  C   UNL     1     -43.591  40.358  27.830  1.00  0.00    -0.017 C 
ATOM     47  C   UNL     1     -43.308  41.865  27.615  1.00  0.00     0.015 C 
ATOM     48  C   UNL     1     -42.925  40.515  29.221  1.00  0.00     0.015 C 
ATOM     49  H   UNL     1     -42.985  39.738  27.151  1.00  0.00     0.032 H 
ATOM     50  C   UNL     1     -42.166  41.734  28.650  1.00  0.00     0.248 C 
ATOM     51  H   UNL     1     -42.996  42.141  26.605  1.00  0.00     0.033 H 
ATOM     52  H   UNL     1     -44.111  42.539  27.935  1.00  0.00     0.033 H 
ATOM     53  H   UNL     1     -43.611  40.771  30.036  1.00  0.00     0.033 H 
ATOM     54  H   UNL     1     -42.297  39.677  29.535  1.00  0.00     0.033 H 
ATOM     55  F   UNL     1     -42.016  42.781  29.490  1.00  0.00    -0.207 F 
ATOM     56  F   UNL     1     -40.946  41.468  28.130  1.00  0.00    -0.207 F 
ENDBRANCH  43  46
ENDBRANCH  41  43
ENDBRANCH  38  41
ENDBRANCH   6  38
TORSDOF 7
ENDMDL
MODEL 4
REMARK VINA RESULT:     -10.2      1.524      2.270
REMARK SMILES O=C(NCc1ccc2cc(CNCC3CC(F)(F)C3)[nH]c2c1)c1cc(=O)n2ccccc2n1
REMARK SMILES IDX 5 1 6 2 7 3 8 4 9 5 10 6 20 7 21 8 22 9 4 15 3 18 1 19 2 20
REMARK SMILES IDX 23 22 24 23 33 24 25 25 32 27 26 28 27 29 31 30 28 31 30 32
REMARK SMILES IDX 29 34 11 38 12 41 13 43 14 46 15 47 19 48 16 50 17 55 18 56
REMARK H PARENT 6 10 7 11 9 12 20 13 22 14 4 16 4 17 3 21 24 26 31 33 28 35
REMARK H PARENT 30 36 29 37 11 39 11 40 12 42 13 44 13 45 14 49 15 51 15 52
REMARK H PARENT 19 53 19 54
REMARK Flexibility Score: inf
ROOT
ATOM      1  C   UNL     1     -46.273  35.562  28.164  1.00  0.00    -0.027 A 
ATOM      2  C   UNL     1     -47.488  36.067  27.681  1.00  0.00    -0.057 A 
ATOM      3  C   UNL     1     -48.288  35.319  26.808  1.00  0.00    -0.052 A 
ATOM      4  C   UNL     1     -47.858  34.041  26.405  1.00  0.00    -0.000 A 
ATOM      5  C   UNL     1     -48.399  33.039  25.555  1.00  0.00    -0.032 A 
ATOM      6  C   UNL     1     -47.518  31.973  25.529  1.00  0.00     0.030 A 
ATOM      7  N   UNL     1     -46.461  32.307  26.341  1.00  0.00    -0.357 N 
ATOM      8  C   UNL     1     -46.644  33.558  26.887  1.00  0.00     0.046 A 
ATOM      9  C   UNL     1     -45.830  34.291  27.759  1.00  0.00    -0.033 A 
ATOM     10  H   UNL     1     -47.826  37.058  27.982  1.00  0.00     0.063 H 
ATOM     11  H   UNL     1     -49.228  35.722  26.445  1.00  0.00     0.063 H 
ATOM     12  H   UNL     1     -49.332  33.089  25.009  1.00  0.00     0.065 H 
ATOM     13  H   UNL     1     -45.656  31.723  26.522  1.00  0.00     0.166 HD
ATOM     14  H   UNL     1     -44.882  33.893  28.110  1.00  0.00     0.065 H 
ENDROOT
BRANCH   1  15
ATOM     15  C   UNL     1     -45.413  36.398  29.076  1.00  0.00     0.043 C 
ATOM     16  H   UNL     1     -45.934  36.614  30.016  1.00  0.00     0.054 H 
ATOM     17  H   UNL     1     -44.493  35.863  29.341  1.00  0.00     0.054 H 
BRANCH  15  18
ATOM     18  N   UNL     1     -45.073  37.648  28.450  1.00  0.00    -0.347 N 
ATOM     19  O   UNL     1     -46.785  38.856  29.389  1.00  0.00    -0.268 OA
ATOM     20  C   UNL     1     -45.830  38.778  28.625  1.00  0.00     0.270 C 
ATOM     21  H   UNL     1     -44.362  37.678  27.726  1.00  0.00     0.164 HD
BRANCH  20  22
ATOM     22  C   UNL     1     -45.364  39.923  27.760  1.00  0.00     0.136 A 
ATOM     23  C   UNL     1     -46.302  40.550  27.045  1.00  0.00     0.035 A 
ATOM     24  N   UNL     1     -44.026  40.247  27.754  1.00  0.00    -0.225 NA
ATOM     25  C   UNL     1     -45.892  41.669  26.189  1.00  0.00     0.258 A 
ATOM     26  H   UNL     1     -47.351  40.285  27.057  1.00  0.00     0.071 H 
ATOM     27  C   UNL     1     -43.668  41.237  26.995  1.00  0.00     0.140 A 
ATOM     28  O   UNL     1     -46.749  42.254  25.529  1.00  0.00    -0.269 OA
ATOM     29  N   UNL     1     -44.539  41.976  26.202  1.00  0.00    -0.268 N 
ATOM     30  C   UNL     1     -42.229  41.623  26.958  1.00  0.00    -0.019 A 
ATOM     31  C   UNL     1     -44.074  43.024  25.415  1.00  0.00     0.014 A 
ATOM     32  C   UNL     1     -41.829  42.639  26.184  1.00  0.00    -0.057 A 
ATOM     33  H   UNL     1     -41.543  41.054  27.573  1.00  0.00     0.066 H 
ATOM     34  C   UNL     1     -42.780  43.365  25.386  1.00  0.00    -0.045 A 
ATOM     35  H   UNL     1     -44.810  43.559  24.819  1.00  0.00     0.082 H 
ATOM     36  H   UNL     1     -40.785  42.936  26.144  1.00  0.00     0.062 H 
ATOM     37  H   UNL     1     -42.429  44.185  24.767  1.00  0.00     0.064 H 
ENDBRANCH  20  22
ENDBRANCH  15  18
ENDBRANCH   1  15
BRANCH   6  38
ATOM     38  C   UNL     1     -47.590  30.671  24.812  1.00  0.00     0.036 C 
ATOM     39  H   UNL     1     -46.572  30.328  24.593  1.00  0.00     0.049 H 
ATOM     40  H   UNL     1     -48.113  30.797  23.856  1.00  0.00     0.049 H 
BRANCH  38  41
ATOM     41  N   UNL     1     -48.282  29.703  25.653  1.00  0.00    -0.311 NA
ATOM     42  H   UNL     1     -48.971  30.193  26.221  1.00  0.00     0.123 HD
BRANCH  41  43
ATOM     43  C   UNL     1     -48.929  28.667  24.853  1.00  0.00    -0.001 C 
ATOM     44  H   UNL     1     -50.016  28.809  24.855  1.00  0.00     0.043 H 
ATOM     45  H   UNL     1     -48.585  28.728  23.813  1.00  0.00     0.043 H 
BRANCH  43  46
ATOM     46  C   UNL     1     -48.594  27.298  25.430  1.00  0.00    -0.017 C 
ATOM     47  C   UNL     1     -47.179  26.759  25.112  1.00  0.00     0.015 C 
ATOM     48  C   UNL     1     -48.192  27.238  26.927  1.00  0.00     0.015 C 
ATOM     49  H   UNL     1     -49.369  26.556  25.182  1.00  0.00     0.032 H 
ATOM     50  C   UNL     1     -47.154  26.161  26.539  1.00  0.00     0.248 C 
ATOM     51  H   UNL     1     -47.129  26.031  24.298  1.00  0.00     0.033 H 
ATOM     52  H   UNL     1     -46.414  27.527  24.949  1.00  0.00     0.033 H 
ATOM     53  H   UNL     1     -47.741  28.156  27.322  1.00  0.00     0.033 H 
ATOM     54  H   UNL     1     -48.979  26.906  27.608  1.00  0.00     0.033 H 
ATOM     55  F   UNL     1     -45.967  26.228  27.180  1.00  0.00    -0.207 F 
ATOM     56  F   UNL     1     -47.581  24.881  26.633  1.00  0.00    -0.207 F 
ENDBRANCH  43  46
ENDBRANCH  41  43
ENDBRANCH  38  41
ENDBRANCH   6  38
TORSDOF 7
ENDMDL
MODEL 5
REMARK VINA RESULT:     -10.1      1.966      2.633
REMARK SMILES O=C(NCc1ccc2cc(CNCC3CC(F)(F)C3)[nH]c2c1)c1cc(=O)n2ccccc2n1
REMARK SMILES IDX 5 1 6 2 7 3 8 4 9 5 10 6 20 7 21 8 22 9 4 15 3 18 1 19 2 20
REMARK SMILES IDX 23 22 24 23 33 24 25 25 32 27 26 28 27 29 31 30 28 31 30 32
REMARK SMILES IDX 29 34 11 38 12 41 13 43 14 46 15 47 19 48 16 50 17 55 18 56
REMARK H PARENT 6 10 7 11 9 12 20 13 22 14 4 16 4 17 3 21 24 26 31 33 28 35
REMARK H PARENT 30 36 29 37 11 39 11 40 12 42 13 44 13 45 14 49 15 51 15 52
REMARK H PARENT 19 53 19 54
REMARK Flexibility Score: inf
ROOT
ATOM      1  C   UNL     1     -46.519  34.377  26.973  1.00  0.00    -0.027 A 
ATOM      2  C   UNL     1     -47.910  34.538  26.936  1.00  0.00    -0.057 A 
ATOM      3  C   UNL     1     -48.719  33.686  26.173  1.00  0.00    -0.052 A 
ATOM      4  C   UNL     1     -48.120  32.655  25.426  1.00  0.00    -0.000 A 
ATOM      5  C   UNL     1     -48.619  31.639  24.567  1.00  0.00    -0.032 A 
ATOM      6  C   UNL     1     -47.545  30.902  24.100  1.00  0.00     0.030 A 
ATOM      7  N   UNL     1     -46.413  31.448  24.656  1.00  0.00    -0.357 N 
ATOM      8  C   UNL     1     -46.735  32.513  25.467  1.00  0.00     0.046 A 
ATOM      9  C   UNL     1     -45.911  33.355  26.222  1.00  0.00    -0.033 A 
ATOM     10  H   UNL     1     -48.383  35.338  27.504  1.00  0.00     0.063 H 
ATOM     11  H   UNL     1     -49.796  33.823  26.157  1.00  0.00     0.063 H 
ATOM     12  H   UNL     1     -49.655  31.464  24.306  1.00  0.00     0.065 H 
ATOM     13  H   UNL     1     -45.470  31.120  24.500  1.00  0.00     0.166 HD
ATOM     14  H   UNL     1     -44.831  33.228  26.226  1.00  0.00     0.065 H 
ENDROOT
BRANCH   1  15
ATOM     15  C   UNL     1     -45.665  35.325  27.773  1.00  0.00     0.043 C 
ATOM     16  H   UNL     1     -45.870  35.225  28.846  1.00  0.00     0.054 H 
ATOM     17  H   UNL     1     -44.601  35.104  27.634  1.00  0.00     0.054 H 
BRANCH  15  18
ATOM     18  N   UNL     1     -45.922  36.688  27.390  1.00  0.00    -0.347 N 
ATOM     19  O   UNL     1     -44.855  37.644  29.184  1.00  0.00    -0.268 OA
ATOM     20  C   UNL     1     -45.530  37.748  28.167  1.00  0.00     0.270 C 
ATOM     21  H   UNL     1     -46.553  36.890  26.621  1.00  0.00     0.164 HD
BRANCH  20  22
ATOM     22  C   UNL     1     -46.035  39.068  27.637  1.00  0.00     0.136 A 
ATOM     23  C   UNL     1     -47.330  39.331  27.827  1.00  0.00     0.035 A 
ATOM     24  N   UNL     1     -45.149  39.907  26.999  1.00  0.00    -0.225 NA
ATOM     25  C   UNL     1     -47.863  40.604  27.327  1.00  0.00     0.258 A 
ATOM     26  H   UNL     1     -48.016  38.662  28.330  1.00  0.00     0.071 H 
ATOM     27  C   UNL     1     -45.624  41.031  26.556  1.00  0.00     0.140 A 
ATOM     28  O   UNL     1     -49.053  40.855  27.500  1.00  0.00    -0.269 OA
ATOM     29  N   UNL     1     -46.950  41.430  26.688  1.00  0.00    -0.268 N 
ATOM     30  C   UNL     1     -44.701  41.970  25.859  1.00  0.00    -0.019 A 
ATOM     31  C   UNL     1     -47.380  42.654  26.185  1.00  0.00     0.014 A 
ATOM     32  C   UNL     1     -45.163  43.137  25.392  1.00  0.00    -0.057 A 
ATOM     33  H   UNL     1     -43.667  41.668  25.752  1.00  0.00     0.066 H 
ATOM     34  C   UNL     1     -46.546  43.493  25.559  1.00  0.00    -0.045 A 
ATOM     35  H   UNL     1     -48.430  42.903  26.322  1.00  0.00     0.082 H 
ATOM     36  H   UNL     1     -44.506  43.834  24.881  1.00  0.00     0.062 H 
ATOM     37  H   UNL     1     -46.893  44.445  25.170  1.00  0.00     0.064 H 
ENDBRANCH  20  22
ENDBRANCH  15  18
ENDBRANCH   1  15
BRANCH   6  38
ATOM     38  C   UNL     1     -47.497  29.731  23.184  1.00  0.00     0.036 C 
ATOM     39  H   UNL     1     -46.728  29.906  22.422  1.00  0.00     0.049 H 
ATOM     40  H   UNL     1     -48.458  29.616  22.669  1.00  0.00     0.049 H 
BRANCH  38  41
ATOM     41  N   UNL     1     -47.181  28.536  23.957  1.00  0.00    -0.311 NA
ATOM     42  H   UNL     1     -46.668  28.810  24.794  1.00  0.00     0.123 HD
BRANCH  41  43
ATOM     43  C   UNL     1     -48.388  27.801  24.320  1.00  0.00    -0.001 C 
ATOM     44  H   UNL     1     -49.082  28.453  24.862  1.00  0.00     0.043 H 
ATOM     45  H   UNL     1     -48.897  27.446  23.416  1.00  0.00     0.043 H 
BRANCH  43  46
ATOM     46  C   UNL     1     -48.013  26.616  25.202  1.00  0.00    -0.017 C 
ATOM     47  C   UNL     1     -46.504  26.285  25.282  1.00  0.00     0.015 C 
ATOM     48  C   UNL     1     -47.958  26.860  26.732  1.00  0.00     0.015 C 
ATOM     49  H   UNL     1     -48.605  25.723  24.948  1.00  0.00     0.032 H 
ATOM     50  C   UNL     1     -46.724  25.930  26.771  1.00  0.00     0.248 C 
ATOM     51  H   UNL     1     -46.173  25.459  24.647  1.00  0.00     0.033 H 
ATOM     52  H   UNL     1     -45.832  27.138  25.132  1.00  0.00     0.033 H 
ATOM     53  H   UNL     1     -47.736  27.891  27.029  1.00  0.00     0.033 H 
ATOM     54  H   UNL     1     -48.828  26.508  27.292  1.00  0.00     0.033 H 
ATOM     55  F   UNL     1     -45.734  26.299  27.613  1.00  0.00    -0.207 F 
ATOM     56  F   UNL     1     -46.987  24.626  27.019  1.00  0.00    -0.207 F 
ENDBRANCH  43  46
ENDBRANCH  41  43
ENDBRANCH  38  41
ENDBRANCH   6  38
TORSDOF 7
ENDMDL
MODEL 6
REMARK VINA RESULT:     -10.0      3.041      4.950
REMARK SMILES O=C(NCc1ccc2cc(CNCC3CC(F)(F)C3)[nH]c2c1)c1cc(=O)n2ccccc2n1
REMARK SMILES IDX 5 1 6 2 7 3 8 4 9 5 10 6 20 7 21 8 22 9 4 15 3 18 1 19 2 20
REMARK SMILES IDX 23 22 24 23 33 24 25 25 32 27 26 28 27 29 31 30 28 31 30 32
REMARK SMILES IDX 29 34 11 38 12 41 13 43 14 46 15 47 19 48 16 50 17 55 18 56
REMARK H PARENT 6 10 7 11 9 12 20 13 22 14 4 16 4 17 3 21 24 26 31 33 28 35
REMARK H PARENT 30 36 29 37 11 39 11 40 12 42 13 44 13 45 14 49 15 51 15 52
REMARK H PARENT 19 53 19 54
REMARK Flexibility Score: inf
ROOT
ATOM      1  C   UNL     1     -45.757  37.723  28.358  1.00  0.00    -0.027 A 
ATOM      2  C   UNL     1     -47.062  38.029  27.953  1.00  0.00    -0.057 A 
ATOM      3  C   UNL     1     -47.870  37.072  27.325  1.00  0.00    -0.052 A 
ATOM      4  C   UNL     1     -47.355  35.784  27.090  1.00  0.00    -0.000 A 
ATOM      5  C   UNL     1     -47.877  34.604  26.494  1.00  0.00    -0.032 A 
ATOM      6  C   UNL     1     -46.897  33.629  26.536  1.00  0.00     0.030 A 
ATOM      7  N   UNL     1     -45.799  34.191  27.143  1.00  0.00    -0.357 N 
ATOM      8  C   UNL     1     -46.052  35.499  27.490  1.00  0.00     0.046 A 
ATOM      9  C   UNL     1     -45.230  36.441  28.118  1.00  0.00    -0.033 A 
ATOM     10  H   UNL     1     -47.468  39.025  28.124  1.00  0.00     0.063 H 
ATOM     11  H   UNL     1     -48.881  37.324  27.020  1.00  0.00     0.063 H 
ATOM     12  H   UNL     1     -48.865  34.477  26.069  1.00  0.00     0.065 H 
ATOM     13  H   UNL     1     -44.922  33.717  27.316  1.00  0.00     0.166 HD
ATOM     14  H   UNL     1     -44.212  36.194  28.409  1.00  0.00     0.065 H 
ENDROOT
BRANCH   1  15
ATOM     15  C   UNL     1     -44.894  38.777  29.001  1.00  0.00     0.043 C 
ATOM     16  H   UNL     1     -45.393  39.209  29.877  1.00  0.00     0.054 H 
ATOM     17  H   UNL     1     -43.951  38.345  29.357  1.00  0.00     0.054 H 
BRANCH  15  18
ATOM     18  N   UNL     1     -44.611  39.839  28.074  1.00  0.00    -0.347 N 
ATOM     19  O   UNL     1     -42.706  40.572  29.126  1.00  0.00    -0.268 OA
ATOM     20  C   UNL     1     -43.550  40.691  28.246  1.00  0.00     0.270 C 
ATOM     21  H   UNL     1     -45.293  40.091  27.365  1.00  0.00     0.164 HD
BRANCH  20  22
ATOM     22  C   UNL     1     -43.540  41.810  27.232  1.00  0.00     0.136 A 
ATOM     23  C   UNL     1     -42.355  42.120  26.700  1.00  0.00     0.035 A 
ATOM     24  N   UNL     1     -44.727  42.436  26.925  1.00  0.00    -0.225 NA
ATOM     25  C   UNL     1     -42.299  43.203  25.711  1.00  0.00     0.258 A 
ATOM     26  H   UNL     1     -41.428  41.621  26.951  1.00  0.00     0.071 H 
ATOM     27  C   UNL     1     -44.673  43.393  26.050  1.00  0.00     0.140 A 
ATOM     28  O   UNL     1     -41.213  43.493  25.213  1.00  0.00    -0.269 OA
ATOM     29  N   UNL     1     -43.508  43.816  25.418  1.00  0.00    -0.268 N 
ATOM     30  C   UNL     1     -45.934  44.099  25.686  1.00  0.00    -0.019 A 
ATOM     31  C   UNL     1     -43.535  44.852  24.490  1.00  0.00     0.014 A 
ATOM     32  C   UNL     1     -45.909  45.090  24.787  1.00  0.00    -0.057 A 
ATOM     33  H   UNL     1     -46.846  43.776  26.172  1.00  0.00     0.066 H 
ATOM     34  C   UNL     1     -44.671  45.481  24.167  1.00  0.00    -0.045 A 
ATOM     35  H   UNL     1     -42.588  45.132  24.034  1.00  0.00     0.082 H 
ATOM     36  H   UNL     1     -46.817  45.616  24.508  1.00  0.00     0.062 H 
ATOM     37  H   UNL     1     -44.680  46.290  23.442  1.00  0.00     0.064 H 
ENDBRANCH  20  22
ENDBRANCH  15  18
ENDBRANCH   1  15
BRANCH   6  38
ATOM     38  C   UNL     1     -46.910  32.219  26.062  1.00  0.00     0.036 C 
ATOM     39  H   UNL     1     -47.869  32.016  25.570  1.00  0.00     0.049 H 
ATOM     40  H   UNL     1     -46.821  31.534  26.915  1.00  0.00     0.049 H 
BRANCH  38  41
ATOM     41  N   UNL     1     -45.809  32.021  25.127  1.00  0.00    -0.311 NA
ATOM     42  H   UNL     1     -45.267  31.210  25.422  1.00  0.00     0.123 HD
BRANCH  41  43
ATOM     43  C   UNL     1     -46.294  31.838  23.763  1.00  0.00    -0.001 C 
ATOM     44  H   UNL     1     -46.933  32.678  23.470  1.00  0.00     0.043 H 
ATOM     45  H   UNL     1     -45.447  31.802  23.066  1.00  0.00     0.043 H 
BRANCH  43  46
ATOM     46  C   UNL     1     -47.089  30.542  23.678  1.00  0.00    -0.017 C 
ATOM     47  C   UNL     1     -48.439  30.625  22.927  1.00  0.00     0.015 C 
ATOM     48  C   UNL     1     -46.651  29.508  22.609  1.00  0.00     0.015 C 
ATOM     49  H   UNL     1     -47.213  30.080  24.670  1.00  0.00     0.032 H 
ATOM     50  C   UNL     1     -48.149  29.210  22.375  1.00  0.00     0.248 C 
ATOM     51  H   UNL     1     -49.323  30.708  23.564  1.00  0.00     0.033 H 
ATOM     52  H   UNL     1     -48.491  31.395  22.147  1.00  0.00     0.033 H 
ATOM     53  H   UNL     1     -46.149  29.934  21.732  1.00  0.00     0.033 H 
ATOM     54  H   UNL     1     -46.059  28.670  22.985  1.00  0.00     0.033 H 
ATOM     55  F   UNL     1     -48.514  28.996  21.092  1.00  0.00    -0.207 F 
ATOM     56  F   UNL     1     -48.659  28.192  23.105  1.00  0.00    -0.207 F 
ENDBRANCH  43  46
ENDBRANCH  41  43
ENDBRANCH  38  41
ENDBRANCH   6  38
TORSDOF 7
ENDMDL
MODEL 7
REMARK VINA RESULT:      -9.6      1.875      2.473
REMARK SMILES O=C(NCc1ccc2cc(CNCC3CC(F)(F)C3)[nH]c2c1)c1cc(=O)n2ccccc2n1
REMARK SMILES IDX 5 1 6 2 7 3 8 4 9 5 10 6 20 7 21 8 22 9 4 15 3 18 1 19 2 20
REMARK SMILES IDX 23 22 24 23 33 24 25 25 32 27 26 28 27 29 31 30 28 31 30 32
REMARK SMILES IDX 29 34 11 38 12 41 13 43 14 46 15 47 19 48 16 50 17 55 18 56
REMARK H PARENT 6 10 7 11 9 12 20 13 22 14 4 16 4 17 3 21 24 26 31 33 28 35
REMARK H PARENT 30 36 29 37 11 39 11 40 12 42 13 44 13 45 14 49 15 51 15 52
REMARK H PARENT 19 53 19 54
REMARK Flexibility Score: inf
ROOT
ATOM      1  C   UNL     1     -47.797  35.444  26.974  1.00  0.00    -0.027 A 
ATOM      2  C   UNL     1     -46.487  35.309  26.497  1.00  0.00    -0.057 A 
ATOM      3  C   UNL     1     -46.100  34.191  25.746  1.00  0.00    -0.052 A 
ATOM      4  C   UNL     1     -47.045  33.185  25.473  1.00  0.00    -0.000 A 
ATOM      5  C   UNL     1     -47.000  31.953  24.766  1.00  0.00    -0.032 A 
ATOM      6  C   UNL     1     -48.253  31.371  24.833  1.00  0.00     0.030 A 
ATOM      7  N   UNL     1     -49.051  32.220  25.563  1.00  0.00    -0.357 N 
ATOM      8  C   UNL     1     -48.341  33.330  25.961  1.00  0.00     0.046 A 
ATOM      9  C   UNL     1     -48.745  34.439  26.715  1.00  0.00    -0.033 A 
ATOM     10  H   UNL     1     -45.746  36.078  26.709  1.00  0.00     0.063 H 
ATOM     11  H   UNL     1     -45.081  34.103  25.381  1.00  0.00     0.063 H 
ATOM     12  H   UNL     1     -46.141  31.527  24.263  1.00  0.00     0.065 H 
ATOM     13  H   UNL     1     -50.025  32.062  25.781  1.00  0.00     0.166 HD
ATOM     14  H   UNL     1     -49.761  34.520  27.093  1.00  0.00     0.065 H 
ENDROOT
BRANCH   1  15
ATOM     15  C   UNL     1     -48.183  36.637  27.808  1.00  0.00     0.043 C 
ATOM     16  H   UNL     1     -49.028  37.172  27.358  1.00  0.00     0.054 H 
ATOM     17  H   UNL     1     -48.503  36.326  28.809  1.00  0.00     0.054 H 
BRANCH  15  18
ATOM     18  N   UNL     1     -47.080  37.554  27.925  1.00  0.00    -0.347 N 
ATOM     19  O   UNL     1     -48.279  39.437  27.386  1.00  0.00    -0.268 OA
ATOM     20  C   UNL     1     -47.215  38.891  27.651  1.00  0.00     0.270 C 
ATOM     21  H   UNL     1     -46.136  37.202  28.044  1.00  0.00     0.164 HD
BRANCH  20  22
ATOM     22  C   UNL     1     -45.896  39.625  27.702  1.00  0.00     0.136 A 
ATOM     23  C   UNL     1     -45.098  39.345  28.734  1.00  0.00     0.035 A 
ATOM     24  N   UNL     1     -45.601  40.525  26.702  1.00  0.00    -0.225 NA
ATOM     25  C   UNL     1     -43.807  40.037  28.823  1.00  0.00     0.258 A 
ATOM     26  H   UNL     1     -45.342  38.636  29.515  1.00  0.00     0.071 H 
ATOM     27  C   UNL     1     -44.459  41.136  26.785  1.00  0.00     0.140 A 
ATOM     28  O   UNL     1     -43.063  39.784  29.769  1.00  0.00    -0.269 OA
ATOM     29  N   UNL     1     -43.533  40.938  27.804  1.00  0.00    -0.268 N 
ATOM     30  C   UNL     1     -44.097  42.118  25.724  1.00  0.00    -0.019 A 
ATOM     31  C   UNL     1     -42.328  41.633  27.819  1.00  0.00     0.014 A 
ATOM     32  C   UNL     1     -42.926  42.763  25.783  1.00  0.00    -0.057 A 
ATOM     33  H   UNL     1     -44.811  42.279  24.926  1.00  0.00     0.066 H 
ATOM     34  C   UNL     1     -42.010  42.515  26.863  1.00  0.00    -0.045 A 
ATOM     35  H   UNL     1     -41.651  41.430  28.645  1.00  0.00     0.082 H 
ATOM     36  H   UNL     1     -42.644  43.483  25.020  1.00  0.00     0.062 H 
ATOM     37  H   UNL     1     -41.067  43.052  26.886  1.00  0.00     0.064 H 
ENDBRANCH  20  22
ENDBRANCH  15  18
ENDBRANCH   1  15
BRANCH   6  38
ATOM     38  C   UNL     1     -48.761  30.092  24.268  1.00  0.00     0.036 C 
ATOM     39  H   UNL     1     -48.625  30.104  23.180  1.00  0.00     0.049 H 
ATOM     40  H   UNL     1     -49.835  29.992  24.469  1.00  0.00     0.049 H 
BRANCH  38  41
ATOM     41  N   UNL     1     -48.022  28.984  24.858  1.00  0.00    -0.311 NA
ATOM     42  H   UNL     1     -48.387  28.804  25.793  1.00  0.00     0.123 HD
BRANCH  41  43
ATOM     43  C   UNL     1     -48.117  27.780  24.038  1.00  0.00    -0.001 C 
ATOM     44  H   UNL     1     -48.703  27.982  23.134  1.00  0.00     0.043 H 
ATOM     45  H   UNL     1     -47.116  27.460  23.724  1.00  0.00     0.043 H 
BRANCH  43  46
ATOM     46  C   UNL     1     -48.787  26.672  24.840  1.00  0.00    -0.017 C 
ATOM     47  C   UNL     1     -49.222  27.047  26.277  1.00  0.00     0.015 C 
ATOM     48  C   UNL     1     -50.284  26.390  24.548  1.00  0.00     0.015 C 
ATOM     49  H   UNL     1     -48.186  25.750  24.833  1.00  0.00     0.032 H 
ATOM     50  C   UNL     1     -50.470  26.158  26.064  1.00  0.00     0.248 C 
ATOM     51  H   UNL     1     -48.543  26.721  27.069  1.00  0.00     0.033 H 
ATOM     52  H   UNL     1     -49.462  28.106  26.429  1.00  0.00     0.033 H 
ATOM     53  H   UNL     1     -50.850  27.247  24.165  1.00  0.00     0.033 H 
ATOM     54  H   UNL     1     -50.480  25.522  23.913  1.00  0.00     0.033 H 
ATOM     55  F   UNL     1     -51.620  26.628  26.596  1.00  0.00    -0.207 F 
ATOM     56  F   UNL     1     -50.340  24.877  26.476  1.00  0.00    -0.207 F 
ENDBRANCH  43  46
ENDBRANCH  41  43
ENDBRANCH  38  41
ENDBRANCH   6  38
TORSDOF 7
ENDMDL
