MODEL 1
REMARK VINA RESULT:     -11.4      0.000      0.000
REMARK SMILES O=C(NCc1ccc2cc(CNCC3CCCCC3)[nH]c2c1)c1cc(=O)n2ccccc2n1
REMARK SMILES IDX 5 1 6 2 7 3 8 4 9 5 10 6 20 7 21 8 22 9 4 15 3 18 1 19 2 20
REMARK SMILES IDX 23 22 24 23 33 24 25 25 32 27 26 28 27 29 31 30 28 31 30 32
REMARK SMILES IDX 29 34 11 38 12 41 13 43 14 46 15 47 19 48 16 50 18 53 17 56
REMARK H PARENT 6 10 7 11 9 12 20 13 22 14 4 16 4 17 3 21 24 26 31 33 28 35
REMARK H PARENT 30 36 29 37 11 39 11 40 12 42 13 44 13 45 14 49 15 51 15 52
REMARK H PARENT 19 54 19 55 16 57 16 58 18 59 18 60 17 61 17 62
REMARK Flexibility Score: inf
ROOT
ATOM      1  C   UNL     1     -48.030  35.411  26.966  1.00  0.00    -0.027 A 
ATOM      2  C   UNL     1     -46.726  35.407  26.453  1.00  0.00    -0.057 A 
ATOM      3  C   UNL     1     -46.253  34.342  25.678  1.00  0.00    -0.052 A 
ATOM      4  C   UNL     1     -47.107  33.257  25.405  1.00  0.00    -0.000 A 
ATOM      5  C   UNL     1     -46.964  32.046  24.673  1.00  0.00    -0.032 A 
ATOM      6  C   UNL     1     -48.158  31.357  24.749  1.00  0.00     0.030 A 
ATOM      7  N   UNL     1     -49.016  32.118  25.508  1.00  0.00    -0.357 N 
ATOM      8  C   UNL     1     -48.403  33.279  25.918  1.00  0.00     0.046 A 
ATOM      9  C   UNL     1     -48.895  34.337  26.692  1.00  0.00    -0.033 A 
ATOM     10  H   UNL     1     -46.063  36.249  26.652  1.00  0.00     0.063 H 
ATOM     11  H   UNL     1     -45.239  34.358  25.290  1.00  0.00     0.063 H 
ATOM     12  H   UNL     1     -46.077  31.716  24.148  1.00  0.00     0.065 H 
ATOM     13  H   UNL     1     -49.974  31.859  25.701  1.00  0.00     0.166 HD
ATOM     14  H   UNL     1     -49.912  34.324  27.070  1.00  0.00     0.065 H 
ENDROOT
BRANCH   1  15
ATOM     15  C   UNL     1     -48.515  36.586  27.777  1.00  0.00     0.043 C 
ATOM     16  H   UNL     1     -48.752  36.271  28.799  1.00  0.00     0.054 H 
ATOM     17  H   UNL     1     -49.433  36.998  27.344  1.00  0.00     0.054 H 
BRANCH  15  18
ATOM     18  N   UNL     1     -47.534  37.642  27.784  1.00  0.00    -0.347 N 
ATOM     19  O   UNL     1     -46.497  37.050  29.752  1.00  0.00    -0.268 OA
ATOM     20  C   UNL     1     -46.554  37.740  28.741  1.00  0.00     0.270 C 
ATOM     21  H   UNL     1     -47.395  38.196  26.946  1.00  0.00     0.164 HD
BRANCH  20  22
ATOM     22  C   UNL     1     -45.531  38.799  28.407  1.00  0.00     0.136 A 
ATOM     23  C   UNL     1     -45.720  39.470  27.269  1.00  0.00     0.035 A 
ATOM     24  N   UNL     1     -44.485  39.010  29.279  1.00  0.00    -0.225 NA
ATOM     25  C   UNL     1     -44.753  40.514  26.907  1.00  0.00     0.258 A 
ATOM     26  H   UNL     1     -46.547  39.295  26.593  1.00  0.00     0.071 H 
ATOM     27  C   UNL     1     -43.636  39.936  28.958  1.00  0.00     0.140 A 
ATOM     28  O   UNL     1     -44.917  41.134  25.858  1.00  0.00    -0.269 OA
ATOM     29  N   UNL     1     -43.713  40.710  27.803  1.00  0.00    -0.268 N 
ATOM     30  C   UNL     1     -42.491  40.205  29.874  1.00  0.00    -0.019 A 
ATOM     31  C   UNL     1     -42.758  41.683  27.530  1.00  0.00     0.014 A 
ATOM     32  C   UNL     1     -41.598  41.152  29.568  1.00  0.00    -0.057 A 
ATOM     33  H   UNL     1     -42.423  39.608  30.775  1.00  0.00     0.066 H 
ATOM     34  C   UNL     1     -41.732  41.918  28.358  1.00  0.00    -0.045 A 
ATOM     35  H   UNL     1     -42.880  42.251  26.610  1.00  0.00     0.082 H 
ATOM     36  H   UNL     1     -40.758  41.362  30.222  1.00  0.00     0.062 H 
ATOM     37  H   UNL     1     -40.993  42.680  28.135  1.00  0.00     0.064 H 
ENDBRANCH  20  22
ENDBRANCH  15  18
ENDBRANCH   1  15
BRANCH   6  38
ATOM     38  C   UNL     1     -48.574  30.043  24.188  1.00  0.00     0.036 C 
ATOM     39  H   UNL     1     -48.853  30.180  23.137  1.00  0.00     0.049 H 
ATOM     40  H   UNL     1     -49.453  29.673  24.729  1.00  0.00     0.049 H 
BRANCH  38  41
ATOM     41  N   UNL     1     -47.465  29.098  24.307  1.00  0.00    -0.311 NA
ATOM     42  H   UNL     1     -47.312  28.924  25.300  1.00  0.00     0.123 HD
BRANCH  41  43
ATOM     43  C   UNL     1     -47.785  27.836  23.636  1.00  0.00    -0.002 C 
ATOM     44  H   UNL     1     -47.077  27.675  22.813  1.00  0.00     0.043 H 
ATOM     45  H   UNL     1     -48.792  27.880  23.202  1.00  0.00     0.043 H 
BRANCH  43  46
ATOM     46  C   UNL     1     -47.692  26.642  24.608  1.00  0.00    -0.029 C 
ATOM     47  C   UNL     1     -46.367  26.631  25.398  1.00  0.00    -0.049 C 
ATOM     48  C   UNL     1     -48.888  26.638  25.569  1.00  0.00    -0.049 C 
ATOM     49  H   UNL     1     -47.742  25.719  24.013  1.00  0.00     0.032 H 
ATOM     50  C   UNL     1     -46.456  25.907  26.745  1.00  0.00    -0.053 C 
ATOM     51  H   UNL     1     -46.012  27.654  25.582  1.00  0.00     0.027 H 
ATOM     52  H   UNL     1     -45.598  26.147  24.784  1.00  0.00     0.027 H 
ATOM     53  C   UNL     1     -48.907  25.390  26.454  1.00  0.00    -0.053 C 
ATOM     54  H   UNL     1     -48.847  27.531  26.205  1.00  0.00     0.027 H 
ATOM     55  H   UNL     1     -49.834  26.698  25.015  1.00  0.00     0.027 H 
ATOM     56  C   UNL     1     -47.518  24.819  26.740  1.00  0.00    -0.053 C 
ATOM     57  H   UNL     1     -46.691  26.634  27.532  1.00  0.00     0.027 H 
ATOM     58  H   UNL     1     -45.477  25.482  26.998  1.00  0.00     0.027 H 
ATOM     59  H   UNL     1     -49.517  24.609  25.983  1.00  0.00     0.027 H 
ATOM     60  H   UNL     1     -49.409  25.638  27.399  1.00  0.00     0.027 H 
ATOM     61  H   UNL     1     -47.527  24.291  27.699  1.00  0.00     0.027 H 
ATOM     62  H   UNL     1     -47.266  24.073  25.975  1.00  0.00     0.027 H 
ENDBRANCH  43  46
ENDBRANCH  41  43
ENDBRANCH  38  41
ENDBRANCH   6  38
TORSDOF 7
ENDMDL
MODEL 2
REMARK VINA RESULT:     -11.1      1.610      2.278
REMARK SMILES O=C(NCc1ccc2cc(CNCC3CCCCC3)[nH]c2c1)c1cc(=O)n2ccccc2n1
REMARK SMILES IDX 5 1 6 2 7 3 8 4 9 5 10 6 20 7 21 8 22 9 4 15 3 18 1 19 2 20
REMARK SMILES IDX 23 22 24 23 33 24 25 25 32 27 26 28 27 29 31 30 28 31 30 32
REMARK SMILES IDX 29 34 11 38 12 41 13 43 14 46 15 47 19 48 16 50 18 53 17 56
REMARK H PARENT 6 10 7 11 9 12 20 13 22 14 4 16 4 17 3 21 24 26 31 33 28 35
REMARK H PARENT 30 36 29 37 11 39 11 40 12 42 13 44 13 45 14 49 15 51 15 52
REMARK H PARENT 19 54 19 55 16 57 16 58 18 59 18 60 17 61 17 62
REMARK Flexibility Score: inf
ROOT
ATOM      1  C   UNL     1     -46.223  35.472  27.664  1.00  0.00    -0.027 A 
ATOM      2  C   UNL     1     -47.613  35.587  27.526  1.00  0.00    -0.057 A 
ATOM      3  C   UNL     1     -48.338  34.706  26.714  1.00  0.00    -0.052 A 
ATOM      4  C   UNL     1     -47.657  33.683  26.028  1.00  0.00    -0.000 A 
ATOM      5  C   UNL     1     -48.064  32.642  25.148  1.00  0.00    -0.032 A 
ATOM      6  C   UNL     1     -46.940  31.928  24.783  1.00  0.00     0.030 A 
ATOM      7  N   UNL     1     -45.868  32.511  25.416  1.00  0.00    -0.357 N 
ATOM      8  C   UNL     1     -46.276  33.579  26.181  1.00  0.00     0.046 A 
ATOM      9  C   UNL     1     -45.534  34.447  26.991  1.00  0.00    -0.033 A 
ATOM     10  H   UNL     1     -48.148  36.371  28.062  1.00  0.00     0.063 H 
ATOM     11  H   UNL     1     -49.414  34.813  26.619  1.00  0.00     0.063 H 
ATOM     12  H   UNL     1     -49.074  32.442  24.818  1.00  0.00     0.065 H 
ATOM     13  H   UNL     1     -44.919  32.168  25.344  1.00  0.00     0.166 HD
ATOM     14  H   UNL     1     -44.460  34.332  27.093  1.00  0.00     0.065 H 
ENDROOT
BRANCH   1  15
ATOM     15  C   UNL     1     -45.477  36.422  28.566  1.00  0.00     0.043 C 
ATOM     16  H   UNL     1     -44.466  36.047  28.760  1.00  0.00     0.054 H 
ATOM     17  H   UNL     1     -45.983  36.507  29.535  1.00  0.00     0.054 H 
BRANCH  15  18
ATOM     18  N   UNL     1     -45.430  37.742  27.992  1.00  0.00    -0.347 N 
ATOM     19  O   UNL     1     -44.273  38.754  29.704  1.00  0.00    -0.268 OA
ATOM     20  C   UNL     1     -44.762  38.787  28.582  1.00  0.00     0.270 C 
ATOM     21  H   UNL     1     -45.684  37.869  27.017  1.00  0.00     0.164 HD
BRANCH  20  22
ATOM     22  C   UNL     1     -44.683  39.998  27.683  1.00  0.00     0.136 A 
ATOM     23  C   UNL     1     -45.827  40.404  27.131  1.00  0.00     0.035 A 
ATOM     24  N   UNL     1     -43.460  40.603  27.491  1.00  0.00    -0.225 NA
ATOM     25  C   UNL     1     -45.798  41.583  26.255  1.00  0.00     0.258 A 
ATOM     26  H   UNL     1     -46.783  39.921  27.291  1.00  0.00     0.071 H 
ATOM     27  C   UNL     1     -43.439  41.646  26.720  1.00  0.00     0.140 A 
ATOM     28  O   UNL     1     -46.848  41.962  25.740  1.00  0.00    -0.269 OA
ATOM     29  N   UNL     1     -44.557  42.176  26.083  1.00  0.00    -0.268 N 
ATOM     30  C   UNL     1     -42.139  42.337  26.488  1.00  0.00    -0.019 A 
ATOM     31  C   UNL     1     -44.450  43.298  25.269  1.00  0.00     0.014 A 
ATOM     32  C   UNL     1     -42.087  43.414  25.697  1.00  0.00    -0.057 A 
ATOM     33  H   UNL     1     -41.264  41.932  26.981  1.00  0.00     0.066 H 
ATOM     34  C   UNL     1     -43.278  43.913  25.065  1.00  0.00    -0.045 A 
ATOM     35  H   UNL     1     -45.364  43.658  24.802  1.00  0.00     0.082 H 
ATOM     36  H   UNL     1     -41.150  43.931  25.516  1.00  0.00     0.062 H 
ATOM     37  H   UNL     1     -43.207  44.789  24.427  1.00  0.00     0.064 H 
ENDBRANCH  20  22
ENDBRANCH  15  18
ENDBRANCH   1  15
BRANCH   6  38
ATOM     38  C   UNL     1     -46.767  30.755  23.884  1.00  0.00     0.036 C 
ATOM     39  H   UNL     1     -45.699  30.524  23.807  1.00  0.00     0.049 H 
ATOM     40  H   UNL     1     -47.136  31.001  22.882  1.00  0.00     0.049 H 
BRANCH  38  41
ATOM     41  N   UNL     1     -47.501  29.616  24.435  1.00  0.00    -0.311 NA
ATOM     42  H   UNL     1     -48.497  29.811  24.332  1.00  0.00     0.123 HD
BRANCH  41  43
ATOM     43  C   UNL     1     -47.170  28.387  23.712  1.00  0.00    -0.002 C 
ATOM     44  H   UNL     1     -46.091  28.367  23.510  1.00  0.00     0.043 H 
ATOM     45  H   UNL     1     -47.688  28.362  22.745  1.00  0.00     0.043 H 
BRANCH  43  46
ATOM     46  C   UNL     1     -47.543  27.135  24.531  1.00  0.00    -0.029 C 
ATOM     47  C   UNL     1     -46.336  26.555  25.298  1.00  0.00    -0.049 C 
ATOM     48  C   UNL     1     -48.692  27.448  25.498  1.00  0.00    -0.049 C 
ATOM     49  H   UNL     1     -47.901  26.368  23.829  1.00  0.00     0.032 H 
ATOM     50  C   UNL     1     -46.723  25.759  26.548  1.00  0.00    -0.053 C 
ATOM     51  H   UNL     1     -45.645  27.352  25.600  1.00  0.00     0.027 H 
ATOM     52  H   UNL     1     -45.772  25.902  24.621  1.00  0.00     0.027 H 
ATOM     53  C   UNL     1     -49.186  26.195  26.225  1.00  0.00    -0.053 C 
ATOM     54  H   UNL     1     -48.354  28.185  26.238  1.00  0.00     0.027 H 
ATOM     55  H   UNL     1     -49.534  27.909  24.966  1.00  0.00     0.027 H 
ATOM     56  C   UNL     1     -48.103  25.134  26.423  1.00  0.00    -0.053 C 
ATOM     57  H   UNL     1     -46.707  26.423  27.420  1.00  0.00     0.027 H 
ATOM     58  H   UNL     1     -45.971  24.983  26.736  1.00  0.00     0.027 H 
ATOM     59  H   UNL     1     -50.019  25.748  25.670  1.00  0.00     0.027 H 
ATOM     60  H   UNL     1     -49.596  26.495  27.199  1.00  0.00     0.027 H 
ATOM     61  H   UNL     1     -48.333  24.536  27.312  1.00  0.00     0.027 H 
ATOM     62  H   UNL     1     -48.111  24.443  25.571  1.00  0.00     0.027 H 
ENDBRANCH  43  46
ENDBRANCH  41  43
ENDBRANCH  38  41
ENDBRANCH   6  38
TORSDOF 7
ENDMDL
MODEL 3
REMARK VINA RESULT:     -11.1      1.659      2.645
REMARK SMILES O=C(NCc1ccc2cc(CNCC3CCCCC3)[nH]c2c1)c1cc(=O)n2ccccc2n1
REMARK SMILES IDX 5 1 6 2 7 3 8 4 9 5 10 6 20 7 21 8 22 9 4 15 3 18 1 19 2 20
REMARK SMILES IDX 23 22 24 23 33 24 25 25 32 27 26 28 27 29 31 30 28 31 30 32
REMARK SMILES IDX 29 34 11 38 12 41 13 43 14 46 15 47 19 48 16 50 18 53 17 56
REMARK H PARENT 6 10 7 11 9 12 20 13 22 14 4 16 4 17 3 21 24 26 31 33 28 35
REMARK H PARENT 30 36 29 37 11 39 11 40 12 42 13 44 13 45 14 49 15 51 15 52
REMARK H PARENT 19 54 19 55 16 57 16 58 18 59 18 60 17 61 17 62
REMARK Flexibility Score: inf
ROOT
ATOM      1  C   UNL     1     -46.515  35.500  28.407  1.00  0.00    -0.027 A 
ATOM      2  C   UNL     1     -47.788  35.865  27.950  1.00  0.00    -0.057 A 
ATOM      3  C   UNL     1     -48.429  35.146  26.933  1.00  0.00    -0.052 A 
ATOM      4  C   UNL     1     -47.782  34.035  26.362  1.00  0.00    -0.000 A 
ATOM      5  C   UNL     1     -48.128  33.104  25.344  1.00  0.00    -0.032 A 
ATOM      6  C   UNL     1     -47.085  32.209  25.211  1.00  0.00     0.030 A 
ATOM      7  N   UNL     1     -46.119  32.576  26.118  1.00  0.00    -0.357 N 
ATOM      8  C   UNL     1     -46.518  33.681  26.832  1.00  0.00     0.046 A 
ATOM      9  C   UNL     1     -45.863  34.384  27.851  1.00  0.00    -0.033 A 
ATOM     10  H   UNL     1     -48.299  36.718  28.394  1.00  0.00     0.063 H 
ATOM     11  H   UNL     1     -49.415  35.446  26.592  1.00  0.00     0.063 H 
ATOM     12  H   UNL     1     -49.045  33.095  24.771  1.00  0.00     0.065 H 
ATOM     13  H   UNL     1     -45.253  32.071  26.250  1.00  0.00     0.166 HD
ATOM     14  H   UNL     1     -44.882  34.077  28.197  1.00  0.00     0.065 H 
ENDROOT
BRANCH   1  15
ATOM     15  C   UNL     1     -45.865  36.280  29.521  1.00  0.00     0.043 C 
ATOM     16  H   UNL     1     -45.068  35.688  29.985  1.00  0.00     0.054 H 
ATOM     17  H   UNL     1     -46.596  36.509  30.305  1.00  0.00     0.054 H 
BRANCH  15  18
ATOM     18  N   UNL     1     -45.351  37.535  29.035  1.00  0.00    -0.347 N 
ATOM     19  O   UNL     1     -44.436  38.253  31.021  1.00  0.00    -0.268 OA
ATOM     20  C   UNL     1     -44.611  38.388  29.816  1.00  0.00     0.270 C 
ATOM     21  H   UNL     1     -45.318  37.704  28.035  1.00  0.00     0.164 HD
BRANCH  20  22
ATOM     22  C   UNL     1     -44.014  39.523  29.018  1.00  0.00     0.136 A 
ATOM     23  C   UNL     1     -42.933  40.109  29.535  1.00  0.00     0.035 A 
ATOM     24  N   UNL     1     -44.604  39.878  27.825  1.00  0.00    -0.225 NA
ATOM     25  C   UNL     1     -42.314  41.212  28.789  1.00  0.00     0.258 A 
ATOM     26  H   UNL     1     -42.476  39.819  30.473  1.00  0.00     0.071 H 
ATOM     27  C   UNL     1     -44.053  40.850  27.167  1.00  0.00     0.140 A 
ATOM     28  O   UNL     1     -41.320  41.760  29.261  1.00  0.00    -0.269 OA
ATOM     29  N   UNL     1     -42.925  41.547  27.590  1.00  0.00    -0.268 N 
ATOM     30  C   UNL     1     -44.654  41.266  25.867  1.00  0.00    -0.019 A 
ATOM     31  C   UNL     1     -42.395  42.581  26.826  1.00  0.00     0.014 A 
ATOM     32  C   UNL     1     -44.108  42.266  25.168  1.00  0.00    -0.057 A 
ATOM     33  H   UNL     1     -45.532  40.728  25.529  1.00  0.00     0.066 H 
ATOM     34  C   UNL     1     -42.941  42.948  25.660  1.00  0.00    -0.045 A 
ATOM     35  H   UNL     1     -41.513  43.082  27.217  1.00  0.00     0.082 H 
ATOM     36  H   UNL     1     -44.531  42.583  24.220  1.00  0.00     0.062 H 
ATOM     37  H   UNL     1     -42.519  43.757  25.072  1.00  0.00     0.064 H 
ENDBRANCH  20  22
ENDBRANCH  15  18
ENDBRANCH   1  15
BRANCH   6  38
ATOM     38  C   UNL     1     -46.896  31.045  24.303  1.00  0.00     0.036 C 
ATOM     39  H   UNL     1     -45.909  30.607  24.491  1.00  0.00     0.049 H 
ATOM     40  H   UNL     1     -46.927  31.381  23.260  1.00  0.00     0.049 H 
BRANCH  38  41
ATOM     41  N   UNL     1     -47.950  30.063  24.555  1.00  0.00    -0.311 NA
ATOM     42  H   UNL     1     -48.781  30.363  24.045  1.00  0.00     0.123 HD
BRANCH  41  43
ATOM     43  C   UNL     1     -47.545  28.735  24.089  1.00  0.00    -0.002 C 
ATOM     44  H   UNL     1     -46.470  28.743  23.868  1.00  0.00     0.043 H 
ATOM     45  H   UNL     1     -48.072  28.481  23.160  1.00  0.00     0.043 H 
BRANCH  43  46
ATOM     46  C   UNL     1     -47.823  27.656  25.154  1.00  0.00    -0.029 C 
ATOM     47  C   UNL     1     -49.262  27.106  25.070  1.00  0.00    -0.049 C 
ATOM     48  C   UNL     1     -46.806  26.513  25.039  1.00  0.00    -0.049 C 
ATOM     49  H   UNL     1     -47.692  28.117  26.143  1.00  0.00     0.032 H 
ATOM     50  C   UNL     1     -49.416  25.686  25.623  1.00  0.00    -0.053 C 
ATOM     51  H   UNL     1     -49.623  27.111  24.033  1.00  0.00     0.027 H 
ATOM     52  H   UNL     1     -49.927  27.778  25.627  1.00  0.00     0.027 H 
ATOM     53  C   UNL     1     -46.961  25.492  26.170  1.00  0.00    -0.053 C 
ATOM     54  H   UNL     1     -46.936  26.005  24.074  1.00  0.00     0.027 H 
ATOM     55  H   UNL     1     -45.780  26.902  25.047  1.00  0.00     0.027 H 
ATOM     56  C   UNL     1     -48.389  25.379  26.702  1.00  0.00    -0.053 C 
ATOM     57  H   UNL     1     -49.302  24.964  24.805  1.00  0.00     0.027 H 
ATOM     58  H   UNL     1     -50.431  25.553  26.016  1.00  0.00     0.027 H 
ATOM     59  H   UNL     1     -46.296  25.756  27.001  1.00  0.00     0.027 H 
ATOM     60  H   UNL     1     -46.621  24.514  25.806  1.00  0.00     0.027 H 
ATOM     61  H   UNL     1     -48.552  24.375  27.109  1.00  0.00     0.027 H 
ATOM     62  H   UNL     1     -48.523  26.079  27.537  1.00  0.00     0.027 H 
ENDBRANCH  43  46
ENDBRANCH  41  43
ENDBRANCH  38  41
ENDBRANCH   6  38
TORSDOF 7
ENDMDL
MODEL 4
REMARK VINA RESULT:     -10.5      2.904     12.027
REMARK SMILES O=C(NCc1ccc2cc(CNCC3CCCCC3)[nH]c2c1)c1cc(=O)n2ccccc2n1
REMARK SMILES IDX 5 1 6 2 7 3 8 4 9 5 10 6 20 7 21 8 22 9 4 15 3 18 1 19 2 20
REMARK SMILES IDX 23 22 24 23 33 24 25 25 32 27 26 28 27 29 31 30 28 31 30 32
REMARK SMILES IDX 29 34 11 38 12 41 13 43 14 46 15 47 19 48 16 50 18 53 17 56
REMARK H PARENT 6 10 7 11 9 12 20 13 22 14 4 16 4 17 3 21 24 26 31 33 28 35
REMARK H PARENT 30 36 29 37 11 39 11 40 12 42 13 44 13 45 14 49 15 51 15 52
REMARK H PARENT 19 54 19 55 16 57 16 58 18 59 18 60 17 61 17 62
REMARK Flexibility Score: inf
ROOT
ATOM      1  C   UNL     1     -46.750  33.696  25.951  1.00  0.00    -0.027 A 
ATOM      2  C   UNL     1     -48.064  34.174  26.043  1.00  0.00    -0.057 A 
ATOM      3  C   UNL     1     -48.408  35.185  26.949  1.00  0.00    -0.052 A 
ATOM      4  C   UNL     1     -47.412  35.733  27.779  1.00  0.00    -0.000 A 
ATOM      5  C   UNL     1     -47.406  36.743  28.781  1.00  0.00    -0.032 A 
ATOM      6  C   UNL     1     -46.117  36.860  29.261  1.00  0.00     0.030 A 
ATOM      7  N   UNL     1     -45.347  35.947  28.579  1.00  0.00    -0.357 N 
ATOM      8  C   UNL     1     -46.109  35.251  27.671  1.00  0.00     0.046 A 
ATOM      9  C   UNL     1     -45.745  34.243  26.769  1.00  0.00    -0.033 A 
ATOM     10  H   UNL     1     -48.837  33.761  25.396  1.00  0.00     0.063 H 
ATOM     11  H   UNL     1     -49.431  35.542  27.005  1.00  0.00     0.063 H 
ATOM     12  H   UNL     1     -48.259  37.320  29.112  1.00  0.00     0.065 H 
ATOM     13  H   UNL     1     -44.351  35.839  28.718  1.00  0.00     0.166 HD
ATOM     14  H   UNL     1     -44.719  33.896  26.707  1.00  0.00     0.065 H 
ENDROOT
BRANCH   1  15
ATOM     15  C   UNL     1     -46.409  32.624  24.947  1.00  0.00     0.043 C 
ATOM     16  H   UNL     1     -45.351  32.352  25.025  1.00  0.00     0.054 H 
ATOM     17  H   UNL     1     -46.575  32.988  23.927  1.00  0.00     0.054 H 
BRANCH  15  18
ATOM     18  N   UNL     1     -47.248  31.467  25.130  1.00  0.00    -0.347 N 
ATOM     19  O   UNL     1     -48.449  31.679  23.178  1.00  0.00    -0.268 OA
ATOM     20  C   UNL     1     -48.154  31.048  24.186  1.00  0.00     0.270 C 
ATOM     21  H   UNL     1     -47.016  30.795  25.854  1.00  0.00     0.164 HD
BRANCH  20  22
ATOM     22  C   UNL     1     -48.749  29.701  24.520  1.00  0.00     0.136 A 
ATOM     23  C   UNL     1     -49.993  29.479  24.092  1.00  0.00     0.035 A 
ATOM     24  N   UNL     1     -47.989  28.798  25.229  1.00  0.00    -0.225 NA
ATOM     25  C   UNL     1     -50.609  28.179  24.388  1.00  0.00     0.258 A 
ATOM     26  H   UNL     1     -50.579  30.197  23.533  1.00  0.00     0.071 H 
ATOM     27  C   UNL     1     -48.536  27.649  25.485  1.00  0.00     0.140 A 
ATOM     28  O   UNL     1     -51.756  27.967  23.999  1.00  0.00    -0.269 OA
ATOM     29  N   UNL     1     -49.822  27.286  25.098  1.00  0.00    -0.268 N 
ATOM     30  C   UNL     1     -47.749  26.637  26.246  1.00  0.00    -0.019 A 
ATOM     31  C   UNL     1     -50.336  26.033  25.415  1.00  0.00     0.014 A 
ATOM     32  C   UNL     1     -48.287  25.445  26.526  1.00  0.00    -0.057 A 
ATOM     33  H   UNL     1     -46.746  26.910  26.550  1.00  0.00     0.066 H 
ATOM     34  C   UNL     1     -49.623  25.130  26.098  1.00  0.00    -0.045 A 
ATOM     35  H   UNL     1     -51.349  25.816  25.081  1.00  0.00     0.082 H 
ATOM     36  H   UNL     1     -47.730  24.694  27.078  1.00  0.00     0.062 H 
ATOM     37  H   UNL     1     -50.035  24.155  26.340  1.00  0.00     0.064 H 
ENDBRANCH  20  22
ENDBRANCH  15  18
ENDBRANCH   1  15
BRANCH   6  38
ATOM     38  C   UNL     1     -45.534  37.738  30.312  1.00  0.00     0.036 C 
ATOM     39  H   UNL     1     -45.159  37.109  31.128  1.00  0.00     0.049 H 
ATOM     40  H   UNL     1     -46.311  38.395  30.717  1.00  0.00     0.049 H 
BRANCH  38  41
ATOM     41  N   UNL     1     -44.448  38.526  29.731  1.00  0.00    -0.311 NA
ATOM     42  H   UNL     1     -43.735  37.874  29.401  1.00  0.00     0.123 HD
BRANCH  41  43
ATOM     43  C   UNL     1     -44.933  39.327  28.605  1.00  0.00    -0.002 C 
ATOM     44  H   UNL     1     -45.695  40.030  28.965  1.00  0.00     0.043 H 
ATOM     45  H   UNL     1     -45.406  38.682  27.854  1.00  0.00     0.043 H 
BRANCH  43  46
ATOM     46  C   UNL     1     -43.790  40.130  27.952  1.00  0.00    -0.029 C 
ATOM     47  C   UNL     1     -44.310  41.190  26.960  1.00  0.00    -0.049 C 
ATOM     48  C   UNL     1     -42.913  40.787  29.026  1.00  0.00    -0.049 C 
ATOM     49  H   UNL     1     -43.158  39.423  27.396  1.00  0.00     0.032 H 
ATOM     50  C   UNL     1     -43.360  42.375  26.765  1.00  0.00    -0.053 C 
ATOM     51  H   UNL     1     -45.284  41.582  27.281  1.00  0.00     0.027 H 
ATOM     52  H   UNL     1     -44.481  40.707  25.989  1.00  0.00     0.027 H 
ATOM     53  C   UNL     1     -41.685  41.473  28.422  1.00  0.00    -0.053 C 
ATOM     54  H   UNL     1     -43.506  41.528  29.577  1.00  0.00     0.027 H 
ATOM     55  H   UNL     1     -42.581  40.047  29.765  1.00  0.00     0.027 H 
ATOM     56  C   UNL     1     -41.908  41.987  26.999  1.00  0.00    -0.053 C 
ATOM     57  H   UNL     1     -43.634  43.177  27.461  1.00  0.00     0.027 H 
ATOM     58  H   UNL     1     -43.485  42.784  25.755  1.00  0.00     0.027 H 
ATOM     59  H   UNL     1     -40.837  40.778  28.415  1.00  0.00     0.027 H 
ATOM     60  H   UNL     1     -41.392  42.305  29.076  1.00  0.00     0.027 H 
ATOM     61  H   UNL     1     -41.250  42.842  26.810  1.00  0.00     0.027 H 
ATOM     62  H   UNL     1     -41.623  41.208  26.282  1.00  0.00     0.027 H 
ENDBRANCH  43  46
ENDBRANCH  41  43
ENDBRANCH  38  41
ENDBRANCH   6  38
TORSDOF 7
ENDMDL
MODEL 5
REMARK VINA RESULT:     -10.4      2.807     11.859
REMARK SMILES O=C(NCc1ccc2cc(CNCC3CCCCC3)[nH]c2c1)c1cc(=O)n2ccccc2n1
REMARK SMILES IDX 5 1 6 2 7 3 8 4 9 5 10 6 20 7 21 8 22 9 4 15 3 18 1 19 2 20
REMARK SMILES IDX 23 22 24 23 33 24 25 25 32 27 26 28 27 29 31 30 28 31 30 32
REMARK SMILES IDX 29 34 11 38 12 41 13 43 14 46 15 47 19 48 16 50 18 53 17 56
REMARK H PARENT 6 10 7 11 9 12 20 13 22 14 4 16 4 17 3 21 24 26 31 33 28 35
REMARK H PARENT 30 36 29 37 11 39 11 40 12 42 13 44 13 45 14 49 15 51 15 52
REMARK H PARENT 19 54 19 55 16 57 16 58 18 59 18 60 17 61 17 62
REMARK Flexibility Score: inf
ROOT
ATOM      1  C   UNL     1     -48.193  33.658  25.911  1.00  0.00    -0.027 A 
ATOM      2  C   UNL     1     -46.859  33.513  25.507  1.00  0.00    -0.057 A 
ATOM      3  C   UNL     1     -45.830  34.234  26.126  1.00  0.00    -0.052 A 
ATOM      4  C   UNL     1     -46.144  35.118  27.176  1.00  0.00    -0.000 A 
ATOM      5  C   UNL     1     -45.375  35.980  28.005  1.00  0.00    -0.032 A 
ATOM      6  C   UNL     1     -46.236  36.611  28.879  1.00  0.00     0.030 A 
ATOM      7  N   UNL     1     -47.503  36.156  28.599  1.00  0.00    -0.357 N 
ATOM      8  C   UNL     1     -47.475  35.245  27.569  1.00  0.00     0.046 A 
ATOM      9  C   UNL     1     -48.516  34.530  26.965  1.00  0.00    -0.033 A 
ATOM     10  H   UNL     1     -46.609  32.823  24.702  1.00  0.00     0.063 H 
ATOM     11  H   UNL     1     -44.803  34.108  25.798  1.00  0.00     0.063 H 
ATOM     12  H   UNL     1     -44.303  36.121  27.962  1.00  0.00     0.065 H 
ATOM     13  H   UNL     1     -48.327  36.439  29.111  1.00  0.00     0.166 HD
ATOM     14  H   UNL     1     -49.541  34.649  27.301  1.00  0.00     0.065 H 
ENDROOT
BRANCH   1  15
ATOM     15  C   UNL     1     -49.273  32.847  25.239  1.00  0.00     0.043 C 
ATOM     16  H   UNL     1     -49.437  33.206  24.217  1.00  0.00     0.054 H 
ATOM     17  H   UNL     1     -50.222  32.953  25.776  1.00  0.00     0.054 H 
BRANCH  15  18
ATOM     18  N   UNL     1     -48.935  31.446  25.240  1.00  0.00    -0.347 N 
ATOM     19  O   UNL     1     -48.609  31.234  22.972  1.00  0.00    -0.268 OA
ATOM     20  C   UNL     1     -48.558  30.772  24.105  1.00  0.00     0.270 C 
ATOM     21  H   UNL     1     -48.733  30.985  26.121  1.00  0.00     0.164 HD
BRANCH  20  22
ATOM     22  C   UNL     1     -48.053  29.381  24.407  1.00  0.00     0.136 A 
ATOM     23  C   UNL     1     -46.956  28.992  23.753  1.00  0.00     0.035 A 
ATOM     24  N   UNL     1     -48.735  28.611  25.323  1.00  0.00    -0.225 NA
ATOM     25  C   UNL     1     -46.425  27.649  24.021  1.00  0.00     0.258 A 
ATOM     26  H   UNL     1     -46.428  29.608  23.037  1.00  0.00     0.071 H 
ATOM     27  C   UNL     1     -48.260  27.427  25.560  1.00  0.00     0.140 A 
ATOM     28  O   UNL     1     -45.417  27.282  23.420  1.00  0.00    -0.269 OA
ATOM     29  N   UNL     1     -47.127  26.897  24.950  1.00  0.00    -0.268 N 
ATOM     30  C   UNL     1     -48.963  26.560  26.548  1.00  0.00    -0.019 A 
ATOM     31  C   UNL     1     -46.684  25.615  25.258  1.00  0.00     0.014 A 
ATOM     32  C   UNL     1     -48.497  25.334  26.811  1.00  0.00    -0.057 A 
ATOM     33  H   UNL     1     -49.845  26.964  27.029  1.00  0.00     0.066 H 
ATOM     34  C   UNL     1     -47.321  24.843  26.146  1.00  0.00    -0.045 A 
ATOM     35  H   UNL     1     -45.792  25.265  24.744  1.00  0.00     0.082 H 
ATOM     36  H   UNL     1     -48.994  24.688  27.528  1.00  0.00     0.062 H 
ATOM     37  H   UNL     1     -46.965  23.843  26.379  1.00  0.00     0.064 H 
ENDBRANCH  20  22
ENDBRANCH  15  18
ENDBRANCH   1  15
BRANCH   6  38
ATOM     38  C   UNL     1     -45.992  37.616  29.950  1.00  0.00     0.036 C 
ATOM     39  H   UNL     1     -45.226  37.227  30.630  1.00  0.00     0.049 H 
ATOM     40  H   UNL     1     -46.911  37.773  30.526  1.00  0.00     0.049 H 
BRANCH  38  41
ATOM     41  N   UNL     1     -45.549  38.869  29.340  1.00  0.00    -0.311 NA
ATOM     42  H   UNL     1     -46.031  39.632  29.815  1.00  0.00     0.123 HD
BRANCH  41  43
ATOM     43  C   UNL     1     -44.102  39.038  29.494  1.00  0.00    -0.002 C 
ATOM     44  H   UNL     1     -43.586  38.222  28.975  1.00  0.00     0.043 H 
ATOM     45  H   UNL     1     -43.824  38.985  30.555  1.00  0.00     0.043 H 
BRANCH  43  46
ATOM     46  C   UNL     1     -43.627  40.380  28.902  1.00  0.00    -0.029 C 
ATOM     47  C   UNL     1     -42.191  40.738  29.339  1.00  0.00    -0.049 C 
ATOM     48  C   UNL     1     -43.730  40.358  27.371  1.00  0.00    -0.049 C 
ATOM     49  H   UNL     1     -44.300  41.168  29.268  1.00  0.00     0.032 H 
ATOM     50  C   UNL     1     -41.457  41.659  28.359  1.00  0.00    -0.053 C 
ATOM     51  H   UNL     1     -41.586  39.832  29.476  1.00  0.00     0.027 H 
ATOM     52  H   UNL     1     -42.235  41.226  30.320  1.00  0.00     0.027 H 
ATOM     53  C   UNL     1     -43.403  41.721  26.755  1.00  0.00    -0.053 C 
ATOM     54  H   UNL     1     -43.039  39.605  26.970  1.00  0.00     0.027 H 
ATOM     55  H   UNL     1     -44.735  40.054  27.053  1.00  0.00     0.027 H 
ATOM     56  C   UNL     1     -42.416  42.546  27.582  1.00  0.00    -0.053 C 
ATOM     57  H   UNL     1     -40.879  41.049  27.653  1.00  0.00     0.027 H 
ATOM     58  H   UNL     1     -40.731  42.272  28.906  1.00  0.00     0.027 H 
ATOM     59  H   UNL     1     -44.325  42.301  26.626  1.00  0.00     0.027 H 
ATOM     60  H   UNL     1     -43.001  41.561  25.746  1.00  0.00     0.027 H 
ATOM     61  H   UNL     1     -41.861  43.223  26.923  1.00  0.00     0.027 H 
ATOM     62  H   UNL     1     -42.971  43.180  28.284  1.00  0.00     0.027 H 
ENDBRANCH  43  46
ENDBRANCH  41  43
ENDBRANCH  38  41
ENDBRANCH   6  38
TORSDOF 7
ENDMDL
MODEL 6
REMARK VINA RESULT:     -10.3      2.008      2.990
REMARK SMILES O=C(NCc1ccc2cc(CNCC3CCCCC3)[nH]c2c1)c1cc(=O)n2ccccc2n1
REMARK SMILES IDX 5 1 6 2 7 3 8 4 9 5 10 6 20 7 21 8 22 9 4 15 3 18 1 19 2 20
REMARK SMILES IDX 23 22 24 23 33 24 25 25 32 27 26 28 27 29 31 30 28 31 30 32
REMARK SMILES IDX 29 34 11 38 12 41 13 43 14 46 15 47 19 48 16 50 18 53 17 56
REMARK H PARENT 6 10 7 11 9 12 20 13 22 14 4 16 4 17 3 21 24 26 31 33 28 35
REMARK H PARENT 30 36 29 37 11 39 11 40 12 42 13 44 13 45 14 49 15 51 15 52
REMARK H PARENT 19 54 19 55 16 57 16 58 18 59 18 60 17 61 17 62
REMARK Flexibility Score: inf
ROOT
ATOM      1  C   UNL     1     -46.951  36.570  27.760  1.00  0.00    -0.027 A 
ATOM      2  C   UNL     1     -45.733  35.951  28.069  1.00  0.00    -0.057 A 
ATOM      3  C   UNL     1     -45.467  34.633  27.675  1.00  0.00    -0.052 A 
ATOM      4  C   UNL     1     -46.441  33.921  26.951  1.00  0.00    -0.000 A 
ATOM      5  C   UNL     1     -46.505  32.609  26.405  1.00  0.00    -0.032 A 
ATOM      6  C   UNL     1     -47.729  32.464  25.784  1.00  0.00     0.030 A 
ATOM      7  N   UNL     1     -48.406  33.651  25.942  1.00  0.00    -0.357 N 
ATOM      8  C   UNL     1     -47.645  34.554  26.646  1.00  0.00     0.046 A 
ATOM      9  C   UNL     1     -47.927  35.872  27.028  1.00  0.00    -0.033 A 
ATOM     10  H   UNL     1     -44.970  36.500  28.621  1.00  0.00     0.063 H 
ATOM     11  H   UNL     1     -44.517  34.171  27.925  1.00  0.00     0.063 H 
ATOM     12  H   UNL     1     -45.733  31.854  26.464  1.00  0.00     0.065 H 
ATOM     13  H   UNL     1     -49.324  33.828  25.559  1.00  0.00     0.166 HD
ATOM     14  H   UNL     1     -48.873  36.336  26.767  1.00  0.00     0.065 H 
ENDROOT
BRANCH   1  15
ATOM     15  C   UNL     1     -47.194  37.999  28.178  1.00  0.00     0.043 C 
ATOM     16  H   UNL     1     -47.154  38.087  29.269  1.00  0.00     0.054 H 
ATOM     17  H   UNL     1     -48.191  38.325  27.863  1.00  0.00     0.054 H 
BRANCH  15  18
ATOM     18  N   UNL     1     -46.239  38.882  27.559  1.00  0.00    -0.347 N 
ATOM     19  O   UNL     1     -47.559  40.768  27.561  1.00  0.00    -0.268 OA
ATOM     20  C   UNL     1     -46.479  40.221  27.369  1.00  0.00     0.270 C 
ATOM     21  H   UNL     1     -45.273  38.586  27.471  1.00  0.00     0.164 HD
BRANCH  20  22
ATOM     22  C   UNL     1     -45.250  40.963  26.901  1.00  0.00     0.136 A 
ATOM     23  C   UNL     1     -44.165  40.858  27.671  1.00  0.00     0.035 A 
ATOM     24  N   UNL     1     -45.316  41.685  25.731  1.00  0.00    -0.225 NA
ATOM     25  C   UNL     1     -42.944  41.558  27.251  1.00  0.00     0.258 A 
ATOM     26  H   UNL     1     -44.125  40.285  28.588  1.00  0.00     0.071 H 
ATOM     27  C   UNL     1     -44.234  42.298  25.361  1.00  0.00     0.140 A 
ATOM     28  O   UNL     1     -41.940  41.470  27.956  1.00  0.00    -0.269 OA
ATOM     29  N   UNL     1     -43.035  42.274  26.067  1.00  0.00    -0.268 N 
ATOM     30  C   UNL     1     -44.257  43.089  24.097  1.00  0.00    -0.019 A 
ATOM     31  C   UNL     1     -41.919  42.961  25.603  1.00  0.00     0.014 A 
ATOM     32  C   UNL     1     -43.157  43.733  23.692  1.00  0.00    -0.057 A 
ATOM     33  H   UNL     1     -45.186  43.113  23.540  1.00  0.00     0.066 H 
ATOM     34  C   UNL     1     -41.948  43.669  24.467  1.00  0.00    -0.045 A 
ATOM     35  H   UNL     1     -41.015  42.899  26.205  1.00  0.00     0.082 H 
ATOM     36  H   UNL     1     -43.154  44.313  22.774  1.00  0.00     0.062 H 
ATOM     37  H   UNL     1     -41.070  44.202  24.115  1.00  0.00     0.064 H 
ENDBRANCH  20  22
ENDBRANCH  15  18
ENDBRANCH   1  15
BRANCH   6  38
ATOM     38  C   UNL     1     -48.338  31.313  25.064  1.00  0.00     0.036 C 
ATOM     39  H   UNL     1     -47.641  30.974  24.289  1.00  0.00     0.049 H 
ATOM     40  H   UNL     1     -49.265  31.632  24.573  1.00  0.00     0.049 H 
BRANCH  38  41
ATOM     41  N   UNL     1     -48.607  30.238  26.017  1.00  0.00    -0.311 NA
ATOM     42  H   UNL     1     -49.359  30.551  26.632  1.00  0.00     0.123 HD
BRANCH  41  43
ATOM     43  C   UNL     1     -49.024  29.019  25.322  1.00  0.00    -0.002 C 
ATOM     44  H   UNL     1     -48.799  29.119  24.253  1.00  0.00     0.043 H 
ATOM     45  H   UNL     1     -50.109  28.877  25.421  1.00  0.00     0.043 H 
BRANCH  43  46
ATOM     46  C   UNL     1     -48.288  27.779  25.869  1.00  0.00    -0.029 C 
ATOM     47  C   UNL     1     -49.260  26.721  26.431  1.00  0.00    -0.049 C 
ATOM     48  C   UNL     1     -47.395  27.164  24.784  1.00  0.00    -0.049 C 
ATOM     49  H   UNL     1     -47.634  28.110  26.687  1.00  0.00     0.032 H 
ATOM     50  C   UNL     1     -48.703  25.294  26.405  1.00  0.00    -0.053 C 
ATOM     51  H   UNL     1     -50.208  26.728  25.878  1.00  0.00     0.027 H 
ATOM     52  H   UNL     1     -49.508  26.988  27.465  1.00  0.00     0.027 H 
ATOM     53  C   UNL     1     -46.539  26.017  25.329  1.00  0.00    -0.053 C 
ATOM     54  H   UNL     1     -48.022  26.787  23.965  1.00  0.00     0.027 H 
ATOM     55  H   UNL     1     -46.736  27.923  24.343  1.00  0.00     0.027 H 
ATOM     56  C   UNL     1     -47.185  25.272  26.497  1.00  0.00    -0.053 C 
ATOM     57  H   UNL     1     -49.013  24.800  25.477  1.00  0.00     0.027 H 
ATOM     58  H   UNL     1     -49.141  24.714  27.227  1.00  0.00     0.027 H 
ATOM     59  H   UNL     1     -45.565  26.404  25.654  1.00  0.00     0.027 H 
ATOM     60  H   UNL     1     -46.330  25.316  24.510  1.00  0.00     0.027 H 
ATOM     61  H   UNL     1     -46.819  24.240  26.522  1.00  0.00     0.027 H 
ATOM     62  H   UNL     1     -46.874  25.736  27.442  1.00  0.00     0.027 H 
ENDBRANCH  43  46
ENDBRANCH  41  43
ENDBRANCH  38  41
ENDBRANCH   6  38
TORSDOF 7
ENDMDL
MODEL 7
REMARK VINA RESULT:     -10.1      2.776      4.559
REMARK SMILES O=C(NCc1ccc2cc(CNCC3CCCCC3)[nH]c2c1)c1cc(=O)n2ccccc2n1
REMARK SMILES IDX 5 1 6 2 7 3 8 4 9 5 10 6 20 7 21 8 22 9 4 15 3 18 1 19 2 20
REMARK SMILES IDX 23 22 24 23 33 24 25 25 32 27 26 28 27 29 31 30 28 31 30 32
REMARK SMILES IDX 29 34 11 38 12 41 13 43 14 46 15 47 19 48 16 50 18 53 17 56
REMARK H PARENT 6 10 7 11 9 12 20 13 22 14 4 16 4 17 3 21 24 26 31 33 28 35
REMARK H PARENT 30 36 29 37 11 39 11 40 12 42 13 44 13 45 14 49 15 51 15 52
REMARK H PARENT 19 54 19 55 16 57 16 58 18 59 18 60 17 61 17 62
REMARK Flexibility Score: inf
ROOT
ATOM      1  C   UNL     1     -46.874  37.029  28.319  1.00  0.00    -0.027 A 
ATOM      2  C   UNL     1     -48.245  36.799  28.148  1.00  0.00    -0.057 A 
ATOM      3  C   UNL     1     -48.712  35.697  27.419  1.00  0.00    -0.052 A 
ATOM      4  C   UNL     1     -47.784  34.804  26.852  1.00  0.00    -0.000 A 
ATOM      5  C   UNL     1     -47.900  33.617  26.077  1.00  0.00    -0.032 A 
ATOM      6  C   UNL     1     -46.627  33.158  25.805  1.00  0.00     0.030 A 
ATOM      7  N   UNL     1     -45.747  34.036  26.392  1.00  0.00    -0.357 N 
ATOM      8  C   UNL     1     -46.423  35.044  27.037  1.00  0.00     0.046 A 
ATOM      9  C   UNL     1     -45.938  36.137  27.766  1.00  0.00    -0.033 A 
ATOM     10  H   UNL     1     -48.969  37.481  28.593  1.00  0.00     0.063 H 
ATOM     11  H   UNL     1     -49.778  35.537  27.297  1.00  0.00     0.063 H 
ATOM     12  H   UNL     1     -48.822  33.153  25.753  1.00  0.00     0.065 H 
ATOM     13  H   UNL     1     -44.742  33.922  26.370  1.00  0.00     0.166 HD
ATOM     14  H   UNL     1     -44.872  36.290  27.896  1.00  0.00     0.065 H 
ENDROOT
BRANCH   1  15
ATOM     15  C   UNL     1     -46.407  38.211  29.132  1.00  0.00     0.043 C 
ATOM     16  H   UNL     1     -45.921  37.870  30.053  1.00  0.00     0.054 H 
ATOM     17  H   UNL     1     -47.259  38.834  29.426  1.00  0.00     0.054 H 
BRANCH  15  18
ATOM     18  N   UNL     1     -45.516  39.041  28.362  1.00  0.00    -0.347 N 
ATOM     19  O   UNL     1     -47.123  40.041  27.053  1.00  0.00    -0.268 OA
ATOM     20  C   UNL     1     -45.961  39.946  27.431  1.00  0.00     0.270 C 
ATOM     21  H   UNL     1     -44.553  39.149  28.663  1.00  0.00     0.164 HD
BRANCH  20  22
ATOM     22  C   UNL     1     -44.853  40.837  26.921  1.00  0.00     0.136 A 
ATOM     23  C   UNL     1     -43.765  40.929  27.688  1.00  0.00     0.035 A 
ATOM     24  N   UNL     1     -45.023  41.484  25.717  1.00  0.00    -0.225 NA
ATOM     25  C   UNL     1     -42.659  41.778  27.227  1.00  0.00     0.258 A 
ATOM     26  H   UNL     1     -43.643  40.412  28.631  1.00  0.00     0.071 H 
ATOM     27  C   UNL     1     -44.042  42.230  25.312  1.00  0.00     0.140 A 
ATOM     28  O   UNL     1     -41.654  41.871  27.929  1.00  0.00    -0.269 OA
ATOM     29  N   UNL     1     -42.853  42.415  26.011  1.00  0.00    -0.268 N 
ATOM     30  C   UNL     1     -44.179  42.947  24.012  1.00  0.00    -0.019 A 
ATOM     31  C   UNL     1     -41.848  43.235  25.508  1.00  0.00     0.014 A 
ATOM     32  C   UNL     1     -43.184  43.724  23.570  1.00  0.00    -0.057 A 
ATOM     33  H   UNL     1     -45.100  42.808  23.460  1.00  0.00     0.066 H 
ATOM     34  C   UNL     1     -41.979  43.875  24.340  1.00  0.00    -0.045 A 
ATOM     35  H   UNL     1     -40.946  43.334  26.107  1.00  0.00     0.082 H 
ATOM     36  H   UNL     1     -43.265  44.254  22.626  1.00  0.00     0.062 H 
ATOM     37  H   UNL     1     -41.188  44.513  23.957  1.00  0.00     0.064 H 
ENDBRANCH  20  22
ENDBRANCH  15  18
ENDBRANCH   1  15
BRANCH   6  38
ATOM     38  C   UNL     1     -46.150  31.978  25.034  1.00  0.00     0.036 C 
ATOM     39  H   UNL     1     -45.492  31.380  25.675  1.00  0.00     0.049 H 
ATOM     40  H   UNL     1     -45.568  32.314  24.167  1.00  0.00     0.049 H 
BRANCH  38  41
ATOM     41  N   UNL     1     -47.302  31.189  24.602  1.00  0.00    -0.311 NA
ATOM     42  H   UNL     1     -48.038  31.840  24.329  1.00  0.00     0.123 HD
BRANCH  41  43
ATOM     43  C   UNL     1     -46.953  30.342  23.459  1.00  0.00    -0.002 C 
ATOM     44  H   UNL     1     -47.531  29.412  23.509  1.00  0.00     0.043 H 
ATOM     45  H   UNL     1     -45.889  30.073  23.496  1.00  0.00     0.043 H 
BRANCH  43  46
ATOM     46  C   UNL     1     -47.262  31.046  22.122  1.00  0.00    -0.029 C 
ATOM     47  C   UNL     1     -45.983  31.388  21.329  1.00  0.00    -0.049 C 
ATOM     48  C   UNL     1     -48.207  30.189  21.270  1.00  0.00    -0.049 C 
ATOM     49  H   UNL     1     -47.783  31.987  22.349  1.00  0.00     0.032 H 
ATOM     50  C   UNL     1     -46.202  31.495  19.817  1.00  0.00    -0.053 C 
ATOM     51  H   UNL     1     -45.200  30.640  21.509  1.00  0.00     0.027 H 
ATOM     52  H   UNL     1     -45.586  32.340  21.700  1.00  0.00     0.027 H 
ATOM     53  C   UNL     1     -48.651  30.917  19.998  1.00  0.00    -0.053 C 
ATOM     54  H   UNL     1     -47.701  29.255  20.993  1.00  0.00     0.027 H 
ATOM     55  H   UNL     1     -49.096  29.899  21.845  1.00  0.00     0.027 H 
ATOM     56  C   UNL     1     -47.622  31.919  19.475  1.00  0.00    -0.053 C 
ATOM     57  H   UNL     1     -45.996  30.524  19.351  1.00  0.00     0.027 H 
ATOM     58  H   UNL     1     -45.481  32.204  19.391  1.00  0.00     0.027 H 
ATOM     59  H   UNL     1     -49.594  31.446  20.184  1.00  0.00     0.027 H 
ATOM     60  H   UNL     1     -48.869  30.169  19.225  1.00  0.00     0.027 H 
ATOM     61  H   UNL     1     -47.736  32.031  18.391  1.00  0.00     0.027 H 
ATOM     62  H   UNL     1     -47.819  32.906  19.913  1.00  0.00     0.027 H 
ENDBRANCH  43  46
ENDBRANCH  41  43
ENDBRANCH  38  41
ENDBRANCH   6  38
TORSDOF 7
ENDMDL
