MODEL 1
REMARK VINA RESULT:     -10.3      0.000      0.000
REMARK SMILES CNc1ccc2ccc(OC[C@H]3O[C@@H](n4cc(-c5cccnc5)c5c(N)ncnc54)[C@@H](F)[C@@H]3O)cc2n1
REMARK SMILES IDX 11 1 10 4 9 5 3 6 4 7 37 8 5 9 36 11 6 12 35 14 7 15 8 17
REMARK SMILES IDX 2 20 1 22 12 26 13 27 33 28 14 30 31 31 32 34 34 36 15 38
REMARK SMILES IDX 16 39 30 40 17 41 24 43 29 44 25 45 28 46 27 47 18 49 19 50
REMARK SMILES IDX 23 51 20 52 22 54 21 56 26 59
REMARK H PARENT 11 2 11 3 4 10 5 13 35 16 7 18 8 19 2 21 1 23 1 24 1 25 12 29
REMARK H PARENT 33 32 14 33 31 35 34 37 16 42 28 48 19 53 23 55 20 57 21 58
REMARK H PARENT 26 60 26 61
REMARK Flexibility Score: inf
ROOT
ATOM      1  C   UNL     1     -45.681  35.375  27.031  1.00  0.00     0.117 C 
ATOM      2  H   UNL     1     -44.829  35.834  26.515  1.00  0.00     0.073 H 
ATOM      3  H   UNL     1     -45.421  34.371  27.387  1.00  0.00     0.073 H 
ENDROOT
BRANCH   1   4
ATOM      4  O   UNL     1     -46.792  35.288  26.133  1.00  0.00    -0.491 OA
BRANCH   4   5
ATOM      5  C   UNL     1     -47.243  34.038  25.812  1.00  0.00     0.121 A 
ATOM      6  C   UNL     1     -46.382  30.292  22.992  1.00  0.00     0.126 A 
ATOM      7  C   UNL     1     -47.462  29.592  23.517  1.00  0.00    -0.019 A 
ATOM      8  N   UNL     1     -46.062  31.527  23.428  1.00  0.00    -0.231 NA
ATOM      9  C   UNL     1     -48.247  30.185  24.501  1.00  0.00    -0.049 A 
ATOM     10  H   UNL     1     -47.686  28.589  23.174  1.00  0.00     0.066 H 
ATOM     11  C   UNL     1     -46.817  32.107  24.381  1.00  0.00     0.076 A 
ATOM     12  C   UNL     1     -47.932  31.469  24.951  1.00  0.00     0.001 A 
ATOM     13  H   UNL     1     -49.091  29.638  24.912  1.00  0.00     0.063 H 
ATOM     14  C   UNL     1     -46.497  33.383  24.826  1.00  0.00     0.007 A 
ATOM     15  C   UNL     1     -48.689  32.114  25.943  1.00  0.00    -0.049 A 
ATOM     16  H   UNL     1     -45.637  33.885  24.389  1.00  0.00     0.069 H 
ATOM     17  C   UNL     1     -48.344  33.397  26.371  1.00  0.00    -0.019 A 
ATOM     18  H   UNL     1     -49.551  31.621  26.387  1.00  0.00     0.063 H 
ATOM     19  H   UNL     1     -48.953  33.860  27.141  1.00  0.00     0.066 H 
BRANCH   6  20
ATOM     20  N   UNL     1     -45.596  29.652  22.016  1.00  0.00    -0.373 N 
ATOM     21  H   UNL     1     -45.144  30.360  21.444  1.00  0.00     0.161 HD
BRANCH  20  22
ATOM     22  C   UNL     1     -44.637  28.702  22.555  1.00  0.00     0.005 C 
ATOM     23  H   UNL     1     -44.137  29.095  23.448  1.00  0.00     0.045 H 
ATOM     24  H   UNL     1     -43.865  28.511  21.803  1.00  0.00     0.045 H 
ATOM     25  H   UNL     1     -45.109  27.741  22.790  1.00  0.00     0.045 H 
ENDBRANCH  20  22
ENDBRANCH   6  20
ENDBRANCH   4   5
ENDBRANCH   1   4
BRANCH   1  26
ATOM     26  C   UNL     1     -46.089  36.247  28.219  1.00  0.00     0.123 C 
ATOM     27  O   UNL     1     -44.985  37.069  28.658  1.00  0.00    -0.345 OA
ATOM     28  C   UNL     1     -47.200  37.224  27.874  1.00  0.00     0.119 C 
ATOM     29  H   UNL     1     -46.373  35.604  29.063  1.00  0.00     0.067 H 
ATOM     30  C   UNL     1     -45.534  38.312  29.164  1.00  0.00     0.169 C 
ATOM     31  C   UNL     1     -47.047  38.246  28.980  1.00  0.00     0.173 C 
ATOM     32  H   UNL     1     -47.042  37.693  26.896  1.00  0.00     0.066 H 
ATOM     33  H   UNL     1     -45.261  38.383  30.222  1.00  0.00     0.088 H 
ATOM     34  F   UNL     1     -47.612  39.414  28.594  1.00  0.00    -0.239 F 
ATOM     35  H   UNL     1     -47.548  37.913  29.897  1.00  0.00     0.074 H 
BRANCH  28  36
ATOM     36  O   UNL     1     -48.479  36.605  27.871  1.00  0.00    -0.387 OA
ATOM     37  H   UNL     1     -48.573  36.143  27.016  1.00  0.00     0.211 HD
ENDBRANCH  28  36
BRANCH  30  38
ATOM     38  N   UNL     1     -44.902  39.426  28.470  1.00  0.00    -0.302 N 
ATOM     39  C   UNL     1     -45.359  40.069  27.345  1.00  0.00     0.017 A 
ATOM     40  C   UNL     1     -43.728  40.006  28.883  1.00  0.00     0.148 A 
ATOM     41  C   UNL     1     -44.475  41.088  27.041  1.00  0.00     0.014 A 
ATOM     42  H   UNL     1     -46.276  39.756  26.859  1.00  0.00     0.083 H 
ATOM     43  C   UNL     1     -43.424  41.046  28.013  1.00  0.00     0.069 A 
ATOM     44  N   UNL     1     -43.014  39.619  29.954  1.00  0.00    -0.218 NA
ATOM     45  C   UNL     1     -42.235  41.746  28.276  1.00  0.00     0.136 A 
ATOM     46  C   UNL     1     -41.915  40.374  30.111  1.00  0.00     0.120 A 
ATOM     47  N   UNL     1     -41.489  41.392  29.341  1.00  0.00    -0.219 NA
ATOM     48  H   UNL     1     -41.286  40.131  30.963  1.00  0.00     0.106 H 
BRANCH  41  49
ATOM     49  C   UNL     1     -44.690  41.990  25.927  1.00  0.00     0.002 A 
ATOM     50  C   UNL     1     -45.593  43.050  26.024  1.00  0.00    -0.051 A 
ATOM     51  C   UNL     1     -44.012  41.833  24.721  1.00  0.00     0.035 A 
ATOM     52  C   UNL     1     -45.779  43.901  24.935  1.00  0.00    -0.043 A 
ATOM     53  H   UNL     1     -46.157  43.218  26.939  1.00  0.00     0.063 H 
ATOM     54  N   UNL     1     -44.172  42.645  23.647  1.00  0.00    -0.264 NA
ATOM     55  H   UNL     1     -43.293  41.032  24.577  1.00  0.00     0.085 H 
ATOM     56  C   UNL     1     -45.052  43.660  23.780  1.00  0.00     0.027 A 
ATOM     57  H   UNL     1     -46.474  44.731  24.990  1.00  0.00     0.064 H 
ATOM     58  H   UNL     1     -45.163  44.296  22.907  1.00  0.00     0.084 H 
ENDBRANCH  41  49
BRANCH  45  59
ATOM     59  N   UNL     1     -41.745  42.782  27.491  1.00  0.00    -0.383 N 
ATOM     60  H   UNL     1     -42.258  42.928  26.631  1.00  0.00     0.158 HD
ATOM     61  H   UNL     1     -40.739  42.697  27.393  1.00  0.00     0.158 HD
ENDBRANCH  45  59
ENDBRANCH  30  38
ENDBRANCH   1  26
TORSDOF 9
ENDMDL
MODEL 2
REMARK VINA RESULT:      -9.2      1.987      2.661
REMARK SMILES CNc1ccc2ccc(OC[C@H]3O[C@@H](n4cc(-c5cccnc5)c5c(N)ncnc54)[C@@H](F)[C@@H]3O)cc2n1
REMARK SMILES IDX 11 1 10 4 9 5 3 6 4 7 37 8 5 9 36 11 6 12 35 14 7 15 8 17
REMARK SMILES IDX 2 20 1 22 12 26 13 27 33 28 14 30 31 31 32 34 34 36 15 38
REMARK SMILES IDX 16 39 30 40 17 41 24 43 29 44 25 45 28 46 27 47 18 49 19 50
REMARK SMILES IDX 23 51 20 52 22 54 21 56 26 59
REMARK H PARENT 11 2 11 3 4 10 5 13 35 16 7 18 8 19 2 21 1 23 1 24 1 25 12 29
REMARK H PARENT 33 32 14 33 31 35 34 37 16 42 28 48 19 53 23 55 20 57 21 58
REMARK H PARENT 26 60 26 61
REMARK Flexibility Score: inf
ROOT
ATOM      1  C   UNL     1     -46.431  34.314  26.177  1.00  0.00     0.117 C 
ATOM      2  H   UNL     1     -45.952  35.095  25.575  1.00  0.00     0.073 H 
ATOM      3  H   UNL     1     -45.715  33.518  26.417  1.00  0.00     0.073 H 
ENDROOT
BRANCH   1   4
ATOM      4  O   UNL     1     -47.532  33.759  25.452  1.00  0.00    -0.491 OA
BRANCH   4   5
ATOM      5  C   UNL     1     -47.363  32.516  24.907  1.00  0.00     0.121 A 
ATOM      6  C   UNL     1     -49.055  28.061  25.003  1.00  0.00     0.126 A 
ATOM      7  C   UNL     1     -48.138  27.644  24.044  1.00  0.00    -0.019 A 
ATOM      8  N   UNL     1     -49.097  29.338  25.432  1.00  0.00    -0.231 NA
ATOM      9  C   UNL     1     -47.227  28.560  23.528  1.00  0.00    -0.049 A 
ATOM     10  H   UNL     1     -48.140  26.620  23.691  1.00  0.00     0.066 H 
ATOM     11  C   UNL     1     -48.218  30.230  24.937  1.00  0.00     0.076 A 
ATOM     12  C   UNL     1     -47.253  29.883  23.975  1.00  0.00     0.001 A 
ATOM     13  H   UNL     1     -46.511  28.236  22.778  1.00  0.00     0.063 H 
ATOM     14  C   UNL     1     -48.251  31.545  25.384  1.00  0.00     0.007 A 
ATOM     15  C   UNL     1     -46.357  30.849  23.487  1.00  0.00    -0.049 A 
ATOM     16  H   UNL     1     -48.992  31.822  26.128  1.00  0.00     0.069 H 
ATOM     17  C   UNL     1     -46.413  32.163  23.954  1.00  0.00    -0.019 A 
ATOM     18  H   UNL     1     -45.612  30.582  22.741  1.00  0.00     0.063 H 
ATOM     19  H   UNL     1     -45.705  32.879  23.551  1.00  0.00     0.066 H 
BRANCH   6  20
ATOM     20  N   UNL     1     -49.978  27.113  25.485  1.00  0.00    -0.373 N 
ATOM     21  H   UNL     1     -50.731  27.018  24.810  1.00  0.00     0.161 HD
BRANCH  20  22
ATOM     22  C   UNL     1     -49.388  25.828  25.820  1.00  0.00     0.005 C 
ATOM     23  H   UNL     1     -48.909  25.364  24.951  1.00  0.00     0.045 H 
ATOM     24  H   UNL     1     -50.180  25.152  26.160  1.00  0.00     0.045 H 
ATOM     25  H   UNL     1     -48.663  25.918  26.637  1.00  0.00     0.045 H 
ENDBRANCH  20  22
ENDBRANCH   6  20
ENDBRANCH   4   5
ENDBRANCH   1   4
BRANCH   1  26
ATOM     26  C   UNL     1     -46.966  34.923  27.474  1.00  0.00     0.123 C 
ATOM     27  O   UNL     1     -45.923  35.631  28.179  1.00  0.00    -0.345 OA
ATOM     28  C   UNL     1     -48.054  35.956  27.229  1.00  0.00     0.119 C 
ATOM     29  H   UNL     1     -47.321  34.120  28.134  1.00  0.00     0.067 H 
ATOM     30  C   UNL     1     -46.538  36.745  28.874  1.00  0.00     0.169 C 
ATOM     31  C   UNL     1     -48.025  36.726  28.532  1.00  0.00     0.173 C 
ATOM     32  H   UNL     1     -47.808  36.616  26.389  1.00  0.00     0.066 H 
ATOM     33  H   UNL     1     -46.370  36.595  29.946  1.00  0.00     0.088 H 
ATOM     34  F   UNL     1     -48.567  37.952  28.342  1.00  0.00    -0.239 F 
ATOM     35  H   UNL     1     -48.607  36.213  29.307  1.00  0.00     0.074 H 
BRANCH  28  36
ATOM     36  O   UNL     1     -49.316  35.357  26.973  1.00  0.00    -0.387 OA
ATOM     37  H   UNL     1     -49.156  34.407  26.810  1.00  0.00     0.211 HD
ENDBRANCH  28  36
BRANCH  30  38
ATOM     38  N   UNL     1     -45.859  37.975  28.491  1.00  0.00    -0.302 N 
ATOM     39  C   UNL     1     -46.177  38.807  27.444  1.00  0.00     0.017 A 
ATOM     40  C   UNL     1     -44.779  38.485  29.168  1.00  0.00     0.148 A 
ATOM     41  C   UNL     1     -45.300  39.876  27.459  1.00  0.00     0.014 A 
ATOM     42  H   UNL     1     -47.002  38.576  26.781  1.00  0.00     0.083 H 
ATOM     43  C   UNL     1     -44.396  39.671  28.551  1.00  0.00     0.069 A 
ATOM     44  N   UNL     1     -44.208  37.919  30.245  1.00  0.00    -0.218 NA
ATOM     45  C   UNL     1     -43.285  40.327  29.107  1.00  0.00     0.136 A 
ATOM     46  C   UNL     1     -43.173  38.647  30.693  1.00  0.00     0.120 A 
ATOM     47  N   UNL     1     -42.684  39.794  30.189  1.00  0.00    -0.219 NA
ATOM     48  H   UNL     1     -42.662  38.260  31.571  1.00  0.00     0.106 H 
BRANCH  41  49
ATOM     49  C   UNL     1     -45.390  40.964  26.505  1.00  0.00     0.002 A 
ATOM     50  C   UNL     1     -44.332  41.256  25.645  1.00  0.00    -0.051 A 
ATOM     51  C   UNL     1     -46.529  41.759  26.414  1.00  0.00     0.035 A 
ATOM     52  C   UNL     1     -44.448  42.308  24.738  1.00  0.00    -0.043 A 
ATOM     53  H   UNL     1     -43.413  40.673  25.675  1.00  0.00     0.063 H 
ATOM     54  N   UNL     1     -46.671  42.788  25.543  1.00  0.00    -0.264 NA
ATOM     55  H   UNL     1     -47.392  41.586  27.052  1.00  0.00     0.085 H 
ATOM     56  C   UNL     1     -45.626  43.038  24.725  1.00  0.00     0.027 A 
ATOM     57  H   UNL     1     -43.638  42.551  24.060  1.00  0.00     0.064 H 
ATOM     58  H   UNL     1     -45.763  43.867  24.037  1.00  0.00     0.084 H 
ENDBRANCH  41  49
BRANCH  45  59
ATOM     59  N   UNL     1     -42.729  41.495  28.600  1.00  0.00    -0.383 N 
ATOM     60  H   UNL     1     -43.024  42.335  29.081  1.00  0.00     0.158 HD
ATOM     61  H   UNL     1     -42.821  41.513  27.590  1.00  0.00     0.158 HD
ENDBRANCH  45  59
ENDBRANCH  30  38
ENDBRANCH   1  26
TORSDOF 9
ENDMDL
MODEL 3
REMARK VINA RESULT:      -9.0      2.786      5.164
REMARK SMILES CNc1ccc2ccc(OC[C@H]3O[C@@H](n4cc(-c5cccnc5)c5c(N)ncnc54)[C@@H](F)[C@@H]3O)cc2n1
REMARK SMILES IDX 11 1 10 4 9 5 3 6 4 7 37 8 5 9 36 11 6 12 35 14 7 15 8 17
REMARK SMILES IDX 2 20 1 22 12 26 13 27 33 28 14 30 31 31 32 34 34 36 15 38
REMARK SMILES IDX 16 39 30 40 17 41 24 43 29 44 25 45 28 46 27 47 18 49 19 50
REMARK SMILES IDX 23 51 20 52 22 54 21 56 26 59
REMARK H PARENT 11 2 11 3 4 10 5 13 35 16 7 18 8 19 2 21 1 23 1 24 1 25 12 29
REMARK H PARENT 33 32 14 33 31 35 34 37 16 42 28 48 19 53 23 55 20 57 21 58
REMARK H PARENT 26 60 26 61
REMARK Flexibility Score: inf
ROOT
ATOM      1  C   UNL     1     -45.434  38.974  28.473  1.00  0.00     0.117 C 
ATOM      2  H   UNL     1     -45.189  37.932  28.714  1.00  0.00     0.073 H 
ATOM      3  H   UNL     1     -45.525  39.570  29.389  1.00  0.00     0.073 H 
ENDROOT
BRANCH   1   4
ATOM      4  O   UNL     1     -46.668  39.020  27.752  1.00  0.00    -0.491 OA
BRANCH   4   5
ATOM      5  C   UNL     1     -47.302  37.832  27.516  1.00  0.00     0.121 A 
ATOM      6  C   UNL     1     -46.673  33.492  25.646  1.00  0.00     0.126 A 
ATOM      7  C   UNL     1     -47.976  33.120  25.957  1.00  0.00    -0.019 A 
ATOM      8  N   UNL     1     -46.193  34.713  25.958  1.00  0.00    -0.231 NA
ATOM      9  C   UNL     1     -48.815  34.034  26.588  1.00  0.00    -0.049 A 
ATOM     10  H   UNL     1     -48.334  32.124  25.724  1.00  0.00     0.066 H 
ATOM     11  C   UNL     1     -46.999  35.603  26.568  1.00  0.00     0.076 A 
ATOM     12  C   UNL     1     -48.332  35.305  26.904  1.00  0.00     0.001 A 
ATOM     13  H   UNL     1     -49.832  33.743  26.833  1.00  0.00     0.063 H 
ATOM     14  C   UNL     1     -46.513  36.865  26.882  1.00  0.00     0.007 A 
ATOM     15  C   UNL     1     -49.135  36.267  27.541  1.00  0.00    -0.049 A 
ATOM     16  H   UNL     1     -45.485  37.104  26.625  1.00  0.00     0.069 H 
ATOM     17  C   UNL     1     -48.619  37.527  27.846  1.00  0.00    -0.019 A 
ATOM     18  H   UNL     1     -50.165  36.038  27.804  1.00  0.00     0.063 H 
ATOM     19  H   UNL     1     -49.271  38.241  28.339  1.00  0.00     0.066 H 
BRANCH   6  20
ATOM     20  N   UNL     1     -45.845  32.534  25.031  1.00  0.00    -0.373 N 
ATOM     21  H   UNL     1     -45.395  31.979  25.753  1.00  0.00     0.161 HD
BRANCH  20  22
ATOM     22  C   UNL     1     -46.527  31.700  24.055  1.00  0.00     0.005 C 
ATOM     23  H   UNL     1     -46.873  30.760  24.499  1.00  0.00     0.045 H 
ATOM     24  H   UNL     1     -45.826  31.447  23.253  1.00  0.00     0.045 H 
ATOM     25  H   UNL     1     -47.373  32.225  23.596  1.00  0.00     0.045 H 
ENDBRANCH  20  22
ENDBRANCH   6  20
ENDBRANCH   4   5
ENDBRANCH   1   4
BRANCH   1  26
ATOM     26  C   UNL     1     -44.336  39.566  27.588  1.00  0.00     0.123 C 
ATOM     27  O   UNL     1     -44.872  39.985  26.314  1.00  0.00    -0.345 OA
ATOM     28  C   UNL     1     -43.711  40.815  28.187  1.00  0.00     0.119 C 
ATOM     29  H   UNL     1     -43.577  38.798  27.387  1.00  0.00     0.067 H 
ATOM     30  C   UNL     1     -44.110  41.136  25.871  1.00  0.00     0.169 C 
ATOM     31  C   UNL     1     -43.089  41.449  26.961  1.00  0.00     0.173 C 
ATOM     32  H   UNL     1     -44.466  41.481  28.621  1.00  0.00     0.066 H 
ATOM     33  H   UNL     1     -43.621  40.863  24.929  1.00  0.00     0.088 H 
ATOM     34  F   UNL     1     -42.901  42.771  27.184  1.00  0.00    -0.239 F 
ATOM     35  H   UNL     1     -42.115  41.000  26.737  1.00  0.00     0.074 H 
BRANCH  28  36
ATOM     36  O   UNL     1     -42.755  40.509  29.192  1.00  0.00    -0.387 OA
ATOM     37  H   UNL     1     -42.906  39.582  29.460  1.00  0.00     0.211 HD
ENDBRANCH  28  36
BRANCH  30  38
ATOM     38  N   UNL     1     -45.028  42.231  25.590  1.00  0.00    -0.302 N 
ATOM     39  C   UNL     1     -46.240  42.472  26.190  1.00  0.00     0.017 A 
ATOM     40  C   UNL     1     -44.777  43.209  24.659  1.00  0.00     0.148 A 
ATOM     41  C   UNL     1     -46.767  43.631  25.650  1.00  0.00     0.014 A 
ATOM     42  H   UNL     1     -46.625  41.808  26.955  1.00  0.00     0.083 H 
ATOM     43  C   UNL     1     -45.843  44.101  24.662  1.00  0.00     0.069 A 
ATOM     44  N   UNL     1     -43.677  43.274  23.890  1.00  0.00    -0.218 NA
ATOM     45  C   UNL     1     -45.761  45.166  23.751  1.00  0.00     0.136 A 
ATOM     46  C   UNL     1     -43.707  44.342  23.077  1.00  0.00     0.120 A 
ATOM     47  N   UNL     1     -44.674  45.271  22.961  1.00  0.00    -0.219 NA
ATOM     48  H   UNL     1     -42.847  44.472  22.428  1.00  0.00     0.106 H 
BRANCH  41  49
ATOM     49  C   UNL     1     -48.027  44.190  26.100  1.00  0.00     0.002 A 
ATOM     50  C   UNL     1     -49.188  44.053  25.337  1.00  0.00    -0.051 A 
ATOM     51  C   UNL     1     -48.128  44.886  27.301  1.00  0.00     0.035 A 
ATOM     52  C   UNL     1     -50.385  44.602  25.795  1.00  0.00    -0.043 A 
ATOM     53  H   UNL     1     -49.168  43.526  24.385  1.00  0.00     0.063 H 
ATOM     54  N   UNL     1     -49.278  45.429  27.772  1.00  0.00    -0.264 NA
ATOM     55  H   UNL     1     -47.265  45.027  27.946  1.00  0.00     0.085 H 
ATOM     56  C   UNL     1     -50.379  45.273  27.007  1.00  0.00     0.027 A 
ATOM     57  H   UNL     1     -51.297  44.506  25.218  1.00  0.00     0.064 H 
ATOM     58  H   UNL     1     -51.287  45.718  27.404  1.00  0.00     0.084 H 
ENDBRANCH  41  49
BRANCH  45  59
ATOM     59  N   UNL     1     -46.749  46.128  23.577  1.00  0.00    -0.383 N 
ATOM     60  H   UNL     1     -47.459  45.874  22.902  1.00  0.00     0.158 HD
ATOM     61  H   UNL     1     -46.326  47.040  23.448  1.00  0.00     0.158 HD
ENDBRANCH  45  59
ENDBRANCH  30  38
ENDBRANCH   1  26
TORSDOF 9
ENDMDL
MODEL 4
REMARK VINA RESULT:      -9.0      2.850      4.094
REMARK SMILES CNc1ccc2ccc(OC[C@H]3O[C@@H](n4cc(-c5cccnc5)c5c(N)ncnc54)[C@@H](F)[C@@H]3O)cc2n1
REMARK SMILES IDX 11 1 10 4 9 5 3 6 4 7 37 8 5 9 36 11 6 12 35 14 7 15 8 17
REMARK SMILES IDX 2 20 1 22 12 26 13 27 33 28 14 30 31 31 32 34 34 36 15 38
REMARK SMILES IDX 16 39 30 40 17 41 24 43 29 44 25 45 28 46 27 47 18 49 19 50
REMARK SMILES IDX 23 51 20 52 22 54 21 56 26 59
REMARK H PARENT 11 2 11 3 4 10 5 13 35 16 7 18 8 19 2 21 1 23 1 24 1 25 12 29
REMARK H PARENT 33 32 14 33 31 35 34 37 16 42 28 48 19 53 23 55 20 57 21 58
REMARK H PARENT 26 60 26 61
REMARK Flexibility Score: inf
ROOT
ATOM      1  C   UNL     1     -47.627  34.771  27.642  1.00  0.00     0.117 C 
ATOM      2  H   UNL     1     -47.518  33.741  28.003  1.00  0.00     0.073 H 
ATOM      3  H   UNL     1     -48.495  35.254  28.107  1.00  0.00     0.073 H 
ENDROOT
BRANCH   1   4
ATOM      4  O   UNL     1     -47.792  34.764  26.221  1.00  0.00    -0.491 OA
BRANCH   4   5
ATOM      5  C   UNL     1     -47.463  33.614  25.556  1.00  0.00     0.121 A 
ATOM      6  C   UNL     1     -48.974  29.189  24.633  1.00  0.00     0.126 A 
ATOM      7  C   UNL     1     -47.853  28.921  23.856  1.00  0.00    -0.019 A 
ATOM      8  N   UNL     1     -49.155  30.389  25.221  1.00  0.00    -0.231 NA
ATOM      9  C   UNL     1     -46.883  29.905  23.693  1.00  0.00    -0.049 A 
ATOM     10  H   UNL     1     -47.740  27.959  23.369  1.00  0.00     0.066 H 
ATOM     11  C   UNL     1     -48.221  31.347  25.068  1.00  0.00     0.076 A 
ATOM     12  C   UNL     1     -47.055  31.147  24.307  1.00  0.00     0.001 A 
ATOM     13  H   UNL     1     -46.009  29.696  23.085  1.00  0.00     0.063 H 
ATOM     14  C   UNL     1     -48.399  32.581  25.679  1.00  0.00     0.007 A 
ATOM     15  C   UNL     1     -46.108  32.177  24.176  1.00  0.00    -0.049 A 
ATOM     16  H   UNL     1     -49.296  32.744  26.270  1.00  0.00     0.069 H 
ATOM     17  C   UNL     1     -46.313  33.408  24.800  1.00  0.00    -0.019 A 
ATOM     18  H   UNL     1     -45.207  32.025  23.586  1.00  0.00     0.063 H 
ATOM     19  H   UNL     1     -45.559  34.178  24.673  1.00  0.00     0.066 H 
BRANCH   6  20
ATOM     20  N   UNL     1     -49.947  28.178  24.756  1.00  0.00    -0.373 N 
ATOM     21  H   UNL     1     -50.033  27.698  23.865  1.00  0.00     0.161 HD
BRANCH  20  22
ATOM     22  C   UNL     1     -49.704  27.250  25.848  1.00  0.00     0.005 C 
ATOM     23  H   UNL     1     -49.544  27.776  26.796  1.00  0.00     0.045 H 
ATOM     24  H   UNL     1     -48.797  26.678  25.631  1.00  0.00     0.045 H 
ATOM     25  H   UNL     1     -50.525  26.533  25.957  1.00  0.00     0.045 H 
ENDBRANCH  20  22
ENDBRANCH   6  20
ENDBRANCH   4   5
ENDBRANCH   1   4
BRANCH   1  26
ATOM     26  C   UNL     1     -46.363  35.566  27.976  1.00  0.00     0.123 C 
ATOM     27  O   UNL     1     -46.152  36.624  27.017  1.00  0.00    -0.345 OA
ATOM     28  C   UNL     1     -46.449  36.261  29.324  1.00  0.00     0.119 C 
ATOM     29  H   UNL     1     -45.491  34.900  27.926  1.00  0.00     0.067 H 
ATOM     30  C   UNL     1     -45.519  37.729  27.710  1.00  0.00     0.169 C 
ATOM     31  C   UNL     1     -45.381  37.324  29.174  1.00  0.00     0.173 C 
ATOM     32  H   UNL     1     -47.430  36.724  29.483  1.00  0.00     0.066 H 
ATOM     33  H   UNL     1     -44.540  37.890  27.244  1.00  0.00     0.088 H 
ATOM     34  F   UNL     1     -45.617  38.326  30.053  1.00  0.00    -0.239 F 
ATOM     35  H   UNL     1     -44.386  36.915  29.385  1.00  0.00     0.074 H 
BRANCH  28  36
ATOM     36  O   UNL     1     -46.193  35.374  30.404  1.00  0.00    -0.387 OA
ATOM     37  H   UNL     1     -46.912  35.498  31.054  1.00  0.00     0.211 HD
ENDBRANCH  28  36
BRANCH  30  38
ATOM     38  N   UNL     1     -46.309  38.934  27.502  1.00  0.00    -0.302 N 
ATOM     39  C   UNL     1     -47.584  39.177  27.952  1.00  0.00     0.017 A 
ATOM     40  C   UNL     1     -45.850  40.030  26.813  1.00  0.00     0.148 A 
ATOM     41  C   UNL     1     -47.944  40.455  27.562  1.00  0.00     0.014 A 
ATOM     42  H   UNL     1     -48.127  38.429  28.517  1.00  0.00     0.083 H 
ATOM     43  C   UNL     1     -46.845  41.001  26.823  1.00  0.00     0.069 A 
ATOM     44  N   UNL     1     -44.639  40.126  26.239  1.00  0.00    -0.218 NA
ATOM     45  C   UNL     1     -46.552  42.195  26.144  1.00  0.00     0.136 A 
ATOM     46  C   UNL     1     -44.472  41.316  25.640  1.00  0.00     0.120 A 
ATOM     47  N   UNL     1     -45.348  42.334  25.555  1.00  0.00    -0.219 NA
ATOM     48  H   UNL     1     -43.512  41.477  25.159  1.00  0.00     0.106 H 
BRANCH  41  49
ATOM     49  C   UNL     1     -49.222  41.040  27.916  1.00  0.00     0.002 A 
ATOM     50  C   UNL     1     -49.545  41.313  29.246  1.00  0.00    -0.051 A 
ATOM     51  C   UNL     1     -50.175  41.347  26.949  1.00  0.00     0.035 A 
ATOM     52  C   UNL     1     -50.782  41.875  29.556  1.00  0.00    -0.043 A 
ATOM     53  H   UNL     1     -48.842  41.087  30.046  1.00  0.00     0.063 H 
ATOM     54  N   UNL     1     -51.386  41.895  27.220  1.00  0.00    -0.264 NA
ATOM     55  H   UNL     1     -49.990  41.164  25.894  1.00  0.00     0.085 H 
ATOM     56  C   UNL     1     -51.659  42.146  28.518  1.00  0.00     0.027 A 
ATOM     57  H   UNL     1     -51.052  42.095  30.582  1.00  0.00     0.064 H 
ATOM     58  H   UNL     1     -52.635  42.584  28.710  1.00  0.00     0.084 H 
ENDBRANCH  41  49
BRANCH  45  59
ATOM     59  N   UNL     1     -47.437  43.257  26.006  1.00  0.00    -0.383 N 
ATOM     60  H   UNL     1     -48.304  43.015  25.544  1.00  0.00     0.158 HD
ATOM     61  H   UNL     1     -46.952  44.066  25.635  1.00  0.00     0.158 HD
ENDBRANCH  45  59
ENDBRANCH  30  38
ENDBRANCH   1  26
TORSDOF 9
ENDMDL
MODEL 5
REMARK VINA RESULT:      -9.0      2.887     11.651
REMARK SMILES CNc1ccc2ccc(OC[C@H]3O[C@@H](n4cc(-c5cccnc5)c5c(N)ncnc54)[C@@H](F)[C@@H]3O)cc2n1
REMARK SMILES IDX 11 1 10 4 9 5 3 6 4 7 37 8 5 9 36 11 6 12 35 14 7 15 8 17
REMARK SMILES IDX 2 20 1 22 12 26 13 27 33 28 14 30 31 31 32 34 34 36 15 38
REMARK SMILES IDX 16 39 30 40 17 41 24 43 29 44 25 45 28 46 27 47 18 49 19 50
REMARK SMILES IDX 23 51 20 52 22 54 21 56 26 59
REMARK H PARENT 11 2 11 3 4 10 5 13 35 16 7 18 8 19 2 21 1 23 1 24 1 25 12 29
REMARK H PARENT 33 32 14 33 31 35 34 37 16 42 28 48 19 53 23 55 20 57 21 58
REMARK H PARENT 26 60 26 61
REMARK Flexibility Score: inf
ROOT
ATOM      1  C   UNL     1     -46.570  33.657  27.052  1.00  0.00     0.117 C 
ATOM      2  H   UNL     1     -46.553  32.710  27.604  1.00  0.00     0.073 H 
ATOM      3  H   UNL     1     -45.554  33.954  26.764  1.00  0.00     0.073 H 
ENDROOT
BRANCH   1   4
ATOM      4  O   UNL     1     -47.149  34.677  27.871  1.00  0.00    -0.491 OA
BRANCH   4   5
ATOM      5  C   UNL     1     -46.738  35.964  27.656  1.00  0.00     0.121 A 
ATOM      6  C   UNL     1     -43.760  39.322  29.263  1.00  0.00     0.126 A 
ATOM      7  C   UNL     1     -44.183  40.224  28.293  1.00  0.00    -0.019 A 
ATOM      8  N   UNL     1     -44.266  38.074  29.335  1.00  0.00    -0.231 NA
ATOM      9  C   UNL     1     -45.166  39.840  27.386  1.00  0.00    -0.049 A 
ATOM     10  H   UNL     1     -43.744  41.213  28.234  1.00  0.00     0.066 H 
ATOM     11  C   UNL     1     -45.217  37.696  28.460  1.00  0.00     0.076 A 
ATOM     12  C   UNL     1     -45.705  38.554  27.459  1.00  0.00     0.001 A 
ATOM     13  H   UNL     1     -45.495  40.544  26.627  1.00  0.00     0.063 H 
ATOM     14  C   UNL     1     -45.748  36.414  28.537  1.00  0.00     0.007 A 
ATOM     15  C   UNL     1     -46.698  38.114  26.568  1.00  0.00    -0.049 A 
ATOM     16  H   UNL     1     -45.378  35.745  29.308  1.00  0.00     0.069 H 
ATOM     17  C   UNL     1     -47.212  36.821  26.668  1.00  0.00    -0.019 A 
ATOM     18  H   UNL     1     -47.075  38.776  25.792  1.00  0.00     0.063 H 
ATOM     19  H   UNL     1     -47.977  36.518  25.960  1.00  0.00     0.066 H 
BRANCH   6  20
ATOM     20  N   UNL     1     -42.748  39.736  30.149  1.00  0.00    -0.373 N 
ATOM     21  H   UNL     1     -42.145  38.944  30.350  1.00  0.00     0.161 HD
BRANCH  20  22
ATOM     22  C   UNL     1     -41.989  40.887  29.687  1.00  0.00     0.005 C 
ATOM     23  H   UNL     1     -41.691  40.780  28.638  1.00  0.00     0.045 H 
ATOM     24  H   UNL     1     -41.075  40.971  30.282  1.00  0.00     0.045 H 
ATOM     25  H   UNL     1     -42.551  41.819  29.818  1.00  0.00     0.045 H 
ENDBRANCH  20  22
ENDBRANCH   6  20
ENDBRANCH   4   5
ENDBRANCH   1   4
BRANCH   1  26
ATOM     26  C   UNL     1     -47.429  33.501  25.796  1.00  0.00     0.123 C 
ATOM     27  O   UNL     1     -46.784  32.638  24.835  1.00  0.00    -0.345 OA
ATOM     28  C   UNL     1     -48.770  32.847  26.083  1.00  0.00     0.119 C 
ATOM     29  H   UNL     1     -47.558  34.482  25.319  1.00  0.00     0.067 H 
ATOM     30  C   UNL     1     -47.821  31.929  24.113  1.00  0.00     0.169 C 
ATOM     31  C   UNL     1     -49.160  32.361  24.703  1.00  0.00     0.173 C 
ATOM     32  H   UNL     1     -48.672  32.001  26.772  1.00  0.00     0.066 H 
ATOM     33  H   UNL     1     -47.737  32.211  23.057  1.00  0.00     0.088 H 
ATOM     34  F   UNL     1     -50.066  31.363  24.817  1.00  0.00    -0.239 F 
ATOM     35  H   UNL     1     -49.614  33.167  24.115  1.00  0.00     0.074 H 
BRANCH  28  36
ATOM     36  O   UNL     1     -49.709  33.762  26.628  1.00  0.00    -0.387 OA
ATOM     37  H   UNL     1     -50.529  33.262  26.806  1.00  0.00     0.211 HD
ENDBRANCH  28  36
BRANCH  30  38
ATOM     38  N   UNL     1     -47.569  30.497  24.206  1.00  0.00    -0.302 N 
ATOM     39  C   UNL     1     -48.267  29.579  24.954  1.00  0.00     0.017 A 
ATOM     40  C   UNL     1     -46.569  29.858  23.516  1.00  0.00     0.148 A 
ATOM     41  C   UNL     1     -47.718  28.330  24.727  1.00  0.00     0.014 A 
ATOM     42  H   UNL     1     -49.098  29.886  25.578  1.00  0.00     0.083 H 
ATOM     43  C   UNL     1     -46.625  28.503  23.818  1.00  0.00     0.069 A 
ATOM     44  N   UNL     1     -45.698  30.462  22.689  1.00  0.00    -0.218 NA
ATOM     45  C   UNL     1     -45.654  27.692  23.207  1.00  0.00     0.136 A 
ATOM     46  C   UNL     1     -44.836  29.582  22.154  1.00  0.00     0.120 A 
ATOM     47  N   UNL     1     -44.762  28.256  22.370  1.00  0.00    -0.219 NA
ATOM     48  H   UNL     1     -44.103  29.991  21.465  1.00  0.00     0.106 H 
BRANCH  41  49
ATOM     49  C   UNL     1     -48.253  27.129  25.337  1.00  0.00     0.002 A 
ATOM     50  C   UNL     1     -49.542  26.683  25.039  1.00  0.00    -0.051 A 
ATOM     51  C   UNL     1     -47.509  26.378  26.243  1.00  0.00     0.035 A 
ATOM     52  C   UNL     1     -50.029  25.525  25.641  1.00  0.00    -0.043 A 
ATOM     53  H   UNL     1     -50.173  27.233  24.344  1.00  0.00     0.063 H 
ATOM     54  N   UNL     1     -47.956  25.247  26.843  1.00  0.00    -0.264 NA
ATOM     55  H   UNL     1     -46.498  26.665  26.518  1.00  0.00     0.085 H 
ATOM     56  C   UNL     1     -49.206  24.848  26.527  1.00  0.00     0.027 A 
ATOM     57  H   UNL     1     -51.027  25.161  25.423  1.00  0.00     0.064 H 
ATOM     58  H   UNL     1     -49.542  23.941  27.021  1.00  0.00     0.084 H 
ENDBRANCH  41  49
BRANCH  45  59
ATOM     59  N   UNL     1     -45.524  26.326  23.425  1.00  0.00    -0.383 N 
ATOM     60  H   UNL     1     -44.764  25.896  22.913  1.00  0.00     0.158 HD
ATOM     61  H   UNL     1     -46.426  25.872  23.334  1.00  0.00     0.158 HD
ENDBRANCH  45  59
ENDBRANCH  30  38
ENDBRANCH   1  26
TORSDOF 9
ENDMDL
MODEL 6
REMARK VINA RESULT:      -8.8      3.440     12.110
REMARK SMILES CNc1ccc2ccc(OC[C@H]3O[C@@H](n4cc(-c5cccnc5)c5c(N)ncnc54)[C@@H](F)[C@@H]3O)cc2n1
REMARK SMILES IDX 11 1 10 4 9 5 3 6 4 7 37 8 5 9 36 11 6 12 35 14 7 15 8 17
REMARK SMILES IDX 2 20 1 22 12 26 13 27 33 28 14 30 31 31 32 34 34 36 15 38
REMARK SMILES IDX 16 39 30 40 17 41 24 43 29 44 25 45 28 46 27 47 18 49 19 50
REMARK SMILES IDX 23 51 20 52 22 54 21 56 26 59
REMARK H PARENT 11 2 11 3 4 10 5 13 35 16 7 18 8 19 2 21 1 23 1 24 1 25 12 29
REMARK H PARENT 33 32 14 33 31 35 34 37 16 42 28 48 19 53 23 55 20 57 21 58
REMARK H PARENT 26 60 26 61
REMARK Flexibility Score: inf
ROOT
ATOM      1  C   UNL     1     -46.592  32.929  26.573  1.00  0.00     0.117 C 
ATOM      2  H   UNL     1     -46.618  31.892  26.931  1.00  0.00     0.073 H 
ATOM      3  H   UNL     1     -45.606  33.170  26.159  1.00  0.00     0.073 H 
ENDROOT
BRANCH   1   4
ATOM      4  O   UNL     1     -46.881  33.815  27.659  1.00  0.00    -0.491 OA
BRANCH   4   5
ATOM      5  C   UNL     1     -46.626  35.145  27.469  1.00  0.00     0.121 A 
ATOM      6  C   UNL     1     -44.269  38.865  29.295  1.00  0.00     0.126 A 
ATOM      7  C   UNL     1     -44.722  39.705  28.283  1.00  0.00    -0.019 A 
ATOM      8  N   UNL     1     -44.610  37.561  29.335  1.00  0.00    -0.231 NA
ATOM      9  C   UNL     1     -45.562  39.196  27.298  1.00  0.00    -0.049 A 
ATOM     10  H   UNL     1     -44.413  40.743  28.253  1.00  0.00     0.066 H 
ATOM     11  C   UNL     1     -45.423  37.061  28.385  1.00  0.00     0.076 A 
ATOM     12  C   UNL     1     -45.931  37.850  27.337  1.00  0.00     0.001 A 
ATOM     13  H   UNL     1     -45.914  39.851  26.507  1.00  0.00     0.063 H 
ATOM     14  C   UNL     1     -45.784  35.721  28.427  1.00  0.00     0.007 A 
ATOM     15  C   UNL     1     -46.776  37.284  26.368  1.00  0.00    -0.049 A 
ATOM     16  H   UNL     1     -45.398  35.104  29.234  1.00  0.00     0.069 H 
ATOM     17  C   UNL     1     -47.122  35.934  26.435  1.00  0.00    -0.019 A 
ATOM     18  H   UNL     1     -47.168  37.892  25.555  1.00  0.00     0.063 H 
ATOM     19  H   UNL     1     -47.776  35.534  25.667  1.00  0.00     0.066 H 
BRANCH   6  20
ATOM     20  N   UNL     1     -43.401  39.407  30.261  1.00  0.00    -0.373 N 
ATOM     21  H   UNL     1     -42.929  38.646  30.740  1.00  0.00     0.161 HD
BRANCH  20  22
ATOM     22  C   UNL     1     -42.458  40.379  29.732  1.00  0.00     0.005 C 
ATOM     23  H   UNL     1     -41.421  40.051  29.866  1.00  0.00     0.045 H 
ATOM     24  H   UNL     1     -42.579  41.322  30.275  1.00  0.00     0.045 H 
ATOM     25  H   UNL     1     -42.645  40.587  28.672  1.00  0.00     0.045 H 
ENDBRANCH  20  22
ENDBRANCH   6  20
ENDBRANCH   4   5
ENDBRANCH   1   4
BRANCH   1  26
ATOM     26  C   UNL     1     -47.659  33.124  25.495  1.00  0.00     0.123 C 
ATOM     27  O   UNL     1     -47.474  32.187  24.412  1.00  0.00    -0.345 OA
ATOM     28  C   UNL     1     -49.065  32.867  26.010  1.00  0.00     0.119 C 
ATOM     29  H   UNL     1     -47.568  34.134  25.072  1.00  0.00     0.067 H 
ATOM     30  C   UNL     1     -48.783  31.866  23.878  1.00  0.00     0.169 C 
ATOM     31  C   UNL     1     -49.811  32.621  24.715  1.00  0.00     0.173 C 
ATOM     32  H   UNL     1     -49.109  31.979  26.651  1.00  0.00     0.066 H 
ATOM     33  H   UNL     1     -48.800  32.191  22.833  1.00  0.00     0.088 H 
ATOM     34  F   UNL     1     -50.941  31.922  24.973  1.00  0.00    -0.239 F 
ATOM     35  H   UNL     1     -50.097  33.566  24.240  1.00  0.00     0.074 H 
BRANCH  28  36
ATOM     36  O   UNL     1     -49.581  33.970  26.740  1.00  0.00    -0.387 OA
ATOM     37  H   UNL     1     -50.052  34.543  26.103  1.00  0.00     0.211 HD
ENDBRANCH  28  36
BRANCH  30  38
ATOM     38  N   UNL     1     -48.958  30.420  23.892  1.00  0.00    -0.302 N 
ATOM     39  C   UNL     1     -48.305  29.513  24.692  1.00  0.00     0.017 A 
ATOM     40  C   UNL     1     -49.847  29.758  23.082  1.00  0.00     0.148 A 
ATOM     41  C   UNL     1     -48.795  28.252  24.404  1.00  0.00     0.014 A 
ATOM     42  H   UNL     1     -47.555  29.837  25.403  1.00  0.00     0.083 H 
ATOM     43  C   UNL     1     -49.772  28.399  23.367  1.00  0.00     0.069 A 
ATOM     44  N   UNL     1     -50.648  30.345  22.177  1.00  0.00    -0.218 NA
ATOM     45  C   UNL     1     -50.609  27.561  22.613  1.00  0.00     0.136 A 
ATOM     46  C   UNL     1     -51.411  29.444  21.536  1.00  0.00     0.120 A 
ATOM     47  N   UNL     1     -51.430  28.109  21.695  1.00  0.00    -0.219 NA
ATOM     48  H   UNL     1     -52.095  29.842  20.792  1.00  0.00     0.106 H 
BRANCH  41  49
ATOM     49  C   UNL     1     -48.342  27.068  25.108  1.00  0.00     0.002 A 
ATOM     50  C   UNL     1     -47.021  26.631  25.005  1.00  0.00    -0.051 A 
ATOM     51  C   UNL     1     -49.204  26.321  25.906  1.00  0.00     0.035 A 
ATOM     52  C   UNL     1     -46.615  25.489  25.693  1.00  0.00    -0.043 A 
ATOM     53  H   UNL     1     -46.304  27.170  24.389  1.00  0.00     0.063 H 
ATOM     54  N   UNL     1     -48.838  25.207  26.587  1.00  0.00    -0.264 NA
ATOM     55  H   UNL     1     -50.245  26.605  26.033  1.00  0.00     0.085 H 
ATOM     56  C   UNL     1     -47.551  24.818  26.464  1.00  0.00     0.027 A 
ATOM     57  H   UNL     1     -45.593  25.133  25.627  1.00  0.00     0.064 H 
ATOM     58  H   UNL     1     -47.282  23.923  27.018  1.00  0.00     0.084 H 
ENDBRANCH  41  49
BRANCH  45  59
ATOM     59  N   UNL     1     -50.639  26.176  22.724  1.00  0.00    -0.383 N 
ATOM     60  H   UNL     1     -49.948  25.701  22.157  1.00  0.00     0.158 HD
ATOM     61  H   UNL     1     -51.590  25.841  22.629  1.00  0.00     0.158 HD
ENDBRANCH  45  59
ENDBRANCH  30  38
ENDBRANCH   1  26
TORSDOF 9
ENDMDL
MODEL 7
REMARK VINA RESULT:      -8.8      1.862      2.894
REMARK SMILES CNc1ccc2ccc(OC[C@H]3O[C@@H](n4cc(-c5cccnc5)c5c(N)ncnc54)[C@@H](F)[C@@H]3O)cc2n1
REMARK SMILES IDX 11 1 10 4 9 5 3 6 4 7 37 8 5 9 36 11 6 12 35 14 7 15 8 17
REMARK SMILES IDX 2 20 1 22 12 26 13 27 33 28 14 30 31 31 32 34 34 36 15 38
REMARK SMILES IDX 16 39 30 40 17 41 24 43 29 44 25 45 28 46 27 47 18 49 19 50
REMARK SMILES IDX 23 51 20 52 22 54 21 56 26 59
REMARK H PARENT 11 2 11 3 4 10 5 13 35 16 7 18 8 19 2 21 1 23 1 24 1 25 12 29
REMARK H PARENT 33 32 14 33 31 35 34 37 16 42 28 48 19 53 23 55 20 57 21 58
REMARK H PARENT 26 60 26 61
REMARK Flexibility Score: inf
ROOT
ATOM      1  C   UNL     1     -47.689  36.215  28.578  1.00  0.00     0.117 C 
ATOM      2  H   UNL     1     -47.939  35.243  29.021  1.00  0.00     0.073 H 
ATOM      3  H   UNL     1     -48.311  37.007  29.012  1.00  0.00     0.073 H 
ENDROOT
BRANCH   1   4
ATOM      4  O   UNL     1     -47.902  36.165  27.164  1.00  0.00    -0.491 OA
BRANCH   4   5
ATOM      5  C   UNL     1     -48.190  34.945  26.615  1.00  0.00     0.121 A 
ATOM      6  C   UNL     1     -46.345  31.436  23.969  1.00  0.00     0.126 A 
ATOM      7  C   UNL     1     -47.522  30.700  24.046  1.00  0.00    -0.019 A 
ATOM      8  N   UNL     1     -46.219  32.631  24.580  1.00  0.00    -0.231 NA
ATOM      9  C   UNL     1     -48.605  31.214  24.752  1.00  0.00    -0.049 A 
ATOM     10  H   UNL     1     -47.594  29.728  23.571  1.00  0.00     0.066 H 
ATOM     11  C   UNL     1     -47.263  33.135  25.266  1.00  0.00     0.076 A 
ATOM     12  C   UNL     1     -48.489  32.456  25.379  1.00  0.00     0.001 A 
ATOM     13  H   UNL     1     -49.523  30.638  24.814  1.00  0.00     0.063 H 
ATOM     14  C   UNL     1     -47.141  34.370  25.889  1.00  0.00     0.007 A 
ATOM     15  C   UNL     1     -49.550  33.022  26.106  1.00  0.00    -0.049 A 
ATOM     16  H   UNL     1     -46.197  34.903  25.806  1.00  0.00     0.069 H 
ATOM     17  C   UNL     1     -49.398  34.265  26.723  1.00  0.00    -0.019 A 
ATOM     18  H   UNL     1     -50.498  32.497  26.196  1.00  0.00     0.063 H 
ATOM     19  H   UNL     1     -50.240  34.667  27.276  1.00  0.00     0.066 H 
BRANCH   6  20
ATOM     20  N   UNL     1     -45.263  30.874  23.267  1.00  0.00    -0.373 N 
ATOM     21  H   UNL     1     -44.668  30.379  23.925  1.00  0.00     0.161 HD
BRANCH  20  22
ATOM     22  C   UNL     1     -45.654  30.027  22.151  1.00  0.00     0.005 C 
ATOM     23  H   UNL     1     -45.196  29.034  22.218  1.00  0.00     0.045 H 
ATOM     24  H   UNL     1     -45.311  30.488  21.220  1.00  0.00     0.045 H 
ATOM     25  H   UNL     1     -46.743  29.927  22.084  1.00  0.00     0.045 H 
ENDBRANCH  20  22
ENDBRANCH   6  20
ENDBRANCH   4   5
ENDBRANCH   1   4
BRANCH   1  26
ATOM     26  C   UNL     1     -46.214  36.529  28.833  1.00  0.00     0.123 C 
ATOM     27  O   UNL     1     -45.591  37.070  27.648  1.00  0.00    -0.345 OA
ATOM     28  C   UNL     1     -46.019  37.588  29.905  1.00  0.00     0.119 C 
ATOM     29  H   UNL     1     -45.684  35.602  29.088  1.00  0.00     0.067 H 
ATOM     30  C   UNL     1     -44.569  38.005  28.074  1.00  0.00     0.169 C 
ATOM     31  C   UNL     1     -44.613  38.059  29.598  1.00  0.00     0.173 C 
ATOM     32  H   UNL     1     -46.730  38.415  29.797  1.00  0.00     0.066 H 
ATOM     33  H   UNL     1     -43.607  37.627  27.713  1.00  0.00     0.088 H 
ATOM     34  F   UNL     1     -44.429  39.295  30.117  1.00  0.00    -0.239 F 
ATOM     35  H   UNL     1     -43.867  37.390  30.043  1.00  0.00     0.074 H 
BRANCH  28  36
ATOM     36  O   UNL     1     -46.146  37.057  31.216  1.00  0.00    -0.387 OA
ATOM     37  H   UNL     1     -46.129  36.083  31.135  1.00  0.00     0.211 HD
ENDBRANCH  28  36
BRANCH  30  38
ATOM     38  N   UNL     1     -44.807  39.291  27.431  1.00  0.00    -0.302 N 
ATOM     39  C   UNL     1     -43.886  40.074  26.779  1.00  0.00     0.017 A 
ATOM     40  C   UNL     1     -46.038  39.895  27.381  1.00  0.00     0.148 A 
ATOM     41  C   UNL     1     -44.538  41.191  26.288  1.00  0.00     0.014 A 
ATOM     42  H   UNL     1     -42.847  39.773  26.711  1.00  0.00     0.083 H 
ATOM     43  C   UNL     1     -45.912  41.089  26.680  1.00  0.00     0.069 A 
ATOM     44  N   UNL     1     -47.163  39.397  27.922  1.00  0.00    -0.218 NA
ATOM     45  C   UNL     1     -47.082  41.855  26.545  1.00  0.00     0.136 A 
ATOM     46  C   UNL     1     -48.212  40.208  27.712  1.00  0.00     0.120 A 
ATOM     47  N   UNL     1     -48.232  41.391  27.072  1.00  0.00    -0.219 NA
ATOM     48  H   UNL     1     -49.164  39.870  28.111  1.00  0.00     0.106 H 
BRANCH  41  49
ATOM     49  C   UNL     1     -43.855  42.205  25.509  1.00  0.00     0.002 A 
ATOM     50  C   UNL     1     -44.258  42.504  24.207  1.00  0.00    -0.051 A 
ATOM     51  C   UNL     1     -42.773  42.913  26.025  1.00  0.00     0.035 A 
ATOM     52  C   UNL     1     -43.581  43.484  23.482  1.00  0.00    -0.043 A 
ATOM     53  H   UNL     1     -45.092  41.977  23.749  1.00  0.00     0.063 H 
ATOM     54  N   UNL     1     -42.098  43.872  25.344  1.00  0.00    -0.264 NA
ATOM     55  H   UNL     1     -42.409  42.734  27.032  1.00  0.00     0.085 H 
ATOM     56  C   UNL     1     -42.518  44.134  24.088  1.00  0.00     0.027 A 
ATOM     57  H   UNL     1     -43.878  43.731  22.470  1.00  0.00     0.064 H 
ATOM     58  H   UNL     1     -41.961  44.904  23.564  1.00  0.00     0.084 H 
ENDBRANCH  41  49
BRANCH  45  59
ATOM     59  N   UNL     1     -47.140  43.094  25.920  1.00  0.00    -0.383 N 
ATOM     60  H   UNL     1     -46.788  43.858  26.483  1.00  0.00     0.158 HD
ATOM     61  H   UNL     1     -48.058  43.234  25.514  1.00  0.00     0.158 HD
ENDBRANCH  45  59
ENDBRANCH  30  38
ENDBRANCH   1  26
TORSDOF 9
ENDMDL
