MODEL 1
REMARK VINA RESULT:     -10.9      0.000      0.000
REMARK SMILES Cn1ccnc1-c1ccc2ccc(OC[C@H]3O[C@@H](n4cc(Br)c5c(N)ncnc54)[C@@H](F)[C@@H]3O)cc2n1
REMARK SMILES IDX 15 1 14 4 13 5 7 6 8 7 36 8 9 9 35 11 10 12 34 14 11 15
REMARK SMILES IDX 12 17 6 20 2 21 3 22 4 23 5 25 1 27 16 31 17 32 32 33 18 35
REMARK SMILES IDX 30 36 31 39 33 41 19 43 20 44 29 45 21 46 23 48 28 49 22 50
REMARK SMILES IDX 24 51 27 52 26 53 25 55
REMARK H PARENT 15 2 15 3 8 10 9 13 34 16 11 18 12 19 3 24 4 26 1 28 1 29 1 30
REMARK H PARENT 16 34 32 37 18 38 30 40 33 42 20 47 27 54 25 56 25 57
REMARK Flexibility Score: inf
ROOT
ATOM      1  C   UNL     1     -46.139  35.473  27.018  1.00  0.00     0.117 C 
ATOM      2  H   UNL     1     -45.644  36.035  26.222  1.00  0.00     0.073 H 
ATOM      3  H   UNL     1     -45.443  34.646  27.213  1.00  0.00     0.073 H 
ENDROOT
BRANCH   1   4
ATOM      4  O   UNL     1     -47.368  34.869  26.623  1.00  0.00    -0.491 OA
BRANCH   4   5
ATOM      5  C   UNL     1     -47.361  33.702  25.915  1.00  0.00     0.121 A 
ATOM      6  C   UNL     1     -48.825  29.312  24.794  1.00  0.00     0.107 A 
ATOM      7  C   UNL     1     -47.845  29.173  23.819  1.00  0.00    -0.032 A 
ATOM      8  N   UNL     1     -48.965  30.442  25.532  1.00  0.00    -0.244 NA
ATOM      9  C   UNL     1     -46.965  30.225  23.597  1.00  0.00    -0.051 A 
ATOM     10  H   UNL     1     -47.764  28.255  23.244  1.00  0.00     0.065 H 
ATOM     11  C   UNL     1     -48.110  31.460  25.316  1.00  0.00     0.075 A 
ATOM     12  C   UNL     1     -47.082  31.393  24.354  1.00  0.00     0.000 A 
ATOM     13  H   UNL     1     -46.191  30.122  22.840  1.00  0.00     0.063 H 
ATOM     14  C   UNL     1     -48.231  32.621  26.072  1.00  0.00     0.006 A 
ATOM     15  C   UNL     1     -46.207  32.475  24.178  1.00  0.00    -0.049 A 
ATOM     16  H   UNL     1     -49.027  32.637  26.805  1.00  0.00     0.069 H 
ATOM     17  C   UNL     1     -46.348  33.618  24.962  1.00  0.00    -0.019 A 
ATOM     18  H   UNL     1     -45.409  32.432  23.441  1.00  0.00     0.063 H 
ATOM     19  H   UNL     1     -45.659  34.450  24.831  1.00  0.00     0.066 H 
BRANCH   6  20
ATOM     20  C   UNL     1     -49.758  28.203  25.063  1.00  0.00     0.158 A 
ATOM     21  N   UNL     1     -49.585  27.178  25.977  1.00  0.00    -0.333 N 
ATOM     22  C   UNL     1     -50.678  26.353  25.911  1.00  0.00     0.024 A 
ATOM     23  C   UNL     1     -51.487  26.902  24.950  1.00  0.00     0.046 A 
ATOM     24  H   UNL     1     -50.784  25.474  26.531  1.00  0.00     0.083 H 
ATOM     25  N   UNL     1     -50.917  28.033  24.434  1.00  0.00    -0.235 NA
ATOM     26  H   UNL     1     -52.447  26.545  24.604  1.00  0.00     0.086 H 
BRANCH  21  27
ATOM     27  C   UNL     1     -48.469  26.970  26.867  1.00  0.00     0.013 C 
ATOM     28  H   UNL     1     -48.839  26.802  27.882  1.00  0.00     0.046 H 
ATOM     29  H   UNL     1     -47.912  26.089  26.540  1.00  0.00     0.046 H 
ATOM     30  H   UNL     1     -47.848  27.868  26.858  1.00  0.00     0.046 H 
ENDBRANCH  21  27
ENDBRANCH   6  20
ENDBRANCH   4   5
ENDBRANCH   1   4
BRANCH   1  31
ATOM     31  C   UNL     1     -46.273  36.274  28.318  1.00  0.00     0.123 C 
ATOM     32  O   UNL     1     -45.029  36.950  28.605  1.00  0.00    -0.345 OA
ATOM     33  C   UNL     1     -47.365  37.341  28.316  1.00  0.00     0.119 C 
ATOM     34  H   UNL     1     -46.463  35.567  29.137  1.00  0.00     0.067 H 
ATOM     35  C   UNL     1     -45.346  38.212  29.230  1.00  0.00     0.169 C 
ATOM     36  C   UNL     1     -46.857  38.300  29.369  1.00  0.00     0.173 C 
ATOM     37  H   UNL     1     -47.460  37.850  27.354  1.00  0.00     0.066 H 
ATOM     38  H   UNL     1     -44.880  38.201  30.222  1.00  0.00     0.088 H 
ATOM     39  F   UNL     1     -47.345  39.545  29.157  1.00  0.00    -0.239 F 
ATOM     40  H   UNL     1     -47.177  37.984  30.368  1.00  0.00     0.074 H 
BRANCH  33  41
ATOM     41  O   UNL     1     -48.639  36.816  28.675  1.00  0.00    -0.387 OA
ATOM     42  H   UNL     1     -48.489  36.152  29.373  1.00  0.00     0.211 HD
ENDBRANCH  33  41
BRANCH  35  43
ATOM     43  N   UNL     1     -44.729  39.306  28.490  1.00  0.00    -0.302 N 
ATOM     44  C   UNL     1     -45.196  39.761  27.274  1.00  0.00     0.023 A 
ATOM     45  C   UNL     1     -43.611  40.028  28.842  1.00  0.00     0.148 A 
ATOM     46  C   UNL     1     -44.355  40.764  26.861  1.00  0.00     0.049 A 
ATOM     47  H   UNL     1     -46.072  39.330  26.808  1.00  0.00     0.083 H 
ATOM     48  C   UNL     1     -43.347  40.953  27.835  1.00  0.00     0.075 A 
ATOM     49  N   UNL     1     -42.895  39.867  29.969  1.00  0.00    -0.218 NA
ATOM     50  Br  UNL     1     -44.528  41.733  25.262  1.00  0.00    -0.048 Br
ATOM     51  C   UNL     1     -42.228  41.781  28.018  1.00  0.00     0.137 A 
ATOM     52  C   UNL     1     -41.877  40.736  30.049  1.00  0.00     0.120 A 
ATOM     53  N   UNL     1     -41.504  41.661  29.148  1.00  0.00    -0.219 NA
ATOM     54  H   UNL     1     -41.278  40.687  30.952  1.00  0.00     0.106 H 
BRANCH  51  55
ATOM     55  N   UNL     1     -41.813  42.745  27.113  1.00  0.00    -0.383 N 
ATOM     56  H   UNL     1     -40.812  42.701  26.958  1.00  0.00     0.158 HD
ATOM     57  H   UNL     1     -42.216  43.663  27.242  1.00  0.00     0.158 HD
ENDBRANCH  51  55
ENDBRANCH  35  43
ENDBRANCH   1  31
TORSDOF 8
ENDMDL
MODEL 2
REMARK VINA RESULT:      -9.7      3.792     11.457
REMARK SMILES Cn1ccnc1-c1ccc2ccc(OC[C@H]3O[C@@H](n4cc(Br)c5c(N)ncnc54)[C@@H](F)[C@@H]3O)cc2n1
REMARK SMILES IDX 15 1 14 4 13 5 7 6 8 7 36 8 9 9 35 11 10 12 34 14 11 15
REMARK SMILES IDX 12 17 6 20 2 21 3 22 4 23 5 25 1 27 16 31 17 32 32 33 18 35
REMARK SMILES IDX 30 36 31 39 33 41 19 43 20 44 29 45 21 46 23 48 28 49 22 50
REMARK SMILES IDX 24 51 27 52 26 53 25 55
REMARK H PARENT 15 2 15 3 8 10 9 13 34 16 11 18 12 19 3 24 4 26 1 28 1 29 1 30
REMARK H PARENT 16 34 32 37 18 38 30 40 33 42 20 47 27 54 25 56 25 57
REMARK Flexibility Score: inf
ROOT
ATOM      1  C   UNL     1     -46.491  33.359  26.475  1.00  0.00     0.117 C 
ATOM      2  H   UNL     1     -45.932  32.458  26.741  1.00  0.00     0.073 H 
ATOM      3  H   UNL     1     -45.721  34.019  26.054  1.00  0.00     0.073 H 
ENDROOT
BRANCH   1   4
ATOM      4  O   UNL     1     -47.036  34.054  27.594  1.00  0.00    -0.491 OA
BRANCH   4   5
ATOM      5  C   UNL     1     -47.076  35.418  27.600  1.00  0.00     0.121 A 
ATOM      6  C   UNL     1     -45.218  39.801  27.524  1.00  0.00     0.107 A 
ATOM      7  C   UNL     1     -46.467  40.394  27.665  1.00  0.00    -0.032 A 
ATOM      8  N   UNL     1     -45.053  38.456  27.456  1.00  0.00    -0.244 NA
ATOM      9  C   UNL     1     -47.590  39.581  27.753  1.00  0.00    -0.051 A 
ATOM     10  H   UNL     1     -46.562  41.476  27.712  1.00  0.00     0.065 H 
ATOM     11  C   UNL     1     -46.143  37.670  27.544  1.00  0.00     0.075 A 
ATOM     12  C   UNL     1     -47.442  38.193  27.700  1.00  0.00     0.000 A 
ATOM     13  H   UNL     1     -48.570  40.037  27.870  1.00  0.00     0.063 H 
ATOM     14  C   UNL     1     -45.990  36.289  27.490  1.00  0.00     0.006 A 
ATOM     15  C   UNL     1     -48.544  37.331  27.802  1.00  0.00    -0.049 A 
ATOM     16  H   UNL     1     -44.978  35.920  27.375  1.00  0.00     0.069 H 
ATOM     17  C   UNL     1     -48.354  35.952  27.758  1.00  0.00    -0.019 A 
ATOM     18  H   UNL     1     -49.549  37.725  27.926  1.00  0.00     0.063 H 
ATOM     19  H   UNL     1     -49.209  35.287  27.849  1.00  0.00     0.066 H 
BRANCH   6  20
ATOM     20  C   UNL     1     -44.009  40.641  27.448  1.00  0.00     0.158 A 
ATOM     21  N   UNL     1     -43.031  40.774  28.417  1.00  0.00    -0.333 N 
ATOM     22  C   UNL     1     -42.085  41.653  27.958  1.00  0.00     0.024 A 
ATOM     23  C   UNL     1     -42.521  42.034  26.715  1.00  0.00     0.046 A 
ATOM     24  H   UNL     1     -41.211  41.925  28.534  1.00  0.00     0.083 H 
ATOM     25  N   UNL     1     -43.699  41.413  26.411  1.00  0.00    -0.235 NA
ATOM     26  H   UNL     1     -42.049  42.720  26.025  1.00  0.00     0.086 H 
BRANCH  21  27
ATOM     27  C   UNL     1     -42.970  40.123  29.704  1.00  0.00     0.013 C 
ATOM     28  H   UNL     1     -41.942  40.144  30.075  1.00  0.00     0.046 H 
ATOM     29  H   UNL     1     -43.613  40.658  30.405  1.00  0.00     0.046 H 
ATOM     30  H   UNL     1     -43.281  39.084  29.579  1.00  0.00     0.046 H 
ENDBRANCH  21  27
ENDBRANCH   6  20
ENDBRANCH   4   5
ENDBRANCH   1   4
BRANCH   1  31
ATOM     31  C   UNL     1     -47.532  33.113  25.377  1.00  0.00     0.123 C 
ATOM     32  O   UNL     1     -46.989  32.215  24.382  1.00  0.00    -0.345 OA
ATOM     33  C   UNL     1     -48.847  32.500  25.852  1.00  0.00     0.119 C 
ATOM     34  H   UNL     1     -47.739  34.071  24.882  1.00  0.00     0.067 H 
ATOM     35  C   UNL     1     -48.070  31.394  23.892  1.00  0.00     0.169 C 
ATOM     36  C   UNL     1     -49.347  31.832  24.590  1.00  0.00     0.173 C 
ATOM     37  H   UNL     1     -48.711  31.761  26.644  1.00  0.00     0.066 H 
ATOM     38  H   UNL     1     -48.149  31.583  22.815  1.00  0.00     0.088 H 
ATOM     39  F   UNL     1     -50.176  30.804  24.890  1.00  0.00    -0.239 F 
ATOM     40  H   UNL     1     -49.908  32.541  23.972  1.00  0.00     0.074 H 
BRANCH  33  41
ATOM     41  O   UNL     1     -49.771  33.484  26.309  1.00  0.00    -0.387 OA
ATOM     42  H   UNL     1     -50.433  33.605  25.603  1.00  0.00     0.211 HD
ENDBRANCH  33  41
BRANCH  35  43
ATOM     43  N   UNL     1     -47.735  29.983  24.045  1.00  0.00    -0.302 N 
ATOM     44  C   UNL     1     -48.491  29.097  24.783  1.00  0.00     0.023 A 
ATOM     45  C   UNL     1     -46.643  29.323  23.527  1.00  0.00     0.148 A 
ATOM     46  C   UNL     1     -47.860  27.879  24.735  1.00  0.00     0.049 A 
ATOM     47  H   UNL     1     -49.400  29.408  25.282  1.00  0.00     0.083 H 
ATOM     48  C   UNL     1     -46.691  27.995  23.947  1.00  0.00     0.075 A 
ATOM     49  N   UNL     1     -45.693  29.867  22.748  1.00  0.00    -0.218 NA
ATOM     50  Br  UNL     1     -48.463  26.312  25.575  1.00  0.00    -0.048 Br
ATOM     51  C   UNL     1     -45.646  27.161  23.518  1.00  0.00     0.137 A 
ATOM     52  C   UNL     1     -44.771  28.968  22.373  1.00  0.00     0.120 A 
ATOM     53  N   UNL     1     -44.690  27.671  22.716  1.00  0.00    -0.219 NA
ATOM     54  H   UNL     1     -43.992  29.331  21.711  1.00  0.00     0.106 H 
BRANCH  51  55
ATOM     55  N   UNL     1     -45.529  25.821  23.850  1.00  0.00    -0.383 N 
ATOM     56  H   UNL     1     -44.905  25.335  23.216  1.00  0.00     0.158 HD
ATOM     57  H   UNL     1     -46.394  25.356  24.087  1.00  0.00     0.158 HD
ENDBRANCH  51  55
ENDBRANCH  35  43
ENDBRANCH   1  31
TORSDOF 8
ENDMDL
MODEL 3
REMARK VINA RESULT:      -9.5      3.286     11.539
REMARK SMILES Cn1ccnc1-c1ccc2ccc(OC[C@H]3O[C@@H](n4cc(Br)c5c(N)ncnc54)[C@@H](F)[C@@H]3O)cc2n1
REMARK SMILES IDX 15 1 14 4 13 5 7 6 8 7 36 8 9 9 35 11 10 12 34 14 11 15
REMARK SMILES IDX 12 17 6 20 2 21 3 22 4 23 5 25 1 27 16 31 17 32 32 33 18 35
REMARK SMILES IDX 30 36 31 39 33 41 19 43 20 44 29 45 21 46 23 48 28 49 22 50
REMARK SMILES IDX 24 51 27 52 26 53 25 55
REMARK H PARENT 15 2 15 3 8 10 9 13 34 16 11 18 12 19 3 24 4 26 1 28 1 29 1 30
REMARK H PARENT 16 34 32 37 18 38 30 40 33 42 20 47 27 54 25 56 25 57
REMARK Flexibility Score: inf
ROOT
ATOM      1  C   UNL     1     -48.716  35.080  26.788  1.00  0.00     0.117 C 
ATOM      2  H   UNL     1     -48.488  35.689  25.909  1.00  0.00     0.073 H 
ATOM      3  H   UNL     1     -49.777  34.831  26.655  1.00  0.00     0.073 H 
ENDROOT
BRANCH   1   4
ATOM      4  O   UNL     1     -48.631  35.789  28.022  1.00  0.00    -0.491 OA
BRANCH   4   5
ATOM      5  C   UNL     1     -47.587  36.638  28.253  1.00  0.00     0.121 A 
ATOM      6  C   UNL     1     -44.695  40.299  27.301  1.00  0.00     0.107 A 
ATOM      7  C   UNL     1     -43.906  40.038  28.416  1.00  0.00    -0.032 A 
ATOM      8  N   UNL     1     -45.787  39.556  26.992  1.00  0.00    -0.244 NA
ATOM      9  C   UNL     1     -44.239  38.970  29.240  1.00  0.00    -0.051 A 
ATOM     10  H   UNL     1     -43.040  40.656  28.636  1.00  0.00     0.065 H 
ATOM     11  C   UNL     1     -46.107  38.520  27.791  1.00  0.00     0.075 A 
ATOM     12  C   UNL     1     -45.352  38.183  28.932  1.00  0.00     0.000 A 
ATOM     13  H   UNL     1     -43.623  38.756  30.110  1.00  0.00     0.063 H 
ATOM     14  C   UNL     1     -47.217  37.741  27.480  1.00  0.00     0.006 A 
ATOM     15  C   UNL     1     -45.718  37.084  29.723  1.00  0.00    -0.049 A 
ATOM     16  H   UNL     1     -47.771  38.023  26.594  1.00  0.00     0.069 H 
ATOM     17  C   UNL     1     -46.827  36.316  29.376  1.00  0.00    -0.019 A 
ATOM     18  H   UNL     1     -45.140  36.815  30.603  1.00  0.00     0.063 H 
ATOM     19  H   UNL     1     -47.100  35.458  29.985  1.00  0.00     0.066 H 
BRANCH   6  20
ATOM     20  C   UNL     1     -44.350  41.414  26.402  1.00  0.00     0.158 A 
ATOM     21  N   UNL     1     -43.148  42.096  26.351  1.00  0.00    -0.333 N 
ATOM     22  C   UNL     1     -43.241  43.063  25.383  1.00  0.00     0.024 A 
ATOM     23  C   UNL     1     -44.507  42.940  24.872  1.00  0.00     0.046 A 
ATOM     24  H   UNL     1     -42.426  43.733  25.148  1.00  0.00     0.083 H 
ATOM     25  N   UNL     1     -45.181  41.930  25.501  1.00  0.00    -0.235 NA
ATOM     26  H   UNL     1     -44.967  43.523  24.086  1.00  0.00     0.086 H 
BRANCH  21  27
ATOM     27  C   UNL     1     -41.971  41.870  27.155  1.00  0.00     0.013 C 
ATOM     28  H   UNL     1     -42.190  41.120  27.919  1.00  0.00     0.046 H 
ATOM     29  H   UNL     1     -41.167  41.502  26.513  1.00  0.00     0.046 H 
ATOM     30  H   UNL     1     -41.702  42.808  27.644  1.00  0.00     0.046 H 
ENDBRANCH  21  27
ENDBRANCH   6  20
ENDBRANCH   4   5
ENDBRANCH   1   4
BRANCH   1  31
ATOM     31  C   UNL     1     -47.937  33.761  26.818  1.00  0.00     0.123 C 
ATOM     32  O   UNL     1     -48.856  32.648  26.731  1.00  0.00    -0.345 OA
ATOM     33  C   UNL     1     -46.920  33.579  25.694  1.00  0.00     0.119 C 
ATOM     34  H   UNL     1     -47.421  33.690  27.785  1.00  0.00     0.067 H 
ATOM     35  C   UNL     1     -48.210  31.599  25.979  1.00  0.00     0.169 C 
ATOM     36  C   UNL     1     -46.812  32.073  25.618  1.00  0.00     0.173 C 
ATOM     37  H   UNL     1     -47.264  33.984  24.739  1.00  0.00     0.066 H 
ATOM     38  H   UNL     1     -48.150  30.726  26.639  1.00  0.00     0.088 H 
ATOM     39  F   UNL     1     -46.415  31.684  24.383  1.00  0.00    -0.239 F 
ATOM     40  H   UNL     1     -46.075  31.700  26.336  1.00  0.00     0.074 H 
BRANCH  33  41
ATOM     41  O   UNL     1     -45.659  34.166  26.002  1.00  0.00    -0.387 OA
ATOM     42  H   UNL     1     -45.205  34.331  25.155  1.00  0.00     0.211 HD
ENDBRANCH  33  41
BRANCH  35  43
ATOM     43  N   UNL     1     -49.043  31.211  24.847  1.00  0.00    -0.302 N 
ATOM     44  C   UNL     1     -49.993  32.035  24.282  1.00  0.00     0.023 A 
ATOM     45  C   UNL     1     -49.047  30.001  24.190  1.00  0.00     0.148 A 
ATOM     46  C   UNL     1     -50.601  31.331  23.273  1.00  0.00     0.049 A 
ATOM     47  H   UNL     1     -50.158  33.040  24.648  1.00  0.00     0.083 H 
ATOM     48  C   UNL     1     -50.021  30.043  23.194  1.00  0.00     0.075 A 
ATOM     49  N   UNL     1     -48.247  28.956  24.462  1.00  0.00    -0.218 NA
ATOM     50  Br  UNL     1     -51.976  31.982  22.173  1.00  0.00    -0.048 Br
ATOM     51  C   UNL     1     -50.177  28.885  22.416  1.00  0.00     0.137 A 
ATOM     52  C   UNL     1     -48.463  27.925  23.632  1.00  0.00     0.120 A 
ATOM     53  N   UNL     1     -49.373  27.828  22.649  1.00  0.00    -0.219 NA
ATOM     54  H   UNL     1     -47.824  27.058  23.772  1.00  0.00     0.106 H 
BRANCH  51  55
ATOM     55  N   UNL     1     -51.103  28.748  21.394  1.00  0.00    -0.383 N 
ATOM     56  H   UNL     1     -52.048  28.696  21.755  1.00  0.00     0.158 HD
ATOM     57  H   UNL     1     -50.854  28.091  20.668  1.00  0.00     0.158 HD
ENDBRANCH  51  55
ENDBRANCH  35  43
ENDBRANCH   1  31
TORSDOF 8
ENDMDL
MODEL 4
REMARK VINA RESULT:      -9.4      2.018      2.823
REMARK SMILES Cn1ccnc1-c1ccc2ccc(OC[C@H]3O[C@@H](n4cc(Br)c5c(N)ncnc54)[C@@H](F)[C@@H]3O)cc2n1
REMARK SMILES IDX 15 1 14 4 13 5 7 6 8 7 36 8 9 9 35 11 10 12 34 14 11 15
REMARK SMILES IDX 12 17 6 20 2 21 3 22 4 23 5 25 1 27 16 31 17 32 32 33 18 35
REMARK SMILES IDX 30 36 31 39 33 41 19 43 20 44 29 45 21 46 23 48 28 49 22 50
REMARK SMILES IDX 24 51 27 52 26 53 25 55
REMARK H PARENT 15 2 15 3 8 10 9 13 34 16 11 18 12 19 3 24 4 26 1 28 1 29 1 30
REMARK H PARENT 16 34 32 37 18 38 30 40 33 42 20 47 27 54 25 56 25 57
REMARK Flexibility Score: inf
ROOT
ATOM      1  C   UNL     1     -46.461  35.698  26.451  1.00  0.00     0.117 C 
ATOM      2  H   UNL     1     -47.460  35.733  26.009  1.00  0.00     0.073 H 
ATOM      3  H   UNL     1     -45.874  36.358  25.799  1.00  0.00     0.073 H 
ENDROOT
BRANCH   1   4
ATOM      4  O   UNL     1     -45.839  34.418  26.377  1.00  0.00    -0.491 OA
BRANCH   4   5
ATOM      5  C   UNL     1     -46.562  33.326  25.994  1.00  0.00     0.121 A 
ATOM      6  C   UNL     1     -48.873  30.534  22.906  1.00  0.00     0.107 A 
ATOM      7  C   UNL     1     -49.263  29.653  23.907  1.00  0.00    -0.032 A 
ATOM      8  N   UNL     1     -48.112  31.629  23.154  1.00  0.00    -0.244 NA
ATOM      9  C   UNL     1     -48.872  29.908  25.216  1.00  0.00    -0.051 A 
ATOM     10  H   UNL     1     -49.870  28.783  23.672  1.00  0.00     0.065 H 
ATOM     11  C   UNL     1     -47.734  31.875  24.423  1.00  0.00     0.075 A 
ATOM     12  C   UNL     1     -48.099  31.037  25.497  1.00  0.00     0.000 A 
ATOM     13  H   UNL     1     -49.179  29.227  26.007  1.00  0.00     0.063 H 
ATOM     14  C   UNL     1     -46.965  33.001  24.696  1.00  0.00     0.006 A 
ATOM     15  C   UNL     1     -47.694  31.347  26.803  1.00  0.00    -0.049 A 
ATOM     16  H   UNL     1     -46.707  33.625  23.851  1.00  0.00     0.069 H 
ATOM     17  C   UNL     1     -46.935  32.489  27.044  1.00  0.00    -0.019 A 
ATOM     18  H   UNL     1     -47.973  30.709  27.638  1.00  0.00     0.063 H 
ATOM     19  H   UNL     1     -46.633  32.732  28.060  1.00  0.00     0.066 H 
BRANCH   6  20
ATOM     20  C   UNL     1     -49.293  30.296  21.513  1.00  0.00     0.158 A 
ATOM     21  N   UNL     1     -50.395  30.837  20.876  1.00  0.00    -0.333 N 
ATOM     22  C   UNL     1     -50.431  30.359  19.593  1.00  0.00     0.024 A 
ATOM     23  C   UNL     1     -49.342  29.532  19.487  1.00  0.00     0.046 A 
ATOM     24  H   UNL     1     -51.201  30.636  18.887  1.00  0.00     0.083 H 
ATOM     25  N   UNL     1     -48.652  29.497  20.666  1.00  0.00    -0.235 NA
ATOM     26  H   UNL     1     -49.020  28.962  18.626  1.00  0.00     0.086 H 
BRANCH  21  27
ATOM     27  C   UNL     1     -51.369  31.751  21.424  1.00  0.00     0.013 C 
ATOM     28  H   UNL     1     -52.354  31.278  21.424  1.00  0.00     0.046 H 
ATOM     29  H   UNL     1     -51.091  31.996  22.451  1.00  0.00     0.046 H 
ATOM     30  H   UNL     1     -51.401  32.640  20.790  1.00  0.00     0.046 H 
ENDBRANCH  21  27
ENDBRANCH   6  20
ENDBRANCH   4   5
ENDBRANCH   1   4
BRANCH   1  31
ATOM     31  C   UNL     1     -46.413  36.290  27.863  1.00  0.00     0.123 C 
ATOM     32  O   UNL     1     -45.116  36.884  28.101  1.00  0.00    -0.345 OA
ATOM     33  C   UNL     1     -47.451  37.372  28.152  1.00  0.00     0.119 C 
ATOM     34  H   UNL     1     -46.539  35.470  28.583  1.00  0.00     0.067 H 
ATOM     35  C   UNL     1     -45.307  38.040  28.942  1.00  0.00     0.169 C 
ATOM     36  C   UNL     1     -46.787  38.143  29.271  1.00  0.00     0.173 C 
ATOM     37  H   UNL     1     -47.633  38.026  27.296  1.00  0.00     0.066 H 
ATOM     38  H   UNL     1     -44.732  37.864  29.859  1.00  0.00     0.088 H 
ATOM     39  F   UNL     1     -47.243  39.418  29.309  1.00  0.00    -0.239 F 
ATOM     40  H   UNL     1     -47.006  37.684  30.241  1.00  0.00     0.074 H 
BRANCH  33  41
ATOM     41  O   UNL     1     -48.698  36.829  28.576  1.00  0.00    -0.387 OA
ATOM     42  H   UNL     1     -49.235  37.572  28.909  1.00  0.00     0.211 HD
ENDBRANCH  33  41
BRANCH  35  43
ATOM     43  N   UNL     1     -44.732  39.221  28.308  1.00  0.00    -0.302 N 
ATOM     44  C   UNL     1     -45.193  39.748  27.120  1.00  0.00     0.023 A 
ATOM     45  C   UNL     1     -43.661  39.967  28.747  1.00  0.00     0.148 A 
ATOM     46  C   UNL     1     -44.397  40.822  26.811  1.00  0.00     0.049 A 
ATOM     47  H   UNL     1     -46.035  39.312  26.598  1.00  0.00     0.083 H 
ATOM     48  C   UNL     1     -43.423  40.983  27.824  1.00  0.00     0.075 A 
ATOM     49  N   UNL     1     -42.965  39.752  29.877  1.00  0.00    -0.218 NA
ATOM     50  Br  UNL     1     -44.585  41.907  25.290  1.00  0.00    -0.048 Br
ATOM     51  C   UNL     1     -42.354  41.849  28.103  1.00  0.00     0.137 A 
ATOM     52  C   UNL     1     -41.996  40.662  30.053  1.00  0.00     0.120 A 
ATOM     53  N   UNL     1     -41.651  41.675  29.239  1.00  0.00    -0.219 NA
ATOM     54  H   UNL     1     -41.415  40.572  30.966  1.00  0.00     0.106 H 
BRANCH  51  55
ATOM     55  N   UNL     1     -41.969  42.903  27.289  1.00  0.00    -0.383 N 
ATOM     56  H   UNL     1     -41.020  42.786  26.956  1.00  0.00     0.158 HD
ATOM     57  H   UNL     1     -42.229  43.823  27.618  1.00  0.00     0.158 HD
ENDBRANCH  51  55
ENDBRANCH  35  43
ENDBRANCH   1  31
TORSDOF 8
ENDMDL
MODEL 5
REMARK VINA RESULT:      -9.3      2.613      3.319
REMARK SMILES Cn1ccnc1-c1ccc2ccc(OC[C@H]3O[C@@H](n4cc(Br)c5c(N)ncnc54)[C@@H](F)[C@@H]3O)cc2n1
REMARK SMILES IDX 15 1 14 4 13 5 7 6 8 7 36 8 9 9 35 11 10 12 34 14 11 15
REMARK SMILES IDX 12 17 6 20 2 21 3 22 4 23 5 25 1 27 16 31 17 32 32 33 18 35
REMARK SMILES IDX 30 36 31 39 33 41 19 43 20 44 29 45 21 46 23 48 28 49 22 50
REMARK SMILES IDX 24 51 27 52 26 53 25 55
REMARK H PARENT 15 2 15 3 8 10 9 13 34 16 11 18 12 19 3 24 4 26 1 28 1 29 1 30
REMARK H PARENT 16 34 32 37 18 38 30 40 33 42 20 47 27 54 25 56 25 57
REMARK Flexibility Score: inf
ROOT
ATOM      1  C   UNL     1     -47.600  35.742  28.083  1.00  0.00     0.117 C 
ATOM      2  H   UNL     1     -47.300  34.909  28.725  1.00  0.00     0.073 H 
ATOM      3  H   UNL     1     -48.260  36.334  28.732  1.00  0.00     0.073 H 
ENDROOT
BRANCH   1   4
ATOM      4  O   UNL     1     -48.393  35.355  26.964  1.00  0.00    -0.491 OA
BRANCH   4   5
ATOM      5  C   UNL     1     -48.066  34.242  26.245  1.00  0.00     0.121 A 
ATOM      6  C   UNL     1     -48.651  29.793  24.654  1.00  0.00     0.107 A 
ATOM      7  C   UNL     1     -47.449  29.824  23.956  1.00  0.00    -0.032 A 
ATOM      8  N   UNL     1     -49.108  30.853  25.366  1.00  0.00    -0.244 NA
ATOM      9  C   UNL     1     -46.678  30.980  23.998  1.00  0.00    -0.051 A 
ATOM     10  H   UNL     1     -47.115  28.957  23.392  1.00  0.00     0.065 H 
ATOM     11  C   UNL     1     -48.359  31.971  25.406  1.00  0.00     0.075 A 
ATOM     12  C   UNL     1     -47.123  32.079  24.736  1.00  0.00     0.000 A 
ATOM     13  H   UNL     1     -45.734  31.010  23.460  1.00  0.00     0.063 H 
ATOM     14  C   UNL     1     -48.807  33.063  26.142  1.00  0.00     0.006 A 
ATOM     15  C   UNL     1     -46.373  33.261  24.822  1.00  0.00    -0.049 A 
ATOM     16  H   UNL     1     -49.756  32.945  26.649  1.00  0.00     0.069 H 
ATOM     17  C   UNL     1     -46.845  34.330  25.579  1.00  0.00    -0.019 A 
ATOM     18  H   UNL     1     -45.418  33.352  24.312  1.00  0.00     0.063 H 
ATOM     19  H   UNL     1     -46.254  35.240  25.654  1.00  0.00     0.066 H 
BRANCH   6  20
ATOM     20  C   UNL     1     -49.476  28.572  24.641  1.00  0.00     0.158 A 
ATOM     21  N   UNL     1     -49.438  27.537  25.559  1.00  0.00    -0.333 N 
ATOM     22  C   UNL     1     -50.358  26.593  25.184  1.00  0.00     0.024 A 
ATOM     23  C   UNL     1     -50.931  27.084  24.039  1.00  0.00     0.046 A 
ATOM     24  H   UNL     1     -50.522  25.683  25.743  1.00  0.00     0.083 H 
ATOM     25  N   UNL     1     -50.385  28.294  23.712  1.00  0.00    -0.235 NA
ATOM     26  H   UNL     1     -51.705  26.632  23.435  1.00  0.00     0.086 H 
BRANCH  21  27
ATOM     27  C   UNL     1     -48.595  27.423  26.725  1.00  0.00     0.013 C 
ATOM     28  H   UNL     1     -47.627  27.006  26.436  1.00  0.00     0.046 H 
ATOM     29  H   UNL     1     -48.442  28.416  27.153  1.00  0.00     0.046 H 
ATOM     30  H   UNL     1     -49.077  26.746  27.434  1.00  0.00     0.046 H 
ENDBRANCH  21  27
ENDBRANCH   6  20
ENDBRANCH   4   5
ENDBRANCH   1   4
BRANCH   1  31
ATOM     31  C   UNL     1     -46.425  36.641  27.684  1.00  0.00     0.123 C 
ATOM     32  O   UNL     1     -46.848  37.574  26.664  1.00  0.00    -0.345 OA
ATOM     33  C   UNL     1     -45.825  37.470  28.816  1.00  0.00     0.119 C 
ATOM     34  H   UNL     1     -45.642  36.006  27.248  1.00  0.00     0.067 H 
ATOM     35  C   UNL     1     -46.136  38.811  26.874  1.00  0.00     0.169 C 
ATOM     36  C   UNL     1     -45.202  38.620  28.057  1.00  0.00     0.173 C 
ATOM     37  H   UNL     1     -46.576  37.841  29.517  1.00  0.00     0.066 H 
ATOM     38  H   UNL     1     -45.555  39.002  25.965  1.00  0.00     0.088 H 
ATOM     39  F   UNL     1     -45.102  39.716  28.847  1.00  0.00    -0.239 F 
ATOM     40  H   UNL     1     -44.192  38.361  27.720  1.00  0.00     0.074 H 
BRANCH  33  41
ATOM     41  O   UNL     1     -44.840  36.752  29.553  1.00  0.00    -0.387 OA
ATOM     42  H   UNL     1     -45.130  35.821  29.587  1.00  0.00     0.211 HD
ENDBRANCH  33  41
BRANCH  35  43
ATOM     43  N   UNL     1     -47.080  39.915  27.005  1.00  0.00    -0.302 N 
ATOM     44  C   UNL     1     -48.313  39.795  27.612  1.00  0.00     0.023 A 
ATOM     45  C   UNL     1     -46.927  41.204  26.545  1.00  0.00     0.148 A 
ATOM     46  C   UNL     1     -48.937  41.014  27.519  1.00  0.00     0.049 A 
ATOM     47  H   UNL     1     -48.640  38.860  28.046  1.00  0.00     0.083 H 
ATOM     48  C   UNL     1     -48.082  41.921  26.850  1.00  0.00     0.075 A 
ATOM     49  N   UNL     1     -45.847  41.688  25.909  1.00  0.00    -0.218 NA
ATOM     50  Br  UNL     1     -50.648  41.409  28.184  1.00  0.00    -0.048 Br
ATOM     51  C   UNL     1     -48.112  43.266  26.448  1.00  0.00     0.137 A 
ATOM     52  C   UNL     1     -45.978  42.988  25.609  1.00  0.00     0.120 A 
ATOM     53  N   UNL     1     -47.035  43.788  25.830  1.00  0.00    -0.219 NA
ATOM     54  H   UNL     1     -45.125  43.456  25.126  1.00  0.00     0.106 H 
BRANCH  51  55
ATOM     55  N   UNL     1     -49.183  44.121  26.659  1.00  0.00    -0.383 N 
ATOM     56  H   UNL     1     -48.898  45.092  26.607  1.00  0.00     0.158 HD
ATOM     57  H   UNL     1     -49.800  43.865  27.417  1.00  0.00     0.158 HD
ENDBRANCH  51  55
ENDBRANCH  35  43
ENDBRANCH   1  31
TORSDOF 8
ENDMDL
MODEL 6
REMARK VINA RESULT:      -9.2      2.019      3.039
REMARK SMILES Cn1ccnc1-c1ccc2ccc(OC[C@H]3O[C@@H](n4cc(Br)c5c(N)ncnc54)[C@@H](F)[C@@H]3O)cc2n1
REMARK SMILES IDX 15 1 14 4 13 5 7 6 8 7 36 8 9 9 35 11 10 12 34 14 11 15
REMARK SMILES IDX 12 17 6 20 2 21 3 22 4 23 5 25 1 27 16 31 17 32 32 33 18 35
REMARK SMILES IDX 30 36 31 39 33 41 19 43 20 44 29 45 21 46 23 48 28 49 22 50
REMARK SMILES IDX 24 51 27 52 26 53 25 55
REMARK H PARENT 15 2 15 3 8 10 9 13 34 16 11 18 12 19 3 24 4 26 1 28 1 29 1 30
REMARK H PARENT 16 34 32 37 18 38 30 40 33 42 20 47 27 54 25 56 25 57
REMARK Flexibility Score: inf
ROOT
ATOM      1  C   UNL     1     -47.527  35.126  27.906  1.00  0.00     0.117 C 
ATOM      2  H   UNL     1     -47.763  34.195  28.429  1.00  0.00     0.073 H 
ATOM      3  H   UNL     1     -48.308  35.815  28.251  1.00  0.00     0.073 H 
ENDROOT
BRANCH   1   4
ATOM      4  O   UNL     1     -47.669  35.046  26.490  1.00  0.00    -0.491 OA
BRANCH   4   5
ATOM      5  C   UNL     1     -47.551  33.844  25.856  1.00  0.00     0.121 A 
ATOM      6  C   UNL     1     -48.767  29.357  24.825  1.00  0.00     0.107 A 
ATOM      7  C   UNL     1     -47.676  29.195  23.981  1.00  0.00    -0.032 A 
ATOM      8  N   UNL     1     -49.020  30.521  25.475  1.00  0.00    -0.244 NA
ATOM      9  C   UNL     1     -46.800  30.260  23.803  1.00  0.00    -0.051 A 
ATOM     10  H   UNL     1     -47.505  28.250  23.473  1.00  0.00     0.065 H 
ATOM     11  C   UNL     1     -48.170  31.551  25.302  1.00  0.00     0.075 A 
ATOM     12  C   UNL     1     -47.033  31.463  24.473  1.00  0.00     0.000 A 
ATOM     13  H   UNL     1     -45.940  30.139  23.150  1.00  0.00     0.063 H 
ATOM     14  C   UNL     1     -48.408  32.747  25.972  1.00  0.00     0.006 A 
ATOM     15  C   UNL     1     -46.170  32.560  24.340  1.00  0.00    -0.049 A 
ATOM     16  H   UNL     1     -49.285  32.779  26.604  1.00  0.00     0.069 H 
ATOM     17  C   UNL     1     -46.430  33.739  25.035  1.00  0.00    -0.019 A 
ATOM     18  H   UNL     1     -45.289  32.501  23.705  1.00  0.00     0.063 H 
ATOM     19  H   UNL     1     -45.750  34.583  24.938  1.00  0.00     0.066 H 
BRANCH   6  20
ATOM     20  C   UNL     1     -49.699  28.237  25.046  1.00  0.00     0.158 A 
ATOM     21  N   UNL     1     -50.905  28.023  24.401  1.00  0.00    -0.333 N 
ATOM     22  C   UNL     1     -51.463  26.875  24.901  1.00  0.00     0.024 A 
ATOM     23  C   UNL     1     -50.575  26.423  25.842  1.00  0.00     0.046 A 
ATOM     24  H   UNL     1     -52.412  26.489  24.556  1.00  0.00     0.083 H 
ATOM     25  N   UNL     1     -49.499  27.262  25.927  1.00  0.00    -0.235 NA
ATOM     26  H   UNL     1     -50.653  25.540  26.462  1.00  0.00     0.086 H 
BRANCH  21  27
ATOM     27  C   UNL     1     -51.513  28.836  23.376  1.00  0.00     0.013 C 
ATOM     28  H   UNL     1     -52.601  28.798  23.478  1.00  0.00     0.046 H 
ATOM     29  H   UNL     1     -51.179  29.869  23.495  1.00  0.00     0.046 H 
ATOM     30  H   UNL     1     -51.233  28.429  22.402  1.00  0.00     0.046 H 
ENDBRANCH  21  27
ENDBRANCH   6  20
ENDBRANCH   4   5
ENDBRANCH   1   4
BRANCH   1  31
ATOM     31  C   UNL     1     -46.177  35.718  28.325  1.00  0.00     0.123 C 
ATOM     32  O   UNL     1     -45.675  36.579  27.278  1.00  0.00    -0.345 OA
ATOM     33  C   UNL     1     -46.199  36.549  29.605  1.00  0.00     0.119 C 
ATOM     34  H   UNL     1     -45.463  34.891  28.445  1.00  0.00     0.067 H 
ATOM     35  C   UNL     1     -44.966  37.669  27.904  1.00  0.00     0.169 C 
ATOM     36  C   UNL     1     -45.000  37.448  29.407  1.00  0.00     0.173 C 
ATOM     37  H   UNL     1     -47.108  37.146  29.709  1.00  0.00     0.066 H 
ATOM     38  H   UNL     1     -43.932  37.624  27.543  1.00  0.00     0.088 H 
ATOM     39  F   UNL     1     -45.139  38.594  30.116  1.00  0.00    -0.239 F 
ATOM     40  H   UNL     1     -44.084  36.955  29.751  1.00  0.00     0.074 H 
BRANCH  33  41
ATOM     41  O   UNL     1     -46.050  35.749  30.775  1.00  0.00    -0.387 OA
ATOM     42  H   UNL     1     -46.395  34.863  30.561  1.00  0.00     0.211 HD
ENDBRANCH  33  41
BRANCH  35  43
ATOM     43  N   UNL     1     -45.512  38.944  27.454  1.00  0.00    -0.302 N 
ATOM     44  C   UNL     1     -44.754  39.926  26.851  1.00  0.00     0.023 A 
ATOM     45  C   UNL     1     -46.811  39.384  27.570  1.00  0.00     0.148 A 
ATOM     46  C   UNL     1     -45.584  40.990  26.600  1.00  0.00     0.049 A 
ATOM     47  H   UNL     1     -43.697  39.788  26.662  1.00  0.00     0.083 H 
ATOM     48  C   UNL     1     -46.889  40.672  27.043  1.00  0.00     0.075 A 
ATOM     49  N   UNL     1     -47.832  38.689  28.100  1.00  0.00    -0.218 NA
ATOM     50  Br  UNL     1     -45.066  42.601  25.788  1.00  0.00    -0.048 Br
ATOM     51  C   UNL     1     -48.149  41.292  27.081  1.00  0.00     0.137 A 
ATOM     52  C   UNL     1     -48.987  39.368  28.047  1.00  0.00     0.120 A 
ATOM     53  N   UNL     1     -49.197  40.612  27.585  1.00  0.00    -0.219 NA
ATOM     54  H   UNL     1     -49.863  38.850  28.426  1.00  0.00     0.106 H 
BRANCH  51  55
ATOM     55  N   UNL     1     -48.404  42.571  26.614  1.00  0.00    -0.383 N 
ATOM     56  H   UNL     1     -48.925  42.552  25.745  1.00  0.00     0.158 HD
ATOM     57  H   UNL     1     -47.627  43.216  26.668  1.00  0.00     0.158 HD
ENDBRANCH  51  55
ENDBRANCH  35  43
ENDBRANCH   1  31
TORSDOF 8
ENDMDL
MODEL 7
REMARK VINA RESULT:      -9.1      3.923     11.719
REMARK SMILES Cn1ccnc1-c1ccc2ccc(OC[C@H]3O[C@@H](n4cc(Br)c5c(N)ncnc54)[C@@H](F)[C@@H]3O)cc2n1
REMARK SMILES IDX 15 1 14 4 13 5 7 6 8 7 36 8 9 9 35 11 10 12 34 14 11 15
REMARK SMILES IDX 12 17 6 20 2 21 3 22 4 23 5 25 1 27 16 31 17 32 32 33 18 35
REMARK SMILES IDX 30 36 31 39 33 41 19 43 20 44 29 45 21 46 23 48 28 49 22 50
REMARK SMILES IDX 24 51 27 52 26 53 25 55
REMARK H PARENT 15 2 15 3 8 10 9 13 34 16 11 18 12 19 3 24 4 26 1 28 1 29 1 30
REMARK H PARENT 16 34 32 37 18 38 30 40 33 42 20 47 27 54 25 56 25 57
REMARK Flexibility Score: inf
ROOT
ATOM      1  C   UNL     1     -48.318  32.381  26.057  1.00  0.00     0.117 C 
ATOM      2  H   UNL     1     -49.257  32.870  26.330  1.00  0.00     0.073 H 
ATOM      3  H   UNL     1     -48.334  31.455  26.647  1.00  0.00     0.073 H 
ENDROOT
BRANCH   1   4
ATOM      4  O   UNL     1     -47.154  33.092  26.470  1.00  0.00    -0.491 OA
BRANCH   4   5
ATOM      5  C   UNL     1     -47.246  34.402  26.840  1.00  0.00     0.121 A 
ATOM      6  C   UNL     1     -45.571  38.620  28.282  1.00  0.00     0.107 A 
ATOM      7  C   UNL     1     -46.848  39.163  28.362  1.00  0.00    -0.032 A 
ATOM      8  N   UNL     1     -45.346  37.344  27.880  1.00  0.00    -0.244 NA
ATOM      9  C   UNL     1     -47.938  38.367  28.031  1.00  0.00    -0.051 A 
ATOM     10  H   UNL     1     -46.992  40.191  28.684  1.00  0.00     0.065 H 
ATOM     11  C   UNL     1     -46.404  36.574  27.561  1.00  0.00     0.075 A 
ATOM     12  C   UNL     1     -47.731  37.046  27.628  1.00  0.00     0.000 A 
ATOM     13  H   UNL     1     -48.941  38.783  28.098  1.00  0.00     0.063 H 
ATOM     14  C   UNL     1     -46.191  35.259  27.160  1.00  0.00     0.006 A 
ATOM     15  C   UNL     1     -48.799  36.199  27.300  1.00  0.00    -0.049 A 
ATOM     16  H   UNL     1     -45.162  34.927  27.125  1.00  0.00     0.069 H 
ATOM     17  C   UNL     1     -48.552  34.884  26.915  1.00  0.00    -0.019 A 
ATOM     18  H   UNL     1     -49.826  36.553  27.352  1.00  0.00     0.063 H 
ATOM     19  H   UNL     1     -49.384  34.227  26.674  1.00  0.00     0.066 H 
BRANCH   6  20
ATOM     20  C   UNL     1     -44.401  39.437  28.647  1.00  0.00     0.158 A 
ATOM     21  N   UNL     1     -43.793  40.408  27.870  1.00  0.00    -0.333 N 
ATOM     22  C   UNL     1     -42.736  40.925  28.573  1.00  0.00     0.024 A 
ATOM     23  C   UNL     1     -42.731  40.246  29.764  1.00  0.00     0.046 A 
ATOM     24  H   UNL     1     -42.099  41.705  28.181  1.00  0.00     0.083 H 
ATOM     25  N   UNL     1     -43.750  39.336  29.802  1.00  0.00    -0.235 NA
ATOM     26  H   UNL     1     -42.048  40.365  30.595  1.00  0.00     0.086 H 
BRANCH  21  27
ATOM     27  C   UNL     1     -44.168  40.839  26.544  1.00  0.00     0.013 C 
ATOM     28  H   UNL     1     -45.255  40.939  26.487  1.00  0.00     0.046 H 
ATOM     29  H   UNL     1     -43.709  41.809  26.342  1.00  0.00     0.046 H 
ATOM     30  H   UNL     1     -43.843  40.079  25.831  1.00  0.00     0.046 H 
ENDBRANCH  21  27
ENDBRANCH   6  20
ENDBRANCH   4   5
ENDBRANCH   1   4
BRANCH   1  31
ATOM     31  C   UNL     1     -48.264  31.981  24.578  1.00  0.00     0.123 C 
ATOM     32  O   UNL     1     -47.077  31.194  24.329  1.00  0.00    -0.345 OA
ATOM     33  C   UNL     1     -49.450  31.158  24.082  1.00  0.00     0.119 C 
ATOM     34  H   UNL     1     -48.186  32.897  23.978  1.00  0.00     0.067 H 
ATOM     35  C   UNL     1     -47.401  30.213  23.321  1.00  0.00     0.169 C 
ATOM     36  C   UNL     1     -48.846  30.430  22.902  1.00  0.00     0.173 C 
ATOM     37  H   UNL     1     -49.811  30.442  24.825  1.00  0.00     0.066 H 
ATOM     38  H   UNL     1     -46.734  30.398  22.472  1.00  0.00     0.088 H 
ATOM     39  F   UNL     1     -49.514  29.278  22.658  1.00  0.00    -0.239 F 
ATOM     40  H   UNL     1     -48.903  31.045  21.997  1.00  0.00     0.074 H 
BRANCH  33  41
ATOM     41  O   UNL     1     -50.544  31.973  23.674  1.00  0.00    -0.387 OA
ATOM     42  H   UNL     1     -50.173  32.826  23.383  1.00  0.00     0.211 HD
ENDBRANCH  33  41
BRANCH  35  43
ATOM     43  N   UNL     1     -47.095  28.874  23.810  1.00  0.00    -0.302 N 
ATOM     44  C   UNL     1     -46.112  28.072  23.268  1.00  0.00     0.023 A 
ATOM     45  C   UNL     1     -47.719  28.195  24.833  1.00  0.00     0.148 A 
ATOM     46  C   UNL     1     -46.132  26.880  23.950  1.00  0.00     0.049 A 
ATOM     47  H   UNL     1     -45.495  28.411  22.447  1.00  0.00     0.083 H 
ATOM     48  C   UNL     1     -47.137  26.934  24.944  1.00  0.00     0.075 A 
ATOM     49  N   UNL     1     -48.719  28.669  25.595  1.00  0.00    -0.218 NA
ATOM     50  Br  UNL     1     -44.997  25.422  23.617  1.00  0.00    -0.048 Br
ATOM     51  C   UNL     1     -47.653  26.088  25.939  1.00  0.00     0.137 A 
ATOM     52  C   UNL     1     -49.102  27.788  26.531  1.00  0.00     0.120 A 
ATOM     53  N   UNL     1     -48.640  26.543  26.736  1.00  0.00    -0.219 NA
ATOM     54  H   UNL     1     -49.883  28.120  27.208  1.00  0.00     0.106 H 
BRANCH  51  55
ATOM     55  N   UNL     1     -47.203  24.800  26.180  1.00  0.00    -0.383 N 
ATOM     56  H   UNL     1     -46.377  24.799  26.766  1.00  0.00     0.158 HD
ATOM     57  H   UNL     1     -47.196  24.185  25.378  1.00  0.00     0.158 HD
ENDBRANCH  51  55
ENDBRANCH  35  43
ENDBRANCH   1  31
TORSDOF 8
ENDMDL
