MODEL 1
REMARK VINA RESULT:     -10.5      0.000      0.000
REMARK SMILES Nc1ncnc2c1ccn2[C@@H]1C[C@H](CCc2ccc3c(OCC4CC4)ccnc3c2)[C@@H](O)[C@H]1O
REMARK SMILES IDX 15 1 14 4 13 7 11 8 12 9 33 10 31 14 10 18 2 19 3 20 7 21
REMARK SMILES IDX 4 22 6 23 8 24 5 25 9 27 1 30 34 33 32 35 16 37 17 38 30 39
REMARK SMILES IDX 18 40 29 42 19 44 28 46 20 47 27 48 26 49 21 52 22 53 23 56
REMARK SMILES IDX 24 57 25 58
REMARK H PARENT 15 2 15 3 14 5 14 6 11 11 12 12 12 13 33 15 13 16 31 17 4 26
REMARK H PARENT 8 28 9 29 1 31 1 32 34 34 32 36 17 41 30 43 18 45 27 50 26 51
REMARK H PARENT 22 54 22 55 23 59 24 60 24 61 25 62 25 63
REMARK Flexibility Score: inf
ROOT
ATOM      1  C   UNL     1     -46.647  35.468  26.441  1.00  0.00    -0.027 C 
ATOM      2  H   UNL     1     -47.356  36.222  26.077  1.00  0.00     0.032 H 
ATOM      3  H   UNL     1     -45.679  35.720  25.989  1.00  0.00     0.032 H 
ENDROOT
BRANCH   1   4
ATOM      4  C   UNL     1     -46.545  35.514  27.969  1.00  0.00    -0.044 C 
ATOM      5  H   UNL     1     -47.332  34.889  28.411  1.00  0.00     0.027 H 
ATOM      6  H   UNL     1     -45.590  35.073  28.283  1.00  0.00     0.027 H 
BRANCH   4   7
ATOM      7  C   UNL     1     -46.644  36.941  28.519  1.00  0.00    -0.010 C 
ATOM      8  C   UNL     1     -45.671  39.180  28.576  1.00  0.00     0.064 C 
ATOM      9  C   UNL     1     -45.306  37.681  28.589  1.00  0.00    -0.024 C 
ATOM     10  C   UNL     1     -47.148  39.264  28.137  1.00  0.00     0.101 C 
ATOM     11  H   UNL     1     -45.581  39.571  29.597  1.00  0.00     0.056 H 
ATOM     12  H   UNL     1     -44.754  37.422  29.499  1.00  0.00     0.029 H 
ATOM     13  H   UNL     1     -44.669  37.410  27.739  1.00  0.00     0.029 H 
ATOM     14  C   UNL     1     -47.480  37.858  27.622  1.00  0.00     0.085 C 
ATOM     15  H   UNL     1     -47.346  40.035  27.386  1.00  0.00     0.065 H 
ATOM     16  H   UNL     1     -47.093  36.894  29.521  1.00  0.00     0.033 H 
ATOM     17  H   UNL     1     -47.177  37.756  26.573  1.00  0.00     0.063 H 
BRANCH   8  18
ATOM     18  N   UNL     1     -44.774  39.960  27.734  1.00  0.00    -0.327 N 
ATOM     19  C   UNL     1     -41.759  41.762  27.293  1.00  0.00     0.136 A 
ATOM     20  N   UNL     1     -41.193  41.668  28.513  1.00  0.00    -0.219 NA
ATOM     21  C   UNL     1     -43.002  41.153  27.071  1.00  0.00     0.061 A 
ATOM     22  C   UNL     1     -41.850  40.976  29.465  1.00  0.00     0.120 A 
ATOM     23  C   UNL     1     -43.569  40.480  28.145  1.00  0.00     0.145 A 
ATOM     24  C   UNL     1     -43.899  41.018  25.978  1.00  0.00    -0.031 A 
ATOM     25  N   UNL     1     -43.037  40.356  29.372  1.00  0.00    -0.218 NA
ATOM     26  H   UNL     1     -41.356  40.917  30.430  1.00  0.00     0.106 H 
ATOM     27  C   UNL     1     -44.978  40.277  26.410  1.00  0.00     0.007 A 
ATOM     28  H   UNL     1     -43.762  41.408  24.978  1.00  0.00     0.065 H 
ATOM     29  H   UNL     1     -45.861  39.949  25.876  1.00  0.00     0.082 H 
BRANCH  19  30
ATOM     30  N   UNL     1     -41.070  42.482  26.327  1.00  0.00    -0.383 N 
ATOM     31  H   UNL     1     -40.566  41.918  25.658  1.00  0.00     0.158 HD
ATOM     32  H   UNL     1     -41.658  43.215  25.946  1.00  0.00     0.158 HD
ENDBRANCH  19  30
ENDBRANCH   8  18
BRANCH  10  33
ATOM     33  O   UNL     1     -47.982  39.555  29.271  1.00  0.00    -0.388 OA
ATOM     34  H   UNL     1     -47.429  39.388  30.058  1.00  0.00     0.211 HD
ENDBRANCH  10  33
BRANCH  14  35
ATOM     35  O   UNL     1     -48.869  37.579  27.721  1.00  0.00    -0.390 OA
ATOM     36  H   UNL     1     -49.305  38.071  27.001  1.00  0.00     0.211 HD
ENDBRANCH  14  35
ENDBRANCH   4   7
ENDBRANCH   1   4
BRANCH   1  37
ATOM     37  C   UNL     1     -47.085  34.109  25.956  1.00  0.00    -0.046 A 
ATOM     38  C   UNL     1     -48.260  33.527  26.431  1.00  0.00    -0.058 A 
ATOM     39  C   UNL     1     -46.332  33.420  24.993  1.00  0.00    -0.032 A 
ATOM     40  C   UNL     1     -48.658  32.278  25.956  1.00  0.00    -0.049 A 
ATOM     41  H   UNL     1     -48.873  34.038  27.170  1.00  0.00     0.063 H 
ATOM     42  C   UNL     1     -46.709  32.174  24.504  1.00  0.00     0.074 A 
ATOM     43  H   UNL     1     -45.417  33.865  24.605  1.00  0.00     0.065 H 
ATOM     44  C   UNL     1     -47.893  31.586  24.991  1.00  0.00     0.042 A 
ATOM     45  H   UNL     1     -49.576  31.839  26.341  1.00  0.00     0.063 H 
ATOM     46  N   UNL     1     -45.929  31.583  23.585  1.00  0.00    -0.256 NA
ATOM     47  C   UNL     1     -48.254  30.318  24.478  1.00  0.00     0.130 A 
ATOM     48  C   UNL     1     -46.305  30.376  23.119  1.00  0.00     0.031 A 
ATOM     49  C   UNL     1     -47.443  29.708  23.527  1.00  0.00    -0.001 A 
ATOM     50  H   UNL     1     -45.638  29.941  22.378  1.00  0.00     0.084 H 
ATOM     51  H   UNL     1     -47.661  28.740  23.094  1.00  0.00     0.068 H 
BRANCH  47  52
ATOM     52  O   UNL     1     -49.413  29.773  24.974  1.00  0.00    -0.493 OA
BRANCH  52  53
ATOM     53  C   UNL     1     -49.750  28.443  24.582  1.00  0.00     0.091 C 
ATOM     54  H   UNL     1     -49.152  28.144  23.713  1.00  0.00     0.071 H 
ATOM     55  H   UNL     1     -50.818  28.384  24.337  1.00  0.00     0.071 H 
BRANCH  53  56
ATOM     56  C   UNL     1     -49.471  27.475  25.699  1.00  0.00    -0.007 C 
ATOM     57  C   UNL     1     -49.385  25.988  25.458  1.00  0.00    -0.047 C 
ATOM     58  C   UNL     1     -48.147  26.764  25.821  1.00  0.00    -0.047 C 
ATOM     59  H   UNL     1     -49.944  27.802  26.618  1.00  0.00     0.034 H 
ATOM     60  H   UNL     1     -49.809  25.328  26.208  1.00  0.00     0.027 H 
ATOM     61  H   UNL     1     -49.471  25.616  24.444  1.00  0.00     0.027 H 
ATOM     62  H   UNL     1     -47.734  26.625  26.814  1.00  0.00     0.027 H 
ATOM     63  H   UNL     1     -47.399  26.912  25.049  1.00  0.00     0.027 H 
ENDBRANCH  53  56
ENDBRANCH  52  53
ENDBRANCH  47  52
ENDBRANCH   1  37
TORSDOF 10
ENDMDL
MODEL 2
REMARK VINA RESULT:      -9.6      2.732     11.029
REMARK SMILES Nc1ncnc2c1ccn2[C@@H]1C[C@H](CCc2ccc3c(OCC4CC4)ccnc3c2)[C@@H](O)[C@H]1O
REMARK SMILES IDX 15 1 14 4 13 7 11 8 12 9 33 10 31 14 10 18 2 19 3 20 7 21
REMARK SMILES IDX 4 22 6 23 8 24 5 25 9 27 1 30 34 33 32 35 16 37 17 38 30 39
REMARK SMILES IDX 18 40 29 42 19 44 28 46 20 47 27 48 26 49 21 52 22 53 23 56
REMARK SMILES IDX 24 57 25 58
REMARK H PARENT 15 2 15 3 14 5 14 6 11 11 12 12 12 13 33 15 13 16 31 17 4 26
REMARK H PARENT 8 28 9 29 1 31 1 32 34 34 32 36 17 41 30 43 18 45 27 50 26 51
REMARK H PARENT 22 54 22 55 23 59 24 60 24 61 25 62 25 63
REMARK Flexibility Score: inf
ROOT
ATOM      1  C   UNL     1     -47.818  36.763  28.239  1.00  0.00    -0.027 C 
ATOM      2  H   UNL     1     -48.713  37.274  28.618  1.00  0.00     0.032 H 
ATOM      3  H   UNL     1     -47.536  36.036  29.011  1.00  0.00     0.032 H 
ENDROOT
BRANCH   1   4
ATOM      4  C   UNL     1     -48.124  36.044  26.922  1.00  0.00    -0.044 C 
ATOM      5  H   UNL     1     -49.169  36.222  26.637  1.00  0.00     0.027 H 
ATOM      6  H   UNL     1     -47.510  36.476  26.121  1.00  0.00     0.027 H 
BRANCH   4   7
ATOM      7  C   UNL     1     -47.856  34.538  27.002  1.00  0.00    -0.010 C 
ATOM      8  C   UNL     1     -48.252  32.337  26.020  1.00  0.00     0.064 C 
ATOM      9  C   UNL     1     -48.945  33.671  26.367  1.00  0.00    -0.024 C 
ATOM     10  C   UNL     1     -46.734  32.597  26.122  1.00  0.00     0.101 C 
ATOM     11  H   UNL     1     -48.536  31.589  26.770  1.00  0.00     0.056 H 
ATOM     12  H   UNL     1     -49.779  33.508  27.059  1.00  0.00     0.029 H 
ATOM     13  H   UNL     1     -49.359  34.160  25.477  1.00  0.00     0.029 H 
ATOM     14  C   UNL     1     -46.608  34.123  26.217  1.00  0.00     0.085 C 
ATOM     15  H   UNL     1     -46.156  32.187  25.287  1.00  0.00     0.065 H 
ATOM     16  H   UNL     1     -47.735  34.264  28.059  1.00  0.00     0.033 H 
ATOM     17  H   UNL     1     -46.614  34.568  25.215  1.00  0.00     0.063 H 
BRANCH   8  18
ATOM     18  N   UNL     1     -48.664  31.823  24.720  1.00  0.00    -0.327 N 
ATOM     19  C   UNL     1     -47.878  30.280  21.632  1.00  0.00     0.136 A 
ATOM     20  N   UNL     1     -46.547  30.098  21.739  1.00  0.00    -0.219 NA
ATOM     21  C   UNL     1     -48.569  30.883  22.692  1.00  0.00     0.061 A 
ATOM     22  C   UNL     1     -45.941  30.496  22.875  1.00  0.00     0.120 A 
ATOM     23  C   UNL     1     -47.816  31.252  23.800  1.00  0.00     0.145 A 
ATOM     24  C   UNL     1     -49.916  31.238  22.971  1.00  0.00    -0.031 A 
ATOM     25  N   UNL     1     -46.492  31.083  23.950  1.00  0.00    -0.218 NA
ATOM     26  H   UNL     1     -44.870  30.324  22.924  1.00  0.00     0.106 H 
ATOM     27  C   UNL     1     -49.948  31.811  24.225  1.00  0.00     0.007 A 
ATOM     28  H   UNL     1     -50.772  31.079  22.329  1.00  0.00     0.065 H 
ATOM     29  H   UNL     1     -50.782  32.197  24.797  1.00  0.00     0.082 H 
BRANCH  19  30
ATOM     30  N   UNL     1     -48.484  29.868  20.453  1.00  0.00    -0.383 N 
ATOM     31  H   UNL     1     -48.201  30.381  19.631  1.00  0.00     0.158 HD
ATOM     32  H   UNL     1     -48.468  28.858  20.382  1.00  0.00     0.158 HD
ENDBRANCH  19  30
ENDBRANCH   8  18
BRANCH  10  33
ATOM     33  O   UNL     1     -46.215  32.009  27.325  1.00  0.00    -0.388 OA
ATOM     34  H   UNL     1     -45.894  32.754  27.869  1.00  0.00     0.211 HD
ENDBRANCH  10  33
BRANCH  14  35
ATOM     35  O   UNL     1     -45.410  34.507  26.876  1.00  0.00    -0.390 OA
ATOM     36  H   UNL     1     -44.731  33.853  26.628  1.00  0.00     0.211 HD
ENDBRANCH  14  35
ENDBRANCH   4   7
ENDBRANCH   1   4
BRANCH   1  37
ATOM     37  C   UNL     1     -46.710  37.773  28.075  1.00  0.00    -0.046 A 
ATOM     38  C   UNL     1     -46.613  38.543  26.917  1.00  0.00    -0.058 A 
ATOM     39  C   UNL     1     -45.776  37.977  29.102  1.00  0.00    -0.032 A 
ATOM     40  C   UNL     1     -45.592  39.484  26.792  1.00  0.00    -0.049 A 
ATOM     41  H   UNL     1     -47.326  38.418  26.105  1.00  0.00     0.063 H 
ATOM     42  C   UNL     1     -44.751  38.910  29.001  1.00  0.00     0.074 A 
ATOM     43  H   UNL     1     -45.844  37.391  30.017  1.00  0.00     0.065 H 
ATOM     44  C   UNL     1     -44.650  39.682  27.826  1.00  0.00     0.042 A 
ATOM     45  H   UNL     1     -45.531  40.073  25.879  1.00  0.00     0.063 H 
ATOM     46  N   UNL     1     -43.898  39.041  30.030  1.00  0.00    -0.256 NA
ATOM     47  C   UNL     1     -43.598  40.624  27.748  1.00  0.00     0.130 A 
ATOM     48  C   UNL     1     -42.908  39.949  29.920  1.00  0.00     0.031 A 
ATOM     49  C   UNL     1     -42.715  40.755  28.815  1.00  0.00    -0.001 A 
ATOM     50  H   UNL     1     -42.246  40.012  30.779  1.00  0.00     0.084 H 
ATOM     51  H   UNL     1     -41.890  41.455  28.820  1.00  0.00     0.068 H 
BRANCH  47  52
ATOM     52  O   UNL     1     -43.528  41.358  26.590  1.00  0.00    -0.493 OA
BRANCH  52  53
ATOM     53  C   UNL     1     -43.118  42.722  26.683  1.00  0.00     0.091 C 
ATOM     54  H   UNL     1     -42.025  42.787  26.657  1.00  0.00     0.071 H 
ATOM     55  H   UNL     1     -43.495  43.164  27.614  1.00  0.00     0.071 H 
BRANCH  53  56
ATOM     56  C   UNL     1     -43.664  43.519  25.531  1.00  0.00    -0.007 C 
ATOM     57  C   UNL     1     -43.479  45.014  25.441  1.00  0.00    -0.047 C 
ATOM     58  C   UNL     1     -42.762  44.108  24.475  1.00  0.00    -0.047 C 
ATOM     59  H   UNL     1     -44.615  43.116  25.201  1.00  0.00     0.034 H 
ATOM     60  H   UNL     1     -44.306  45.605  25.064  1.00  0.00     0.027 H 
ATOM     61  H   UNL     1     -42.888  45.515  26.199  1.00  0.00     0.027 H 
ATOM     62  H   UNL     1     -43.105  44.090  23.446  1.00  0.00     0.027 H 
ATOM     63  H   UNL     1     -41.688  44.001  24.584  1.00  0.00     0.027 H 
ENDBRANCH  53  56
ENDBRANCH  52  53
ENDBRANCH  47  52
ENDBRANCH   1  37
TORSDOF 10
ENDMDL
MODEL 3
REMARK VINA RESULT:      -9.5      2.491      3.349
REMARK SMILES Nc1ncnc2c1ccn2[C@@H]1C[C@H](CCc2ccc3c(OCC4CC4)ccnc3c2)[C@@H](O)[C@H]1O
REMARK SMILES IDX 15 1 14 4 13 7 11 8 12 9 33 10 31 14 10 18 2 19 3 20 7 21
REMARK SMILES IDX 4 22 6 23 8 24 5 25 9 27 1 30 34 33 32 35 16 37 17 38 30 39
REMARK SMILES IDX 18 40 29 42 19 44 28 46 20 47 27 48 26 49 21 52 22 53 23 56
REMARK SMILES IDX 24 57 25 58
REMARK H PARENT 15 2 15 3 14 5 14 6 11 11 12 12 12 13 33 15 13 16 31 17 4 26
REMARK H PARENT 8 28 9 29 1 31 1 32 34 34 32 36 17 41 30 43 18 45 27 50 26 51
REMARK H PARENT 22 54 22 55 23 59 24 60 24 61 25 62 25 63
REMARK Flexibility Score: inf
ROOT
ATOM      1  C   UNL     1     -46.571  34.364  25.741  1.00  0.00    -0.027 C 
ATOM      2  H   UNL     1     -46.911  35.051  24.957  1.00  0.00     0.032 H 
ATOM      3  H   UNL     1     -45.474  34.401  25.721  1.00  0.00     0.032 H 
ENDROOT
BRANCH   1   4
ATOM      4  C   UNL     1     -47.090  34.809  27.112  1.00  0.00    -0.044 C 
ATOM      5  H   UNL     1     -48.167  35.012  27.052  1.00  0.00     0.027 H 
ATOM      6  H   UNL     1     -46.972  33.987  27.830  1.00  0.00     0.027 H 
BRANCH   4   7
ATOM      7  C   UNL     1     -46.356  36.045  27.642  1.00  0.00    -0.010 C 
ATOM      8  C   UNL     1     -46.312  38.482  27.804  1.00  0.00     0.064 C 
ATOM      9  C   UNL     1     -46.607  37.319  26.833  1.00  0.00    -0.024 C 
ATOM     10  C   UNL     1     -46.261  37.864  29.217  1.00  0.00     0.101 C 
ATOM     11  H   UNL     1     -45.327  38.899  27.562  1.00  0.00     0.056 H 
ATOM     12  H   UNL     1     -45.951  37.370  25.955  1.00  0.00     0.029 H 
ATOM     13  H   UNL     1     -47.639  37.348  26.464  1.00  0.00     0.029 H 
ATOM     14  C   UNL     1     -46.826  36.449  29.043  1.00  0.00     0.085 C 
ATOM     15  H   UNL     1     -46.809  38.436  29.973  1.00  0.00     0.065 H 
ATOM     16  H   UNL     1     -45.280  35.826  27.663  1.00  0.00     0.033 H 
ATOM     17  H   UNL     1     -47.921  36.468  29.094  1.00  0.00     0.063 H 
BRANCH   8  18
ATOM     18  N   UNL     1     -47.281  39.563  27.681  1.00  0.00    -0.327 N 
ATOM     19  C   UNL     1     -48.166  42.784  26.509  1.00  0.00     0.136 A 
ATOM     20  N   UNL     1     -47.038  43.175  25.883  1.00  0.00    -0.219 NA
ATOM     21  C   UNL     1     -48.202  41.522  27.118  1.00  0.00     0.061 A 
ATOM     22  C   UNL     1     -45.995  42.322  25.862  1.00  0.00     0.120 A 
ATOM     23  C   UNL     1     -47.051  40.750  27.026  1.00  0.00     0.145 A 
ATOM     24  C   UNL     1     -49.155  40.759  27.845  1.00  0.00    -0.031 A 
ATOM     25  N   UNL     1     -45.911  41.098  26.407  1.00  0.00    -0.218 NA
ATOM     26  H   UNL     1     -45.110  42.673  25.340  1.00  0.00     0.106 H 
ATOM     27  C   UNL     1     -48.566  39.558  28.177  1.00  0.00     0.007 A 
ATOM     28  H   UNL     1     -50.168  41.053  28.087  1.00  0.00     0.065 H 
ATOM     29  H   UNL     1     -48.965  38.707  28.714  1.00  0.00     0.082 H 
BRANCH  19  30
ATOM     30  N   UNL     1     -49.228  43.678  26.524  1.00  0.00    -0.383 N 
ATOM     31  H   UNL     1     -49.982  43.449  25.894  1.00  0.00     0.158 HD
ATOM     32  H   UNL     1     -49.488  43.901  27.478  1.00  0.00     0.158 HD
ENDBRANCH  19  30
ENDBRANCH   8  18
BRANCH  10  33
ATOM     33  O   UNL     1     -44.898  37.771  29.664  1.00  0.00    -0.388 OA
ATOM     34  H   UNL     1     -44.725  36.820  29.794  1.00  0.00     0.211 HD
ENDBRANCH  10  33
BRANCH  14  35
ATOM     35  O   UNL     1     -46.342  35.566  30.043  1.00  0.00    -0.390 OA
ATOM     36  H   UNL     1     -45.594  36.017  30.477  1.00  0.00     0.211 HD
ENDBRANCH  14  35
ENDBRANCH   4   7
ENDBRANCH   1   4
BRANCH   1  37
ATOM     37  C   UNL     1     -47.030  32.967  25.402  1.00  0.00    -0.046 A 
ATOM     38  C   UNL     1     -48.010  32.335  26.165  1.00  0.00    -0.058 A 
ATOM     39  C   UNL     1     -46.499  32.294  24.292  1.00  0.00    -0.032 A 
ATOM     40  C   UNL     1     -48.434  31.051  25.824  1.00  0.00    -0.049 A 
ATOM     41  H   UNL     1     -48.451  32.831  27.027  1.00  0.00     0.063 H 
ATOM     42  C   UNL     1     -46.906  31.015  23.931  1.00  0.00     0.074 A 
ATOM     43  H   UNL     1     -45.739  32.779  23.680  1.00  0.00     0.065 H 
ATOM     44  C   UNL     1     -47.892  30.374  24.708  1.00  0.00     0.042 A 
ATOM     45  H   UNL     1     -49.198  30.572  26.433  1.00  0.00     0.063 H 
ATOM     46  N   UNL     1     -46.345  30.442  22.855  1.00  0.00    -0.256 NA
ATOM     47  C   UNL     1     -48.289  29.073  24.321  1.00  0.00     0.130 A 
ATOM     48  C   UNL     1     -46.748  29.201  22.516  1.00  0.00     0.031 A 
ATOM     49  C   UNL     1     -47.704  28.482  23.207  1.00  0.00    -0.001 A 
ATOM     50  H   UNL     1     -46.261  28.784  21.639  1.00  0.00     0.084 H 
ATOM     51  H   UNL     1     -47.962  27.491  22.857  1.00  0.00     0.068 H 
BRANCH  47  52
ATOM     52  O   UNL     1     -49.251  28.478  25.100  1.00  0.00    -0.493 OA
BRANCH  52  53
ATOM     53  C   UNL     1     -48.822  27.647  26.178  1.00  0.00     0.091 C 
ATOM     54  H   UNL     1     -49.649  27.486  26.880  1.00  0.00     0.071 H 
ATOM     55  H   UNL     1     -47.978  28.115  26.699  1.00  0.00     0.071 H 
BRANCH  53  56
ATOM     56  C   UNL     1     -48.373  26.306  25.667  1.00  0.00    -0.007 C 
ATOM     57  C   UNL     1     -46.941  25.848  25.789  1.00  0.00    -0.047 C 
ATOM     58  C   UNL     1     -48.016  25.179  26.603  1.00  0.00    -0.047 C 
ATOM     59  H   UNL     1     -48.902  26.045  24.757  1.00  0.00     0.034 H 
ATOM     60  H   UNL     1     -46.513  25.295  24.960  1.00  0.00     0.027 H 
ATOM     61  H   UNL     1     -46.232  26.481  26.309  1.00  0.00     0.027 H 
ATOM     62  H   UNL     1     -48.311  24.173  26.325  1.00  0.00     0.027 H 
ATOM     63  H   UNL     1     -48.028  25.361  27.672  1.00  0.00     0.027 H 
ENDBRANCH  53  56
ENDBRANCH  52  53
ENDBRANCH  47  52
ENDBRANCH   1  37
TORSDOF 10
ENDMDL
MODEL 4
REMARK VINA RESULT:      -9.4      1.780      2.415
REMARK SMILES Nc1ncnc2c1ccn2[C@@H]1C[C@H](CCc2ccc3c(OCC4CC4)ccnc3c2)[C@@H](O)[C@H]1O
REMARK SMILES IDX 15 1 14 4 13 7 11 8 12 9 33 10 31 14 10 18 2 19 3 20 7 21
REMARK SMILES IDX 4 22 6 23 8 24 5 25 9 27 1 30 34 33 32 35 16 37 17 38 30 39
REMARK SMILES IDX 18 40 29 42 19 44 28 46 20 47 27 48 26 49 21 52 22 53 23 56
REMARK SMILES IDX 24 57 25 58
REMARK H PARENT 15 2 15 3 14 5 14 6 11 11 12 12 12 13 33 15 13 16 31 17 4 26
REMARK H PARENT 8 28 9 29 1 31 1 32 34 34 32 36 17 41 30 43 18 45 27 50 26 51
REMARK H PARENT 22 54 22 55 23 59 24 60 24 61 25 62 25 63
REMARK Flexibility Score: inf
ROOT
ATOM      1  C   UNL     1     -47.983  34.441  26.987  1.00  0.00    -0.027 C 
ATOM      2  H   UNL     1     -47.581  34.029  27.921  1.00  0.00     0.032 H 
ATOM      3  H   UNL     1     -48.992  34.802  27.226  1.00  0.00     0.032 H 
ENDROOT
BRANCH   1   4
ATOM      4  C   UNL     1     -47.113  35.597  26.487  1.00  0.00    -0.044 C 
ATOM      5  H   UNL     1     -46.284  35.203  25.885  1.00  0.00     0.027 H 
ATOM      6  H   UNL     1     -47.704  36.234  25.816  1.00  0.00     0.027 H 
BRANCH   4   7
ATOM      7  C   UNL     1     -46.562  36.453  27.632  1.00  0.00    -0.010 C 
ATOM      8  C   UNL     1     -45.214  38.387  28.273  1.00  0.00     0.064 C 
ATOM      9  C   UNL     1     -45.265  37.193  27.296  1.00  0.00    -0.024 C 
ATOM     10  C   UNL     1     -46.628  38.512  28.879  1.00  0.00     0.101 C 
ATOM     11  H   UNL     1     -44.503  38.153  29.074  1.00  0.00     0.056 H 
ATOM     12  H   UNL     1     -44.391  36.545  27.428  1.00  0.00     0.029 H 
ATOM     13  H   UNL     1     -45.266  37.521  26.250  1.00  0.00     0.029 H 
ATOM     14  C   UNL     1     -47.504  37.600  28.012  1.00  0.00     0.085 C 
ATOM     15  H   UNL     1     -47.009  39.539  28.912  1.00  0.00     0.065 H 
ATOM     16  H   UNL     1     -46.402  35.803  28.503  1.00  0.00     0.033 H 
ATOM     17  H   UNL     1     -47.843  38.135  27.118  1.00  0.00     0.063 H 
BRANCH   8  18
ATOM     18  N   UNL     1     -44.753  39.609  27.627  1.00  0.00    -0.327 N 
ATOM     19  C   UNL     1     -42.642  42.450  27.569  1.00  0.00     0.136 A 
ATOM     20  N   UNL     1     -41.945  42.306  28.713  1.00  0.00    -0.219 NA
ATOM     21  C   UNL     1     -43.605  41.489  27.234  1.00  0.00     0.061 A 
ATOM     22  C   UNL     1     -42.201  41.229  29.482  1.00  0.00     0.120 A 
ATOM     23  C   UNL     1     -43.771  40.435  28.124  1.00  0.00     0.145 A 
ATOM     24  C   UNL     1     -44.515  41.274  26.164  1.00  0.00    -0.031 A 
ATOM     25  N   UNL     1     -43.095  40.249  29.268  1.00  0.00    -0.218 NA
ATOM     26  H   UNL     1     -41.612  41.147  30.390  1.00  0.00     0.106 H 
ATOM     27  C   UNL     1     -45.205  40.110  26.427  1.00  0.00     0.007 A 
ATOM     28  H   UNL     1     -44.640  41.897  25.288  1.00  0.00     0.065 H 
ATOM     29  H   UNL     1     -45.970  39.604  25.851  1.00  0.00     0.082 H 
BRANCH  19  30
ATOM     30  N   UNL     1     -42.367  43.568  26.793  1.00  0.00    -0.383 N 
ATOM     31  H   UNL     1     -43.145  43.900  26.241  1.00  0.00     0.158 HD
ATOM     32  H   UNL     1     -41.871  44.263  27.338  1.00  0.00     0.158 HD
ENDBRANCH  19  30
ENDBRANCH   8  18
BRANCH  10  33
ATOM     33  O   UNL     1     -46.629  38.018  30.228  1.00  0.00    -0.388 OA
ATOM     34  H   UNL     1     -46.080  38.642  30.740  1.00  0.00     0.211 HD
ENDBRANCH  10  33
BRANCH  14  35
ATOM     35  O   UNL     1     -48.643  37.140  28.724  1.00  0.00    -0.390 OA
ATOM     36  H   UNL     1     -48.391  37.106  29.665  1.00  0.00     0.211 HD
ENDBRANCH  14  35
ENDBRANCH   4   7
ENDBRANCH   1   4
BRANCH   1  37
ATOM     37  C   UNL     1     -48.077  33.336  25.965  1.00  0.00    -0.046 A 
ATOM     38  C   UNL     1     -49.266  32.631  25.784  1.00  0.00    -0.058 A 
ATOM     39  C   UNL     1     -46.975  33.021  25.155  1.00  0.00    -0.032 A 
ATOM     40  C   UNL     1     -49.338  31.625  24.821  1.00  0.00    -0.049 A 
ATOM     41  H   UNL     1     -50.142  32.856  26.387  1.00  0.00     0.063 H 
ATOM     42  C   UNL     1     -47.023  32.024  24.188  1.00  0.00     0.074 A 
ATOM     43  H   UNL     1     -46.042  33.569  25.278  1.00  0.00     0.065 H 
ATOM     44  C   UNL     1     -48.223  31.307  24.012  1.00  0.00     0.042 A 
ATOM     45  H   UNL     1     -50.273  31.084  24.697  1.00  0.00     0.063 H 
ATOM     46  N   UNL     1     -45.921  31.785  23.458  1.00  0.00    -0.256 NA
ATOM     47  C   UNL     1     -48.246  30.298  23.022  1.00  0.00     0.130 A 
ATOM     48  C   UNL     1     -45.981  30.815  22.523  1.00  0.00     0.031 A 
ATOM     49  C   UNL     1     -47.104  30.052  22.268  1.00  0.00    -0.001 A 
ATOM     50  H   UNL     1     -45.063  30.662  21.962  1.00  0.00     0.084 H 
ATOM     51  H   UNL     1     -47.053  29.295  21.496  1.00  0.00     0.068 H 
BRANCH  47  52
ATOM     52  O   UNL     1     -49.431  29.619  22.877  1.00  0.00    -0.493 OA
BRANCH  52  53
ATOM     53  C   UNL     1     -50.055  29.623  21.593  1.00  0.00     0.091 C 
ATOM     54  H   UNL     1     -50.995  29.061  21.631  1.00  0.00     0.071 H 
ATOM     55  H   UNL     1     -49.383  29.177  20.850  1.00  0.00     0.071 H 
BRANCH  53  56
ATOM     56  C   UNL     1     -50.366  31.029  21.160  1.00  0.00    -0.007 C 
ATOM     57  C   UNL     1     -51.615  31.362  20.382  1.00  0.00    -0.047 C 
ATOM     58  C   UNL     1     -51.466  31.834  21.805  1.00  0.00    -0.047 C 
ATOM     59  H   UNL     1     -49.458  31.558  20.891  1.00  0.00     0.034 H 
ATOM     60  H   UNL     1     -51.539  32.101  19.592  1.00  0.00     0.027 H 
ATOM     61  H   UNL     1     -52.333  30.575  20.182  1.00  0.00     0.027 H 
ATOM     62  H   UNL     1     -51.292  32.891  21.974  1.00  0.00     0.027 H 
ATOM     63  H   UNL     1     -52.086  31.363  22.561  1.00  0.00     0.027 H 
ENDBRANCH  53  56
ENDBRANCH  52  53
ENDBRANCH  47  52
ENDBRANCH   1  37
TORSDOF 10
ENDMDL
MODEL 5
REMARK VINA RESULT:      -9.3      1.425      2.043
REMARK SMILES Nc1ncnc2c1ccn2[C@@H]1C[C@H](CCc2ccc3c(OCC4CC4)ccnc3c2)[C@@H](O)[C@H]1O
REMARK SMILES IDX 15 1 14 4 13 7 11 8 12 9 33 10 31 14 10 18 2 19 3 20 7 21
REMARK SMILES IDX 4 22 6 23 8 24 5 25 9 27 1 30 34 33 32 35 16 37 17 38 30 39
REMARK SMILES IDX 18 40 29 42 19 44 28 46 20 47 27 48 26 49 21 52 22 53 23 56
REMARK SMILES IDX 24 57 25 58
REMARK H PARENT 15 2 15 3 14 5 14 6 11 11 12 12 12 13 33 15 13 16 31 17 4 26
REMARK H PARENT 8 28 9 29 1 31 1 32 34 34 32 36 17 41 30 43 18 45 27 50 26 51
REMARK H PARENT 22 54 22 55 23 59 24 60 24 61 25 62 25 63
REMARK Flexibility Score: inf
ROOT
ATOM      1  C   UNL     1     -48.437  33.547  26.067  1.00  0.00    -0.027 C 
ATOM      2  H   UNL     1     -48.698  33.398  27.122  1.00  0.00     0.032 H 
ATOM      3  H   UNL     1     -49.349  33.914  25.579  1.00  0.00     0.032 H 
ENDROOT
BRANCH   1   4
ATOM      4  C   UNL     1     -47.313  34.578  25.929  1.00  0.00    -0.044 C 
ATOM      5  H   UNL     1     -46.372  34.069  25.686  1.00  0.00     0.027 H 
ATOM      6  H   UNL     1     -47.530  35.242  25.083  1.00  0.00     0.027 H 
BRANCH   4   7
ATOM      7  C   UNL     1     -47.135  35.423  27.195  1.00  0.00    -0.010 C 
ATOM      8  C   UNL     1     -46.070  37.367  28.222  1.00  0.00     0.064 C 
ATOM      9  C   UNL     1     -45.812  36.189  27.258  1.00  0.00    -0.024 C 
ATOM     10  C   UNL     1     -47.601  37.458  28.395  1.00  0.00     0.101 C 
ATOM     11  H   UNL     1     -45.616  37.131  29.192  1.00  0.00     0.056 H 
ATOM     12  H   UNL     1     -45.000  35.554  27.629  1.00  0.00     0.029 H 
ATOM     13  H   UNL     1     -45.517  36.536  26.261  1.00  0.00     0.029 H 
ATOM     14  C   UNL     1     -48.170  36.547  27.300  1.00  0.00     0.085 C 
ATOM     15  H   UNL     1     -47.997  38.477  28.328  1.00  0.00     0.065 H 
ATOM     16  H   UNL     1     -47.220  34.760  28.067  1.00  0.00     0.033 H 
ATOM     17  H   UNL     1     -48.247  37.092  26.352  1.00  0.00     0.063 H 
BRANCH   8  18
ATOM     18  N   UNL     1     -45.467  38.607  27.752  1.00  0.00    -0.327 N 
ATOM     19  C   UNL     1     -43.141  41.244  28.159  1.00  0.00     0.136 A 
ATOM     20  N   UNL     1     -42.545  40.916  29.322  1.00  0.00    -0.219 NA
ATOM     21  C   UNL     1     -44.150  40.412  27.654  1.00  0.00     0.061 A 
ATOM     22  C   UNL     1     -42.942  39.788  29.943  1.00  0.00     0.120 A 
ATOM     23  C   UNL     1     -44.464  39.286  28.403  1.00  0.00     0.145 A 
ATOM     24  C   UNL     1     -44.991  40.395  26.509  1.00  0.00    -0.031 A 
ATOM     25  N   UNL     1     -43.891  38.919  29.561  1.00  0.00    -0.218 NA
ATOM     26  H   UNL     1     -42.430  39.557  30.872  1.00  0.00     0.106 H 
ATOM     27  C   UNL     1     -45.789  39.274  26.591  1.00  0.00     0.007 A 
ATOM     28  H   UNL     1     -45.001  41.119  25.705  1.00  0.00     0.065 H 
ATOM     29  H   UNL     1     -46.545  38.902  25.912  1.00  0.00     0.082 H 
BRANCH  19  30
ATOM     30  N   UNL     1     -42.723  42.412  27.537  1.00  0.00    -0.383 N 
ATOM     31  H   UNL     1     -43.333  43.205  27.672  1.00  0.00     0.158 HD
ATOM     32  H   UNL     1     -41.736  42.569  27.704  1.00  0.00     0.158 HD
ENDBRANCH  19  30
ENDBRANCH   8  18
BRANCH  10  33
ATOM     33  O   UNL     1     -47.983  36.940  29.679  1.00  0.00    -0.388 OA
ATOM     34  H   UNL     1     -48.073  35.975  29.561  1.00  0.00     0.211 HD
ENDBRANCH  10  33
BRANCH  14  35
ATOM     35  O   UNL     1     -49.457  36.056  27.646  1.00  0.00    -0.390 OA
ATOM     36  H   UNL     1     -49.330  35.435  28.387  1.00  0.00     0.211 HD
ENDBRANCH  14  35
ENDBRANCH   4   7
ENDBRANCH   1   4
BRANCH   1  37
ATOM     37  C   UNL     1     -48.048  32.220  25.466  1.00  0.00    -0.046 A 
ATOM     38  C   UNL     1     -48.654  31.039  25.892  1.00  0.00    -0.058 A 
ATOM     39  C   UNL     1     -47.090  32.157  24.442  1.00  0.00    -0.032 A 
ATOM     40  C   UNL     1     -48.293  29.824  25.311  1.00  0.00    -0.049 A 
ATOM     41  H   UNL     1     -49.407  31.053  26.676  1.00  0.00     0.063 H 
ATOM     42  C   UNL     1     -46.715  30.958  23.846  1.00  0.00     0.074 A 
ATOM     43  H   UNL     1     -46.615  33.071  24.091  1.00  0.00     0.065 H 
ATOM     44  C   UNL     1     -47.323  29.765  24.284  1.00  0.00     0.042 A 
ATOM     45  H   UNL     1     -48.775  28.913  25.659  1.00  0.00     0.063 H 
ATOM     46  N   UNL     1     -45.789  30.986  22.875  1.00  0.00    -0.256 NA
ATOM     47  C   UNL     1     -46.925  28.558  23.663  1.00  0.00     0.130 A 
ATOM     48  C   UNL     1     -45.434  29.817  22.306  1.00  0.00     0.031 A 
ATOM     49  C   UNL     1     -45.964  28.591  22.658  1.00  0.00    -0.001 A 
ATOM     50  H   UNL     1     -44.680  29.896  21.527  1.00  0.00     0.084 H 
ATOM     51  H   UNL     1     -45.614  27.706  22.142  1.00  0.00     0.068 H 
BRANCH  47  52
ATOM     52  O   UNL     1     -47.537  27.415  24.114  1.00  0.00    -0.493 OA
BRANCH  52  53
ATOM     53  C   UNL     1     -46.746  26.467  24.830  1.00  0.00     0.091 C 
ATOM     54  H   UNL     1     -45.728  26.852  24.962  1.00  0.00     0.071 H 
ATOM     55  H   UNL     1     -46.716  25.516  24.284  1.00  0.00     0.071 H 
BRANCH  53  56
ATOM     56  C   UNL     1     -47.330  26.209  26.191  1.00  0.00    -0.007 C 
ATOM     57  C   UNL     1     -48.570  25.371  26.376  1.00  0.00    -0.047 C 
ATOM     58  C   UNL     1     -47.237  24.857  26.852  1.00  0.00    -0.047 C 
ATOM     59  H   UNL     1     -47.221  27.080  26.827  1.00  0.00     0.034 H 
ATOM     60  H   UNL     1     -49.289  25.687  27.125  1.00  0.00     0.027 H 
ATOM     61  H   UNL     1     -49.016  24.896  25.510  1.00  0.00     0.027 H 
ATOM     62  H   UNL     1     -47.057  24.825  27.921  1.00  0.00     0.027 H 
ATOM     63  H   UNL     1     -46.787  24.036  26.305  1.00  0.00     0.027 H 
ENDBRANCH  53  56
ENDBRANCH  52  53
ENDBRANCH  47  52
ENDBRANCH   1  37
TORSDOF 10
ENDMDL
MODEL 6
REMARK VINA RESULT:      -9.1      1.575      2.891
REMARK SMILES Nc1ncnc2c1ccn2[C@@H]1C[C@H](CCc2ccc3c(OCC4CC4)ccnc3c2)[C@@H](O)[C@H]1O
REMARK SMILES IDX 15 1 14 4 13 7 11 8 12 9 33 10 31 14 10 18 2 19 3 20 7 21
REMARK SMILES IDX 4 22 6 23 8 24 5 25 9 27 1 30 34 33 32 35 16 37 17 38 30 39
REMARK SMILES IDX 18 40 29 42 19 44 28 46 20 47 27 48 26 49 21 52 22 53 23 56
REMARK SMILES IDX 24 57 25 58
REMARK H PARENT 15 2 15 3 14 5 14 6 11 11 12 12 12 13 33 15 13 16 31 17 4 26
REMARK H PARENT 8 28 9 29 1 31 1 32 34 34 32 36 17 41 30 43 18 45 27 50 26 51
REMARK H PARENT 22 54 22 55 23 59 24 60 24 61 25 62 25 63
REMARK Flexibility Score: inf
ROOT
ATOM      1  C   UNL     1     -47.689  34.764  26.981  1.00  0.00    -0.027 C 
ATOM      2  H   UNL     1     -47.928  34.420  27.995  1.00  0.00     0.032 H 
ATOM      3  H   UNL     1     -48.524  35.406  26.675  1.00  0.00     0.032 H 
ENDROOT
BRANCH   1   4
ATOM      4  C   UNL     1     -46.380  35.560  26.975  1.00  0.00    -0.044 C 
ATOM      5  H   UNL     1     -45.561  34.927  27.339  1.00  0.00     0.027 H 
ATOM      6  H   UNL     1     -46.124  35.830  25.943  1.00  0.00     0.027 H 
BRANCH   4   7
ATOM      7  C   UNL     1     -46.467  36.835  27.820  1.00  0.00    -0.010 C 
ATOM      8  C   UNL     1     -45.583  39.073  28.239  1.00  0.00     0.064 C 
ATOM      9  C   UNL     1     -45.161  37.629  27.895  1.00  0.00    -0.024 C 
ATOM     10  C   UNL     1     -47.105  39.150  27.993  1.00  0.00     0.101 C 
ATOM     11  H   UNL     1     -45.385  39.252  29.303  1.00  0.00     0.056 H 
ATOM     12  H   UNL     1     -44.493  37.225  28.665  1.00  0.00     0.029 H 
ATOM     13  H   UNL     1     -44.621  37.577  26.943  1.00  0.00     0.029 H 
ATOM     14  C   UNL     1     -47.441  37.861  27.233  1.00  0.00     0.085 C 
ATOM     15  H   UNL     1     -47.422  40.045  27.446  1.00  0.00     0.065 H 
ATOM     16  H   UNL     1     -46.790  36.556  28.833  1.00  0.00     0.033 H 
ATOM     17  H   UNL     1     -47.263  37.994  26.160  1.00  0.00     0.063 H 
BRANCH   8  18
ATOM     18  N   UNL     1     -44.825  40.063  27.485  1.00  0.00    -0.327 N 
ATOM     19  C   UNL     1     -42.059  42.253  27.196  1.00  0.00     0.136 A 
ATOM     20  N   UNL     1     -41.421  42.056  28.367  1.00  0.00    -0.219 NA
ATOM     21  C   UNL     1     -43.236  41.538  26.935  1.00  0.00     0.061 A 
ATOM     22  C   UNL     1     -41.943  41.166  29.233  1.00  0.00     0.120 A 
ATOM     23  C   UNL     1     -43.665  40.660  27.922  1.00  0.00     0.145 A 
ATOM     24  C   UNL     1     -44.171  41.452  25.869  1.00  0.00    -0.031 A 
ATOM     25  N   UNL     1     -43.057  40.428  29.096  1.00  0.00    -0.218 NA
ATOM     26  H   UNL     1     -41.394  41.031  30.160  1.00  0.00     0.106 H 
ATOM     27  C   UNL     1     -45.136  40.536  26.230  1.00  0.00     0.007 A 
ATOM     28  H   UNL     1     -44.133  41.992  24.932  1.00  0.00     0.065 H 
ATOM     29  H   UNL     1     -46.004  40.184  25.688  1.00  0.00     0.082 H 
BRANCH  19  30
ATOM     30  N   UNL     1     -41.508  43.177  26.319  1.00  0.00    -0.383 N 
ATOM     31  H   UNL     1     -41.685  44.143  26.557  1.00  0.00     0.158 HD
ATOM     32  H   UNL     1     -40.548  42.934  26.105  1.00  0.00     0.158 HD
ENDBRANCH  19  30
ENDBRANCH   8  18
BRANCH  10  33
ATOM     33  O   UNL     1     -47.806  39.151  29.247  1.00  0.00    -0.388 OA
ATOM     34  H   UNL     1     -48.683  39.537  29.061  1.00  0.00     0.211 HD
ENDBRANCH  10  33
BRANCH  14  35
ATOM     35  O   UNL     1     -48.796  37.481  27.424  1.00  0.00    -0.390 OA
ATOM     36  H   UNL     1     -48.957  37.492  28.386  1.00  0.00     0.211 HD
ENDBRANCH  14  35
ENDBRANCH   4   7
ENDBRANCH   1   4
BRANCH   1  37
ATOM     37  C   UNL     1     -47.614  33.569  26.063  1.00  0.00    -0.046 A 
ATOM     38  C   UNL     1     -46.405  33.189  25.484  1.00  0.00    -0.058 A 
ATOM     39  C   UNL     1     -48.760  32.801  25.802  1.00  0.00    -0.032 A 
ATOM     40  C   UNL     1     -46.353  32.071  24.653  1.00  0.00    -0.049 A 
ATOM     41  H   UNL     1     -45.496  33.756  25.673  1.00  0.00     0.063 H 
ATOM     42  C   UNL     1     -48.733  31.682  24.978  1.00  0.00     0.074 A 
ATOM     43  H   UNL     1     -49.710  33.079  26.254  1.00  0.00     0.065 H 
ATOM     44  C   UNL     1     -47.510  31.303  24.388  1.00  0.00     0.042 A 
ATOM     45  H   UNL     1     -45.400  31.791  24.208  1.00  0.00     0.063 H 
ATOM     46  N   UNL     1     -49.875  31.004  24.779  1.00  0.00    -0.256 NA
ATOM     47  C   UNL     1     -47.510  30.161  23.554  1.00  0.00     0.130 A 
ATOM     48  C   UNL     1     -49.835  29.920  23.978  1.00  0.00     0.031 A 
ATOM     49  C   UNL     1     -48.694  29.462  23.349  1.00  0.00    -0.001 A 
ATOM     50  H   UNL     1     -50.786  29.410  23.850  1.00  0.00     0.084 H 
ATOM     51  H   UNL     1     -48.763  28.582  22.724  1.00  0.00     0.068 H 
BRANCH  47  52
ATOM     52  O   UNL     1     -46.302  29.821  22.995  1.00  0.00    -0.493 OA
BRANCH  52  53
ATOM     53  C   UNL     1     -46.192  29.838  21.572  1.00  0.00     0.091 C 
ATOM     54  H   UNL     1     -47.045  29.316  21.124  1.00  0.00     0.071 H 
ATOM     55  H   UNL     1     -45.256  29.357  21.263  1.00  0.00     0.071 H 
BRANCH  53  56
ATOM     56  C   UNL     1     -46.185  31.252  21.058  1.00  0.00    -0.007 C 
ATOM     57  C   UNL     1     -45.874  31.571  19.617  1.00  0.00    -0.047 C 
ATOM     58  C   UNL     1     -47.269  31.771  20.148  1.00  0.00    -0.047 C 
ATOM     59  H   UNL     1     -45.802  31.932  21.811  1.00  0.00     0.034 H 
ATOM     60  H   UNL     1     -45.278  32.453  19.410  1.00  0.00     0.027 H 
ATOM     61  H   UNL     1     -45.708  30.754  18.924  1.00  0.00     0.027 H 
ATOM     62  H   UNL     1     -47.614  32.788  20.297  1.00  0.00     0.027 H 
ATOM     63  H   UNL     1     -48.041  31.088  19.810  1.00  0.00     0.027 H 
ENDBRANCH  53  56
ENDBRANCH  52  53
ENDBRANCH  47  52
ENDBRANCH   1  37
TORSDOF 10
ENDMDL
MODEL 7
REMARK VINA RESULT:      -9.0      2.089      2.783
REMARK SMILES Nc1ncnc2c1ccn2[C@@H]1C[C@H](CCc2ccc3c(OCC4CC4)ccnc3c2)[C@@H](O)[C@H]1O
REMARK SMILES IDX 15 1 14 4 13 7 11 8 12 9 33 10 31 14 10 18 2 19 3 20 7 21
REMARK SMILES IDX 4 22 6 23 8 24 5 25 9 27 1 30 34 33 32 35 16 37 17 38 30 39
REMARK SMILES IDX 18 40 29 42 19 44 28 46 20 47 27 48 26 49 21 52 22 53 23 56
REMARK SMILES IDX 24 57 25 58
REMARK H PARENT 15 2 15 3 14 5 14 6 11 11 12 12 12 13 33 15 13 16 31 17 4 26
REMARK H PARENT 8 28 9 29 1 31 1 32 34 34 32 36 17 41 30 43 18 45 27 50 26 51
REMARK H PARENT 22 54 22 55 23 59 24 60 24 61 25 62 25 63
REMARK Flexibility Score: inf
ROOT
ATOM      1  C   UNL     1     -46.064  34.329  26.338  1.00  0.00    -0.027 C 
ATOM      2  H   UNL     1     -46.486  35.223  25.861  1.00  0.00     0.032 H 
ATOM      3  H   UNL     1     -44.983  34.370  26.152  1.00  0.00     0.032 H 
ENDROOT
BRANCH   1   4
ATOM      4  C   UNL     1     -46.341  34.338  27.844  1.00  0.00    -0.044 C 
ATOM      5  H   UNL     1     -46.925  33.451  28.118  1.00  0.00     0.027 H 
ATOM      6  H   UNL     1     -45.391  34.261  28.389  1.00  0.00     0.027 H 
BRANCH   4   7
ATOM      7  C   UNL     1     -47.076  35.605  28.297  1.00  0.00    -0.010 C 
ATOM      8  C   UNL     1     -47.078  38.045  28.383  1.00  0.00     0.064 C 
ATOM      9  C   UNL     1     -46.164  36.811  28.530  1.00  0.00    -0.024 C 
ATOM     10  C   UNL     1     -48.379  37.545  27.720  1.00  0.00     0.101 C 
ATOM     11  H   UNL     1     -47.314  38.428  29.384  1.00  0.00     0.056 H 
ATOM     12  H   UNL     1     -45.710  36.780  29.527  1.00  0.00     0.029 H 
ATOM     13  H   UNL     1     -45.343  36.822  27.804  1.00  0.00     0.029 H 
ATOM     14  C   UNL     1     -48.047  36.129  27.235  1.00  0.00     0.085 C 
ATOM     15  H   UNL     1     -48.738  38.185  26.906  1.00  0.00     0.065 H 
ATOM     16  H   UNL     1     -47.627  35.373  29.219  1.00  0.00     0.033 H 
ATOM     17  H   UNL     1     -47.563  36.166  26.252  1.00  0.00     0.063 H 
BRANCH   8  18
ATOM     18  N   UNL     1     -46.433  39.125  27.648  1.00  0.00    -0.327 N 
ATOM     19  C   UNL     1     -46.582  42.290  26.069  1.00  0.00     0.136 A 
ATOM     20  N   UNL     1     -47.873  42.632  26.245  1.00  0.00    -0.219 NA
ATOM     21  C   UNL     1     -46.128  41.063  26.573  1.00  0.00     0.061 A 
ATOM     22  C   UNL     1     -48.671  41.777  26.914  1.00  0.00     0.120 A 
ATOM     23  C   UNL     1     -47.062  40.276  27.235  1.00  0.00     0.145 A 
ATOM     24  C   UNL     1     -44.896  40.357  26.605  1.00  0.00    -0.031 A 
ATOM     25  N   UNL     1     -48.354  40.582  27.439  1.00  0.00    -0.218 NA
ATOM     26  H   UNL     1     -49.701  42.094  27.041  1.00  0.00     0.106 H 
ATOM     27  C   UNL     1     -45.109  39.171  27.274  1.00  0.00     0.007 A 
ATOM     28  H   UNL     1     -43.951  40.689  26.194  1.00  0.00     0.065 H 
ATOM     29  H   UNL     1     -44.421  38.371  27.516  1.00  0.00     0.082 H 
BRANCH  19  30
ATOM     30  N   UNL     1     -45.776  43.181  25.373  1.00  0.00    -0.383 N 
ATOM     31  H   UNL     1     -46.226  44.050  25.123  1.00  0.00     0.158 HD
ATOM     32  H   UNL     1     -44.867  43.254  25.813  1.00  0.00     0.158 HD
ENDBRANCH  19  30
ENDBRANCH   8  18
BRANCH  10  33
ATOM     33  O   UNL     1     -49.431  37.471  28.695  1.00  0.00    -0.388 OA
ATOM     34  H   UNL     1     -50.071  38.167  28.449  1.00  0.00     0.211 HD
ENDBRANCH  10  33
BRANCH  14  35
ATOM     35  O   UNL     1     -49.213  35.324  27.135  1.00  0.00    -0.390 OA
ATOM     36  H   UNL     1     -49.182  34.893  26.261  1.00  0.00     0.211 HD
ENDBRANCH  14  35
ENDBRANCH   4   7
ENDBRANCH   1   4
BRANCH   1  37
ATOM     37  C   UNL     1     -46.639  33.102  25.676  1.00  0.00    -0.046 A 
ATOM     38  C   UNL     1     -47.592  32.322  26.329  1.00  0.00    -0.058 A 
ATOM     39  C   UNL     1     -46.247  32.745  24.377  1.00  0.00    -0.032 A 
ATOM     40  C   UNL     1     -48.126  31.201  25.693  1.00  0.00    -0.049 A 
ATOM     41  H   UNL     1     -47.926  32.575  27.332  1.00  0.00     0.063 H 
ATOM     42  C   UNL     1     -46.765  31.633  23.723  1.00  0.00     0.074 A 
ATOM     43  H   UNL     1     -45.511  33.350  23.851  1.00  0.00     0.065 H 
ATOM     44  C   UNL     1     -47.723  30.841  24.387  1.00  0.00     0.042 A 
ATOM     45  H   UNL     1     -48.866  30.603  26.219  1.00  0.00     0.063 H 
ATOM     46  N   UNL     1     -46.334  31.361  22.481  1.00  0.00    -0.256 NA
ATOM     47  C   UNL     1     -48.235  29.716  23.699  1.00  0.00     0.130 A 
ATOM     48  C   UNL     1     -46.844  30.280  21.857  1.00  0.00     0.031 A 
ATOM     49  C   UNL     1     -47.785  29.436  22.414  1.00  0.00    -0.001 A 
ATOM     50  H   UNL     1     -46.460  30.105  20.855  1.00  0.00     0.084 H 
ATOM     51  H   UNL     1     -48.134  28.593  21.833  1.00  0.00     0.068 H 
BRANCH  47  52
ATOM     52  O   UNL     1     -49.166  28.966  24.375  1.00  0.00    -0.493 OA
BRANCH  52  53
ATOM     53  C   UNL     1     -48.991  27.550  24.409  1.00  0.00     0.091 C 
ATOM     54  H   UNL     1     -47.975  27.290  24.090  1.00  0.00     0.071 H 
ATOM     55  H   UNL     1     -49.723  27.067  23.750  1.00  0.00     0.071 H 
BRANCH  53  56
ATOM     56  C   UNL     1     -49.195  27.024  25.802  1.00  0.00    -0.007 C 
ATOM     57  C   UNL     1     -49.833  25.681  26.059  1.00  0.00    -0.047 C 
ATOM     58  C   UNL     1     -48.370  25.887  26.350  1.00  0.00    -0.047 C 
ATOM     59  H   UNL     1     -49.443  27.830  26.485  1.00  0.00     0.034 H 
ATOM     60  H   UNL     1     -50.512  25.594  26.900  1.00  0.00     0.027 H 
ATOM     61  H   UNL     1     -50.098  25.058  25.213  1.00  0.00     0.027 H 
ATOM     62  H   UNL     1     -48.062  25.937  27.389  1.00  0.00     0.027 H 
ATOM     63  H   UNL     1     -47.652  25.400  25.700  1.00  0.00     0.027 H 
ENDBRANCH  53  56
ENDBRANCH  52  53
ENDBRANCH  47  52
ENDBRANCH   1  37
TORSDOF 10
ENDMDL
