MODEL 1
REMARK VINA RESULT:      -9.4      0.000      0.000
REMARK SMILES C=CCc1cn([C@@H]2O[C@H](COc3ccc4ccc(NC)nc4c3)[C@@H](O)[C@H]2O)c2ncnc(N)c12
REMARK SMILES IDX 10 1 9 4 7 5 8 6 26 7 24 9 6 13 4 14 5 15 34 16 28 18 32 19
REMARK SMILES IDX 29 20 31 21 30 22 3 24 2 27 1 28 33 32 27 35 25 37 11 39
REMARK SMILES IDX 12 40 13 41 23 42 14 43 22 45 15 47 21 49 16 50 18 51 17 52
REMARK SMILES IDX 19 55 20 57
REMARK H PARENT 10 2 10 3 7 8 26 10 9 11 24 12 5 17 30 23 3 25 3 26 1 29 1 30
REMARK H PARENT 2 31 33 33 33 34 27 36 25 38 13 44 23 46 14 48 16 53 17 54
REMARK H PARENT 19 56 20 58 20 59 20 60
REMARK Flexibility Score: inf
ROOT
ATOM      1  C   UNL     1     -45.874  35.961  27.759  1.00  0.00     0.117 C 
ATOM      2  H   UNL     1     -44.792  35.800  27.809  1.00  0.00     0.073 H 
ATOM      3  H   UNL     1     -46.326  35.161  28.356  1.00  0.00     0.073 H 
ENDROOT
BRANCH   1   4
ATOM      4  C   UNL     1     -46.276  37.304  28.378  1.00  0.00     0.123 C 
ATOM      5  C   UNL     1     -45.586  39.518  28.619  1.00  0.00     0.164 C 
ATOM      6  O   UNL     1     -45.134  38.137  28.647  1.00  0.00    -0.345 OA
ATOM      7  C   UNL     1     -47.057  39.513  28.182  1.00  0.00     0.128 C 
ATOM      8  H   UNL     1     -45.458  39.917  29.631  1.00  0.00     0.088 H 
ATOM      9  C   UNL     1     -47.192  38.156  27.507  1.00  0.00     0.114 C 
ATOM     10  H   UNL     1     -47.339  40.344  27.528  1.00  0.00     0.068 H 
ATOM     11  H   UNL     1     -46.755  37.088  29.343  1.00  0.00     0.067 H 
ATOM     12  H   UNL     1     -46.831  38.206  26.473  1.00  0.00     0.066 H 
BRANCH   5  13
ATOM     13  N   UNL     1     -44.732  40.281  27.716  1.00  0.00    -0.303 N 
ATOM     14  C   UNL     1     -43.958  41.371  25.916  1.00  0.00    -0.013 A 
ATOM     15  C   UNL     1     -45.050  40.709  26.453  1.00  0.00     0.013 A 
ATOM     16  C   UNL     1     -42.941  41.378  26.933  1.00  0.00     0.065 A 
ATOM     17  H   UNL     1     -46.011  40.486  26.013  1.00  0.00     0.082 H 
ATOM     18  C   UNL     1     -43.471  40.717  28.036  1.00  0.00     0.147 A 
ATOM     19  C   UNL     1     -41.626  41.857  27.072  1.00  0.00     0.136 A 
ATOM     20  N   UNL     1     -42.868  40.522  29.220  1.00  0.00    -0.218 NA
ATOM     21  N   UNL     1     -40.988  41.682  28.248  1.00  0.00    -0.219 NA
ATOM     22  C   UNL     1     -41.629  41.034  29.236  1.00  0.00     0.120 A 
ATOM     23  H   UNL     1     -41.073  40.910  30.161  1.00  0.00     0.106 H 
BRANCH  14  24
ATOM     24  C   UNL     1     -43.900  41.958  24.540  1.00  0.00    -0.008 C 
ATOM     25  H   UNL     1     -42.873  41.890  24.158  1.00  0.00     0.036 H 
ATOM     26  H   UNL     1     -44.506  41.344  23.864  1.00  0.00     0.036 H 
BRANCH  24  27
ATOM     27  C   UNL     1     -44.342  43.393  24.420  1.00  0.00    -0.087 C 
ATOM     28  C   UNL     1     -43.882  44.454  25.096  1.00  0.00    -0.103 C 
ATOM     29  H   UNL     1     -44.282  45.446  24.913  1.00  0.00     0.053 H 
ATOM     30  H   UNL     1     -43.089  44.375  25.834  1.00  0.00     0.053 H 
ATOM     31  H   UNL     1     -45.126  43.567  23.685  1.00  0.00     0.057 H 
ENDBRANCH  24  27
ENDBRANCH  14  24
BRANCH  19  32
ATOM     32  N   UNL     1     -40.914  42.517  26.086  1.00  0.00    -0.383 N 
ATOM     33  H   UNL     1     -41.064  43.509  26.002  1.00  0.00     0.158 HD
ATOM     34  H   UNL     1     -39.963  42.179  26.023  1.00  0.00     0.158 HD
ENDBRANCH  19  32
ENDBRANCH   5  13
BRANCH   7  35
ATOM     35  O   UNL     1     -47.935  39.565  29.322  1.00  0.00    -0.386 OA
ATOM     36  H   UNL     1     -47.357  39.664  30.107  1.00  0.00     0.211 HD
ENDBRANCH   7  35
BRANCH   9  37
ATOM     37  O   UNL     1     -48.544  37.706  27.522  1.00  0.00    -0.387 OA
ATOM     38  H   UNL     1     -48.899  37.828  26.621  1.00  0.00     0.211 HD
ENDBRANCH   9  37
ENDBRANCH   1   4
BRANCH   1  39
ATOM     39  O   UNL     1     -46.389  35.792  26.434  1.00  0.00    -0.491 OA
BRANCH  39  40
ATOM     40  C   UNL     1     -46.926  34.587  26.079  1.00  0.00     0.121 A 
ATOM     41  C   UNL     1     -48.237  34.392  26.510  1.00  0.00    -0.019 A 
ATOM     42  C   UNL     1     -46.310  33.601  25.305  1.00  0.00     0.007 A 
ATOM     43  C   UNL     1     -48.920  33.223  26.179  1.00  0.00    -0.049 A 
ATOM     44  H   UNL     1     -48.731  35.156  27.106  1.00  0.00     0.066 H 
ATOM     45  C   UNL     1     -46.969  32.427  24.955  1.00  0.00     0.076 A 
ATOM     46  H   UNL     1     -45.304  33.728  24.919  1.00  0.00     0.069 H 
ATOM     47  C   UNL     1     -48.291  32.241  25.401  1.00  0.00     0.001 A 
ATOM     48  H   UNL     1     -49.941  33.088  26.526  1.00  0.00     0.063 H 
ATOM     49  N   UNL     1     -46.329  31.514  24.202  1.00  0.00    -0.231 NA
ATOM     50  C   UNL     1     -48.939  31.057  25.042  1.00  0.00    -0.049 A 
ATOM     51  C   UNL     1     -46.970  30.383  23.844  1.00  0.00     0.126 A 
ATOM     52  C   UNL     1     -48.270  30.121  24.261  1.00  0.00    -0.019 A 
ATOM     53  H   UNL     1     -49.956  30.855  25.366  1.00  0.00     0.063 H 
ATOM     54  H   UNL     1     -48.758  29.192  23.988  1.00  0.00     0.066 H 
BRANCH  51  55
ATOM     55  N   UNL     1     -46.319  29.408  23.066  1.00  0.00    -0.373 N 
ATOM     56  H   UNL     1     -45.350  29.684  22.942  1.00  0.00     0.161 HD
BRANCH  55  57
ATOM     57  C   UNL     1     -46.426  28.059  23.599  1.00  0.00     0.005 C 
ATOM     58  H   UNL     1     -47.086  28.023  24.473  1.00  0.00     0.045 H 
ATOM     59  H   UNL     1     -45.444  27.648  23.859  1.00  0.00     0.045 H 
ATOM     60  H   UNL     1     -46.864  27.410  22.834  1.00  0.00     0.045 H 
ENDBRANCH  55  57
ENDBRANCH  51  55
ENDBRANCH  39  40
ENDBRANCH   1  39
TORSDOF 11
ENDMDL
MODEL 2
REMARK VINA RESULT:      -9.1      1.822      2.361
REMARK SMILES C=CCc1cn([C@@H]2O[C@H](COc3ccc4ccc(NC)nc4c3)[C@@H](O)[C@H]2O)c2ncnc(N)c12
REMARK SMILES IDX 10 1 9 4 7 5 8 6 26 7 24 9 6 13 4 14 5 15 34 16 28 18 32 19
REMARK SMILES IDX 29 20 31 21 30 22 3 24 2 27 1 28 33 32 27 35 25 37 11 39
REMARK SMILES IDX 12 40 13 41 23 42 14 43 22 45 15 47 21 49 16 50 18 51 17 52
REMARK SMILES IDX 19 55 20 57
REMARK H PARENT 10 2 10 3 7 8 26 10 9 11 24 12 5 17 30 23 3 25 3 26 1 29 1 30
REMARK H PARENT 2 31 33 33 33 34 27 36 25 38 13 44 23 46 14 48 16 53 17 54
REMARK H PARENT 19 56 20 58 20 59 20 60
REMARK Flexibility Score: inf
ROOT
ATOM      1  C   UNL     1     -46.458  35.381  26.911  1.00  0.00     0.117 C 
ATOM      2  H   UNL     1     -46.903  36.065  26.180  1.00  0.00     0.073 H 
ATOM      3  H   UNL     1     -45.543  34.996  26.446  1.00  0.00     0.073 H 
ENDROOT
BRANCH   1   4
ATOM      4  C   UNL     1     -46.067  36.109  28.202  1.00  0.00     0.123 C 
ATOM      5  C   UNL     1     -44.870  37.940  29.011  1.00  0.00     0.164 C 
ATOM      6  O   UNL     1     -44.839  36.846  28.055  1.00  0.00    -0.345 OA
ATOM      7  C   UNL     1     -46.252  37.929  29.679  1.00  0.00     0.128 C 
ATOM      8  H   UNL     1     -44.064  37.758  29.730  1.00  0.00     0.088 H 
ATOM      9  C   UNL     1     -47.087  37.133  28.687  1.00  0.00     0.114 C 
ATOM     10  H   UNL     1     -46.665  38.922  29.883  1.00  0.00     0.068 H 
ATOM     11  H   UNL     1     -45.895  35.343  28.969  1.00  0.00     0.067 H 
ATOM     12  H   UNL     1     -47.429  37.779  27.871  1.00  0.00     0.066 H 
BRANCH   5  13
ATOM     13  N   UNL     1     -44.589  39.189  28.316  1.00  0.00    -0.303 N 
ATOM     14  C   UNL     1     -44.647  40.872  26.834  1.00  0.00    -0.013 A 
ATOM     15  C   UNL     1     -45.232  39.672  27.205  1.00  0.00     0.013 A 
ATOM     16  C   UNL     1     -43.623  41.147  27.805  1.00  0.00     0.065 A 
ATOM     17  H   UNL     1     -46.033  39.117  26.738  1.00  0.00     0.082 H 
ATOM     18  C   UNL     1     -43.639  40.095  28.716  1.00  0.00     0.147 A 
ATOM     19  C   UNL     1     -42.668  42.153  28.040  1.00  0.00     0.136 A 
ATOM     20  N   UNL     1     -42.863  39.964  29.804  1.00  0.00    -0.218 NA
ATOM     21  N   UNL     1     -41.872  42.058  29.125  1.00  0.00    -0.219 NA
ATOM     22  C   UNL     1     -42.007  40.989  29.929  1.00  0.00     0.120 A 
ATOM     23  H   UNL     1     -41.339  40.951  30.784  1.00  0.00     0.106 H 
BRANCH  14  24
ATOM     24  C   UNL     1     -45.048  41.693  25.649  1.00  0.00    -0.008 C 
ATOM     25  H   UNL     1     -44.167  41.881  25.022  1.00  0.00     0.036 H 
ATOM     26  H   UNL     1     -45.733  41.109  25.024  1.00  0.00     0.036 H 
BRANCH  24  27
ATOM     27  C   UNL     1     -45.687  43.022  25.957  1.00  0.00    -0.087 C 
ATOM     28  C   UNL     1     -46.989  43.334  25.926  1.00  0.00    -0.103 C 
ATOM     29  H   UNL     1     -47.327  44.335  26.177  1.00  0.00     0.053 H 
ATOM     30  H   UNL     1     -47.756  42.610  25.669  1.00  0.00     0.053 H 
ATOM     31  H   UNL     1     -44.989  43.806  26.244  1.00  0.00     0.057 H 
ENDBRANCH  24  27
ENDBRANCH  14  24
BRANCH  19  32
ATOM     32  N   UNL     1     -42.476  43.265  27.240  1.00  0.00    -0.383 N 
ATOM     33  H   UNL     1     -43.130  44.024  27.349  1.00  0.00     0.158 HD
ATOM     34  H   UNL     1     -41.495  43.499  27.155  1.00  0.00     0.158 HD
ENDBRANCH  19  32
ENDBRANCH   5  13
BRANCH   7  35
ATOM     35  O   UNL     1     -46.213  37.229  30.937  1.00  0.00    -0.386 OA
ATOM     36  H   UNL     1     -46.239  36.275  30.719  1.00  0.00     0.211 HD
ENDBRANCH   7  35
BRANCH   9  37
ATOM     37  O   UNL     1     -48.210  36.532  29.327  1.00  0.00    -0.387 OA
ATOM     38  H   UNL     1     -47.902  35.697  29.728  1.00  0.00     0.211 HD
ENDBRANCH   9  37
ENDBRANCH   1   4
BRANCH   1  39
ATOM     39  O   UNL     1     -47.280  34.235  27.155  1.00  0.00    -0.491 OA
BRANCH  39  40
ATOM     40  C   UNL     1     -47.439  33.310  26.163  1.00  0.00     0.121 A 
ATOM     41  C   UNL     1     -46.312  33.121  25.365  1.00  0.00    -0.019 A 
ATOM     42  C   UNL     1     -48.575  32.531  25.931  1.00  0.00     0.007 A 
ATOM     43  C   UNL     1     -46.323  32.174  24.344  1.00  0.00    -0.049 A 
ATOM     44  H   UNL     1     -45.418  33.715  25.541  1.00  0.00     0.066 H 
ATOM     45  C   UNL     1     -48.613  31.574  24.922  1.00  0.00     0.076 A 
ATOM     46  H   UNL     1     -49.461  32.620  26.551  1.00  0.00     0.069 H 
ATOM     47  C   UNL     1     -47.470  31.399  24.120  1.00  0.00     0.001 A 
ATOM     48  H   UNL     1     -45.436  32.043  23.730  1.00  0.00     0.063 H 
ATOM     49  N   UNL     1     -49.732  30.848  24.747  1.00  0.00    -0.231 NA
ATOM     50  C   UNL     1     -47.524  30.435  23.111  1.00  0.00    -0.049 A 
ATOM     51  C   UNL     1     -49.768  29.907  23.782  1.00  0.00     0.126 A 
ATOM     52  C   UNL     1     -48.684  29.687  22.940  1.00  0.00    -0.019 A 
ATOM     53  H   UNL     1     -46.674  30.263  22.456  1.00  0.00     0.063 H 
ATOM     54  H   UNL     1     -48.742  28.947  22.151  1.00  0.00     0.066 H 
BRANCH  51  55
ATOM     55  N   UNL     1     -50.930  29.141  23.572  1.00  0.00    -0.373 N 
ATOM     56  H   UNL     1     -51.051  28.510  24.359  1.00  0.00     0.161 HD
BRANCH  55  57
ATOM     57  C   UNL     1     -52.125  29.936  23.336  1.00  0.00     0.005 C 
ATOM     58  H   UNL     1     -52.219  30.748  24.065  1.00  0.00     0.045 H 
ATOM     59  H   UNL     1     -53.030  29.318  23.350  1.00  0.00     0.045 H 
ATOM     60  H   UNL     1     -52.054  30.395  22.345  1.00  0.00     0.045 H 
ENDBRANCH  55  57
ENDBRANCH  51  55
ENDBRANCH  39  40
ENDBRANCH   1  39
TORSDOF 11
ENDMDL
MODEL 3
REMARK VINA RESULT:      -8.9      2.352      3.595
REMARK SMILES C=CCc1cn([C@@H]2O[C@H](COc3ccc4ccc(NC)nc4c3)[C@@H](O)[C@H]2O)c2ncnc(N)c12
REMARK SMILES IDX 10 1 9 4 7 5 8 6 26 7 24 9 6 13 4 14 5 15 34 16 28 18 32 19
REMARK SMILES IDX 29 20 31 21 30 22 3 24 2 27 1 28 33 32 27 35 25 37 11 39
REMARK SMILES IDX 12 40 13 41 23 42 14 43 22 45 15 47 21 49 16 50 18 51 17 52
REMARK SMILES IDX 19 55 20 57
REMARK H PARENT 10 2 10 3 7 8 26 10 9 11 24 12 5 17 30 23 3 25 3 26 1 29 1 30
REMARK H PARENT 2 31 33 33 33 34 27 36 25 38 13 44 23 46 14 48 16 53 17 54
REMARK H PARENT 19 56 20 58 20 59 20 60
REMARK Flexibility Score: inf
ROOT
ATOM      1  C   UNL     1     -46.154  34.219  27.285  1.00  0.00     0.117 C 
ATOM      2  H   UNL     1     -45.924  34.523  26.259  1.00  0.00     0.073 H 
ATOM      3  H   UNL     1     -45.193  34.185  27.812  1.00  0.00     0.073 H 
ENDROOT
BRANCH   1   4
ATOM      4  C   UNL     1     -47.050  35.241  27.992  1.00  0.00     0.123 C 
ATOM      5  C   UNL     1     -47.191  37.493  28.580  1.00  0.00     0.164 C 
ATOM      6  O   UNL     1     -46.295  36.350  28.513  1.00  0.00    -0.345 OA
ATOM      7  C   UNL     1     -48.522  37.074  27.943  1.00  0.00     0.128 C 
ATOM      8  H   UNL     1     -47.303  37.748  29.639  1.00  0.00     0.088 H 
ATOM      9  C   UNL     1     -48.117  35.870  27.104  1.00  0.00     0.114 C 
ATOM     10  H   UNL     1     -49.011  37.857  27.356  1.00  0.00     0.068 H 
ATOM     11  H   UNL     1     -47.512  34.733  28.848  1.00  0.00     0.067 H 
ATOM     12  H   UNL     1     -47.701  36.197  26.144  1.00  0.00     0.066 H 
BRANCH   5  13
ATOM     13  N   UNL     1     -46.572  38.624  27.901  1.00  0.00    -0.303 N 
ATOM     14  C   UNL     1     -45.060  39.987  26.960  1.00  0.00    -0.013 A 
ATOM     15  C   UNL     1     -45.250  38.754  27.562  1.00  0.00     0.013 A 
ATOM     16  C   UNL     1     -46.351  40.615  26.893  1.00  0.00     0.065 A 
ATOM     17  H   UNL     1     -44.533  37.981  27.801  1.00  0.00     0.082 H 
ATOM     18  C   UNL     1     -47.259  39.728  27.462  1.00  0.00     0.147 A 
ATOM     19  C   UNL     1     -46.884  41.831  26.426  1.00  0.00     0.136 A 
ATOM     20  N   UNL     1     -48.586  39.902  27.578  1.00  0.00    -0.218 NA
ATOM     21  N   UNL     1     -48.213  42.041  26.524  1.00  0.00    -0.219 NA
ATOM     22  C   UNL     1     -48.975  41.088  27.087  1.00  0.00     0.120 A 
ATOM     23  H   UNL     1     -50.037  41.306  27.151  1.00  0.00     0.106 H 
BRANCH  14  24
ATOM     24  C   UNL     1     -43.744  40.514  26.477  1.00  0.00    -0.008 C 
ATOM     25  H   UNL     1     -43.023  39.690  26.413  1.00  0.00     0.036 H 
ATOM     26  H   UNL     1     -43.861  40.883  25.452  1.00  0.00     0.036 H 
BRANCH  24  27
ATOM     27  C   UNL     1     -43.127  41.603  27.316  1.00  0.00    -0.087 C 
ATOM     28  C   UNL     1     -42.100  41.499  28.170  1.00  0.00    -0.103 C 
ATOM     29  H   UNL     1     -41.741  42.366  28.715  1.00  0.00     0.053 H 
ATOM     30  H   UNL     1     -41.577  40.563  28.342  1.00  0.00     0.053 H 
ATOM     31  H   UNL     1     -43.579  42.585  27.191  1.00  0.00     0.057 H 
ENDBRANCH  24  27
ENDBRANCH  14  24
BRANCH  19  32
ATOM     32  N   UNL     1     -46.146  42.851  25.853  1.00  0.00    -0.383 N 
ATOM     33  H   UNL     1     -45.408  42.581  25.224  1.00  0.00     0.158 HD
ATOM     34  H   UNL     1     -46.734  43.629  25.582  1.00  0.00     0.158 HD
ENDBRANCH  19  32
ENDBRANCH   5  13
BRANCH   7  35
ATOM     35  O   UNL     1     -49.466  36.656  28.947  1.00  0.00    -0.386 OA
ATOM     36  H   UNL     1     -48.944  36.209  29.644  1.00  0.00     0.211 HD
ENDBRANCH   7  35
BRANCH   9  37
ATOM     37  O   UNL     1     -49.226  35.005  26.877  1.00  0.00    -0.387 OA
ATOM     38  H   UNL     1     -48.886  34.090  26.890  1.00  0.00     0.211 HD
ENDBRANCH   9  37
ENDBRANCH   1   4
BRANCH   1  39
ATOM     39  O   UNL     1     -46.679  32.889  27.354  1.00  0.00    -0.491 OA
BRANCH  39  40
ATOM     40  C   UNL     1     -47.072  32.270  26.201  1.00  0.00     0.121 A 
ATOM     41  C   UNL     1     -48.347  31.707  26.255  1.00  0.00    -0.019 A 
ATOM     42  C   UNL     1     -46.352  32.209  25.007  1.00  0.00     0.007 A 
ATOM     43  C   UNL     1     -48.889  31.084  25.134  1.00  0.00    -0.049 A 
ATOM     44  H   UNL     1     -48.922  31.756  27.177  1.00  0.00     0.066 H 
ATOM     45  C   UNL     1     -46.870  31.597  23.869  1.00  0.00     0.076 A 
ATOM     46  H   UNL     1     -45.373  32.664  24.910  1.00  0.00     0.069 H 
ATOM     47  C   UNL     1     -48.156  31.029  23.940  1.00  0.00     0.001 A 
ATOM     48  H   UNL     1     -49.883  30.649  25.196  1.00  0.00     0.063 H 
ATOM     49  N   UNL     1     -46.134  31.573  22.743  1.00  0.00    -0.231 NA
ATOM     50  C   UNL     1     -48.662  30.419  22.790  1.00  0.00    -0.049 A 
ATOM     51  C   UNL     1     -46.640  30.998  21.633  1.00  0.00     0.126 A 
ATOM     52  C   UNL     1     -47.895  30.401  21.631  1.00  0.00    -0.019 A 
ATOM     53  H   UNL     1     -49.645  29.955  22.789  1.00  0.00     0.063 H 
ATOM     54  H   UNL     1     -48.271  29.917  20.737  1.00  0.00     0.066 H 
BRANCH  51  55
ATOM     55  N   UNL     1     -45.885  30.950  20.446  1.00  0.00    -0.373 N 
ATOM     56  H   UNL     1     -45.995  30.032  20.028  1.00  0.00     0.161 HD
BRANCH  55  57
ATOM     57  C   UNL     1     -46.203  32.009  19.501  1.00  0.00     0.005 C 
ATOM     58  H   UNL     1     -45.407  32.139  18.760  1.00  0.00     0.045 H 
ATOM     59  H   UNL     1     -46.394  32.960  20.010  1.00  0.00     0.045 H 
ATOM     60  H   UNL     1     -47.113  31.737  18.958  1.00  0.00     0.045 H 
ENDBRANCH  55  57
ENDBRANCH  51  55
ENDBRANCH  39  40
ENDBRANCH   1  39
TORSDOF 11
ENDMDL
MODEL 4
REMARK VINA RESULT:      -8.9      1.952      2.640
REMARK SMILES C=CCc1cn([C@@H]2O[C@H](COc3ccc4ccc(NC)nc4c3)[C@@H](O)[C@H]2O)c2ncnc(N)c12
REMARK SMILES IDX 10 1 9 4 7 5 8 6 26 7 24 9 6 13 4 14 5 15 34 16 28 18 32 19
REMARK SMILES IDX 29 20 31 21 30 22 3 24 2 27 1 28 33 32 27 35 25 37 11 39
REMARK SMILES IDX 12 40 13 41 23 42 14 43 22 45 15 47 21 49 16 50 18 51 17 52
REMARK SMILES IDX 19 55 20 57
REMARK H PARENT 10 2 10 3 7 8 26 10 9 11 24 12 5 17 30 23 3 25 3 26 1 29 1 30
REMARK H PARENT 2 31 33 33 33 34 27 36 25 38 13 44 23 46 14 48 16 53 17 54
REMARK H PARENT 19 56 20 58 20 59 20 60
REMARK Flexibility Score: inf
ROOT
ATOM      1  C   UNL     1     -46.151  34.050  27.277  1.00  0.00     0.117 C 
ATOM      2  H   UNL     1     -45.929  34.378  26.257  1.00  0.00     0.073 H 
ATOM      3  H   UNL     1     -45.181  33.946  27.779  1.00  0.00     0.073 H 
ENDROOT
BRANCH   1   4
ATOM      4  C   UNL     1     -46.975  35.092  28.041  1.00  0.00     0.123 C 
ATOM      5  C   UNL     1     -46.917  37.282  28.839  1.00  0.00     0.164 C 
ATOM      6  O   UNL     1     -46.140  36.062  28.699  1.00  0.00    -0.345 OA
ATOM      7  C   UNL     1     -48.249  37.067  28.108  1.00  0.00     0.128 C 
ATOM      8  H   UNL     1     -47.058  37.450  29.912  1.00  0.00     0.088 H 
ATOM      9  C   UNL     1     -47.924  35.910  27.174  1.00  0.00     0.114 C 
ATOM     10  H   UNL     1     -48.624  37.948  27.579  1.00  0.00     0.068 H 
ATOM     11  H   UNL     1     -47.531  34.559  28.824  1.00  0.00     0.067 H 
ATOM     12  H   UNL     1     -47.428  36.277  26.269  1.00  0.00     0.066 H 
BRANCH   5  13
ATOM     13  N   UNL     1     -46.152  38.399  28.299  1.00  0.00    -0.303 N 
ATOM     14  C   UNL     1     -45.460  40.083  26.990  1.00  0.00    -0.013 A 
ATOM     15  C   UNL     1     -46.452  39.136  27.183  1.00  0.00     0.013 A 
ATOM     16  C   UNL     1     -44.534  39.936  28.079  1.00  0.00     0.065 A 
ATOM     17  H   UNL     1     -47.326  38.916  26.586  1.00  0.00     0.082 H 
ATOM     18  C   UNL     1     -45.013  38.902  28.877  1.00  0.00     0.147 A 
ATOM     19  C   UNL     1     -43.337  40.540  28.505  1.00  0.00     0.136 A 
ATOM     20  N   UNL     1     -44.469  38.451  30.020  1.00  0.00    -0.218 NA
ATOM     21  N   UNL     1     -42.761  40.117  29.649  1.00  0.00    -0.219 NA
ATOM     22  C   UNL     1     -43.344  39.113  30.327  1.00  0.00     0.120 A 
ATOM     23  H   UNL     1     -42.840  38.800  31.237  1.00  0.00     0.106 H 
BRANCH  14  24
ATOM     24  C   UNL     1     -45.412  41.059  25.856  1.00  0.00    -0.008 C 
ATOM     25  H   UNL     1     -44.371  41.195  25.536  1.00  0.00     0.036 H 
ATOM     26  H   UNL     1     -45.932  40.629  24.992  1.00  0.00     0.036 H 
BRANCH  24  27
ATOM     27  C   UNL     1     -45.989  42.422  26.138  1.00  0.00    -0.087 C 
ATOM     28  C   UNL     1     -45.870  43.534  25.401  1.00  0.00    -0.103 C 
ATOM     29  H   UNL     1     -46.341  44.461  25.711  1.00  0.00     0.053 H 
ATOM     30  H   UNL     1     -45.319  43.556  24.465  1.00  0.00     0.053 H 
ATOM     31  H   UNL     1     -46.576  42.487  27.053  1.00  0.00     0.057 H 
ENDBRANCH  24  27
ENDBRANCH  14  24
BRANCH  19  32
ATOM     32  N   UNL     1     -42.687  41.565  27.840  1.00  0.00    -0.383 N 
ATOM     33  H   UNL     1     -41.741  41.389  27.543  1.00  0.00     0.158 HD
ATOM     34  H   UNL     1     -43.303  42.037  27.191  1.00  0.00     0.158 HD
ENDBRANCH  19  32
ENDBRANCH   5  13
BRANCH   7  35
ATOM     35  O   UNL     1     -49.282  36.661  29.025  1.00  0.00    -0.386 OA
ATOM     36  H   UNL     1     -49.169  35.697  29.154  1.00  0.00     0.211 HD
ENDBRANCH   7  35
BRANCH   9  37
ATOM     37  O   UNL     1     -49.102  35.191  26.817  1.00  0.00    -0.387 OA
ATOM     38  H   UNL     1     -48.816  34.357  26.399  1.00  0.00     0.211 HD
ENDBRANCH   9  37
ENDBRANCH   1   4
BRANCH   1  39
ATOM     39  O   UNL     1     -46.745  32.748  27.313  1.00  0.00    -0.491 OA
BRANCH  39  40
ATOM     40  C   UNL     1     -47.147  32.169  26.142  1.00  0.00     0.121 A 
ATOM     41  C   UNL     1     -48.434  31.633  26.177  1.00  0.00    -0.019 A 
ATOM     42  C   UNL     1     -46.423  32.125  24.949  1.00  0.00     0.007 A 
ATOM     43  C   UNL     1     -48.985  31.053  25.037  1.00  0.00    -0.049 A 
ATOM     44  H   UNL     1     -49.011  31.670  27.098  1.00  0.00     0.066 H 
ATOM     45  C   UNL     1     -46.951  31.556  23.794  1.00  0.00     0.076 A 
ATOM     46  H   UNL     1     -45.434  32.561  24.868  1.00  0.00     0.069 H 
ATOM     47  C   UNL     1     -48.248  31.014  23.845  1.00  0.00     0.001 A 
ATOM     48  H   UNL     1     -49.989  30.638  25.084  1.00  0.00     0.063 H 
ATOM     49  N   UNL     1     -46.211  31.546  22.670  1.00  0.00    -0.231 NA
ATOM     50  C   UNL     1     -48.764  30.446  22.678  1.00  0.00    -0.049 A 
ATOM     51  C   UNL     1     -46.725  31.013  21.543  1.00  0.00     0.126 A 
ATOM     52  C   UNL     1     -47.993  30.443  21.520  1.00  0.00    -0.019 A 
ATOM     53  H   UNL     1     -49.756  30.005  22.661  1.00  0.00     0.063 H 
ATOM     54  H   UNL     1     -48.376  29.993  20.612  1.00  0.00     0.066 H 
BRANCH  51  55
ATOM     55  N   UNL     1     -45.967  30.981  20.358  1.00  0.00    -0.373 N 
ATOM     56  H   UNL     1     -46.154  30.107  19.875  1.00  0.00     0.161 HD
BRANCH  55  57
ATOM     57  C   UNL     1     -46.180  32.128  19.489  1.00  0.00     0.005 C 
ATOM     58  H   UNL     1     -45.501  32.951  19.736  1.00  0.00     0.045 H 
ATOM     59  H   UNL     1     -47.217  32.478  19.530  1.00  0.00     0.045 H 
ATOM     60  H   UNL     1     -45.971  31.833  18.456  1.00  0.00     0.045 H 
ENDBRANCH  55  57
ENDBRANCH  51  55
ENDBRANCH  39  40
ENDBRANCH   1  39
TORSDOF 11
ENDMDL
MODEL 5
REMARK VINA RESULT:      -8.8      3.006     11.300
REMARK SMILES C=CCc1cn([C@@H]2O[C@H](COc3ccc4ccc(NC)nc4c3)[C@@H](O)[C@H]2O)c2ncnc(N)c12
REMARK SMILES IDX 10 1 9 4 7 5 8 6 26 7 24 9 6 13 4 14 5 15 34 16 28 18 32 19
REMARK SMILES IDX 29 20 31 21 30 22 3 24 2 27 1 28 33 32 27 35 25 37 11 39
REMARK SMILES IDX 12 40 13 41 23 42 14 43 22 45 15 47 21 49 16 50 18 51 17 52
REMARK SMILES IDX 19 55 20 57
REMARK H PARENT 10 2 10 3 7 8 26 10 9 11 24 12 5 17 30 23 3 25 3 26 1 29 1 30
REMARK H PARENT 2 31 33 33 33 34 27 36 25 38 13 44 23 46 14 48 16 53 17 54
REMARK H PARENT 19 56 20 58 20 59 20 60
REMARK Flexibility Score: inf
ROOT
ATOM      1  C   UNL     1     -46.867  33.435  26.355  1.00  0.00     0.117 C 
ATOM      2  H   UNL     1     -46.372  32.595  26.852  1.00  0.00     0.073 H 
ATOM      3  H   UNL     1     -46.073  34.001  25.854  1.00  0.00     0.073 H 
ENDROOT
BRANCH   1   4
ATOM      4  C   UNL     1     -47.858  32.957  25.288  1.00  0.00     0.123 C 
ATOM      5  C   UNL     1     -48.334  31.174  23.862  1.00  0.00     0.164 C 
ATOM      6  O   UNL     1     -47.263  32.005  24.388  1.00  0.00    -0.345 OA
ATOM      7  C   UNL     1     -49.626  31.573  24.589  1.00  0.00     0.128 C 
ATOM      8  H   UNL     1     -48.390  31.369  22.786  1.00  0.00     0.088 H 
ATOM      9  C   UNL     1     -49.097  32.261  25.839  1.00  0.00     0.114 C 
ATOM     10  H   UNL     1     -50.296  30.738  24.814  1.00  0.00     0.068 H 
ATOM     11  H   UNL     1     -48.143  33.834  24.691  1.00  0.00     0.067 H 
ATOM     12  H   UNL     1     -48.836  31.519  26.602  1.00  0.00     0.066 H 
BRANCH   5  13
ATOM     13  N   UNL     1     -47.989  29.772  24.056  1.00  0.00    -0.303 N 
ATOM     14  C   UNL     1     -48.042  27.626  24.705  1.00  0.00    -0.013 A 
ATOM     15  C   UNL     1     -48.733  28.827  24.713  1.00  0.00     0.013 A 
ATOM     16  C   UNL     1     -46.833  27.853  23.961  1.00  0.00     0.065 A 
ATOM     17  H   UNL     1     -49.680  29.079  25.168  1.00  0.00     0.082 H 
ATOM     18  C   UNL     1     -46.853  29.184  23.557  1.00  0.00     0.147 A 
ATOM     19  C   UNL     1     -45.707  27.106  23.570  1.00  0.00     0.136 A 
ATOM     20  N   UNL     1     -45.928  29.810  22.811  1.00  0.00    -0.218 NA
ATOM     21  N   UNL     1     -44.758  27.699  22.818  1.00  0.00    -0.219 NA
ATOM     22  C   UNL     1     -44.914  28.994  22.490  1.00  0.00     0.120 A 
ATOM     23  H   UNL     1     -44.121  29.431  21.892  1.00  0.00     0.106 H 
BRANCH  14  24
ATOM     24  C   UNL     1     -48.512  26.360  25.351  1.00  0.00    -0.008 C 
ATOM     25  H   UNL     1     -49.583  26.441  25.574  1.00  0.00     0.036 H 
ATOM     26  H   UNL     1     -48.422  25.537  24.632  1.00  0.00     0.036 H 
BRANCH  24  27
ATOM     27  C   UNL     1     -47.804  25.971  26.623  1.00  0.00    -0.087 C 
ATOM     28  C   UNL     1     -47.261  24.786  26.932  1.00  0.00    -0.103 C 
ATOM     29  H   UNL     1     -46.770  24.632  27.887  1.00  0.00     0.053 H 
ATOM     30  H   UNL     1     -47.272  23.944  26.246  1.00  0.00     0.053 H 
ATOM     31  H   UNL     1     -47.730  26.766  27.363  1.00  0.00     0.057 H 
ENDBRANCH  24  27
ENDBRANCH  14  24
BRANCH  19  32
ATOM     32  N   UNL     1     -45.487  25.778  23.890  1.00  0.00    -0.383 N 
ATOM     33  H   UNL     1     -46.220  25.302  24.391  1.00  0.00     0.158 HD
ATOM     34  H   UNL     1     -45.036  25.281  23.133  1.00  0.00     0.158 HD
ENDBRANCH  19  32
ENDBRANCH   5  13
BRANCH   7  35
ATOM     35  O   UNL     1     -50.385  32.519  23.812  1.00  0.00    -0.386 OA
ATOM     36  H   UNL     1     -50.812  33.121  24.455  1.00  0.00     0.211 HD
ENDBRANCH   7  35
BRANCH   9  37
ATOM     37  O   UNL     1     -50.055  33.175  26.367  1.00  0.00    -0.387 OA
ATOM     38  H   UNL     1     -50.542  33.552  25.610  1.00  0.00     0.211 HD
ENDBRANCH   9  37
ENDBRANCH   1   4
BRANCH   1  39
ATOM     39  O   UNL     1     -47.461  34.346  27.286  1.00  0.00    -0.491 OA
BRANCH  39  40
ATOM     40  C   UNL     1     -46.877  35.564  27.487  1.00  0.00     0.121 A 
ATOM     41  C   UNL     1     -45.722  35.528  28.267  1.00  0.00    -0.019 A 
ATOM     42  C   UNL     1     -47.297  36.783  26.950  1.00  0.00     0.007 A 
ATOM     43  C   UNL     1     -45.002  36.695  28.514  1.00  0.00    -0.049 A 
ATOM     44  H   UNL     1     -45.380  34.584  28.684  1.00  0.00     0.066 H 
ATOM     45  C   UNL     1     -46.596  37.963  27.176  1.00  0.00     0.076 A 
ATOM     46  H   UNL     1     -48.169  36.851  26.309  1.00  0.00     0.069 H 
ATOM     47  C   UNL     1     -45.434  37.912  27.969  1.00  0.00     0.001 A 
ATOM     48  H   UNL     1     -44.105  36.647  29.126  1.00  0.00     0.063 H 
ATOM     49  N   UNL     1     -47.042  39.108  26.628  1.00  0.00    -0.231 NA
ATOM     50  C   UNL     1     -44.741  39.105  28.186  1.00  0.00    -0.049 A 
ATOM     51  C   UNL     1     -46.356  40.251  26.828  1.00  0.00     0.126 A 
ATOM     52  C   UNL     1     -45.209  40.283  27.613  1.00  0.00    -0.019 A 
ATOM     53  H   UNL     1     -43.844  39.127  28.798  1.00  0.00     0.063 H 
ATOM     54  H   UNL     1     -44.688  41.217  27.787  1.00  0.00     0.066 H 
BRANCH  51  55
ATOM     55  N   UNL     1     -46.808  41.463  26.275  1.00  0.00    -0.373 N 
ATOM     56  H   UNL     1     -46.709  41.418  25.265  1.00  0.00     0.161 HD
BRANCH  55  57
ATOM     57  C   UNL     1     -48.165  41.819  26.663  1.00  0.00     0.005 C 
ATOM     58  H   UNL     1     -48.906  41.363  25.997  1.00  0.00     0.045 H 
ATOM     59  H   UNL     1     -48.306  42.905  26.686  1.00  0.00     0.045 H 
ATOM     60  H   UNL     1     -48.355  41.438  27.671  1.00  0.00     0.045 H 
ENDBRANCH  55  57
ENDBRANCH  51  55
ENDBRANCH  39  40
ENDBRANCH   1  39
TORSDOF 11
ENDMDL
MODEL 6
REMARK VINA RESULT:      -8.6      2.028      2.952
REMARK SMILES C=CCc1cn([C@@H]2O[C@H](COc3ccc4ccc(NC)nc4c3)[C@@H](O)[C@H]2O)c2ncnc(N)c12
REMARK SMILES IDX 10 1 9 4 7 5 8 6 26 7 24 9 6 13 4 14 5 15 34 16 28 18 32 19
REMARK SMILES IDX 29 20 31 21 30 22 3 24 2 27 1 28 33 32 27 35 25 37 11 39
REMARK SMILES IDX 12 40 13 41 23 42 14 43 22 45 15 47 21 49 16 50 18 51 17 52
REMARK SMILES IDX 19 55 20 57
REMARK H PARENT 10 2 10 3 7 8 26 10 9 11 24 12 5 17 30 23 3 25 3 26 1 29 1 30
REMARK H PARENT 2 31 33 33 33 34 27 36 25 38 13 44 23 46 14 48 16 53 17 54
REMARK H PARENT 19 56 20 58 20 59 20 60
REMARK Flexibility Score: inf
ROOT
ATOM      1  C   UNL     1     -46.166  33.946  26.915  1.00  0.00     0.117 C 
ATOM      2  H   UNL     1     -45.088  34.137  26.922  1.00  0.00     0.073 H 
ATOM      3  H   UNL     1     -46.296  32.935  27.320  1.00  0.00     0.073 H 
ENDROOT
BRANCH   1   4
ATOM      4  C   UNL     1     -46.921  34.923  27.822  1.00  0.00     0.123 C 
ATOM      5  C   UNL     1     -46.792  37.047  28.777  1.00  0.00     0.164 C 
ATOM      6  O   UNL     1     -46.031  35.844  28.481  1.00  0.00    -0.345 OA
ATOM      7  C   UNL     1     -48.181  36.882  28.146  1.00  0.00     0.128 C 
ATOM      8  H   UNL     1     -46.842  37.131  29.868  1.00  0.00     0.088 H 
ATOM      9  C   UNL     1     -47.938  35.801  27.103  1.00  0.00     0.114 C 
ATOM     10  H   UNL     1     -48.597  37.799  27.719  1.00  0.00     0.068 H 
ATOM     11  H   UNL     1     -47.410  34.329  28.606  1.00  0.00     0.067 H 
ATOM     12  H   UNL     1     -47.518  36.238  26.190  1.00  0.00     0.066 H 
BRANCH   5  13
ATOM     13  N   UNL     1     -46.072  38.205  28.262  1.00  0.00    -0.303 N 
ATOM     14  C   UNL     1     -45.432  39.927  26.976  1.00  0.00    -0.013 A 
ATOM     15  C   UNL     1     -46.377  38.926  27.138  1.00  0.00     0.013 A 
ATOM     16  C   UNL     1     -44.534  39.827  28.094  1.00  0.00     0.065 A 
ATOM     17  H   UNL     1     -47.219  38.661  26.514  1.00  0.00     0.082 H 
ATOM     18  C   UNL     1     -44.981  38.767  28.876  1.00  0.00     0.147 A 
ATOM     19  C   UNL     1     -43.385  40.495  28.556  1.00  0.00     0.136 A 
ATOM     20  N   UNL     1     -44.448  38.344  30.034  1.00  0.00    -0.218 NA
ATOM     21  N   UNL     1     -42.823  40.100  29.717  1.00  0.00    -0.219 NA
ATOM     22  C   UNL     1     -43.371  39.065  30.377  1.00  0.00     0.120 A 
ATOM     23  H   UNL     1     -42.879  38.777  31.302  1.00  0.00     0.106 H 
BRANCH  14  24
ATOM     24  C   UNL     1     -45.403  40.906  25.845  1.00  0.00    -0.008 C 
ATOM     25  H   UNL     1     -44.376  40.996  25.468  1.00  0.00     0.036 H 
ATOM     26  H   UNL     1     -45.989  40.506  25.010  1.00  0.00     0.036 H 
BRANCH  24  27
ATOM     27  C   UNL     1     -45.899  42.293  26.164  1.00  0.00    -0.087 C 
ATOM     28  C   UNL     1     -47.168  42.714  26.240  1.00  0.00    -0.103 C 
ATOM     29  H   UNL     1     -47.398  43.746  26.487  1.00  0.00     0.053 H 
ATOM     30  H   UNL     1     -48.013  42.051  26.077  1.00  0.00     0.053 H 
ATOM     31  H   UNL     1     -45.115  43.022  26.361  1.00  0.00     0.057 H 
ENDBRANCH  24  27
ENDBRANCH  14  24
BRANCH  19  32
ATOM     32  N   UNL     1     -42.771  41.554  27.913  1.00  0.00    -0.383 N 
ATOM     33  H   UNL     1     -41.872  41.843  28.263  1.00  0.00     0.158 HD
ATOM     34  H   UNL     1     -42.890  41.500  26.909  1.00  0.00     0.158 HD
ENDBRANCH  19  32
ENDBRANCH   5  13
BRANCH   7  35
ATOM     35  O   UNL     1     -49.134  36.403  29.113  1.00  0.00    -0.386 OA
ATOM     36  H   UNL     1     -48.997  36.939  29.921  1.00  0.00     0.211 HD
ENDBRANCH   7  35
BRANCH   9  37
ATOM     37  O   UNL     1     -49.143  35.107  26.792  1.00  0.00    -0.387 OA
ATOM     38  H   UNL     1     -49.881  35.629  27.160  1.00  0.00     0.211 HD
ENDBRANCH   9  37
ENDBRANCH   1   4
BRANCH   1  39
ATOM     39  O   UNL     1     -46.703  33.903  25.589  1.00  0.00    -0.491 OA
BRANCH  39  40
ATOM     40  C   UNL     1     -46.975  32.689  25.022  1.00  0.00     0.121 A 
ATOM     41  C   UNL     1     -46.112  32.331  23.987  1.00  0.00    -0.019 A 
ATOM     42  C   UNL     1     -47.972  31.795  25.418  1.00  0.00     0.007 A 
ATOM     43  C   UNL     1     -46.250  31.099  23.352  1.00  0.00    -0.049 A 
ATOM     44  H   UNL     1     -45.326  33.015  23.676  1.00  0.00     0.066 H 
ATOM     45  C   UNL     1     -48.129  30.556  24.805  1.00  0.00     0.076 A 
ATOM     46  H   UNL     1     -48.641  32.019  26.242  1.00  0.00     0.069 H 
ATOM     47  C   UNL     1     -47.255  30.209  23.758  1.00  0.00     0.001 A 
ATOM     48  H   UNL     1     -45.569  30.837  22.545  1.00  0.00     0.063 H 
ATOM     49  N   UNL     1     -49.103  29.731  25.231  1.00  0.00    -0.231 NA
ATOM     50  C   UNL     1     -47.426  28.963  23.153  1.00  0.00    -0.049 A 
ATOM     51  C   UNL     1     -49.248  28.522  24.653  1.00  0.00     0.126 A 
ATOM     52  C   UNL     1     -48.433  28.116  23.602  1.00  0.00    -0.019 A 
ATOM     53  H   UNL     1     -46.786  28.646  22.334  1.00  0.00     0.063 H 
ATOM     54  H   UNL     1     -48.585  27.152  23.130  1.00  0.00     0.066 H 
BRANCH  51  55
ATOM     55  N   UNL     1     -50.265  27.645  25.074  1.00  0.00    -0.373 N 
ATOM     56  H   UNL     1     -50.581  27.105  24.274  1.00  0.00     0.161 HD
BRANCH  55  57
ATOM     57  C   UNL     1     -49.883  26.785  26.183  1.00  0.00     0.005 C 
ATOM     58  H   UNL     1     -50.022  27.287  27.147  1.00  0.00     0.045 H 
ATOM     59  H   UNL     1     -48.847  26.443  26.089  1.00  0.00     0.045 H 
ATOM     60  H   UNL     1     -50.525  25.900  26.181  1.00  0.00     0.045 H 
ENDBRANCH  55  57
ENDBRANCH  51  55
ENDBRANCH  39  40
ENDBRANCH   1  39
TORSDOF 11
ENDMDL
MODEL 7
REMARK VINA RESULT:      -8.5      2.052     10.390
REMARK SMILES C=CCc1cn([C@@H]2O[C@H](COc3ccc4ccc(NC)nc4c3)[C@@H](O)[C@H]2O)c2ncnc(N)c12
REMARK SMILES IDX 10 1 9 4 7 5 8 6 26 7 24 9 6 13 4 14 5 15 34 16 28 18 32 19
REMARK SMILES IDX 29 20 31 21 30 22 3 24 2 27 1 28 33 32 27 35 25 37 11 39
REMARK SMILES IDX 12 40 13 41 23 42 14 43 22 45 15 47 21 49 16 50 18 51 17 52
REMARK SMILES IDX 19 55 20 57
REMARK H PARENT 10 2 10 3 7 8 26 10 9 11 24 12 5 17 30 23 3 25 3 26 1 29 1 30
REMARK H PARENT 2 31 33 33 33 34 27 36 25 38 13 44 23 46 14 48 16 53 17 54
REMARK H PARENT 19 56 20 58 20 59 20 60
REMARK Flexibility Score: inf
ROOT
ATOM      1  C   UNL     1     -48.555  35.735  26.861  1.00  0.00     0.117 C 
ATOM      2  H   UNL     1     -48.106  36.266  26.015  1.00  0.00     0.073 H 
ATOM      3  H   UNL     1     -49.627  35.670  26.640  1.00  0.00     0.073 H 
ENDROOT
BRANCH   1   4
ATOM      4  C   UNL     1     -48.007  34.311  26.992  1.00  0.00     0.123 C 
ATOM      5  C   UNL     1     -48.227  32.151  26.140  1.00  0.00     0.164 C 
ATOM      6  O   UNL     1     -48.968  33.323  26.578  1.00  0.00    -0.345 OA
ATOM      7  C   UNL     1     -46.735  32.508  26.177  1.00  0.00     0.128 C 
ATOM      8  H   UNL     1     -48.474  31.340  26.834  1.00  0.00     0.088 H 
ATOM      9  C   UNL     1     -46.764  34.030  26.154  1.00  0.00     0.114 C 
ATOM     10  H   UNL     1     -46.146  32.082  25.359  1.00  0.00     0.068 H 
ATOM     11  H   UNL     1     -47.801  34.137  28.056  1.00  0.00     0.067 H 
ATOM     12  H   UNL     1     -46.879  34.395  25.128  1.00  0.00     0.066 H 
BRANCH   5  13
ATOM     13  N   UNL     1     -48.683  31.768  24.810  1.00  0.00    -0.303 N 
ATOM     14  C   UNL     1     -49.978  31.402  23.017  1.00  0.00    -0.013 A 
ATOM     15  C   UNL     1     -49.947  31.920  24.301  1.00  0.00     0.013 A 
ATOM     16  C   UNL     1     -48.645  30.953  22.722  1.00  0.00     0.065 A 
ATOM     17  H   UNL     1     -50.740  32.351  24.894  1.00  0.00     0.082 H 
ATOM     18  C   UNL     1     -47.872  31.222  23.847  1.00  0.00     0.147 A 
ATOM     19  C   UNL     1     -47.976  30.344  21.644  1.00  0.00     0.136 A 
ATOM     20  N   UNL     1     -46.557  30.990  23.991  1.00  0.00    -0.218 NA
ATOM     21  N   UNL     1     -46.654  30.098  21.750  1.00  0.00    -0.219 NA
ATOM     22  C   UNL     1     -46.030  30.423  22.896  1.00  0.00     0.120 A 
ATOM     23  H   UNL     1     -44.969  30.198  22.939  1.00  0.00     0.106 H 
BRANCH  14  24
ATOM     24  C   UNL     1     -51.191  31.352  22.140  1.00  0.00    -0.008 C 
ATOM     25  H   UNL     1     -51.817  32.231  22.334  1.00  0.00     0.036 H 
ATOM     26  H   UNL     1     -50.879  31.439  21.093  1.00  0.00     0.036 H 
BRANCH  24  27
ATOM     27  C   UNL     1     -52.057  30.128  22.287  1.00  0.00    -0.087 C 
ATOM     28  C   UNL     1     -51.803  29.023  23.001  1.00  0.00    -0.103 C 
ATOM     29  H   UNL     1     -52.516  28.205  23.032  1.00  0.00     0.053 H 
ATOM     30  H   UNL     1     -50.896  28.903  23.587  1.00  0.00     0.053 H 
ATOM     31  H   UNL     1     -53.000  30.170  21.746  1.00  0.00     0.057 H 
ENDBRANCH  24  27
ENDBRANCH  14  24
BRANCH  19  32
ATOM     32  N   UNL     1     -48.569  29.976  20.449  1.00  0.00    -0.383 N 
ATOM     33  H   UNL     1     -47.955  29.778  19.677  1.00  0.00     0.158 HD
ATOM     34  H   UNL     1     -49.353  29.354  20.599  1.00  0.00     0.158 HD
ENDBRANCH  19  32
ENDBRANCH   5  13
BRANCH   7  35
ATOM     35  O   UNL     1     -46.127  32.063  27.403  1.00  0.00    -0.386 OA
ATOM     36  H   UNL     1     -45.858  32.872  27.884  1.00  0.00     0.211 HD
ENDBRANCH   7  35
BRANCH   9  37
ATOM     37  O   UNL     1     -45.578  34.575  26.727  1.00  0.00    -0.387 OA
ATOM     38  H   UNL     1     -45.517  34.237  27.640  1.00  0.00     0.211 HD
ENDBRANCH   9  37
ENDBRANCH   1   4
BRANCH   1  39
ATOM     39  O   UNL     1     -48.456  36.475  28.082  1.00  0.00    -0.491 OA
BRANCH  39  40
ATOM     40  C   UNL     1     -47.366  37.273  28.289  1.00  0.00     0.121 A 
ATOM     41  C   UNL     1     -46.551  36.871  29.346  1.00  0.00    -0.019 A 
ATOM     42  C   UNL     1     -46.991  38.378  27.522  1.00  0.00     0.007 A 
ATOM     43  C   UNL     1     -45.382  37.570  29.638  1.00  0.00    -0.049 A 
ATOM     44  H   UNL     1     -46.828  36.007  29.946  1.00  0.00     0.066 H 
ATOM     45  C   UNL     1     -45.827  39.092  27.787  1.00  0.00     0.076 A 
ATOM     46  H   UNL     1     -47.577  38.702  26.669  1.00  0.00     0.069 H 
ATOM     47  C   UNL     1     -45.016  38.679  28.861  1.00  0.00     0.001 A 
ATOM     48  H   UNL     1     -44.760  37.244  30.468  1.00  0.00     0.063 H 
ATOM     49  N   UNL     1     -45.511  40.145  27.012  1.00  0.00    -0.231 NA
ATOM     50  C   UNL     1     -43.851  39.405  29.115  1.00  0.00    -0.049 A 
ATOM     51  C   UNL     1     -44.374  40.828  27.253  1.00  0.00     0.126 A 
ATOM     52  C   UNL     1     -43.531  40.491  28.306  1.00  0.00    -0.019 A 
ATOM     53  H   UNL     1     -43.192  39.138  29.936  1.00  0.00     0.063 H 
ATOM     54  H   UNL     1     -42.637  41.071  28.502  1.00  0.00     0.066 H 
BRANCH  51  55
ATOM     55  N   UNL     1     -44.027  41.940  26.463  1.00  0.00    -0.373 N 
ATOM     56  H   UNL     1     -43.052  41.855  26.190  1.00  0.00     0.161 HD
BRANCH  55  57
ATOM     57  C   UNL     1     -44.889  42.136  25.308  1.00  0.00     0.005 C 
ATOM     58  H   UNL     1     -44.454  42.848  24.597  1.00  0.00     0.045 H 
ATOM     59  H   UNL     1     -45.889  42.471  25.603  1.00  0.00     0.045 H 
ATOM     60  H   UNL     1     -45.001  41.181  24.784  1.00  0.00     0.045 H 
ENDBRANCH  55  57
ENDBRANCH  51  55
ENDBRANCH  39  40
ENDBRANCH   1  39
TORSDOF 11
ENDMDL
