MODEL 1
REMARK VINA RESULT:     -10.5      0.000      0.000
REMARK SMILES NC(=O)Nc1cccc(CC[C@H]2C[C@@H](n3ccc4c(N)ncnc43)[C@H](O)[C@@H]2O)c1
REMARK SMILES IDX 11 1 10 4 9 7 5 8 6 9 29 10 7 11 8 14 4 17 1 18 2 19 3 22
REMARK SMILES IDX 12 24 13 25 27 26 14 28 25 31 28 35 15 37 16 38 24 39 17 40
REMARK SMILES IDX 18 42 23 43 19 45 22 46 21 47 20 49 26 52
REMARK H PARENT 11 2 11 3 10 5 10 6 6 12 29 13 7 15 8 16 1 20 1 21 4 23 12 27
REMARK H PARENT 13 29 13 30 27 32 14 33 25 34 28 36 16 41 17 44 22 48 20 50
REMARK H PARENT 20 51 26 53
REMARK Flexibility Score: inf
ROOT
ATOM      1  C   UNL     1     -46.118  35.112  28.035  1.00  0.00    -0.044 C 
ATOM      2  H   UNL     1     -46.838  34.415  28.482  1.00  0.00     0.027 H 
ATOM      3  H   UNL     1     -45.135  34.829  28.434  1.00  0.00     0.027 H 
ENDROOT
BRANCH   1   4
ATOM      4  C   UNL     1     -46.050  34.924  26.512  1.00  0.00    -0.027 C 
ATOM      5  H   UNL     1     -45.006  34.735  26.230  1.00  0.00     0.032 H 
ATOM      6  H   UNL     1     -46.324  35.865  26.018  1.00  0.00     0.032 H 
BRANCH   4   7
ATOM      7  C   UNL     1     -46.871  33.782  25.967  1.00  0.00    -0.046 A 
ATOM      8  C   UNL     1     -47.013  31.737  24.644  1.00  0.00     0.043 A 
ATOM      9  C   UNL     1     -48.374  31.649  24.952  1.00  0.00    -0.038 A 
ATOM     10  C   UNL     1     -46.267  32.797  25.166  1.00  0.00    -0.035 A 
ATOM     11  C   UNL     1     -48.983  32.611  25.759  1.00  0.00    -0.060 A 
ATOM     12  H   UNL     1     -48.982  30.835  24.567  1.00  0.00     0.064 H 
ATOM     13  H   UNL     1     -45.205  32.881  24.955  1.00  0.00     0.065 H 
ATOM     14  C   UNL     1     -48.234  33.672  26.266  1.00  0.00    -0.059 A 
ATOM     15  H   UNL     1     -50.042  32.535  25.993  1.00  0.00     0.062 H 
ATOM     16  H   UNL     1     -48.722  34.411  26.898  1.00  0.00     0.063 H 
BRANCH   8  17
ATOM     17  N   UNL     1     -46.468  30.728  23.827  1.00  0.00    -0.308 N 
ATOM     18  N   UNL     1     -45.445  29.684  22.101  1.00  0.00    -0.351 N 
ATOM     19  C   UNL     1     -45.966  30.860  22.561  1.00  0.00     0.316 C 
ATOM     20  H   UNL     1     -44.890  29.159  22.760  1.00  0.00     0.161 HD
ATOM     21  H   UNL     1     -44.992  29.804  21.202  1.00  0.00     0.161 HD
ATOM     22  O   UNL     1     -45.946  31.851  21.847  1.00  0.00    -0.249 OA
ATOM     23  H   UNL     1     -46.591  29.775  24.136  1.00  0.00     0.171 HD
ENDBRANCH   8  17
ENDBRANCH   4   7
ENDBRANCH   1   4
BRANCH   1  24
ATOM     24  C   UNL     1     -46.420  36.548  28.495  1.00  0.00    -0.010 C 
ATOM     25  C   UNL     1     -45.196  37.460  28.613  1.00  0.00    -0.024 C 
ATOM     26  C   UNL     1     -47.289  37.305  27.483  1.00  0.00     0.085 C 
ATOM     27  H   UNL     1     -46.945  36.500  29.459  1.00  0.00     0.033 H 
ATOM     28  C   UNL     1     -45.742  38.897  28.498  1.00  0.00     0.064 C 
ATOM     29  H   UNL     1     -44.466  37.237  27.828  1.00  0.00     0.029 H 
ATOM     30  H   UNL     1     -44.690  37.330  29.575  1.00  0.00     0.029 H 
ATOM     31  C   UNL     1     -47.161  38.773  27.915  1.00  0.00     0.101 C 
ATOM     32  H   UNL     1     -46.922  37.166  26.461  1.00  0.00     0.063 H 
ATOM     33  H   UNL     1     -45.810  39.318  29.511  1.00  0.00     0.056 H 
ATOM     34  H   UNL     1     -47.379  39.459  27.091  1.00  0.00     0.065 H 
BRANCH  26  35
ATOM     35  O   UNL     1     -48.656  36.901  27.543  1.00  0.00    -0.390 OA
ATOM     36  H   UNL     1     -48.673  35.932  27.457  1.00  0.00     0.211 HD
ENDBRANCH  26  35
BRANCH  28  37
ATOM     37  N   UNL     1     -44.864  39.782  27.750  1.00  0.00    -0.327 N 
ATOM     38  C   UNL     1     -45.079  40.170  26.447  1.00  0.00     0.007 A 
ATOM     39  C   UNL     1     -43.709  40.367  28.214  1.00  0.00     0.145 A 
ATOM     40  C   UNL     1     -44.048  41.006  26.074  1.00  0.00    -0.031 A 
ATOM     41  H   UNL     1     -45.939  39.816  25.892  1.00  0.00     0.082 H 
ATOM     42  C   UNL     1     -43.178  41.140  27.189  1.00  0.00     0.061 A 
ATOM     43  N   UNL     1     -43.190  40.215  29.444  1.00  0.00    -0.218 NA
ATOM     44  H   UNL     1     -43.932  41.465  25.102  1.00  0.00     0.065 H 
ATOM     45  C   UNL     1     -41.988  41.826  27.468  1.00  0.00     0.136 A 
ATOM     46  C   UNL     1     -42.052  40.917  29.591  1.00  0.00     0.120 A 
ATOM     47  N   UNL     1     -41.436  41.706  28.691  1.00  0.00    -0.219 NA
ATOM     48  H   UNL     1     -41.568  40.840  30.560  1.00  0.00     0.106 H 
BRANCH  45  49
ATOM     49  N   UNL     1     -41.342  42.649  26.557  1.00  0.00    -0.383 N 
ATOM     50  H   UNL     1     -41.777  42.584  25.644  1.00  0.00     0.158 HD
ATOM     51  H   UNL     1     -40.334  42.603  26.584  1.00  0.00     0.158 HD
ENDBRANCH  45  49
ENDBRANCH  28  37
BRANCH  31  52
ATOM     52  O   UNL     1     -48.127  39.044  28.945  1.00  0.00    -0.388 OA
ATOM     53  H   UNL     1     -48.982  39.097  28.468  1.00  0.00     0.211 HD
ENDBRANCH  31  52
ENDBRANCH   1  24
TORSDOF 8
ENDMDL
MODEL 2
REMARK VINA RESULT:      -9.3      1.658      2.541
REMARK SMILES NC(=O)Nc1cccc(CC[C@H]2C[C@@H](n3ccc4c(N)ncnc43)[C@H](O)[C@@H]2O)c1
REMARK SMILES IDX 11 1 10 4 9 7 5 8 6 9 29 10 7 11 8 14 4 17 1 18 2 19 3 22
REMARK SMILES IDX 12 24 13 25 27 26 14 28 25 31 28 35 15 37 16 38 24 39 17 40
REMARK SMILES IDX 18 42 23 43 19 45 22 46 21 47 20 49 26 52
REMARK H PARENT 11 2 11 3 10 5 10 6 6 12 29 13 7 15 8 16 1 20 1 21 4 23 12 27
REMARK H PARENT 13 29 13 30 27 32 14 33 25 34 28 36 16 41 17 44 22 48 20 50
REMARK H PARENT 20 51 26 53
REMARK Flexibility Score: inf
ROOT
ATOM      1  C   UNL     1     -47.781  33.754  25.896  1.00  0.00    -0.044 C 
ATOM      2  H   UNL     1     -46.845  33.185  25.853  1.00  0.00     0.027 H 
ATOM      3  H   UNL     1     -47.797  34.380  24.995  1.00  0.00     0.027 H 
ENDROOT
BRANCH   1   4
ATOM      4  C   UNL     1     -48.995  32.817  25.808  1.00  0.00    -0.027 C 
ATOM      5  H   UNL     1     -49.872  33.408  25.514  1.00  0.00     0.032 H 
ATOM      6  H   UNL     1     -49.224  32.425  26.807  1.00  0.00     0.032 H 
BRANCH   4   7
ATOM      7  C   UNL     1     -48.867  31.689  24.814  1.00  0.00    -0.046 A 
ATOM      8  C   UNL     1     -47.496  29.988  23.728  1.00  0.00     0.043 A 
ATOM      9  C   UNL     1     -48.611  29.587  22.983  1.00  0.00    -0.038 A 
ATOM     10  C   UNL     1     -47.637  31.028  24.650  1.00  0.00    -0.035 A 
ATOM     11  C   UNL     1     -49.841  30.223  23.148  1.00  0.00    -0.060 A 
ATOM     12  H   UNL     1     -48.538  28.778  22.261  1.00  0.00     0.064 H 
ATOM     13  H   UNL     1     -46.792  31.350  25.251  1.00  0.00     0.065 H 
ATOM     14  C   UNL     1     -49.969  31.268  24.061  1.00  0.00    -0.059 A 
ATOM     15  H   UNL     1     -50.701  29.904  22.565  1.00  0.00     0.062 H 
ATOM     16  H   UNL     1     -50.937  31.750  24.183  1.00  0.00     0.063 H 
BRANCH   8  17
ATOM     17  N   UNL     1     -46.289  29.298  23.508  1.00  0.00    -0.308 N 
ATOM     18  N   UNL     1     -44.319  28.655  22.601  1.00  0.00    -0.351 N 
ATOM     19  C   UNL     1     -45.439  29.422  22.444  1.00  0.00     0.316 C 
ATOM     20  H   UNL     1     -43.904  28.663  23.521  1.00  0.00     0.161 HD
ATOM     21  H   UNL     1     -43.649  28.817  21.858  1.00  0.00     0.161 HD
ATOM     22  O   UNL     1     -45.573  30.094  21.432  1.00  0.00    -0.249 OA
ATOM     23  H   UNL     1     -46.092  28.518  24.118  1.00  0.00     0.171 HD
ENDBRANCH   8  17
ENDBRANCH   4   7
ENDBRANCH   1   4
BRANCH   1  24
ATOM     24  C   UNL     1     -47.775  34.687  27.119  1.00  0.00    -0.010 C 
ATOM     25  C   UNL     1     -46.475  35.467  27.331  1.00  0.00    -0.024 C 
ATOM     26  C   UNL     1     -48.808  35.814  26.987  1.00  0.00     0.085 C 
ATOM     27  H   UNL     1     -48.003  34.090  28.012  1.00  0.00     0.033 H 
ATOM     28  C   UNL     1     -46.866  36.697  28.174  1.00  0.00     0.064 C 
ATOM     29  H   UNL     1     -46.032  35.755  26.371  1.00  0.00     0.029 H 
ATOM     30  H   UNL     1     -45.731  34.869  27.867  1.00  0.00     0.029 H 
ATOM     31  C   UNL     1     -48.397  36.817  28.075  1.00  0.00     0.101 C 
ATOM     32  H   UNL     1     -48.769  36.277  25.996  1.00  0.00     0.063 H 
ATOM     33  H   UNL     1     -46.592  36.495  29.219  1.00  0.00     0.056 H 
ATOM     34  H   UNL     1     -48.765  37.825  27.858  1.00  0.00     0.065 H 
BRANCH  26  35
ATOM     35  O   UNL     1     -50.136  35.354  27.231  1.00  0.00    -0.390 OA
ATOM     36  H   UNL     1     -50.735  35.914  26.708  1.00  0.00     0.211 HD
ENDBRANCH  26  35
BRANCH  28  37
ATOM     37  N   UNL     1     -46.147  37.902  27.792  1.00  0.00    -0.327 N 
ATOM     38  C   UNL     1     -46.383  38.615  26.638  1.00  0.00     0.007 A 
ATOM     39  C   UNL     1     -45.145  38.513  28.507  1.00  0.00     0.145 A 
ATOM     40  C   UNL     1     -45.519  39.689  26.615  1.00  0.00    -0.031 A 
ATOM     41  H   UNL     1     -47.138  38.298  25.929  1.00  0.00     0.082 H 
ATOM     42  C   UNL     1     -44.733  39.635  27.798  1.00  0.00     0.061 A 
ATOM     43  N   UNL     1     -44.653  38.096  29.686  1.00  0.00    -0.218 NA
ATOM     44  H   UNL     1     -45.457  40.429  25.829  1.00  0.00     0.065 H 
ATOM     45  C   UNL     1     -43.709  40.402  28.369  1.00  0.00     0.136 A 
ATOM     46  C   UNL     1     -43.678  38.908  30.131  1.00  0.00     0.120 A 
ATOM     47  N   UNL     1     -43.191  40.023  29.553  1.00  0.00    -0.219 NA
ATOM     48  H   UNL     1     -43.225  38.633  31.079  1.00  0.00     0.106 H 
BRANCH  45  49
ATOM     49  N   UNL     1     -43.200  41.557  27.793  1.00  0.00    -0.383 N 
ATOM     50  H   UNL     1     -42.195  41.604  27.910  1.00  0.00     0.158 HD
ATOM     51  H   UNL     1     -43.721  42.398  27.996  1.00  0.00     0.158 HD
ENDBRANCH  45  49
ENDBRANCH  28  37
BRANCH  31  52
ATOM     52  O   UNL     1     -48.990  36.422  29.325  1.00  0.00    -0.388 OA
ATOM     53  H   UNL     1     -49.711  35.809  29.068  1.00  0.00     0.211 HD
ENDBRANCH  31  52
ENDBRANCH   1  24
TORSDOF 8
ENDMDL
MODEL 3
REMARK VINA RESULT:      -9.2      2.531      3.288
REMARK SMILES NC(=O)Nc1cccc(CC[C@H]2C[C@@H](n3ccc4c(N)ncnc43)[C@H](O)[C@@H]2O)c1
REMARK SMILES IDX 11 1 10 4 9 7 5 8 6 9 29 10 7 11 8 14 4 17 1 18 2 19 3 22
REMARK SMILES IDX 12 24 13 25 27 26 14 28 25 31 28 35 15 37 16 38 24 39 17 40
REMARK SMILES IDX 18 42 23 43 19 45 22 46 21 47 20 49 26 52
REMARK H PARENT 11 2 11 3 10 5 10 6 6 12 29 13 7 15 8 16 1 20 1 21 4 23 12 27
REMARK H PARENT 13 29 13 30 27 32 14 33 25 34 28 36 16 41 17 44 22 48 20 50
REMARK H PARENT 20 51 26 53
REMARK Flexibility Score: inf
ROOT
ATOM      1  C   UNL     1     -46.859  33.564  26.382  1.00  0.00    -0.044 C 
ATOM      2  H   UNL     1     -46.249  32.777  26.842  1.00  0.00     0.027 H 
ATOM      3  H   UNL     1     -46.238  34.007  25.593  1.00  0.00     0.027 H 
ENDROOT
BRANCH   1   4
ATOM      4  C   UNL     1     -48.093  32.965  25.693  1.00  0.00    -0.027 C 
ATOM      5  H   UNL     1     -48.413  33.648  24.895  1.00  0.00     0.032 H 
ATOM      6  H   UNL     1     -48.927  32.933  26.406  1.00  0.00     0.032 H 
BRANCH   4   7
ATOM      7  C   UNL     1     -47.886  31.611  25.062  1.00  0.00    -0.046 A 
ATOM      8  C   UNL     1     -48.476  29.249  24.907  1.00  0.00     0.043 A 
ATOM      9  C   UNL     1     -47.522  29.092  23.896  1.00  0.00    -0.038 A 
ATOM     10  C   UNL     1     -48.661  30.513  25.473  1.00  0.00    -0.035 A 
ATOM     11  C   UNL     1     -46.758  30.177  23.466  1.00  0.00    -0.060 A 
ATOM     12  H   UNL     1     -47.357  28.124  23.430  1.00  0.00     0.064 H 
ATOM     13  H   UNL     1     -49.404  30.666  26.250  1.00  0.00     0.065 H 
ATOM     14  C   UNL     1     -46.940  31.431  24.045  1.00  0.00    -0.059 A 
ATOM     15  H   UNL     1     -46.020  30.045  22.680  1.00  0.00     0.062 H 
ATOM     16  H   UNL     1     -46.340  32.269  23.695  1.00  0.00     0.063 H 
BRANCH   8  17
ATOM     17  N   UNL     1     -49.211  28.109  25.286  1.00  0.00    -0.308 N 
ATOM     18  N   UNL     1     -50.016  26.383  26.505  1.00  0.00    -0.351 N 
ATOM     19  C   UNL     1     -49.080  27.375  26.433  1.00  0.00     0.316 C 
ATOM     20  H   UNL     1     -50.953  26.638  26.231  1.00  0.00     0.161 HD
ATOM     21  H   UNL     1     -49.977  25.898  27.395  1.00  0.00     0.161 HD
ATOM     22  O   UNL     1     -48.262  27.501  27.331  1.00  0.00    -0.249 OA
ATOM     23  H   UNL     1     -49.798  27.690  24.580  1.00  0.00     0.171 HD
ENDBRANCH   8  17
ENDBRANCH   4   7
ENDBRANCH   1   4
BRANCH   1  24
ATOM     24  C   UNL     1     -47.165  34.662  27.414  1.00  0.00    -0.010 C 
ATOM     25  C   UNL     1     -46.006  35.619  27.706  1.00  0.00    -0.024 C 
ATOM     26  C   UNL     1     -48.258  35.622  26.925  1.00  0.00     0.085 C 
ATOM     27  H   UNL     1     -47.496  34.181  28.345  1.00  0.00     0.033 H 
ATOM     28  C   UNL     1     -46.660  36.903  28.253  1.00  0.00     0.064 C 
ATOM     29  H   UNL     1     -45.423  35.813  26.799  1.00  0.00     0.029 H 
ATOM     30  H   UNL     1     -45.321  35.203  28.451  1.00  0.00     0.029 H 
ATOM     31  C   UNL     1     -48.151  36.818  27.882  1.00  0.00     0.101 C 
ATOM     32  H   UNL     1     -48.081  35.933  25.890  1.00  0.00     0.063 H 
ATOM     33  H   UNL     1     -46.565  36.894  29.348  1.00  0.00     0.056 H 
ATOM     34  H   UNL     1     -48.566  37.729  27.440  1.00  0.00     0.065 H 
BRANCH  26  35
ATOM     35  O   UNL     1     -49.559  35.043  27.019  1.00  0.00    -0.390 OA
ATOM     36  H   UNL     1     -49.449  34.143  27.370  1.00  0.00     0.211 HD
ENDBRANCH  26  35
BRANCH  28  37
ATOM     37  N   UNL     1     -46.000  38.116  27.799  1.00  0.00    -0.327 N 
ATOM     38  C   UNL     1     -46.327  38.793  26.645  1.00  0.00     0.007 A 
ATOM     39  C   UNL     1     -44.974  38.773  28.436  1.00  0.00     0.145 A 
ATOM     40  C   UNL     1     -45.496  39.889  26.543  1.00  0.00    -0.031 A 
ATOM     41  H   UNL     1     -47.113  38.438  25.991  1.00  0.00     0.082 H 
ATOM     42  C   UNL     1     -44.639  39.887  27.676  1.00  0.00     0.061 A 
ATOM     43  N   UNL     1     -44.399  38.399  29.592  1.00  0.00    -0.218 NA
ATOM     44  H   UNL     1     -45.503  40.610  25.737  1.00  0.00     0.065 H 
ATOM     45  C   UNL     1     -43.604  40.696  28.165  1.00  0.00     0.136 A 
ATOM     46  C   UNL     1     -43.422  39.248  29.956  1.00  0.00     0.120 A 
ATOM     47  N   UNL     1     -43.004  40.361  29.323  1.00  0.00    -0.219 NA
ATOM     48  H   UNL     1     -42.905  39.010  30.881  1.00  0.00     0.106 H 
BRANCH  45  49
ATOM     49  N   UNL     1     -43.164  41.849  27.531  1.00  0.00    -0.383 N 
ATOM     50  H   UNL     1     -42.544  41.622  26.762  1.00  0.00     0.158 HD
ATOM     51  H   UNL     1     -42.864  42.587  28.152  1.00  0.00     0.158 HD
ENDBRANCH  45  49
ENDBRANCH  28  37
BRANCH  31  52
ATOM     52  O   UNL     1     -48.923  36.544  29.064  1.00  0.00    -0.388 OA
ATOM     53  H   UNL     1     -49.030  37.419  29.493  1.00  0.00     0.211 HD
ENDBRANCH  31  52
ENDBRANCH   1  24
TORSDOF 8
ENDMDL
MODEL 4
REMARK VINA RESULT:      -9.1      2.226      2.969
REMARK SMILES NC(=O)Nc1cccc(CC[C@H]2C[C@@H](n3ccc4c(N)ncnc43)[C@H](O)[C@@H]2O)c1
REMARK SMILES IDX 11 1 10 4 9 7 5 8 6 9 29 10 7 11 8 14 4 17 1 18 2 19 3 22
REMARK SMILES IDX 12 24 13 25 27 26 14 28 25 31 28 35 15 37 16 38 24 39 17 40
REMARK SMILES IDX 18 42 23 43 19 45 22 46 21 47 20 49 26 52
REMARK H PARENT 11 2 11 3 10 5 10 6 6 12 29 13 7 15 8 16 1 20 1 21 4 23 12 27
REMARK H PARENT 13 29 13 30 27 32 14 33 25 34 28 36 16 41 17 44 22 48 20 50
REMARK H PARENT 20 51 26 53
REMARK Flexibility Score: inf
ROOT
ATOM      1  C   UNL     1     -46.252  34.474  27.680  1.00  0.00    -0.044 C 
ATOM      2  H   UNL     1     -46.953  33.999  28.378  1.00  0.00     0.027 H 
ATOM      3  H   UNL     1     -45.425  33.765  27.552  1.00  0.00     0.027 H 
ENDROOT
BRANCH   1   4
ATOM      4  C   UNL     1     -46.898  34.658  26.299  1.00  0.00    -0.027 C 
ATOM      5  H   UNL     1     -46.157  35.106  25.624  1.00  0.00     0.032 H 
ATOM      6  H   UNL     1     -47.711  35.392  26.374  1.00  0.00     0.032 H 
BRANCH   4   7
ATOM      7  C   UNL     1     -47.388  33.391  25.643  1.00  0.00    -0.046 A 
ATOM      8  C   UNL     1     -46.928  31.397  24.316  1.00  0.00     0.043 A 
ATOM      9  C   UNL     1     -48.274  31.031  24.425  1.00  0.00    -0.038 A 
ATOM     10  C   UNL     1     -46.491  32.568  24.939  1.00  0.00    -0.035 A 
ATOM     11  C   UNL     1     -49.171  31.830  25.135  1.00  0.00    -0.060 A 
ATOM     12  H   UNL     1     -48.645  30.123  23.958  1.00  0.00     0.064 H 
ATOM     13  H   UNL     1     -45.449  32.868  24.883  1.00  0.00     0.065 H 
ATOM     14  C   UNL     1     -48.730  33.004  25.742  1.00  0.00    -0.059 A 
ATOM     15  H   UNL     1     -50.215  31.539  25.214  1.00  0.00     0.062 H 
ATOM     16  H   UNL     1     -49.440  33.614  26.297  1.00  0.00     0.063 H 
BRANCH   8  17
ATOM     17  N   UNL     1     -46.082  30.539  23.587  1.00  0.00    -0.308 N 
ATOM     18  N   UNL     1     -45.139  29.403  21.874  1.00  0.00    -0.351 N 
ATOM     19  C   UNL     1     -46.182  30.193  22.267  1.00  0.00     0.316 C 
ATOM     20  H   UNL     1     -44.226  29.677  22.206  1.00  0.00     0.161 HD
ATOM     21  H   UNL     1     -45.163  29.223  20.876  1.00  0.00     0.161 HD
ATOM     22  O   UNL     1     -47.052  30.490  21.463  1.00  0.00    -0.249 OA
ATOM     23  H   UNL     1     -45.415  29.997  24.117  1.00  0.00     0.171 HD
ENDBRANCH   8  17
ENDBRANCH   4   7
ENDBRANCH   1   4
BRANCH   1  24
ATOM     24  C   UNL     1     -45.681  35.760  28.302  1.00  0.00    -0.010 C 
ATOM     25  C   UNL     1     -45.745  36.997  27.402  1.00  0.00    -0.024 C 
ATOM     26  C   UNL     1     -46.485  36.212  29.527  1.00  0.00     0.085 C 
ATOM     27  H   UNL     1     -44.642  35.568  28.601  1.00  0.00     0.033 H 
ATOM     28  C   UNL     1     -45.695  38.204  28.359  1.00  0.00     0.064 C 
ATOM     29  H   UNL     1     -46.658  36.993  26.798  1.00  0.00     0.029 H 
ATOM     30  H   UNL     1     -44.896  37.034  26.711  1.00  0.00     0.029 H 
ATOM     31  C   UNL     1     -46.018  37.656  29.760  1.00  0.00     0.101 C 
ATOM     32  H   UNL     1     -47.562  36.178  29.332  1.00  0.00     0.063 H 
ATOM     33  H   UNL     1     -44.668  38.597  28.359  1.00  0.00     0.056 H 
ATOM     34  H   UNL     1     -46.757  38.237  30.320  1.00  0.00     0.065 H 
BRANCH  26  35
ATOM     35  O   UNL     1     -46.198  35.420  30.678  1.00  0.00    -0.390 OA
ATOM     36  H   UNL     1     -46.360  34.492  30.436  1.00  0.00     0.211 HD
ENDBRANCH  26  35
BRANCH  28  37
ATOM     37  N   UNL     1     -46.548  39.302  27.936  1.00  0.00    -0.327 N 
ATOM     38  C   UNL     1     -47.879  39.423  28.265  1.00  0.00     0.007 A 
ATOM     39  C   UNL     1     -46.172  40.375  27.162  1.00  0.00     0.145 A 
ATOM     40  C   UNL     1     -48.358  40.582  27.693  1.00  0.00    -0.031 A 
ATOM     41  H   UNL     1     -48.376  38.676  28.871  1.00  0.00     0.082 H 
ATOM     42  C   UNL     1     -47.282  41.195  26.995  1.00  0.00     0.061 A 
ATOM     43  N   UNL     1     -44.944  40.590  26.660  1.00  0.00    -0.218 NA
ATOM     44  H   UNL     1     -49.374  40.946  27.764  1.00  0.00     0.065 H 
ATOM     45  C   UNL     1     -47.100  42.355  26.231  1.00  0.00     0.136 A 
ATOM     46  C   UNL     1     -44.895  41.729  25.945  1.00  0.00     0.120 A 
ATOM     47  N   UNL     1     -45.884  42.612  25.712  1.00  0.00    -0.219 NA
ATOM     48  H   UNL     1     -43.934  41.969  25.500  1.00  0.00     0.106 H 
BRANCH  45  49
ATOM     49  N   UNL     1     -48.105  43.280  25.985  1.00  0.00    -0.383 N 
ATOM     50  H   UNL     1     -48.631  43.471  26.829  1.00  0.00     0.158 HD
ATOM     51  H   UNL     1     -48.640  43.112  25.145  1.00  0.00     0.158 HD
ENDBRANCH  45  49
ENDBRANCH  28  37
BRANCH  31  52
ATOM     52  O   UNL     1     -44.819  37.639  30.555  1.00  0.00    -0.388 OA
ATOM     53  H   UNL     1     -44.098  37.510  29.903  1.00  0.00     0.211 HD
ENDBRANCH  31  52
ENDBRANCH   1  24
TORSDOF 8
ENDMDL
MODEL 5
REMARK VINA RESULT:      -9.1      2.590      9.747
REMARK SMILES NC(=O)Nc1cccc(CC[C@H]2C[C@@H](n3ccc4c(N)ncnc43)[C@H](O)[C@@H]2O)c1
REMARK SMILES IDX 11 1 10 4 9 7 5 8 6 9 29 10 7 11 8 14 4 17 1 18 2 19 3 22
REMARK SMILES IDX 12 24 13 25 27 26 14 28 25 31 28 35 15 37 16 38 24 39 17 40
REMARK SMILES IDX 18 42 23 43 19 45 22 46 21 47 20 49 26 52
REMARK H PARENT 11 2 11 3 10 5 10 6 6 12 29 13 7 15 8 16 1 20 1 21 4 23 12 27
REMARK H PARENT 13 29 13 30 27 32 14 33 25 34 28 36 16 41 17 44 22 48 20 50
REMARK H PARENT 20 51 26 53
REMARK Flexibility Score: inf
ROOT
ATOM      1  C   UNL     1     -47.870  36.098  26.794  1.00  0.00    -0.044 C 
ATOM      2  H   UNL     1     -48.843  36.257  26.312  1.00  0.00     0.027 H 
ATOM      3  H   UNL     1     -47.117  36.456  26.081  1.00  0.00     0.027 H 
ENDROOT
BRANCH   1   4
ATOM      4  C   UNL     1     -47.737  36.966  28.054  1.00  0.00    -0.027 C 
ATOM      5  H   UNL     1     -47.620  36.305  28.922  1.00  0.00     0.032 H 
ATOM      6  H   UNL     1     -48.676  37.510  28.221  1.00  0.00     0.032 H 
BRANCH   4   7
ATOM      7  C   UNL     1     -46.567  37.918  28.060  1.00  0.00    -0.046 A 
ATOM      8  C   UNL     1     -45.246  39.636  26.940  1.00  0.00     0.043 A 
ATOM      9  C   UNL     1     -44.406  39.698  28.057  1.00  0.00    -0.038 A 
ATOM     10  C   UNL     1     -46.330  38.755  26.956  1.00  0.00    -0.035 A 
ATOM     11  C   UNL     1     -44.639  38.885  29.166  1.00  0.00    -0.060 A 
ATOM     12  H   UNL     1     -43.557  40.376  28.079  1.00  0.00     0.064 H 
ATOM     13  H   UNL     1     -47.007  38.697  26.108  1.00  0.00     0.065 H 
ATOM     14  C   UNL     1     -45.716  38.000  29.169  1.00  0.00    -0.059 A 
ATOM     15  H   UNL     1     -43.981  38.941  30.029  1.00  0.00     0.062 H 
ATOM     16  H   UNL     1     -45.888  37.377  30.044  1.00  0.00     0.063 H 
BRANCH   8  17
ATOM     17  N   UNL     1     -44.950  40.489  25.859  1.00  0.00    -0.308 N 
ATOM     18  N   UNL     1     -44.686  42.354  24.608  1.00  0.00    -0.351 N 
ATOM     19  C   UNL     1     -45.176  41.835  25.773  1.00  0.00     0.316 C 
ATOM     20  H   UNL     1     -43.774  42.025  24.326  1.00  0.00     0.161 HD
ATOM     21  H   UNL     1     -44.771  43.364  24.585  1.00  0.00     0.161 HD
ATOM     22  O   UNL     1     -45.740  42.568  26.571  1.00  0.00    -0.249 OA
ATOM     23  H   UNL     1     -44.679  40.049  24.992  1.00  0.00     0.171 HD
ENDBRANCH   8  17
ENDBRANCH   4   7
ENDBRANCH   1   4
BRANCH   1  24
ATOM     24  C   UNL     1     -47.633  34.596  27.018  1.00  0.00    -0.010 C 
ATOM     25  C   UNL     1     -48.366  33.672  26.042  1.00  0.00    -0.024 C 
ATOM     26  C   UNL     1     -46.167  34.205  26.791  1.00  0.00     0.085 C 
ATOM     27  H   UNL     1     -47.917  34.350  28.050  1.00  0.00     0.033 H 
ATOM     28  C   UNL     1     -47.571  32.351  26.051  1.00  0.00     0.064 C 
ATOM     29  H   UNL     1     -48.408  34.116  25.041  1.00  0.00     0.029 H 
ATOM     30  H   UNL     1     -49.397  33.488  26.361  1.00  0.00     0.029 H 
ATOM     31  C   UNL     1     -46.207  32.674  26.685  1.00  0.00     0.101 C 
ATOM     32  H   UNL     1     -45.774  34.648  25.870  1.00  0.00     0.063 H 
ATOM     33  H   UNL     1     -48.103  31.637  26.695  1.00  0.00     0.056 H 
ATOM     34  H   UNL     1     -45.343  32.281  26.140  1.00  0.00     0.065 H 
BRANCH  26  35
ATOM     35  O   UNL     1     -45.334  34.592  27.883  1.00  0.00    -0.390 OA
ATOM     36  H   UNL     1     -44.487  34.126  27.778  1.00  0.00     0.211 HD
ENDBRANCH  26  35
BRANCH  28  37
ATOM     37  N   UNL     1     -47.487  31.728  24.739  1.00  0.00    -0.327 N 
ATOM     38  C   UNL     1     -46.344  31.682  23.973  1.00  0.00     0.007 A 
ATOM     39  C   UNL     1     -48.508  31.094  24.072  1.00  0.00     0.145 A 
ATOM     40  C   UNL     1     -46.641  31.016  22.803  1.00  0.00    -0.031 A 
ATOM     41  H   UNL     1     -45.421  32.130  24.318  1.00  0.00     0.082 H 
ATOM     42  C   UNL     1     -48.009  30.636  22.859  1.00  0.00     0.061 A 
ATOM     43  N   UNL     1     -49.767  30.945  24.518  1.00  0.00    -0.218 NA
ATOM     44  H   UNL     1     -45.948  30.828  21.994  1.00  0.00     0.065 H 
ATOM     45  C   UNL     1     -48.905  29.952  22.025  1.00  0.00     0.136 A 
ATOM     46  C   UNL     1     -50.530  30.279  23.634  1.00  0.00     0.120 A 
ATOM     47  N   UNL     1     -50.175  29.776  22.436  1.00  0.00    -0.219 NA
ATOM     48  H   UNL     1     -51.565  30.123  23.922  1.00  0.00     0.106 H 
BRANCH  45  49
ATOM     49  N   UNL     1     -48.556  29.422  20.792  1.00  0.00    -0.383 N 
ATOM     50  H   UNL     1     -47.846  28.707  20.895  1.00  0.00     0.158 HD
ATOM     51  H   UNL     1     -48.409  30.105  20.062  1.00  0.00     0.158 HD
ENDBRANCH  45  49
ENDBRANCH  28  37
BRANCH  31  52
ATOM     52  O   UNL     1     -46.151  32.111  28.008  1.00  0.00    -0.388 OA
ATOM     53  H   UNL     1     -45.368  31.521  27.988  1.00  0.00     0.211 HD
ENDBRANCH  31  52
ENDBRANCH   1  24
TORSDOF 8
ENDMDL
MODEL 6
REMARK VINA RESULT:      -9.0      2.276      9.701
REMARK SMILES NC(=O)Nc1cccc(CC[C@H]2C[C@@H](n3ccc4c(N)ncnc43)[C@H](O)[C@@H]2O)c1
REMARK SMILES IDX 11 1 10 4 9 7 5 8 6 9 29 10 7 11 8 14 4 17 1 18 2 19 3 22
REMARK SMILES IDX 12 24 13 25 27 26 14 28 25 31 28 35 15 37 16 38 24 39 17 40
REMARK SMILES IDX 18 42 23 43 19 45 22 46 21 47 20 49 26 52
REMARK H PARENT 11 2 11 3 10 5 10 6 6 12 29 13 7 15 8 16 1 20 1 21 4 23 12 27
REMARK H PARENT 13 29 13 30 27 32 14 33 25 34 28 36 16 41 17 44 22 48 20 50
REMARK H PARENT 20 51 26 53
REMARK Flexibility Score: inf
ROOT
ATOM      1  C   UNL     1     -47.953  36.093  27.002  1.00  0.00    -0.044 C 
ATOM      2  H   UNL     1     -48.371  36.463  27.946  1.00  0.00     0.027 H 
ATOM      3  H   UNL     1     -48.703  36.313  26.232  1.00  0.00     0.027 H 
ENDROOT
BRANCH   1   4
ATOM      4  C   UNL     1     -46.685  36.872  26.624  1.00  0.00    -0.027 C 
ATOM      5  H   UNL     1     -46.968  37.698  25.959  1.00  0.00     0.032 H 
ATOM      6  H   UNL     1     -46.026  36.227  26.030  1.00  0.00     0.032 H 
BRANCH   4   7
ATOM      7  C   UNL     1     -45.930  37.475  27.783  1.00  0.00    -0.046 A 
ATOM      8  C   UNL     1     -44.465  39.217  28.661  1.00  0.00     0.043 A 
ATOM      9  C   UNL     1     -44.529  38.615  29.922  1.00  0.00    -0.038 A 
ATOM     10  C   UNL     1     -45.179  38.649  27.602  1.00  0.00    -0.035 A 
ATOM     11  C   UNL     1     -45.285  37.459  30.119  1.00  0.00    -0.060 A 
ATOM     12  H   UNL     1     -43.991  39.034  30.769  1.00  0.00     0.064 H 
ATOM     13  H   UNL     1     -45.158  39.104  26.616  1.00  0.00     0.065 H 
ATOM     14  C   UNL     1     -45.983  36.892  29.055  1.00  0.00    -0.059 A 
ATOM     15  H   UNL     1     -45.329  36.998  31.102  1.00  0.00     0.062 H 
ATOM     16  H   UNL     1     -46.572  35.993  29.225  1.00  0.00     0.063 H 
BRANCH   8  17
ATOM     17  N   UNL     1     -43.685  40.383  28.540  1.00  0.00    -0.308 N 
ATOM     18  N   UNL     1     -42.046  41.910  28.850  1.00  0.00    -0.351 N 
ATOM     19  C   UNL     1     -42.612  40.752  29.304  1.00  0.00     0.316 C 
ATOM     20  H   UNL     1     -41.943  41.989  27.850  1.00  0.00     0.161 HD
ATOM     21  H   UNL     1     -41.197  42.133  29.359  1.00  0.00     0.161 HD
ATOM     22  O   UNL     1     -42.147  40.196  30.287  1.00  0.00    -0.249 OA
ATOM     23  H   UNL     1     -44.035  41.104  27.926  1.00  0.00     0.171 HD
ENDBRANCH   8  17
ENDBRANCH   4   7
ENDBRANCH   1   4
BRANCH   1  24
ATOM     24  C   UNL     1     -47.777  34.567  27.067  1.00  0.00    -0.010 C 
ATOM     25  C   UNL     1     -48.868  33.758  26.360  1.00  0.00    -0.024 C 
ATOM     26  C   UNL     1     -46.510  34.103  26.338  1.00  0.00     0.085 C 
ATOM     27  H   UNL     1     -47.717  34.269  28.123  1.00  0.00     0.033 H 
ATOM     28  C   UNL     1     -48.226  32.394  26.040  1.00  0.00     0.064 C 
ATOM     29  H   UNL     1     -49.208  34.271  25.453  1.00  0.00     0.029 H 
ATOM     30  H   UNL     1     -49.743  33.617  27.002  1.00  0.00     0.029 H 
ATOM     31  C   UNL     1     -46.707  32.588  26.186  1.00  0.00     0.101 C 
ATOM     32  H   UNL     1     -46.415  34.583  25.358  1.00  0.00     0.063 H 
ATOM     33  H   UNL     1     -48.567  31.672  26.796  1.00  0.00     0.056 H 
ATOM     34  H   UNL     1     -46.112  32.181  25.363  1.00  0.00     0.065 H 
BRANCH  26  35
ATOM     35  O   UNL     1     -45.330  34.363  27.097  1.00  0.00    -0.390 OA
ATOM     36  H   UNL     1     -44.838  33.526  27.159  1.00  0.00     0.211 HD
ENDBRANCH  26  35
BRANCH  28  37
ATOM     37  N   UNL     1     -48.639  31.858  24.753  1.00  0.00    -0.327 N 
ATOM     38  C   UNL     1     -49.935  31.860  24.289  1.00  0.00     0.007 A 
ATOM     39  C   UNL     1     -47.819  31.283  23.810  1.00  0.00     0.145 A 
ATOM     40  C   UNL     1     -49.943  31.276  23.040  1.00  0.00    -0.031 A 
ATOM     41  H   UNL     1     -50.741  32.268  24.885  1.00  0.00     0.082 H 
ATOM     42  C   UNL     1     -48.606  30.911  22.727  1.00  0.00     0.061 A 
ATOM     43  N   UNL     1     -46.491  31.113  23.920  1.00  0.00    -0.218 NA
ATOM     44  H   UNL     1     -50.818  31.124  22.424  1.00  0.00     0.065 H 
ATOM     45  C   UNL     1     -47.949  30.304  21.648  1.00  0.00     0.136 A 
ATOM     46  C   UNL     1     -45.975  30.520  22.829  1.00  0.00     0.120 A 
ATOM     47  N   UNL     1     -46.617  30.119  21.715  1.00  0.00    -0.219 NA
ATOM     48  H   UNL     1     -44.904  30.343  22.846  1.00  0.00     0.106 H 
BRANCH  45  49
ATOM     49  N   UNL     1     -48.591  29.890  20.490  1.00  0.00    -0.383 N 
ATOM     50  H   UNL     1     -48.247  28.985  20.192  1.00  0.00     0.158 HD
ATOM     51  H   UNL     1     -48.679  30.600  19.777  1.00  0.00     0.158 HD
ENDBRANCH  45  49
ENDBRANCH  28  37
BRANCH  31  52
ATOM     52  O   UNL     1     -46.255  31.934  27.385  1.00  0.00    -0.388 OA
ATOM     53  H   UNL     1     -45.381  31.561  27.143  1.00  0.00     0.211 HD
ENDBRANCH  31  52
ENDBRANCH   1  24
TORSDOF 8
ENDMDL
MODEL 7
REMARK VINA RESULT:      -9.0      1.575      2.019
REMARK SMILES NC(=O)Nc1cccc(CC[C@H]2C[C@@H](n3ccc4c(N)ncnc43)[C@H](O)[C@@H]2O)c1
REMARK SMILES IDX 11 1 10 4 9 7 5 8 6 9 29 10 7 11 8 14 4 17 1 18 2 19 3 22
REMARK SMILES IDX 12 24 13 25 27 26 14 28 25 31 28 35 15 37 16 38 24 39 17 40
REMARK SMILES IDX 18 42 23 43 19 45 22 46 21 47 20 49 26 52
REMARK H PARENT 11 2 11 3 10 5 10 6 6 12 29 13 7 15 8 16 1 20 1 21 4 23 12 27
REMARK H PARENT 13 29 13 30 27 32 14 33 25 34 28 36 16 41 17 44 22 48 20 50
REMARK H PARENT 20 51 26 53
REMARK Flexibility Score: inf
ROOT
ATOM      1  C   UNL     1     -46.441  35.412  27.790  1.00  0.00    -0.044 C 
ATOM      2  H   UNL     1     -46.082  34.709  28.552  1.00  0.00     0.027 H 
ATOM      3  H   UNL     1     -45.673  35.429  27.007  1.00  0.00     0.027 H 
ENDROOT
BRANCH   1   4
ATOM      4  C   UNL     1     -47.732  34.896  27.136  1.00  0.00    -0.027 C 
ATOM      5  H   UNL     1     -48.224  35.735  26.627  1.00  0.00     0.032 H 
ATOM      6  H   UNL     1     -48.431  34.574  27.918  1.00  0.00     0.032 H 
BRANCH   4   7
ATOM      7  C   UNL     1     -47.543  33.804  26.112  1.00  0.00    -0.046 A 
ATOM      8  C   UNL     1     -48.461  31.946  24.826  1.00  0.00     0.043 A 
ATOM      9  C   UNL     1     -47.217  31.779  24.207  1.00  0.00    -0.038 A 
ATOM     10  C   UNL     1     -48.619  32.968  25.765  1.00  0.00    -0.035 A 
ATOM     11  C   UNL     1     -46.147  32.614  24.529  1.00  0.00    -0.060 A 
ATOM     12  H   UNL     1     -47.062  30.998  23.468  1.00  0.00     0.064 H 
ATOM     13  H   UNL     1     -49.576  33.128  26.251  1.00  0.00     0.065 H 
ATOM     14  C   UNL     1     -46.309  33.623  25.476  1.00  0.00    -0.059 A 
ATOM     15  H   UNL     1     -45.185  32.477  24.043  1.00  0.00     0.062 H 
ATOM     16  H   UNL     1     -45.466  34.269  25.713  1.00  0.00     0.063 H 
BRANCH   8  17
ATOM     17  N   UNL     1     -49.495  31.068  24.447  1.00  0.00    -0.308 N 
ATOM     18  N   UNL     1     -50.756  29.202  24.236  1.00  0.00    -0.351 N 
ATOM     19  C   UNL     1     -49.569  29.721  24.672  1.00  0.00     0.316 C 
ATOM     20  H   UNL     1     -51.579  29.747  24.447  1.00  0.00     0.161 HD
ATOM     21  H   UNL     1     -50.849  28.224  24.485  1.00  0.00     0.161 HD
ATOM     22  O   UNL     1     -48.737  28.983  25.178  1.00  0.00    -0.249 OA
ATOM     23  H   UNL     1     -50.190  31.430  23.812  1.00  0.00     0.171 HD
ENDBRANCH   8  17
ENDBRANCH   4   7
ENDBRANCH   1   4
BRANCH   1  24
ATOM     24  C   UNL     1     -46.541  36.827  28.385  1.00  0.00    -0.010 C 
ATOM     25  C   UNL     1     -45.228  37.614  28.407  1.00  0.00    -0.024 C 
ATOM     26  C   UNL     1     -47.448  37.739  27.549  1.00  0.00     0.085 C 
ATOM     27  H   UNL     1     -46.947  36.747  29.403  1.00  0.00     0.033 H 
ATOM     28  C   UNL     1     -45.639  39.098  28.465  1.00  0.00     0.064 C 
ATOM     29  H   UNL     1     -44.625  37.392  27.520  1.00  0.00     0.029 H 
ATOM     30  H   UNL     1     -44.623  37.361  29.284  1.00  0.00     0.029 H 
ATOM     31  C   UNL     1     -47.124  39.149  28.062  1.00  0.00     0.101 C 
ATOM     32  H   UNL     1     -47.225  37.652  26.481  1.00  0.00     0.063 H 
ATOM     33  H   UNL     1     -45.541  39.439  29.505  1.00  0.00     0.056 H 
ATOM     34  H   UNL     1     -47.372  39.918  27.324  1.00  0.00     0.065 H 
BRANCH  26  35
ATOM     35  O   UNL     1     -48.831  37.455  27.757  1.00  0.00    -0.390 OA
ATOM     36  H   UNL     1     -48.965  37.370  28.717  1.00  0.00     0.211 HD
ENDBRANCH  26  35
BRANCH  28  37
ATOM     37  N   UNL     1     -44.776  39.959  27.673  1.00  0.00    -0.327 N 
ATOM     38  C   UNL     1     -45.038  40.340  26.376  1.00  0.00     0.007 A 
ATOM     39  C   UNL     1     -43.592  40.525  28.083  1.00  0.00     0.145 A 
ATOM     40  C   UNL     1     -44.007  41.153  25.953  1.00  0.00    -0.031 A 
ATOM     41  H   UNL     1     -45.926  39.999  25.860  1.00  0.00     0.082 H 
ATOM     42  C   UNL     1     -43.089  41.280  27.030  1.00  0.00     0.061 A 
ATOM     43  N   UNL     1     -43.025  40.374  29.292  1.00  0.00    -0.218 NA
ATOM     44  H   UNL     1     -43.922  41.602  24.973  1.00  0.00     0.065 H 
ATOM     45  C   UNL     1     -41.876  41.945  27.254  1.00  0.00     0.136 A 
ATOM     46  C   UNL     1     -41.870  41.055  29.386  1.00  0.00     0.120 A 
ATOM     47  N   UNL     1     -41.276  41.825  28.454  1.00  0.00    -0.219 NA
ATOM     48  H   UNL     1     -41.347  40.977  30.334  1.00  0.00     0.106 H 
BRANCH  45  49
ATOM     49  N   UNL     1     -41.253  42.747  26.309  1.00  0.00    -0.383 N 
ATOM     50  H   UNL     1     -40.760  42.183  25.627  1.00  0.00     0.158 HD
ATOM     51  H   UNL     1     -40.754  43.540  26.688  1.00  0.00     0.158 HD
ENDBRANCH  45  49
ENDBRANCH  28  37
BRANCH  31  52
ATOM     52  O   UNL     1     -47.925  39.421  29.226  1.00  0.00    -0.388 OA
ATOM     53  H   UNL     1     -47.920  40.398  29.302  1.00  0.00     0.211 HD
ENDBRANCH  31  52
ENDBRANCH   1  24
TORSDOF 8
ENDMDL
