MODEL 1
REMARK VINA RESULT:      -9.8      0.000      0.000
REMARK SMILES CNc1ccc2ccc(OC[C@H]3O[C@@H](n4cc(-c5ccnn5C)c5c(N)ncnc54)[C@@H](F)[C@@H]3O)cc2n1
REMARK SMILES IDX 11 1 10 4 9 5 3 6 4 7 37 8 5 9 36 11 6 12 35 14 7 15 8 17
REMARK SMILES IDX 2 20 1 22 12 26 13 27 33 28 14 30 31 31 32 34 34 36 15 38
REMARK SMILES IDX 16 39 30 40 17 41 24 43 29 44 25 45 28 46 27 47 18 49 19 50
REMARK SMILES IDX 22 51 20 52 21 54 23 56 26 60
REMARK H PARENT 11 2 11 3 4 10 5 13 35 16 7 18 8 19 2 21 1 23 1 24 1 25 12 29
REMARK H PARENT 33 32 14 33 31 35 34 37 16 42 28 48 19 53 20 55 23 57 23 58
REMARK H PARENT 23 59 26 61 26 62
REMARK Flexibility Score: inf
ROOT
ATOM      1  C   UNL     1     -46.784  33.389  26.393  1.00  0.00     0.117 C 
ATOM      2  H   UNL     1     -46.315  32.471  26.761  1.00  0.00     0.073 H 
ATOM      3  H   UNL     1     -45.946  33.934  25.939  1.00  0.00     0.073 H 
ENDROOT
BRANCH   1   4
ATOM      4  O   UNL     1     -47.301  34.231  27.416  1.00  0.00    -0.491 OA
BRANCH   4   5
ATOM      5  C   UNL     1     -46.739  35.457  27.637  1.00  0.00     0.121 A 
ATOM      6  C   UNL     1     -45.804  40.021  26.660  1.00  0.00     0.126 A 
ATOM      7  C   UNL     1     -44.982  40.142  27.775  1.00  0.00    -0.019 A 
ATOM      8  N   UNL     1     -46.440  38.867  26.373  1.00  0.00    -0.231 NA
ATOM      9  C   UNL     1     -44.785  39.042  28.603  1.00  0.00    -0.049 A 
ATOM     10  H   UNL     1     -44.503  41.089  28.006  1.00  0.00     0.066 H 
ATOM     11  C   UNL     1     -46.255  37.798  27.170  1.00  0.00     0.076 A 
ATOM     12  C   UNL     1     -45.425  37.837  28.306  1.00  0.00     0.001 A 
ATOM     13  H   UNL     1     -44.141  39.135  29.473  1.00  0.00     0.063 H 
ATOM     14  C   UNL     1     -46.902  36.606  26.861  1.00  0.00     0.007 A 
ATOM     15  C   UNL     1     -45.259  36.693  29.098  1.00  0.00    -0.049 A 
ATOM     16  H   UNL     1     -47.529  36.622  25.979  1.00  0.00     0.069 H 
ATOM     17  C   UNL     1     -45.913  35.510  28.758  1.00  0.00    -0.019 A 
ATOM     18  H   UNL     1     -44.619  36.712  29.978  1.00  0.00     0.063 H 
ATOM     19  H   UNL     1     -45.775  34.622  29.371  1.00  0.00     0.066 H 
BRANCH   6  20
ATOM     20  N   UNL     1     -45.993  41.162  25.859  1.00  0.00    -0.373 N 
ATOM     21  H   UNL     1     -46.627  41.798  26.333  1.00  0.00     0.161 HD
BRANCH  20  22
ATOM     22  C   UNL     1     -44.764  41.825  25.456  1.00  0.00     0.005 C 
ATOM     23  H   UNL     1     -43.883  41.207  25.665  1.00  0.00     0.045 H 
ATOM     24  H   UNL     1     -44.788  42.091  24.395  1.00  0.00     0.045 H 
ATOM     25  H   UNL     1     -44.659  42.755  26.024  1.00  0.00     0.045 H 
ENDBRANCH  20  22
ENDBRANCH   6  20
ENDBRANCH   4   5
ENDBRANCH   1   4
BRANCH   1  26
ATOM     26  C   UNL     1     -47.803  33.111  25.282  1.00  0.00     0.123 C 
ATOM     27  O   UNL     1     -47.162  32.353  24.232  1.00  0.00    -0.345 OA
ATOM     28  C   UNL     1     -49.036  32.317  25.695  1.00  0.00     0.119 C 
ATOM     29  H   UNL     1     -48.118  34.074  24.858  1.00  0.00     0.067 H 
ATOM     30  C   UNL     1     -48.128  31.411  23.701  1.00  0.00     0.169 C 
ATOM     31  C   UNL     1     -49.460  31.712  24.374  1.00  0.00     0.173 C 
ATOM     32  H   UNL     1     -48.802  31.526  26.415  1.00  0.00     0.066 H 
ATOM     33  H   UNL     1     -48.177  31.563  22.618  1.00  0.00     0.088 H 
ATOM     34  F   UNL     1     -50.226  30.618  24.594  1.00  0.00    -0.239 F 
ATOM     35  H   UNL     1     -50.049  32.426  23.787  1.00  0.00     0.074 H 
BRANCH  28  36
ATOM     36  O   UNL     1     -50.062  33.140  26.238  1.00  0.00    -0.387 OA
ATOM     37  H   UNL     1     -49.771  34.065  26.136  1.00  0.00     0.211 HD
ENDBRANCH  28  36
BRANCH  30  38
ATOM     38  N   UNL     1     -47.647  30.053  23.934  1.00  0.00    -0.302 N 
ATOM     39  C   UNL     1     -48.257  29.072  24.672  1.00  0.00     0.019 A 
ATOM     40  C   UNL     1     -46.495  29.552  23.381  1.00  0.00     0.148 A 
ATOM     41  C   UNL     1     -47.457  27.945  24.639  1.00  0.00     0.031 A 
ATOM     42  H   UNL     1     -49.168  29.269  25.217  1.00  0.00     0.083 H 
ATOM     43  C   UNL     1     -46.380  28.213  23.742  1.00  0.00     0.071 A 
ATOM     44  N   UNL     1     -45.661  30.250  22.591  1.00  0.00    -0.218 NA
ATOM     45  C   UNL     1     -45.340  27.507  23.113  1.00  0.00     0.137 A 
ATOM     46  C   UNL     1     -44.665  29.485  22.125  1.00  0.00     0.120 A 
ATOM     47  N   UNL     1     -44.471  28.171  22.327  1.00  0.00    -0.219 NA
ATOM     48  H   UNL     1     -43.934  29.982  21.495  1.00  0.00     0.106 H 
BRANCH  41  49
ATOM     49  C   UNL     1     -47.811  26.678  25.483  1.00  0.00     0.070 A 
ATOM     50  C   UNL     1     -46.889  25.892  26.149  1.00  0.00    -0.016 A 
ATOM     51  N   UNL     1     -49.023  26.062  25.687  1.00  0.00    -0.268 N 
ATOM     52  C   UNL     1     -47.651  24.928  26.827  1.00  0.00     0.050 A 
ATOM     53  H   UNL     1     -45.819  26.029  26.197  1.00  0.00     0.066 H 
ATOM     54  N   UNL     1     -48.954  25.049  26.581  1.00  0.00    -0.181 NA
ATOM     55  H   UNL     1     -47.311  24.147  27.495  1.00  0.00     0.086 H 
BRANCH  51  56
ATOM     56  C   UNL     1     -50.233  26.171  24.905  1.00  0.00     0.030 C 
ATOM     57  H   UNL     1     -50.014  26.766  24.014  1.00  0.00     0.048 H 
ATOM     58  H   UNL     1     -51.010  26.682  25.475  1.00  0.00     0.048 H 
ATOM     59  H   UNL     1     -50.543  25.168  24.605  1.00  0.00     0.048 H 
ENDBRANCH  51  56
ENDBRANCH  41  49
BRANCH  45  60
ATOM     60  N   UNL     1     -45.184  26.125  23.163  1.00  0.00    -0.383 N 
ATOM     61  H   UNL     1     -44.878  25.735  22.278  1.00  0.00     0.158 HD
ATOM     62  H   UNL     1     -44.587  25.893  23.951  1.00  0.00     0.158 HD
ENDBRANCH  45  60
ENDBRANCH  30  38
ENDBRANCH   1  26
TORSDOF 10
ENDMDL
MODEL 2
REMARK VINA RESULT:      -9.3      3.536     11.704
REMARK SMILES CNc1ccc2ccc(OC[C@H]3O[C@@H](n4cc(-c5ccnn5C)c5c(N)ncnc54)[C@@H](F)[C@@H]3O)cc2n1
REMARK SMILES IDX 11 1 10 4 9 5 3 6 4 7 37 8 5 9 36 11 6 12 35 14 7 15 8 17
REMARK SMILES IDX 2 20 1 22 12 26 13 27 33 28 14 30 31 31 32 34 34 36 15 38
REMARK SMILES IDX 16 39 30 40 17 41 24 43 29 44 25 45 28 46 27 47 18 49 19 50
REMARK SMILES IDX 22 51 20 52 21 54 23 56 26 60
REMARK H PARENT 11 2 11 3 4 10 5 13 35 16 7 18 8 19 2 21 1 23 1 24 1 25 12 29
REMARK H PARENT 33 32 14 33 31 35 34 37 16 42 28 48 19 53 20 55 23 57 23 58
REMARK H PARENT 23 59 26 61 26 62
REMARK Flexibility Score: inf
ROOT
ATOM      1  C   UNL     1     -46.493  36.089  26.421  1.00  0.00     0.117 C 
ATOM      2  H   UNL     1     -47.426  36.128  25.853  1.00  0.00     0.073 H 
ATOM      3  H   UNL     1     -45.826  36.753  25.856  1.00  0.00     0.073 H 
ENDROOT
BRANCH   1   4
ATOM      4  O   UNL     1     -45.868  34.811  26.431  1.00  0.00    -0.491 OA
BRANCH   4   5
ATOM      5  C   UNL     1     -46.529  33.727  25.926  1.00  0.00     0.121 A 
ATOM      6  C   UNL     1     -47.711  30.568  22.567  1.00  0.00     0.126 A 
ATOM      7  C   UNL     1     -48.616  29.934  23.413  1.00  0.00    -0.019 A 
ATOM      8  N   UNL     1     -46.978  31.621  22.979  1.00  0.00    -0.231 NA
ATOM      9  C   UNL     1     -48.791  30.411  24.707  1.00  0.00    -0.049 A 
ATOM     10  H   UNL     1     -49.174  29.068  23.071  1.00  0.00     0.066 H 
ATOM     11  C   UNL     1     -47.142  32.088  24.231  1.00  0.00     0.076 A 
ATOM     12  C   UNL     1     -48.050  31.511  25.139  1.00  0.00     0.001 A 
ATOM     13  H   UNL     1     -49.499  29.918  25.367  1.00  0.00     0.063 H 
ATOM     14  C   UNL     1     -46.394  33.184  24.646  1.00  0.00     0.007 A 
ATOM     15  C   UNL     1     -48.190  32.042  26.430  1.00  0.00    -0.049 A 
ATOM     16  H   UNL     1     -45.709  33.596  23.915  1.00  0.00     0.069 H 
ATOM     17  C   UNL     1     -47.432  33.146  26.814  1.00  0.00    -0.019 A 
ATOM     18  H   UNL     1     -48.889  31.604  27.139  1.00  0.00     0.063 H 
ATOM     19  H   UNL     1     -47.550  33.560  27.813  1.00  0.00     0.066 H 
BRANCH   6  20
ATOM     20  N   UNL     1     -47.548  30.043  21.272  1.00  0.00    -0.373 N 
ATOM     21  H   UNL     1     -47.990  29.130  21.226  1.00  0.00     0.161 HD
BRANCH  20  22
ATOM     22  C   UNL     1     -48.005  30.919  20.206  1.00  0.00     0.005 C 
ATOM     23  H   UNL     1     -48.706  30.410  19.536  1.00  0.00     0.045 H 
ATOM     24  H   UNL     1     -48.467  31.825  20.609  1.00  0.00     0.045 H 
ATOM     25  H   UNL     1     -47.142  31.231  19.608  1.00  0.00     0.045 H 
ENDBRANCH  20  22
ENDBRANCH   6  20
ENDBRANCH   4   5
ENDBRANCH   1   4
BRANCH   1  26
ATOM     26  C   UNL     1     -46.646  36.685  27.825  1.00  0.00     0.123 C 
ATOM     27  O   UNL     1     -45.362  37.173  28.274  1.00  0.00    -0.345 OA
ATOM     28  C   UNL     1     -47.618  37.854  27.949  1.00  0.00     0.119 C 
ATOM     29  H   UNL     1     -46.959  35.882  28.506  1.00  0.00     0.067 H 
ATOM     30  C   UNL     1     -45.582  38.381  29.045  1.00  0.00     0.169 C 
ATOM     31  C   UNL     1     -47.089  38.554  29.182  1.00  0.00     0.173 C 
ATOM     32  H   UNL     1     -47.575  38.525  27.086  1.00  0.00     0.066 H 
ATOM     33  H   UNL     1     -45.099  38.245  30.018  1.00  0.00     0.088 H 
ATOM     34  F   UNL     1     -47.496  39.844  29.188  1.00  0.00    -0.239 F 
ATOM     35  H   UNL     1     -47.462  38.076  30.095  1.00  0.00     0.074 H 
BRANCH  28  36
ATOM     36  O   UNL     1     -48.963  37.431  28.134  1.00  0.00    -0.387 OA
ATOM     37  H   UNL     1     -48.944  36.466  28.272  1.00  0.00     0.211 HD
ENDBRANCH  28  36
BRANCH  30  38
ATOM     38  N   UNL     1     -44.921  39.498  28.378  1.00  0.00    -0.302 N 
ATOM     39  C   UNL     1     -45.368  40.192  27.284  1.00  0.00     0.019 A 
ATOM     40  C   UNL     1     -43.739  40.046  28.811  1.00  0.00     0.148 A 
ATOM     41  C   UNL     1     -44.432  41.162  26.975  1.00  0.00     0.031 A 
ATOM     42  H   UNL     1     -46.272  39.902  26.770  1.00  0.00     0.083 H 
ATOM     43  C   UNL     1     -43.438  41.136  27.999  1.00  0.00     0.071 A 
ATOM     44  N   UNL     1     -43.037  39.609  29.870  1.00  0.00    -0.218 NA
ATOM     45  C   UNL     1     -42.344  41.914  28.418  1.00  0.00     0.137 A 
ATOM     46  C   UNL     1     -41.972  40.385  30.111  1.00  0.00     0.120 A 
ATOM     47  N   UNL     1     -41.602  41.503  29.464  1.00  0.00    -0.219 NA
ATOM     48  H   UNL     1     -41.339  40.085  30.941  1.00  0.00     0.106 H 
BRANCH  41  49
ATOM     49  C   UNL     1     -44.582  42.055  25.701  1.00  0.00     0.070 A 
ATOM     50  C   UNL     1     -43.643  42.153  24.692  1.00  0.00    -0.016 A 
ATOM     51  N   UNL     1     -45.582  42.932  25.351  1.00  0.00    -0.268 N 
ATOM     52  C   UNL     1     -44.225  42.993  23.730  1.00  0.00     0.050 A 
ATOM     53  H   UNL     1     -42.694  41.642  24.623  1.00  0.00     0.066 H 
ATOM     54  N   UNL     1     -45.422  43.440  24.106  1.00  0.00    -0.181 NA
ATOM     55  H   UNL     1     -43.830  43.292  22.768  1.00  0.00     0.086 H 
BRANCH  51  56
ATOM     56  C   UNL     1     -46.572  43.558  26.197  1.00  0.00     0.030 C 
ATOM     57  H   UNL     1     -47.557  43.179  25.909  1.00  0.00     0.048 H 
ATOM     58  H   UNL     1     -46.564  44.639  26.055  1.00  0.00     0.048 H 
ATOM     59  H   UNL     1     -46.365  43.282  27.233  1.00  0.00     0.048 H 
ENDBRANCH  51  56
ENDBRANCH  41  49
BRANCH  45  60
ATOM     60  N   UNL     1     -42.010  43.154  27.883  1.00  0.00    -0.383 N 
ATOM     61  H   UNL     1     -41.182  43.116  27.299  1.00  0.00     0.158 HD
ATOM     62  H   UNL     1     -42.828  43.543  27.424  1.00  0.00     0.158 HD
ENDBRANCH  45  60
ENDBRANCH  30  38
ENDBRANCH   1  26
TORSDOF 10
ENDMDL
MODEL 3
REMARK VINA RESULT:      -9.2      2.182      2.837
REMARK SMILES CNc1ccc2ccc(OC[C@H]3O[C@@H](n4cc(-c5ccnn5C)c5c(N)ncnc54)[C@@H](F)[C@@H]3O)cc2n1
REMARK SMILES IDX 11 1 10 4 9 5 3 6 4 7 37 8 5 9 36 11 6 12 35 14 7 15 8 17
REMARK SMILES IDX 2 20 1 22 12 26 13 27 33 28 14 30 31 31 32 34 34 36 15 38
REMARK SMILES IDX 16 39 30 40 17 41 24 43 29 44 25 45 28 46 27 47 18 49 19 50
REMARK SMILES IDX 22 51 20 52 21 54 23 56 26 60
REMARK H PARENT 11 2 11 3 4 10 5 13 35 16 7 18 8 19 2 21 1 23 1 24 1 25 12 29
REMARK H PARENT 33 32 14 33 31 35 34 37 16 42 28 48 19 53 20 55 23 57 23 58
REMARK H PARENT 23 59 26 61 26 62
REMARK Flexibility Score: inf
ROOT
ATOM      1  C   UNL     1     -46.709  32.636  26.539  1.00  0.00     0.117 C 
ATOM      2  H   UNL     1     -46.631  31.564  26.741  1.00  0.00     0.073 H 
ATOM      3  H   UNL     1     -45.724  32.886  26.124  1.00  0.00     0.073 H 
ENDROOT
BRANCH   1   4
ATOM      4  O   UNL     1     -46.866  33.439  27.704  1.00  0.00    -0.491 OA
BRANCH   4   5
ATOM      5  C   UNL     1     -46.538  34.765  27.664  1.00  0.00     0.121 A 
ATOM      6  C   UNL     1     -44.454  38.749  29.229  1.00  0.00     0.126 A 
ATOM      7  C   UNL     1     -44.995  39.498  28.188  1.00  0.00    -0.019 A 
ATOM      8  N   UNL     1     -44.682  37.424  29.337  1.00  0.00    -0.231 NA
ATOM      9  C   UNL     1     -45.812  38.876  27.251  1.00  0.00    -0.049 A 
ATOM     10  H   UNL     1     -44.774  40.557  28.101  1.00  0.00     0.066 H 
ATOM     11  C   UNL     1     -45.471  36.815  28.433  1.00  0.00     0.076 A 
ATOM     12  C   UNL     1     -46.068  37.509  27.363  1.00  0.00     0.001 A 
ATOM     13  H   UNL     1     -46.236  39.461  26.439  1.00  0.00     0.063 H 
ATOM     14  C   UNL     1     -45.715  35.452  28.559  1.00  0.00     0.007 A 
ATOM     15  C   UNL     1     -46.891  36.829  26.453  1.00  0.00    -0.049 A 
ATOM     16  H   UNL     1     -45.237  34.960  29.396  1.00  0.00     0.069 H 
ATOM     17  C   UNL     1     -47.123  35.464  26.610  1.00  0.00    -0.019 A 
ATOM     18  H   UNL     1     -47.357  37.356  25.624  1.00  0.00     0.063 H 
ATOM     19  H   UNL     1     -47.768  34.942  25.907  1.00  0.00     0.066 H 
BRANCH   6  20
ATOM     20  N   UNL     1     -43.617  39.410  30.145  1.00  0.00    -0.373 N 
ATOM     21  H   UNL     1     -43.106  38.719  30.686  1.00  0.00     0.161 HD
BRANCH  20  22
ATOM     22  C   UNL     1     -42.728  40.393  29.548  1.00  0.00     0.005 C 
ATOM     23  H   UNL     1     -41.684  40.061  29.567  1.00  0.00     0.045 H 
ATOM     24  H   UNL     1     -43.026  40.622  28.519  1.00  0.00     0.045 H 
ATOM     25  H   UNL     1     -42.791  41.324  30.120  1.00  0.00     0.045 H 
ENDBRANCH  20  22
ENDBRANCH   6  20
ENDBRANCH   4   5
ENDBRANCH   1   4
BRANCH   1  26
ATOM     26  C   UNL     1     -47.751  32.947  25.460  1.00  0.00     0.123 C 
ATOM     27  O   UNL     1     -47.493  32.122  24.302  1.00  0.00    -0.345 OA
ATOM     28  C   UNL     1     -49.204  32.699  25.849  1.00  0.00     0.119 C 
ATOM     29  H   UNL     1     -47.632  33.996  25.160  1.00  0.00     0.067 H 
ATOM     30  C   UNL     1     -48.767  31.743  23.723  1.00  0.00     0.169 C 
ATOM     31  C   UNL     1     -49.846  32.491  24.494  1.00  0.00     0.173 C 
ATOM     32  H   UNL     1     -49.324  31.803  26.465  1.00  0.00     0.066 H 
ATOM     33  H   UNL     1     -48.749  32.030  22.667  1.00  0.00     0.088 H 
ATOM     34  F   UNL     1     -51.002  31.801  24.633  1.00  0.00    -0.239 F 
ATOM     35  H   UNL     1     -50.080  33.451  24.019  1.00  0.00     0.074 H 
BRANCH  28  36
ATOM     36  O   UNL     1     -49.785  33.804  26.530  1.00  0.00    -0.387 OA
ATOM     37  H   UNL     1     -50.201  34.371  25.854  1.00  0.00     0.211 HD
ENDBRANCH  28  36
BRANCH  30  38
ATOM     38  N   UNL     1     -48.904  30.291  23.782  1.00  0.00    -0.302 N 
ATOM     39  C   UNL     1     -48.453  29.455  24.770  1.00  0.00     0.019 A 
ATOM     40  C   UNL     1     -49.570  29.554  22.834  1.00  0.00     0.148 A 
ATOM     41  C   UNL     1     -48.785  28.158  24.424  1.00  0.00     0.031 A 
ATOM     42  H   UNL     1     -47.875  29.833  25.600  1.00  0.00     0.083 H 
ATOM     43  C   UNL     1     -49.578  28.223  23.239  1.00  0.00     0.071 A 
ATOM     44  N   UNL     1     -50.145  30.067  21.733  1.00  0.00    -0.218 NA
ATOM     45  C   UNL     1     -50.372  27.362  22.462  1.00  0.00     0.137 A 
ATOM     46  C   UNL     1     -50.798  29.129  21.033  1.00  0.00     0.120 A 
ATOM     47  N   UNL     1     -50.952  27.830  21.340  1.00  0.00    -0.219 NA
ATOM     48  H   UNL     1     -51.273  29.461  20.116  1.00  0.00     0.106 H 
BRANCH  41  49
ATOM     49  C   UNL     1     -48.308  26.945  25.286  1.00  0.00     0.070 A 
ATOM     50  C   UNL     1     -47.030  26.420  25.269  1.00  0.00    -0.016 A 
ATOM     51  N   UNL     1     -49.017  26.139  26.145  1.00  0.00    -0.268 N 
ATOM     52  C   UNL     1     -47.036  25.407  26.241  1.00  0.00     0.050 A 
ATOM     53  H   UNL     1     -46.186  26.757  24.685  1.00  0.00     0.066 H 
ATOM     54  N   UNL     1     -48.232  25.257  26.807  1.00  0.00    -0.181 NA
ATOM     55  H   UNL     1     -46.217  24.778  26.566  1.00  0.00     0.086 H 
BRANCH  51  56
ATOM     56  C   UNL     1     -50.446  25.938  26.222  1.00  0.00     0.030 C 
ATOM     57  H   UNL     1     -50.660  25.345  27.115  1.00  0.00     0.048 H 
ATOM     58  H   UNL     1     -50.799  25.385  25.351  1.00  0.00     0.048 H 
ATOM     59  H   UNL     1     -50.929  26.913  26.308  1.00  0.00     0.048 H 
ENDBRANCH  51  56
ENDBRANCH  41  49
BRANCH  45  60
ATOM     60  N   UNL     1     -50.691  26.054  22.813  1.00  0.00    -0.383 N 
ATOM     61  H   UNL     1     -51.517  25.713  22.334  1.00  0.00     0.158 HD
ATOM     62  H   UNL     1     -49.866  25.473  22.690  1.00  0.00     0.158 HD
ENDBRANCH  45  60
ENDBRANCH  30  38
ENDBRANCH   1  26
TORSDOF 10
ENDMDL
MODEL 4
REMARK VINA RESULT:      -9.1      3.338     11.253
REMARK SMILES CNc1ccc2ccc(OC[C@H]3O[C@@H](n4cc(-c5ccnn5C)c5c(N)ncnc54)[C@@H](F)[C@@H]3O)cc2n1
REMARK SMILES IDX 11 1 10 4 9 5 3 6 4 7 37 8 5 9 36 11 6 12 35 14 7 15 8 17
REMARK SMILES IDX 2 20 1 22 12 26 13 27 33 28 14 30 31 31 32 34 34 36 15 38
REMARK SMILES IDX 16 39 30 40 17 41 24 43 29 44 25 45 28 46 27 47 18 49 19 50
REMARK SMILES IDX 22 51 20 52 21 54 23 56 26 60
REMARK H PARENT 11 2 11 3 4 10 5 13 35 16 7 18 8 19 2 21 1 23 1 24 1 25 12 29
REMARK H PARENT 33 32 14 33 31 35 34 37 16 42 28 48 19 53 20 55 23 57 23 58
REMARK H PARENT 23 59 26 61 26 62
REMARK Flexibility Score: inf
ROOT
ATOM      1  C   UNL     1     -48.210  35.091  26.950  1.00  0.00     0.117 C 
ATOM      2  H   UNL     1     -49.094  35.542  27.410  1.00  0.00     0.073 H 
ATOM      3  H   UNL     1     -48.365  35.269  25.878  1.00  0.00     0.073 H 
ENDROOT
BRANCH   1   4
ATOM      4  O   UNL     1     -48.124  33.679  27.111  1.00  0.00    -0.491 OA
BRANCH   4   5
ATOM      5  C   UNL     1     -48.198  32.865  26.017  1.00  0.00     0.121 A 
ATOM      6  C   UNL     1     -46.439  30.277  22.428  1.00  0.00     0.126 A 
ATOM      7  C   UNL     1     -47.713  29.950  21.975  1.00  0.00    -0.019 A 
ATOM      8  N   UNL     1     -46.254  31.042  23.524  1.00  0.00    -0.231 NA
ATOM      9  C   UNL     1     -48.825  30.443  22.649  1.00  0.00    -0.049 A 
ATOM     10  H   UNL     1     -47.841  29.308  21.110  1.00  0.00     0.066 H 
ATOM     11  C   UNL     1     -47.326  31.522  24.181  1.00  0.00     0.076 A 
ATOM     12  C   UNL     1     -48.646  31.249  23.773  1.00  0.00     0.001 A 
ATOM     13  H   UNL     1     -49.821  30.189  22.294  1.00  0.00     0.063 H 
ATOM     14  C   UNL     1     -47.129  32.322  25.301  1.00  0.00     0.007 A 
ATOM     15  C   UNL     1     -49.729  31.781  24.488  1.00  0.00    -0.049 A 
ATOM     16  H   UNL     1     -46.098  32.506  25.577  1.00  0.00     0.069 H 
ATOM     17  C   UNL     1     -49.499  32.587  25.601  1.00  0.00    -0.019 A 
ATOM     18  H   UNL     1     -50.752  31.577  24.181  1.00  0.00     0.063 H 
ATOM     19  H   UNL     1     -50.342  33.005  26.148  1.00  0.00     0.066 H 
BRANCH   6  20
ATOM     20  N   UNL     1     -45.340  29.744  21.732  1.00  0.00    -0.373 N 
ATOM     21  H   UNL     1     -44.729  30.503  21.445  1.00  0.00     0.161 HD
BRANCH  20  22
ATOM     22  C   UNL     1     -44.615  28.710  22.452  1.00  0.00     0.005 C 
ATOM     23  H   UNL     1     -44.327  27.883  21.794  1.00  0.00     0.045 H 
ATOM     24  H   UNL     1     -43.728  29.120  22.945  1.00  0.00     0.045 H 
ATOM     25  H   UNL     1     -45.263  28.301  23.235  1.00  0.00     0.045 H 
ENDBRANCH  20  22
ENDBRANCH   6  20
ENDBRANCH   4   5
ENDBRANCH   1   4
BRANCH   1  26
ATOM     26  C   UNL     1     -46.918  35.812  27.351  1.00  0.00     0.123 C 
ATOM     27  O   UNL     1     -46.737  36.965  26.498  1.00  0.00    -0.345 OA
ATOM     28  C   UNL     1     -46.861  36.326  28.785  1.00  0.00     0.119 C 
ATOM     29  H   UNL     1     -46.076  35.129  27.178  1.00  0.00     0.067 H 
ATOM     30  C   UNL     1     -46.157  38.029  27.294  1.00  0.00     0.169 C 
ATOM     31  C   UNL     1     -45.847  37.443  28.664  1.00  0.00     0.173 C 
ATOM     32  H   UNL     1     -47.823  36.723  29.124  1.00  0.00     0.066 H 
ATOM     33  H   UNL     1     -45.251  38.368  26.782  1.00  0.00     0.088 H 
ATOM     34  F   UNL     1     -46.003  38.317  29.685  1.00  0.00    -0.239 F 
ATOM     35  H   UNL     1     -44.825  37.050  28.706  1.00  0.00     0.074 H 
BRANCH  28  36
ATOM     36  O   UNL     1     -46.426  35.333  29.705  1.00  0.00    -0.387 OA
ATOM     37  H   UNL     1     -46.123  34.569  29.181  1.00  0.00     0.211 HD
ENDBRANCH  28  36
BRANCH  30  38
ATOM     38  N   UNL     1     -47.086  39.154  27.333  1.00  0.00    -0.302 N 
ATOM     39  C   UNL     1     -48.337  39.178  27.894  1.00  0.00     0.019 A 
ATOM     40  C   UNL     1     -46.792  40.397  26.831  1.00  0.00     0.148 A 
ATOM     41  C   UNL     1     -48.875  40.436  27.698  1.00  0.00     0.031 A 
ATOM     42  H   UNL     1     -48.773  38.288  28.322  1.00  0.00     0.083 H 
ATOM     43  C   UNL     1     -47.860  41.246  27.105  1.00  0.00     0.071 A 
ATOM     44  N   UNL     1     -45.639  40.722  26.221  1.00  0.00    -0.218 NA
ATOM     45  C   UNL     1     -47.644  42.602  26.807  1.00  0.00     0.137 A 
ATOM     46  C   UNL     1     -45.593  42.024  25.911  1.00  0.00     0.120 A 
ATOM     47  N   UNL     1     -46.510  42.969  26.180  1.00  0.00    -0.219 NA
ATOM     48  H   UNL     1     -44.699  42.362  25.395  1.00  0.00     0.106 H 
BRANCH  41  49
ATOM     49  C   UNL     1     -50.346  40.760  28.116  1.00  0.00     0.070 A 
ATOM     50  C   UNL     1     -50.986  40.233  29.222  1.00  0.00    -0.016 A 
ATOM     51  N   UNL     1     -51.291  41.536  27.488  1.00  0.00    -0.268 N 
ATOM     52  C   UNL     1     -52.245  40.853  29.248  1.00  0.00     0.050 A 
ATOM     53  H   UNL     1     -50.583  39.544  29.951  1.00  0.00     0.066 H 
ATOM     54  N   UNL     1     -52.423  41.678  28.217  1.00  0.00    -0.181 NA
ATOM     55  H   UNL     1     -53.036  40.744  29.978  1.00  0.00     0.086 H 
BRANCH  51  56
ATOM     56  C   UNL     1     -51.336  41.965  26.109  1.00  0.00     0.030 C 
ATOM     57  H   UNL     1     -51.040  41.122  25.479  1.00  0.00     0.048 H 
ATOM     58  H   UNL     1     -50.635  42.782  25.942  1.00  0.00     0.048 H 
ATOM     59  H   UNL     1     -52.362  42.254  25.870  1.00  0.00     0.048 H 
ENDBRANCH  51  56
ENDBRANCH  41  49
BRANCH  45  60
ATOM     60  N   UNL     1     -48.485  43.638  27.199  1.00  0.00    -0.383 N 
ATOM     61  H   UNL     1     -49.442  43.501  26.891  1.00  0.00     0.158 HD
ATOM     62  H   UNL     1     -48.384  43.781  28.199  1.00  0.00     0.158 HD
ENDBRANCH  45  60
ENDBRANCH  30  38
ENDBRANCH   1  26
TORSDOF 10
ENDMDL
MODEL 5
REMARK VINA RESULT:      -9.1      3.941     11.977
REMARK SMILES CNc1ccc2ccc(OC[C@H]3O[C@@H](n4cc(-c5ccnn5C)c5c(N)ncnc54)[C@@H](F)[C@@H]3O)cc2n1
REMARK SMILES IDX 11 1 10 4 9 5 3 6 4 7 37 8 5 9 36 11 6 12 35 14 7 15 8 17
REMARK SMILES IDX 2 20 1 22 12 26 13 27 33 28 14 30 31 31 32 34 34 36 15 38
REMARK SMILES IDX 16 39 30 40 17 41 24 43 29 44 25 45 28 46 27 47 18 49 19 50
REMARK SMILES IDX 22 51 20 52 21 54 23 56 26 60
REMARK H PARENT 11 2 11 3 4 10 5 13 35 16 7 18 8 19 2 21 1 23 1 24 1 25 12 29
REMARK H PARENT 33 32 14 33 31 35 34 37 16 42 28 48 19 53 20 55 23 57 23 58
REMARK H PARENT 23 59 26 61 26 62
REMARK Flexibility Score: inf
ROOT
ATOM      1  C   UNL     1     -46.618  37.341  28.383  1.00  0.00     0.117 C 
ATOM      2  H   UNL     1     -46.367  36.444  28.955  1.00  0.00     0.073 H 
ATOM      3  H   UNL     1     -47.114  37.981  29.125  1.00  0.00     0.073 H 
ENDROOT
BRANCH   1   4
ATOM      4  O   UNL     1     -47.568  37.125  27.345  1.00  0.00    -0.491 OA
BRANCH   4   5
ATOM      5  C   UNL     1     -47.743  35.871  26.835  1.00  0.00     0.121 A 
ATOM      6  C   UNL     1     -46.490  31.994  24.372  1.00  0.00     0.126 A 
ATOM      7  C   UNL     1     -47.713  31.379  24.624  1.00  0.00    -0.019 A 
ATOM      8  N   UNL     1     -46.200  33.215  24.863  1.00  0.00    -0.231 NA
ATOM      9  C   UNL     1     -48.672  32.048  25.377  1.00  0.00    -0.049 A 
ATOM     10  H   UNL     1     -47.915  30.383  24.245  1.00  0.00     0.066 H 
ATOM     11  C   UNL     1     -47.123  33.868  25.594  1.00  0.00     0.076 A 
ATOM     12  C   UNL     1     -48.388  33.320  25.876  1.00  0.00     0.001 A 
ATOM     13  H   UNL     1     -49.627  31.569  25.572  1.00  0.00     0.063 H 
ATOM     14  C   UNL     1     -46.823  35.134  26.085  1.00  0.00     0.007 A 
ATOM     15  C   UNL     1     -49.318  34.045  26.634  1.00  0.00    -0.049 A 
ATOM     16  H   UNL     1     -45.840  35.516  25.842  1.00  0.00     0.069 H 
ATOM     17  C   UNL     1     -48.992  35.315  27.106  1.00  0.00    -0.019 A 
ATOM     18  H   UNL     1     -50.298  33.631  26.858  1.00  0.00     0.063 H 
ATOM     19  H   UNL     1     -49.719  35.878  27.686  1.00  0.00     0.066 H 
BRANCH   6  20
ATOM     20  N   UNL     1     -45.540  31.277  23.623  1.00  0.00    -0.373 N 
ATOM     21  H   UNL     1     -44.847  30.885  24.255  1.00  0.00     0.161 HD
BRANCH  20  22
ATOM     22  C   UNL     1     -46.103  30.266  22.744  1.00  0.00     0.005 C 
ATOM     23  H   UNL     1     -45.666  30.311  21.741  1.00  0.00     0.045 H 
ATOM     24  H   UNL     1     -45.973  29.262  23.162  1.00  0.00     0.045 H 
ATOM     25  H   UNL     1     -47.180  30.441  22.645  1.00  0.00     0.045 H 
ENDBRANCH  20  22
ENDBRANCH   6  20
ENDBRANCH   4   5
ENDBRANCH   1   4
BRANCH   1  26
ATOM     26  C   UNL     1     -45.370  38.087  27.900  1.00  0.00     0.123 C 
ATOM     27  O   UNL     1     -45.650  38.697  26.620  1.00  0.00    -0.345 OA
ATOM     28  C   UNL     1     -44.870  39.205  28.808  1.00  0.00     0.119 C 
ATOM     29  H   UNL     1     -44.566  37.353  27.755  1.00  0.00     0.067 H 
ATOM     30  C   UNL     1     -44.963  39.972  26.566  1.00  0.00     0.169 C 
ATOM     31  C   UNL     1     -44.114  40.074  27.826  1.00  0.00     0.173 C 
ATOM     32  H   UNL     1     -45.688  39.772  29.261  1.00  0.00     0.066 H 
ATOM     33  H   UNL     1     -44.348  39.978  25.661  1.00  0.00     0.088 H 
ATOM     34  F   UNL     1     -44.003  41.331  28.315  1.00  0.00    -0.239 F 
ATOM     35  H   UNL     1     -43.103  39.685  27.656  1.00  0.00     0.074 H 
BRANCH  28  36
ATOM     36  O   UNL     1     -44.015  38.731  29.841  1.00  0.00    -0.387 OA
ATOM     37  H   UNL     1     -43.607  39.512  30.257  1.00  0.00     0.211 HD
ENDBRANCH  28  36
BRANCH  30  38
ATOM     38  N   UNL     1     -45.949  41.040  26.435  1.00  0.00    -0.302 N 
ATOM     39  C   UNL     1     -47.197  41.090  27.001  1.00  0.00     0.019 A 
ATOM     40  C   UNL     1     -45.723  42.198  25.735  1.00  0.00     0.148 A 
ATOM     41  C   UNL     1     -47.801  42.271  26.612  1.00  0.00     0.031 A 
ATOM     42  H   UNL     1     -47.584  40.260  27.572  1.00  0.00     0.083 H 
ATOM     43  C   UNL     1     -46.833  43.025  25.883  1.00  0.00     0.071 A 
ATOM     44  N   UNL     1     -44.591  42.478  25.066  1.00  0.00    -0.218 NA
ATOM     45  C   UNL     1     -46.689  44.324  25.367  1.00  0.00     0.137 A 
ATOM     46  C   UNL     1     -44.614  43.714  24.550  1.00  0.00     0.120 A 
ATOM     47  N   UNL     1     -45.578  44.642  24.674  1.00  0.00    -0.219 NA
ATOM     48  H   UNL     1     -43.742  44.009  23.975  1.00  0.00     0.106 H 
BRANCH  41  49
ATOM     49  C   UNL     1     -49.285  42.583  26.990  1.00  0.00     0.070 A 
ATOM     50  C   UNL     1     -50.389  42.121  26.299  1.00  0.00    -0.016 A 
ATOM     51  N   UNL     1     -49.792  43.384  27.986  1.00  0.00    -0.268 N 
ATOM     52  C   UNL     1     -51.497  42.577  27.031  1.00  0.00     0.050 A 
ATOM     53  H   UNL     1     -50.401  41.488  25.424  1.00  0.00     0.066 H 
ATOM     54  N   UNL     1     -51.140  43.314  28.081  1.00  0.00    -0.181 NA
ATOM     55  H   UNL     1     -52.548  42.397  26.845  1.00  0.00     0.086 H 
BRANCH  51  56
ATOM     56  C   UNL     1     -49.133  44.441  28.718  1.00  0.00     0.030 C 
ATOM     57  H   UNL     1     -48.851  44.053  29.701  1.00  0.00     0.048 H 
ATOM     58  H   UNL     1     -49.811  45.283  28.863  1.00  0.00     0.048 H 
ATOM     59  H   UNL     1     -48.234  44.733  28.171  1.00  0.00     0.048 H 
ENDBRANCH  51  56
ENDBRANCH  41  49
BRANCH  45  60
ATOM     60  N   UNL     1     -47.582  45.366  25.597  1.00  0.00    -0.383 N 
ATOM     61  H   UNL     1     -47.143  46.278  25.530  1.00  0.00     0.158 HD
ATOM     62  H   UNL     1     -48.388  45.245  24.990  1.00  0.00     0.158 HD
ENDBRANCH  45  60
ENDBRANCH  30  38
ENDBRANCH   1  26
TORSDOF 10
ENDMDL
MODEL 6
REMARK VINA RESULT:      -8.8      3.659     11.552
REMARK SMILES CNc1ccc2ccc(OC[C@H]3O[C@@H](n4cc(-c5ccnn5C)c5c(N)ncnc54)[C@@H](F)[C@@H]3O)cc2n1
REMARK SMILES IDX 11 1 10 4 9 5 3 6 4 7 37 8 5 9 36 11 6 12 35 14 7 15 8 17
REMARK SMILES IDX 2 20 1 22 12 26 13 27 33 28 14 30 31 31 32 34 34 36 15 38
REMARK SMILES IDX 16 39 30 40 17 41 24 43 29 44 25 45 28 46 27 47 18 49 19 50
REMARK SMILES IDX 22 51 20 52 21 54 23 56 26 60
REMARK H PARENT 11 2 11 3 4 10 5 13 35 16 7 18 8 19 2 21 1 23 1 24 1 25 12 29
REMARK H PARENT 33 32 14 33 31 35 34 37 16 42 28 48 19 53 20 55 23 57 23 58
REMARK H PARENT 23 59 26 61 26 62
REMARK Flexibility Score: inf
ROOT
ATOM      1  C   UNL     1     -47.542  36.013  28.266  1.00  0.00     0.117 C 
ATOM      2  H   UNL     1     -47.259  35.201  28.942  1.00  0.00     0.073 H 
ATOM      3  H   UNL     1     -48.148  36.670  28.902  1.00  0.00     0.073 H 
ENDROOT
BRANCH   1   4
ATOM      4  O   UNL     1     -48.384  35.610  27.191  1.00  0.00    -0.491 OA
BRANCH   4   5
ATOM      5  C   UNL     1     -48.048  34.523  26.436  1.00  0.00     0.121 A 
ATOM      6  C   UNL     1     -48.697  30.191  24.569  1.00  0.00     0.126 A 
ATOM      7  C   UNL     1     -47.459  30.225  23.937  1.00  0.00    -0.019 A 
ATOM      8  N   UNL     1     -49.142  31.230  25.306  1.00  0.00    -0.231 NA
ATOM      9  C   UNL     1     -46.645  31.342  24.087  1.00  0.00    -0.049 A 
ATOM     10  H   UNL     1     -47.132  29.392  23.323  1.00  0.00     0.066 H 
ATOM     11  C   UNL     1     -48.360  32.315  25.455  1.00  0.00     0.076 A 
ATOM     12  C   UNL     1     -47.088  32.415  24.861  1.00  0.00     0.001 A 
ATOM     13  H   UNL     1     -45.676  31.368  23.595  1.00  0.00     0.063 H 
ATOM     14  C   UNL     1     -48.817  33.376  26.228  1.00  0.00     0.007 A 
ATOM     15  C   UNL     1     -46.308  33.564  25.054  1.00  0.00    -0.049 A 
ATOM     16  H   UNL     1     -49.800  33.254  26.666  1.00  0.00     0.069 H 
ATOM     17  C   UNL     1     -46.790  34.608  25.842  1.00  0.00    -0.019 A 
ATOM     18  H   UNL     1     -45.323  33.652  24.600  1.00  0.00     0.063 H 
ATOM     19  H   UNL     1     -46.178  35.494  25.997  1.00  0.00     0.066 H 
BRANCH   6  20
ATOM     20  N   UNL     1     -49.499  29.052  24.377  1.00  0.00    -0.373 N 
ATOM     21  H   UNL     1     -49.518  28.512  25.237  1.00  0.00     0.161 HD
BRANCH  20  22
ATOM     22  C   UNL     1     -50.838  29.334  23.887  1.00  0.00     0.005 C 
ATOM     23  H   UNL     1     -51.279  28.464  23.388  1.00  0.00     0.045 H 
ATOM     24  H   UNL     1     -51.494  29.670  24.697  1.00  0.00     0.045 H 
ATOM     25  H   UNL     1     -50.785  30.145  23.154  1.00  0.00     0.045 H 
ENDBRANCH  20  22
ENDBRANCH   6  20
ENDBRANCH   4   5
ENDBRANCH   1   4
BRANCH   1  26
ATOM     26  C   UNL     1     -46.329  36.824  27.797  1.00  0.00     0.123 C 
ATOM     27  O   UNL     1     -46.711  37.634  26.663  1.00  0.00    -0.345 OA
ATOM     28  C   UNL     1     -45.729  37.777  28.824  1.00  0.00     0.119 C 
ATOM     29  H   UNL     1     -45.555  36.120  27.462  1.00  0.00     0.067 H 
ATOM     30  C   UNL     1     -46.009  38.899  26.754  1.00  0.00     0.169 C 
ATOM     31  C   UNL     1     -45.048  38.792  27.931  1.00  0.00     0.173 C 
ATOM     32  H   UNL     1     -46.493  38.265  29.436  1.00  0.00     0.066 H 
ATOM     33  H   UNL     1     -45.478  39.050  25.809  1.00  0.00     0.088 H 
ATOM     34  F   UNL     1     -44.871  39.952  28.604  1.00  0.00    -0.239 F 
ATOM     35  H   UNL     1     -44.064  38.432  27.609  1.00  0.00     0.074 H 
BRANCH  28  36
ATOM     36  O   UNL     1     -44.793  37.138  29.684  1.00  0.00    -0.387 OA
ATOM     37  H   UNL     1     -43.984  37.681  29.681  1.00  0.00     0.211 HD
ENDBRANCH  28  36
BRANCH  30  38
ATOM     38  N   UNL     1     -46.983  39.977  26.889  1.00  0.00    -0.302 N 
ATOM     39  C   UNL     1     -48.208  39.916  27.503  1.00  0.00     0.019 A 
ATOM     40  C   UNL     1     -46.767  41.254  26.436  1.00  0.00     0.148 A 
ATOM     41  C   UNL     1     -48.809  41.156  27.393  1.00  0.00     0.031 A 
ATOM     42  H   UNL     1     -48.584  38.987  27.905  1.00  0.00     0.083 H 
ATOM     43  C   UNL     1     -47.859  42.039  26.797  1.00  0.00     0.071 A 
ATOM     44  N   UNL     1     -45.659  41.660  25.793  1.00  0.00    -0.218 NA
ATOM     45  C   UNL     1     -47.716  43.416  26.557  1.00  0.00     0.137 A 
ATOM     46  C   UNL     1     -45.684  42.976  25.546  1.00  0.00     0.120 A 
ATOM     47  N   UNL     1     -46.628  43.864  25.900  1.00  0.00    -0.219 NA
ATOM     48  H   UNL     1     -44.830  43.379  25.010  1.00  0.00     0.106 H 
BRANCH  41  49
ATOM     49  C   UNL     1     -50.272  41.392  27.889  1.00  0.00     0.070 A 
ATOM     50  C   UNL     1     -50.793  40.900  29.070  1.00  0.00    -0.016 A 
ATOM     51  N   UNL     1     -51.318  42.040  27.276  1.00  0.00    -0.268 N 
ATOM     52  C   UNL     1     -52.096  41.417  29.140  1.00  0.00     0.050 A 
ATOM     53  H   UNL     1     -50.288  40.302  29.815  1.00  0.00     0.066 H 
ATOM     54  N   UNL     1     -52.409  42.145  28.069  1.00  0.00    -0.181 NA
ATOM     55  H   UNL     1     -52.827  41.300  29.930  1.00  0.00     0.086 H 
BRANCH  51  56
ATOM     56  C   UNL     1     -51.488  42.359  25.877  1.00  0.00     0.030 C 
ATOM     57  H   UNL     1     -50.919  43.268  25.661  1.00  0.00     0.048 H 
ATOM     58  H   UNL     1     -52.537  42.550  25.654  1.00  0.00     0.048 H 
ATOM     59  H   UNL     1     -51.091  41.533  25.283  1.00  0.00     0.048 H 
ENDBRANCH  51  56
ENDBRANCH  41  49
BRANCH  45  60
ATOM     60  N   UNL     1     -48.584  44.393  27.034  1.00  0.00    -0.383 N 
ATOM     61  H   UNL     1     -48.377  45.314  26.663  1.00  0.00     0.158 HD
ATOM     62  H   UNL     1     -49.539  44.084  26.879  1.00  0.00     0.158 HD
ENDBRANCH  45  60
ENDBRANCH  30  38
ENDBRANCH   1  26
TORSDOF 10
ENDMDL
MODEL 7
REMARK VINA RESULT:      -8.7      2.099      2.950
REMARK SMILES CNc1ccc2ccc(OC[C@H]3O[C@@H](n4cc(-c5ccnn5C)c5c(N)ncnc54)[C@@H](F)[C@@H]3O)cc2n1
REMARK SMILES IDX 11 1 10 4 9 5 3 6 4 7 37 8 5 9 36 11 6 12 35 14 7 15 8 17
REMARK SMILES IDX 2 20 1 22 12 26 13 27 33 28 14 30 31 31 32 34 34 36 15 38
REMARK SMILES IDX 16 39 30 40 17 41 24 43 29 44 25 45 28 46 27 47 18 49 19 50
REMARK SMILES IDX 22 51 20 52 21 54 23 56 26 60
REMARK H PARENT 11 2 11 3 4 10 5 13 35 16 7 18 8 19 2 21 1 23 1 24 1 25 12 29
REMARK H PARENT 33 32 14 33 31 35 34 37 16 42 28 48 19 53 20 55 23 57 23 58
REMARK H PARENT 23 59 26 61 26 62
REMARK Flexibility Score: inf
ROOT
ATOM      1  C   UNL     1     -46.659  32.729  26.497  1.00  0.00     0.117 C 
ATOM      2  H   UNL     1     -46.452  31.659  26.597  1.00  0.00     0.073 H 
ATOM      3  H   UNL     1     -45.711  33.134  26.121  1.00  0.00     0.073 H 
ENDROOT
BRANCH   1   4
ATOM      4  O   UNL     1     -46.916  33.392  27.730  1.00  0.00    -0.491 OA
BRANCH   4   5
ATOM      5  C   UNL     1     -46.756  34.746  27.820  1.00  0.00     0.121 A 
ATOM      6  C   UNL     1     -48.230  39.268  28.018  1.00  0.00     0.126 A 
ATOM      7  C   UNL     1     -46.923  39.743  28.063  1.00  0.00    -0.019 A 
ATOM      8  N   UNL     1     -48.500  37.948  27.969  1.00  0.00    -0.231 NA
ATOM      9  C   UNL     1     -45.866  38.840  28.030  1.00  0.00    -0.049 A 
ATOM     10  H   UNL     1     -46.728  40.808  28.133  1.00  0.00     0.066 H 
ATOM     11  C   UNL     1     -47.481  37.068  27.938  1.00  0.00     0.076 A 
ATOM     12  C   UNL     1     -46.134  37.472  27.962  1.00  0.00     0.001 A 
ATOM     13  H   UNL     1     -44.845  39.210  28.063  1.00  0.00     0.063 H 
ATOM     14  C   UNL     1     -47.766  35.709  27.872  1.00  0.00     0.007 A 
ATOM     15  C   UNL     1     -45.109  36.516  27.918  1.00  0.00    -0.049 A 
ATOM     16  H   UNL     1     -48.816  35.444  27.854  1.00  0.00     0.069 H 
ATOM     17  C   UNL     1     -45.426  35.160  27.844  1.00  0.00    -0.019 A 
ATOM     18  H   UNL     1     -44.065  36.817  27.937  1.00  0.00     0.063 H 
ATOM     19  H   UNL     1     -44.628  34.422  27.801  1.00  0.00     0.066 H 
BRANCH   6  20
ATOM     20  N   UNL     1     -49.271  40.211  28.073  1.00  0.00    -0.373 N 
ATOM     21  H   UNL     1     -49.211  40.819  27.262  1.00  0.00     0.161 HD
BRANCH  20  22
ATOM     22  C   UNL     1     -50.598  39.636  28.220  1.00  0.00     0.005 C 
ATOM     23  H   UNL     1     -51.139  39.618  27.267  1.00  0.00     0.045 H 
ATOM     24  H   UNL     1     -50.546  38.625  28.638  1.00  0.00     0.045 H 
ATOM     25  H   UNL     1     -51.176  40.249  28.919  1.00  0.00     0.045 H 
ENDBRANCH  20  22
ENDBRANCH   6  20
ENDBRANCH   4   5
ENDBRANCH   1   4
BRANCH   1  26
ATOM     26  C   UNL     1     -47.729  33.013  25.437  1.00  0.00     0.123 C 
ATOM     27  O   UNL     1     -47.495  32.165  24.290  1.00  0.00    -0.345 OA
ATOM     28  C   UNL     1     -49.171  32.768  25.866  1.00  0.00     0.119 C 
ATOM     29  H   UNL     1     -47.621  34.056  25.112  1.00  0.00     0.067 H 
ATOM     30  C   UNL     1     -48.781  31.768  23.751  1.00  0.00     0.169 C 
ATOM     31  C   UNL     1     -49.844  32.529  24.531  1.00  0.00     0.173 C 
ATOM     32  H   UNL     1     -49.272  31.884  26.503  1.00  0.00     0.066 H 
ATOM     33  H   UNL     1     -48.789  32.034  22.689  1.00  0.00     0.088 H 
ATOM     34  F   UNL     1     -50.993  31.837  24.713  1.00  0.00    -0.239 F 
ATOM     35  H   UNL     1     -50.093  33.478  24.042  1.00  0.00     0.074 H 
BRANCH  28  36
ATOM     36  O   UNL     1     -49.740  33.885  26.537  1.00  0.00    -0.387 OA
ATOM     37  H   UNL     1     -49.128  34.131  27.254  1.00  0.00     0.211 HD
ENDBRANCH  28  36
BRANCH  30  38
ATOM     38  N   UNL     1     -48.910  30.318  23.843  1.00  0.00    -0.302 N 
ATOM     39  C   UNL     1     -48.387  29.499  24.810  1.00  0.00     0.019 A 
ATOM     40  C   UNL     1     -49.640  29.565  22.958  1.00  0.00     0.148 A 
ATOM     41  C   UNL     1     -48.740  28.196  24.510  1.00  0.00     0.031 A 
ATOM     42  H   UNL     1     -47.753  29.891  25.590  1.00  0.00     0.083 H 
ATOM     43  C   UNL     1     -49.616  28.240  23.384  1.00  0.00     0.071 A 
ATOM     44  N   UNL     1     -50.294  30.058  21.893  1.00  0.00    -0.218 NA
ATOM     45  C   UNL     1     -50.462  27.365  22.680  1.00  0.00     0.137 A 
ATOM     46  C   UNL     1     -50.993  29.108  21.257  1.00  0.00     0.120 A 
ATOM     47  N   UNL     1     -51.122  27.814  21.596  1.00  0.00    -0.219 NA
ATOM     48  H   UNL     1     -51.534  29.424  20.370  1.00  0.00     0.106 H 
BRANCH  41  49
ATOM     49  C   UNL     1     -48.200  26.997  25.355  1.00  0.00     0.070 A 
ATOM     50  C   UNL     1     -48.807  26.497  26.492  1.00  0.00    -0.016 A 
ATOM     51  N   UNL     1     -47.047  26.263  25.209  1.00  0.00    -0.268 N 
ATOM     52  C   UNL     1     -48.028  25.391  26.867  1.00  0.00     0.050 A 
ATOM     53  H   UNL     1     -49.722  26.837  26.955  1.00  0.00     0.066 H 
ATOM     54  N   UNL     1     -46.976  25.219  26.068  1.00  0.00    -0.181 NA
ATOM     55  H   UNL     1     -48.186  24.701  27.685  1.00  0.00     0.086 H 
BRANCH  51  56
ATOM     56  C   UNL     1     -45.843  26.607  24.489  1.00  0.00     0.030 C 
ATOM     57  H   UNL     1     -46.069  26.594  23.419  1.00  0.00     0.048 H 
ATOM     58  H   UNL     1     -45.060  25.873  24.683  1.00  0.00     0.048 H 
ATOM     59  H   UNL     1     -45.538  27.613  24.784  1.00  0.00     0.048 H 
ENDBRANCH  51  56
ENDBRANCH  41  49
BRANCH  45  60
ATOM     60  N   UNL     1     -50.752  26.063  23.075  1.00  0.00    -0.383 N 
ATOM     61  H   UNL     1     -51.656  25.985  23.527  1.00  0.00     0.158 HD
ATOM     62  H   UNL     1     -50.628  25.445  22.278  1.00  0.00     0.158 HD
ENDBRANCH  45  60
ENDBRANCH  30  38
ENDBRANCH   1  26
TORSDOF 10
ENDMDL
