MODEL 1
REMARK VINA RESULT:     -10.9      0.000      0.000
REMARK SMILES Nc1ncnc2c(-c3cncc(COc4ccc5ccc(N6CCC6)nc5c4)c3)c[nH]c12
REMARK SMILES IDX 13 1 12 4 8 5 9 6 29 7 10 8 11 11 7 13 2 14 3 15 32 16 4 17
REMARK SMILES IDX 6 18 31 19 5 20 30 22 1 25 14 28 15 29 16 30 28 31 17 32
REMARK SMILES IDX 27 34 18 36 26 38 19 39 21 40 20 41 22 44 23 45 25 46 24 47
REMARK H PARENT 13 2 13 3 9 9 29 10 11 12 4 21 31 23 30 24 1 26 1 27 16 33
REMARK H PARENT 28 35 17 37 19 42 20 43 23 48 23 49 25 50 25 51 24 52 24 53
REMARK Flexibility Score: inf
ROOT
ATOM      1  C   UNL     1     -48.617  36.168  27.313  1.00  0.00     0.115 C 
ATOM      2  H   UNL     1     -49.572  36.638  27.578  1.00  0.00     0.076 H 
ATOM      3  H   UNL     1     -48.459  36.384  26.250  1.00  0.00     0.076 H 
ENDROOT
BRANCH   1   4
ATOM      4  C   UNL     1     -47.459  36.760  28.071  1.00  0.00     0.008 A 
ATOM      5  C   UNL     1     -45.647  38.374  28.241  1.00  0.00     0.004 A 
ATOM      6  C   UNL     1     -45.303  37.750  29.437  1.00  0.00     0.035 A 
ATOM      7  C   UNL     1     -46.745  37.850  27.553  1.00  0.00    -0.045 A 
ATOM      8  N   UNL     1     -45.960  36.689  29.970  1.00  0.00    -0.264 NA
ATOM      9  H   UNL     1     -44.453  38.078  30.026  1.00  0.00     0.085 H 
ATOM     10  H   UNL     1     -47.055  38.289  26.606  1.00  0.00     0.063 H 
ATOM     11  C   UNL     1     -47.019  36.219  29.273  1.00  0.00     0.033 A 
ATOM     12  H   UNL     1     -47.517  35.365  29.725  1.00  0.00     0.084 H 
BRANCH   5  13
ATOM     13  C   UNL     1     -44.902  39.513  27.720  1.00  0.00     0.027 A 
ATOM     14  C   UNL     1     -42.390  42.085  27.691  1.00  0.00     0.151 A 
ATOM     15  N   UNL     1     -41.769  41.931  28.869  1.00  0.00    -0.218 NA
ATOM     16  C   UNL     1     -43.434  41.227  27.393  1.00  0.00     0.108 A 
ATOM     17  C   UNL     1     -42.193  40.949  29.687  1.00  0.00     0.118 A 
ATOM     18  C   UNL     1     -43.805  40.233  28.289  1.00  0.00     0.101 A 
ATOM     19  N   UNL     1     -44.281  41.143  26.319  1.00  0.00    -0.356 N 
ATOM     20  N   UNL     1     -43.177  40.063  29.476  1.00  0.00    -0.234 NA
ATOM     21  H   UNL     1     -41.670  40.864  30.634  1.00  0.00     0.106 H 
ATOM     22  C   UNL     1     -45.160  40.104  26.493  1.00  0.00     0.011 A 
ATOM     23  H   UNL     1     -44.263  41.771  25.527  1.00  0.00     0.166 HD
ATOM     24  H   UNL     1     -45.891  39.882  25.726  1.00  0.00     0.082 H 
BRANCH  14  25
ATOM     25  N   UNL     1     -41.941  43.081  26.838  1.00  0.00    -0.382 N 
ATOM     26  H   UNL     1     -41.345  43.718  27.358  1.00  0.00     0.158 HD
ATOM     27  H   UNL     1     -41.535  42.742  25.978  1.00  0.00     0.158 HD
ENDBRANCH  14  25
ENDBRANCH   5  13
ENDBRANCH   1   4
BRANCH   1  28
ATOM     28  O   UNL     1     -48.694  34.745  27.432  1.00  0.00    -0.489 OA
BRANCH  28  29
ATOM     29  C   UNL     1     -48.034  33.977  26.514  1.00  0.00     0.122 A 
ATOM     30  C   UNL     1     -46.887  34.337  25.814  1.00  0.00    -0.019 A 
ATOM     31  C   UNL     1     -48.621  32.730  26.267  1.00  0.00     0.007 A 
ATOM     32  C   UNL     1     -46.330  33.449  24.892  1.00  0.00    -0.049 A 
ATOM     33  H   UNL     1     -46.407  35.301  25.947  1.00  0.00     0.066 H 
ATOM     34  C   UNL     1     -48.088  31.826  25.358  1.00  0.00     0.076 A 
ATOM     35  H   UNL     1     -49.525  32.451  26.805  1.00  0.00     0.069 H 
ATOM     36  C   UNL     1     -46.923  32.196  24.663  1.00  0.00     0.001 A 
ATOM     37  H   UNL     1     -45.435  33.742  24.349  1.00  0.00     0.063 H 
ATOM     38  N   UNL     1     -48.692  30.639  25.172  1.00  0.00    -0.231 NA
ATOM     39  C   UNL     1     -46.394  31.285  23.747  1.00  0.00    -0.049 A 
ATOM     40  C   UNL     1     -48.169  29.759  24.288  1.00  0.00     0.129 A 
ATOM     41  C   UNL     1     -47.024  30.059  23.558  1.00  0.00    -0.019 A 
ATOM     42  H   UNL     1     -45.501  31.520  23.176  1.00  0.00     0.063 H 
ATOM     43  H   UNL     1     -46.627  29.353  22.837  1.00  0.00     0.066 H 
BRANCH  40  44
ATOM     44  N   UNL     1     -48.822  28.527  24.096  1.00  0.00    -0.356 N 
ATOM     45  C   UNL     1     -50.044  28.368  23.360  1.00  0.00     0.021 C 
ATOM     46  C   UNL     1     -49.244  27.617  25.122  1.00  0.00     0.021 C 
ATOM     47  C   UNL     1     -50.199  27.023  24.079  1.00  0.00    -0.018 C 
ATOM     48  H   UNL     1     -49.899  28.317  22.279  1.00  0.00     0.049 H 
ATOM     49  H   UNL     1     -50.801  29.117  23.617  1.00  0.00     0.049 H 
ATOM     50  H   UNL     1     -48.451  26.952  25.472  1.00  0.00     0.049 H 
ATOM     51  H   UNL     1     -49.732  28.119  25.965  1.00  0.00     0.049 H 
ATOM     52  H   UNL     1     -49.792  26.168  23.530  1.00  0.00     0.030 H 
ATOM     53  H   UNL     1     -51.204  26.785  24.435  1.00  0.00     0.030 H 
ENDBRANCH  40  44
ENDBRANCH  28  29
ENDBRANCH   1  28
TORSDOF 6
ENDMDL
MODEL 2
REMARK VINA RESULT:     -10.8      1.986     10.901
REMARK SMILES Nc1ncnc2c(-c3cncc(COc4ccc5ccc(N6CCC6)nc5c4)c3)c[nH]c12
REMARK SMILES IDX 13 1 12 4 8 5 9 6 29 7 10 8 11 11 7 13 2 14 3 15 32 16 4 17
REMARK SMILES IDX 6 18 31 19 5 20 30 22 1 25 14 28 15 29 16 30 28 31 17 32
REMARK SMILES IDX 27 34 18 36 26 38 19 39 21 40 20 41 22 44 23 45 25 46 24 47
REMARK H PARENT 13 2 13 3 9 9 29 10 11 12 4 21 31 23 30 24 1 26 1 27 16 33
REMARK H PARENT 28 35 17 37 19 42 20 43 23 48 23 49 25 50 25 51 24 52 24 53
REMARK Flexibility Score: inf
ROOT
ATOM      1  C   UNL     1     -46.766  36.575  26.718  1.00  0.00     0.115 C 
ATOM      2  H   UNL     1     -45.914  36.985  26.161  1.00  0.00     0.076 H 
ATOM      3  H   UNL     1     -47.661  36.850  26.146  1.00  0.00     0.076 H 
ENDROOT
BRANCH   1   4
ATOM      4  C   UNL     1     -46.728  35.073  26.798  1.00  0.00     0.008 A 
ATOM      5  C   UNL     1     -47.281  32.891  25.877  1.00  0.00     0.004 A 
ATOM      6  C   UNL     1     -46.717  32.345  27.028  1.00  0.00     0.035 A 
ATOM      7  C   UNL     1     -47.285  34.285  25.782  1.00  0.00    -0.045 A 
ATOM      8  N   UNL     1     -46.175  33.069  28.038  1.00  0.00    -0.264 NA
ATOM      9  H   UNL     1     -46.689  31.273  27.194  1.00  0.00     0.085 H 
ATOM     10  H   UNL     1     -47.723  34.770  24.911  1.00  0.00     0.063 H 
ATOM     11  C   UNL     1     -46.196  34.414  27.901  1.00  0.00     0.033 A 
ATOM     12  H   UNL     1     -45.760  34.963  28.732  1.00  0.00     0.084 H 
BRANCH   5  13
ATOM     13  C   UNL     1     -47.848  32.059  24.824  1.00  0.00     0.027 A 
ATOM     14  C   UNL     1     -47.887  30.169  21.765  1.00  0.00     0.151 A 
ATOM     15  N   UNL     1     -46.649  30.334  21.278  1.00  0.00    -0.218 NA
ATOM     16  C   UNL     1     -48.199  30.790  22.962  1.00  0.00     0.108 A 
ATOM     17  C   UNL     1     -45.784  31.086  21.985  1.00  0.00     0.118 A 
ATOM     18  C   UNL     1     -47.245  31.543  23.633  1.00  0.00     0.101 A 
ATOM     19  N   UNL     1     -49.357  30.854  23.694  1.00  0.00    -0.356 N 
ATOM     20  N   UNL     1     -45.989  31.705  23.156  1.00  0.00    -0.234 NA
ATOM     21  H   UNL     1     -44.795  31.200  21.552  1.00  0.00     0.106 H 
ATOM     22  C   UNL     1     -49.156  31.601  24.827  1.00  0.00     0.011 A 
ATOM     23  H   UNL     1     -50.230  30.424  23.420  1.00  0.00     0.166 HD
ATOM     24  H   UNL     1     -49.966  31.738  25.532  1.00  0.00     0.082 H 
BRANCH  14  25
ATOM     25  N   UNL     1     -48.773  29.378  21.051  1.00  0.00    -0.382 N 
ATOM     26  H   UNL     1     -48.247  28.746  20.455  1.00  0.00     0.158 HD
ATOM     27  H   UNL     1     -49.477  28.925  21.617  1.00  0.00     0.158 HD
ENDBRANCH  14  25
ENDBRANCH   5  13
ENDBRANCH   1   4
BRANCH   1  28
ATOM     28  O   UNL     1     -46.893  37.201  27.998  1.00  0.00    -0.489 OA
BRANCH  28  29
ATOM     29  C   UNL     1     -45.831  37.910  28.486  1.00  0.00     0.122 A 
ATOM     30  C   UNL     1     -45.101  37.611  29.632  1.00  0.00    -0.019 A 
ATOM     31  C   UNL     1     -45.502  39.050  27.744  1.00  0.00     0.007 A 
ATOM     32  C   UNL     1     -44.045  38.439  30.017  1.00  0.00    -0.049 A 
ATOM     33  H   UNL     1     -45.331  36.755  30.258  1.00  0.00     0.066 H 
ATOM     34  C   UNL     1     -44.455  39.891  28.101  1.00  0.00     0.076 A 
ATOM     35  H   UNL     1     -46.079  39.292  26.854  1.00  0.00     0.069 H 
ATOM     36  C   UNL     1     -43.718  39.574  29.256  1.00  0.00     0.001 A 
ATOM     37  H   UNL     1     -43.484  38.197  30.915  1.00  0.00     0.063 H 
ATOM     38  N   UNL     1     -44.180  40.967  27.343  1.00  0.00    -0.231 NA
ATOM     39  C   UNL     1     -42.670  40.424  29.613  1.00  0.00    -0.049 A 
ATOM     40  C   UNL     1     -43.158  41.781  27.691  1.00  0.00     0.129 A 
ATOM     41  C   UNL     1     -42.390  41.537  28.825  1.00  0.00    -0.019 A 
ATOM     42  H   UNL     1     -42.072  40.235  30.500  1.00  0.00     0.063 H 
ATOM     43  H   UNL     1     -41.588  42.209  29.105  1.00  0.00     0.066 H 
BRANCH  40  44
ATOM     44  N   UNL     1     -42.893  42.910  26.894  1.00  0.00    -0.356 N 
ATOM     45  C   UNL     1     -43.883  43.595  26.111  1.00  0.00     0.021 C 
ATOM     46  C   UNL     1     -41.909  43.006  25.854  1.00  0.00     0.021 C 
ATOM     47  C   UNL     1     -42.715  44.199  25.324  1.00  0.00    -0.018 C 
ATOM     48  H   UNL     1     -44.484  44.301  26.689  1.00  0.00     0.049 H 
ATOM     49  H   UNL     1     -44.523  42.917  25.537  1.00  0.00     0.049 H 
ATOM     50  H   UNL     1     -40.906  43.237  26.219  1.00  0.00     0.049 H 
ATOM     51  H   UNL     1     -41.893  42.130  25.197  1.00  0.00     0.049 H 
ATOM     52  H   UNL     1     -42.376  45.172  25.694  1.00  0.00     0.030 H 
ATOM     53  H   UNL     1     -42.842  44.244  24.240  1.00  0.00     0.030 H 
ENDBRANCH  40  44
ENDBRANCH  28  29
ENDBRANCH   1  28
TORSDOF 6
ENDMDL
MODEL 3
REMARK VINA RESULT:     -10.5      1.728      2.747
REMARK SMILES Nc1ncnc2c(-c3cncc(COc4ccc5ccc(N6CCC6)nc5c4)c3)c[nH]c12
REMARK SMILES IDX 13 1 12 4 8 5 9 6 29 7 10 8 11 11 7 13 2 14 3 15 32 16 4 17
REMARK SMILES IDX 6 18 31 19 5 20 30 22 1 25 14 28 15 29 16 30 28 31 17 32
REMARK SMILES IDX 27 34 18 36 26 38 19 39 21 40 20 41 22 44 23 45 25 46 24 47
REMARK H PARENT 13 2 13 3 9 9 29 10 11 12 4 21 31 23 30 24 1 26 1 27 16 33
REMARK H PARENT 28 35 17 37 19 42 20 43 23 48 23 49 25 50 25 51 24 52 24 53
REMARK Flexibility Score: inf
ROOT
ATOM      1  C   UNL     1     -47.522  34.230  26.059  1.00  0.00     0.115 C 
ATOM      2  H   UNL     1     -47.623  34.266  24.967  1.00  0.00     0.076 H 
ATOM      3  H   UNL     1     -46.474  33.971  26.256  1.00  0.00     0.076 H 
ENDROOT
BRANCH   1   4
ATOM      4  C   UNL     1     -47.785  35.565  26.702  1.00  0.00     0.008 A 
ATOM      5  C   UNL     1     -47.019  37.770  27.386  1.00  0.00     0.004 A 
ATOM      6  C   UNL     1     -48.276  37.946  27.961  1.00  0.00     0.035 A 
ATOM      7  C   UNL     1     -46.784  36.545  26.756  1.00  0.00    -0.045 A 
ATOM      8  N   UNL     1     -49.268  37.022  27.940  1.00  0.00    -0.264 NA
ATOM      9  H   UNL     1     -48.537  38.858  28.488  1.00  0.00     0.085 H 
ATOM     10  H   UNL     1     -45.817  36.345  26.298  1.00  0.00     0.063 H 
ATOM     11  C   UNL     1     -48.998  35.855  27.315  1.00  0.00     0.033 A 
ATOM     12  H   UNL     1     -49.814  35.136  27.323  1.00  0.00     0.084 H 
BRANCH   5  13
ATOM     13  C   UNL     1     -45.992  38.802  27.441  1.00  0.00     0.027 A 
ATOM     14  C   UNL     1     -43.168  40.587  28.771  1.00  0.00     0.151 A 
ATOM     15  N   UNL     1     -42.896  39.939  29.912  1.00  0.00    -0.218 NA
ATOM     16  C   UNL     1     -44.230  40.135  28.008  1.00  0.00     0.108 A 
ATOM     17  C   UNL     1     -43.666  38.884  30.242  1.00  0.00     0.118 A 
ATOM     18  C   UNL     1     -44.970  39.033  28.416  1.00  0.00     0.101 A 
ATOM     19  N   UNL     1     -44.783  40.586  26.837  1.00  0.00    -0.356 N 
ATOM     20  N   UNL     1     -44.696  38.365  29.560  1.00  0.00    -0.234 NA
ATOM     21  H   UNL     1     -43.417  38.393  31.178  1.00  0.00     0.106 H 
ATOM     22  C   UNL     1     -45.835  39.783  26.474  1.00  0.00     0.011 A 
ATOM     23  H   UNL     1     -44.465  41.402  26.333  1.00  0.00     0.166 HD
ATOM     24  H   UNL     1     -46.377  39.986  25.559  1.00  0.00     0.082 H 
BRANCH  14  25
ATOM     25  N   UNL     1     -42.364  41.659  28.418  1.00  0.00    -0.382 N 
ATOM     26  H   UNL     1     -42.952  42.427  28.108  1.00  0.00     0.158 HD
ATOM     27  H   UNL     1     -41.680  41.916  29.116  1.00  0.00     0.158 HD
ENDBRANCH  14  25
ENDBRANCH   5  13
ENDBRANCH   1   4
BRANCH   1  28
ATOM     28  O   UNL     1     -48.313  33.176  26.615  1.00  0.00    -0.489 OA
BRANCH  28  29
ATOM     29  C   UNL     1     -48.775  32.197  25.779  1.00  0.00     0.122 A 
ATOM     30  C   UNL     1     -49.619  32.379  24.688  1.00  0.00    -0.019 A 
ATOM     31  C   UNL     1     -48.355  30.904  26.110  1.00  0.00     0.007 A 
ATOM     32  C   UNL     1     -50.021  31.277  23.931  1.00  0.00    -0.049 A 
ATOM     33  H   UNL     1     -49.997  33.357  24.405  1.00  0.00     0.066 H 
ATOM     34  C   UNL     1     -48.736  29.790  25.374  1.00  0.00     0.076 A 
ATOM     35  H   UNL     1     -47.704  30.758  26.969  1.00  0.00     0.069 H 
ATOM     36  C   UNL     1     -49.581  29.986  24.267  1.00  0.00     0.001 A 
ATOM     37  H   UNL     1     -50.683  31.431  23.083  1.00  0.00     0.063 H 
ATOM     38  N   UNL     1     -48.291  28.573  25.733  1.00  0.00    -0.231 NA
ATOM     39  C   UNL     1     -49.965  28.862  23.534  1.00  0.00    -0.049 A 
ATOM     40  C   UNL     1     -48.661  27.490  25.013  1.00  0.00     0.129 A 
ATOM     41  C   UNL     1     -49.502  27.605  23.911  1.00  0.00    -0.019 A 
ATOM     42  H   UNL     1     -50.623  28.951  22.674  1.00  0.00     0.063 H 
ATOM     43  H   UNL     1     -49.808  26.726  23.355  1.00  0.00     0.066 H 
BRANCH  40  44
ATOM     44  N   UNL     1     -48.197  26.222  25.413  1.00  0.00    -0.356 N 
ATOM     45  C   UNL     1     -48.690  25.506  26.555  1.00  0.00     0.021 C 
ATOM     46  C   UNL     1     -46.836  25.863  25.692  1.00  0.00     0.021 C 
ATOM     47  C   UNL     1     -47.405  24.675  26.478  1.00  0.00    -0.018 C 
ATOM     48  H   UNL     1     -49.620  24.966  26.363  1.00  0.00     0.049 H 
ATOM     49  H   UNL     1     -48.781  26.132  27.449  1.00  0.00     0.049 H 
ATOM     50  H   UNL     1     -46.258  25.609  24.802  1.00  0.00     0.049 H 
ATOM     51  H   UNL     1     -46.312  26.610  26.297  1.00  0.00     0.049 H 
ATOM     52  H   UNL     1     -47.498  23.752  25.896  1.00  0.00     0.030 H 
ATOM     53  H   UNL     1     -46.918  24.459  27.432  1.00  0.00     0.030 H 
ENDBRANCH  40  44
ENDBRANCH  28  29
ENDBRANCH   1  28
TORSDOF 6
ENDMDL
MODEL 4
REMARK VINA RESULT:     -10.4      1.994      3.567
REMARK SMILES Nc1ncnc2c(-c3cncc(COc4ccc5ccc(N6CCC6)nc5c4)c3)c[nH]c12
REMARK SMILES IDX 13 1 12 4 8 5 9 6 29 7 10 8 11 11 7 13 2 14 3 15 32 16 4 17
REMARK SMILES IDX 6 18 31 19 5 20 30 22 1 25 14 28 15 29 16 30 28 31 17 32
REMARK SMILES IDX 27 34 18 36 26 38 19 39 21 40 20 41 22 44 23 45 25 46 24 47
REMARK H PARENT 13 2 13 3 9 9 29 10 11 12 4 21 31 23 30 24 1 26 1 27 16 33
REMARK H PARENT 28 35 17 37 19 42 20 43 23 48 23 49 25 50 25 51 24 52 24 53
REMARK Flexibility Score: inf
ROOT
ATOM      1  C   UNL     1     -46.175  37.469  28.630  1.00  0.00     0.115 C 
ATOM      2  H   UNL     1     -46.125  36.601  29.299  1.00  0.00     0.076 H 
ATOM      3  H   UNL     1     -47.136  37.955  28.839  1.00  0.00     0.076 H 
ENDROOT
BRANCH   1   4
ATOM      4  C   UNL     1     -45.091  38.474  28.914  1.00  0.00     0.008 A 
ATOM      5  C   UNL     1     -43.778  40.412  28.253  1.00  0.00     0.004 A 
ATOM      6  C   UNL     1     -43.052  40.227  29.428  1.00  0.00     0.035 A 
ATOM      7  C   UNL     1     -44.809  39.502  28.003  1.00  0.00    -0.045 A 
ATOM      8  N   UNL     1     -43.286  39.242  30.331  1.00  0.00    -0.264 NA
ATOM      9  H   UNL     1     -42.221  40.873  29.690  1.00  0.00     0.085 H 
ATOM     10  H   UNL     1     -45.404  39.588  27.096  1.00  0.00     0.063 H 
ATOM     11  C   UNL     1     -44.296  38.389  30.051  1.00  0.00     0.033 A 
ATOM     12  H   UNL     1     -44.451  37.609  30.792  1.00  0.00     0.084 H 
BRANCH   5  13
ATOM     13  C   UNL     1     -43.479  41.491  27.320  1.00  0.00     0.027 A 
ATOM     14  C   UNL     1     -44.187  44.139  24.995  1.00  0.00     0.151 A 
ATOM     15  N   UNL     1     -45.524  44.130  24.905  1.00  0.00    -0.218 NA
ATOM     16  C   UNL     1     -43.588  43.212  25.829  1.00  0.00     0.108 A 
ATOM     17  C   UNL     1     -46.203  43.226  25.637  1.00  0.00     0.118 A 
ATOM     18  C   UNL     1     -44.362  42.318  26.558  1.00  0.00     0.101 A 
ATOM     19  N   UNL     1     -42.275  42.937  26.111  1.00  0.00    -0.356 N 
ATOM     20  N   UNL     1     -45.712  42.309  26.483  1.00  0.00    -0.234 NA
ATOM     21  H   UNL     1     -47.283  43.246  25.529  1.00  0.00     0.106 H 
ATOM     22  C   UNL     1     -42.193  41.913  27.021  1.00  0.00     0.011 A 
ATOM     23  H   UNL     1     -41.489  43.414  25.690  1.00  0.00     0.166 HD
ATOM     24  H   UNL     1     -41.225  41.578  27.370  1.00  0.00     0.082 H 
BRANCH  14  25
ATOM     25  N   UNL     1     -43.487  45.083  24.259  1.00  0.00    -0.382 N 
ATOM     26  H   UNL     1     -43.658  46.003  24.652  1.00  0.00     0.158 HD
ATOM     27  H   UNL     1     -42.510  44.865  24.124  1.00  0.00     0.158 HD
ENDBRANCH  14  25
ENDBRANCH   5  13
ENDBRANCH   1   4
BRANCH   1  28
ATOM     28  O   UNL     1     -46.214  37.061  27.260  1.00  0.00    -0.489 OA
BRANCH  28  29
ATOM     29  C   UNL     1     -47.003  35.998  26.918  1.00  0.00     0.122 A 
ATOM     30  C   UNL     1     -48.320  35.791  27.315  1.00  0.00    -0.019 A 
ATOM     31  C   UNL     1     -46.374  35.041  26.113  1.00  0.00     0.007 A 
ATOM     32  C   UNL     1     -48.999  34.645  26.896  1.00  0.00    -0.049 A 
ATOM     33  H   UNL     1     -48.846  36.487  27.961  1.00  0.00     0.066 H 
ATOM     34  C   UNL     1     -47.025  33.894  25.679  1.00  0.00     0.076 A 
ATOM     35  H   UNL     1     -45.340  35.196  25.810  1.00  0.00     0.069 H 
ATOM     36  C   UNL     1     -48.358  33.699  26.079  1.00  0.00     0.001 A 
ATOM     37  H   UNL     1     -50.026  34.493  27.216  1.00  0.00     0.063 H 
ATOM     38  N   UNL     1     -46.371  33.015  24.898  1.00  0.00    -0.231 NA
ATOM     39  C   UNL     1     -49.006  32.542  25.644  1.00  0.00    -0.049 A 
ATOM     40  C   UNL     1     -47.008  31.900  24.474  1.00  0.00     0.129 A 
ATOM     41  C   UNL     1     -48.324  31.636  24.837  1.00  0.00    -0.019 A 
ATOM     42  H   UNL     1     -50.034  32.334  25.928  1.00  0.00     0.063 H 
ATOM     43  H   UNL     1     -48.817  30.728  24.508  1.00  0.00     0.066 H 
BRANCH  40  44
ATOM     44  N   UNL     1     -46.304  30.985  23.670  1.00  0.00    -0.356 N 
ATOM     45  C   UNL     1     -45.928  31.233  22.306  1.00  0.00     0.021 C 
ATOM     46  C   UNL     1     -46.683  29.630  23.389  1.00  0.00     0.021 C 
ATOM     47  C   UNL     1     -45.753  29.716  22.173  1.00  0.00    -0.018 C 
ATOM     48  H   UNL     1     -45.018  31.829  22.206  1.00  0.00     0.049 H 
ATOM     49  H   UNL     1     -46.740  31.657  21.706  1.00  0.00     0.049 H 
ATOM     50  H   UNL     1     -46.385  28.921  24.164  1.00  0.00     0.049 H 
ATOM     51  H   UNL     1     -47.747  29.524  23.151  1.00  0.00     0.049 H 
ATOM     52  H   UNL     1     -44.734  29.361  22.358  1.00  0.00     0.030 H 
ATOM     53  H   UNL     1     -46.133  29.271  21.250  1.00  0.00     0.030 H 
ENDBRANCH  40  44
ENDBRANCH  28  29
ENDBRANCH   1  28
TORSDOF 6
ENDMDL
MODEL 5
REMARK VINA RESULT:     -10.3      1.366      2.260
REMARK SMILES Nc1ncnc2c(-c3cncc(COc4ccc5ccc(N6CCC6)nc5c4)c3)c[nH]c12
REMARK SMILES IDX 13 1 12 4 8 5 9 6 29 7 10 8 11 11 7 13 2 14 3 15 32 16 4 17
REMARK SMILES IDX 6 18 31 19 5 20 30 22 1 25 14 28 15 29 16 30 28 31 17 32
REMARK SMILES IDX 27 34 18 36 26 38 19 39 21 40 20 41 22 44 23 45 25 46 24 47
REMARK H PARENT 13 2 13 3 9 9 29 10 11 12 4 21 31 23 30 24 1 26 1 27 16 33
REMARK H PARENT 28 35 17 37 19 42 20 43 23 48 23 49 25 50 25 51 24 52 24 53
REMARK Flexibility Score: inf
ROOT
ATOM      1  C   UNL     1     -46.596  34.234  27.279  1.00  0.00     0.115 C 
ATOM      2  H   UNL     1     -45.710  34.085  26.649  1.00  0.00     0.076 H 
ATOM      3  H   UNL     1     -46.365  33.759  28.240  1.00  0.00     0.076 H 
ENDROOT
BRANCH   1   4
ATOM      4  C   UNL     1     -46.868  35.689  27.549  1.00  0.00     0.008 A 
ATOM      5  C   UNL     1     -46.087  37.907  28.170  1.00  0.00     0.004 A 
ATOM      6  C   UNL     1     -47.419  38.309  28.122  1.00  0.00     0.035 A 
ATOM      7  C   UNL     1     -45.826  36.564  27.884  1.00  0.00    -0.045 A 
ATOM      8  N   UNL     1     -48.459  37.494  27.812  1.00  0.00    -0.264 NA
ATOM      9  H   UNL     1     -47.715  39.328  28.351  1.00  0.00     0.085 H 
ATOM     10  H   UNL     1     -44.805  36.189  27.917  1.00  0.00     0.063 H 
ATOM     11  C   UNL     1     -48.159  36.206  27.536  1.00  0.00     0.033 A 
ATOM     12  H   UNL     1     -49.016  35.580  27.299  1.00  0.00     0.084 H 
BRANCH   5  13
ATOM     13  C   UNL     1     -45.012  38.831  28.510  1.00  0.00     0.027 A 
ATOM     14  C   UNL     1     -42.767  41.602  28.052  1.00  0.00     0.151 A 
ATOM     15  N   UNL     1     -43.080  42.062  26.832  1.00  0.00    -0.218 NA
ATOM     16  C   UNL     1     -43.468  40.509  28.531  1.00  0.00     0.108 A 
ATOM     17  C   UNL     1     -44.061  41.438  26.152  1.00  0.00     0.118 A 
ATOM     18  C   UNL     1     -44.473  39.929  27.767  1.00  0.00     0.101 A 
ATOM     19  N   UNL     1     -43.371  39.787  29.692  1.00  0.00    -0.356 N 
ATOM     20  N   UNL     1     -44.804  40.393  26.541  1.00  0.00    -0.234 NA
ATOM     21  H   UNL     1     -44.278  41.837  25.165  1.00  0.00     0.106 H 
ATOM     22  C   UNL     1     -44.306  38.783  29.701  1.00  0.00     0.011 A 
ATOM     23  H   UNL     1     -42.693  39.967  30.421  1.00  0.00     0.166 HD
ATOM     24  H   UNL     1     -44.381  38.125  30.558  1.00  0.00     0.082 H 
BRANCH  14  25
ATOM     25  N   UNL     1     -41.773  42.254  28.763  1.00  0.00    -0.382 N 
ATOM     26  H   UNL     1     -42.170  43.076  29.209  1.00  0.00     0.158 HD
ATOM     27  H   UNL     1     -41.246  41.659  29.386  1.00  0.00     0.158 HD
ENDBRANCH  14  25
ENDBRANCH   5  13
ENDBRANCH   1   4
BRANCH   1  28
ATOM     28  O   UNL     1     -47.728  33.543  26.745  1.00  0.00    -0.489 OA
BRANCH  28  29
ATOM     29  C   UNL     1     -47.517  32.565  25.813  1.00  0.00     0.122 A 
ATOM     30  C   UNL     1     -46.748  32.684  24.659  1.00  0.00    -0.019 A 
ATOM     31  C   UNL     1     -48.178  31.360  26.072  1.00  0.00     0.007 A 
ATOM     32  C   UNL     1     -46.634  31.599  23.788  1.00  0.00    -0.049 A 
ATOM     33  H   UNL     1     -46.237  33.604  24.396  1.00  0.00     0.066 H 
ATOM     34  C   UNL     1     -48.080  30.263  25.226  1.00  0.00     0.076 A 
ATOM     35  H   UNL     1     -48.788  31.269  26.968  1.00  0.00     0.069 H 
ATOM     36  C   UNL     1     -47.293  30.391  24.067  1.00  0.00     0.001 A 
ATOM     37  H   UNL     1     -46.033  31.704  22.888  1.00  0.00     0.063 H 
ATOM     38  N   UNL     1     -48.730  29.127  25.534  1.00  0.00    -0.231 NA
ATOM     39  C   UNL     1     -47.203  29.287  23.217  1.00  0.00    -0.049 A 
ATOM     40  C   UNL     1     -48.631  28.060  24.709  1.00  0.00     0.129 A 
ATOM     41  C   UNL     1     -47.878  28.114  23.541  1.00  0.00    -0.019 A 
ATOM     42  H   UNL     1     -46.616  29.330  22.304  1.00  0.00     0.063 H 
ATOM     43  H   UNL     1     -47.824  27.258  22.877  1.00  0.00     0.066 H 
BRANCH  40  44
ATOM     44  N   UNL     1     -49.330  26.884  25.040  1.00  0.00    -0.356 N 
ATOM     45  C   UNL     1     -50.669  26.860  25.558  1.00  0.00     0.021 C 
ATOM     46  C   UNL     1     -48.891  25.858  25.943  1.00  0.00     0.021 C 
ATOM     47  C   UNL     1     -50.363  25.436  26.037  1.00  0.00    -0.018 C 
ATOM     48  H   UNL     1     -51.436  26.948  24.786  1.00  0.00     0.049 H 
ATOM     49  H   UNL     1     -50.834  27.589  26.358  1.00  0.00     0.049 H 
ATOM     50  H   UNL     1     -48.218  25.130  25.486  1.00  0.00     0.049 H 
ATOM     51  H   UNL     1     -48.464  26.258  26.869  1.00  0.00     0.049 H 
ATOM     52  H   UNL     1     -50.653  24.650  25.333  1.00  0.00     0.030 H 
ATOM     53  H   UNL     1     -50.722  25.182  27.037  1.00  0.00     0.030 H 
ENDBRANCH  40  44
ENDBRANCH  28  29
ENDBRANCH   1  28
TORSDOF 6
ENDMDL
MODEL 6
REMARK VINA RESULT:     -10.3      2.114     10.932
REMARK SMILES Nc1ncnc2c(-c3cncc(COc4ccc5ccc(N6CCC6)nc5c4)c3)c[nH]c12
REMARK SMILES IDX 13 1 12 4 8 5 9 6 29 7 10 8 11 11 7 13 2 14 3 15 32 16 4 17
REMARK SMILES IDX 6 18 31 19 5 20 30 22 1 25 14 28 15 29 16 30 28 31 17 32
REMARK SMILES IDX 27 34 18 36 26 38 19 39 21 40 20 41 22 44 23 45 25 46 24 47
REMARK H PARENT 13 2 13 3 9 9 29 10 11 12 4 21 31 23 30 24 1 26 1 27 16 33
REMARK H PARENT 28 35 17 37 19 42 20 43 23 48 23 49 25 50 25 51 24 52 24 53
REMARK Flexibility Score: inf
ROOT
ATOM      1  C   UNL     1     -45.279  36.266  28.232  1.00  0.00     0.115 C 
ATOM      2  H   UNL     1     -44.685  35.621  28.892  1.00  0.00     0.076 H 
ATOM      3  H   UNL     1     -44.611  36.551  27.409  1.00  0.00     0.076 H 
ENDROOT
BRANCH   1   4
ATOM      4  C   UNL     1     -46.453  35.543  27.630  1.00  0.00     0.008 A 
ATOM      5  C   UNL     1     -47.354  33.862  26.121  1.00  0.00     0.004 A 
ATOM      6  C   UNL     1     -48.618  34.314  26.491  1.00  0.00     0.035 A 
ATOM      7  C   UNL     1     -46.261  34.507  26.706  1.00  0.00    -0.045 A 
ATOM      8  N   UNL     1     -48.849  35.317  27.374  1.00  0.00    -0.264 NA
ATOM      9  H   UNL     1     -49.522  33.885  26.071  1.00  0.00     0.085 H 
ATOM     10  H   UNL     1     -45.248  34.205  26.447  1.00  0.00     0.063 H 
ATOM     11  C   UNL     1     -47.763  35.908  27.919  1.00  0.00     0.033 A 
ATOM     12  H   UNL     1     -47.985  36.712  28.616  1.00  0.00     0.084 H 
BRANCH   5  13
ATOM     13  C   UNL     1     -47.169  32.777  25.166  1.00  0.00     0.027 A 
ATOM     14  C   UNL     1     -48.152  30.120  22.951  1.00  0.00     0.151 A 
ATOM     15  N   UNL     1     -49.484  30.072  23.090  1.00  0.00    -0.218 NA
ATOM     16  C   UNL     1     -47.458  31.060  23.693  1.00  0.00     0.108 A 
ATOM     17  C   UNL     1     -50.066  30.945  23.934  1.00  0.00     0.118 A 
ATOM     18  C   UNL     1     -48.136  31.930  24.536  1.00  0.00     0.101 A 
ATOM     19  N   UNL     1     -46.121  31.339  23.810  1.00  0.00    -0.356 N 
ATOM     20  N   UNL     1     -49.481  31.898  24.673  1.00  0.00    -0.234 NA
ATOM     21  H   UNL     1     -51.145  30.868  24.023  1.00  0.00     0.106 H 
ATOM     22  C   UNL     1     -45.932  32.382  24.681  1.00  0.00     0.011 A 
ATOM     23  H   UNL     1     -45.388  30.832  23.332  1.00  0.00     0.166 HD
ATOM     24  H   UNL     1     -44.932  32.747  24.877  1.00  0.00     0.082 H 
BRANCH  14  25
ATOM     25  N   UNL     1     -47.552  29.238  22.067  1.00  0.00    -0.382 N 
ATOM     26  H   UNL     1     -47.492  28.322  22.502  1.00  0.00     0.158 HD
ATOM     27  H   UNL     1     -47.960  29.232  21.142  1.00  0.00     0.158 HD
ENDBRANCH  14  25
ENDBRANCH   5  13
ENDBRANCH   1   4
BRANCH   1  28
ATOM     28  O   UNL     1     -45.648  37.479  28.894  1.00  0.00    -0.489 OA
BRANCH  28  29
ATOM     29  C   UNL     1     -44.759  38.517  28.899  1.00  0.00     0.122 A 
ATOM     30  C   UNL     1     -43.878  38.840  29.926  1.00  0.00    -0.019 A 
ATOM     31  C   UNL     1     -44.793  39.319  27.752  1.00  0.00     0.007 A 
ATOM     32  C   UNL     1     -43.034  39.943  29.795  1.00  0.00    -0.049 A 
ATOM     33  H   UNL     1     -43.830  38.269  30.848  1.00  0.00     0.066 H 
ATOM     34  C   UNL     1     -43.963  40.421  27.592  1.00  0.00     0.076 A 
ATOM     35  H   UNL     1     -45.489  39.075  26.952  1.00  0.00     0.069 H 
ATOM     36  C   UNL     1     -43.071  40.733  28.633  1.00  0.00     0.001 A 
ATOM     37  H   UNL     1     -42.353  40.188  30.606  1.00  0.00     0.063 H 
ATOM     38  N   UNL     1     -44.035  41.148  26.463  1.00  0.00    -0.231 NA
ATOM     39  C   UNL     1     -42.242  41.844  28.470  1.00  0.00    -0.049 A 
ATOM     40  C   UNL     1     -43.223  42.218  26.309  1.00  0.00     0.129 A 
ATOM     41  C   UNL     1     -42.321  42.592  27.299  1.00  0.00    -0.019 A 
ATOM     42  H   UNL     1     -41.539  42.138  29.244  1.00  0.00     0.063 H 
ATOM     43  H   UNL     1     -41.691  43.466  27.172  1.00  0.00     0.066 H 
BRANCH  40  44
ATOM     44  N   UNL     1     -43.322  42.975  25.126  1.00  0.00    -0.356 N 
ATOM     45  C   UNL     1     -43.019  44.376  25.037  1.00  0.00     0.021 C 
ATOM     46  C   UNL     1     -44.483  43.106  24.293  1.00  0.00     0.021 C 
ATOM     47  C   UNL     1     -43.831  44.378  23.737  1.00  0.00    -0.018 C 
ATOM     48  H   UNL     1     -41.952  44.585  24.933  1.00  0.00     0.049 H 
ATOM     49  H   UNL     1     -43.453  44.963  25.853  1.00  0.00     0.049 H 
ATOM     50  H   UNL     1     -44.607  42.287  23.581  1.00  0.00     0.049 H 
ATOM     51  H   UNL     1     -45.403  43.268  24.864  1.00  0.00     0.049 H 
ATOM     52  H   UNL     1     -43.236  44.222  22.832  1.00  0.00     0.030 H 
ATOM     53  H   UNL     1     -44.499  45.231  23.594  1.00  0.00     0.030 H 
ENDBRANCH  40  44
ENDBRANCH  28  29
ENDBRANCH   1  28
TORSDOF 6
ENDMDL
MODEL 7
REMARK VINA RESULT:     -10.1      1.917      3.529
REMARK SMILES Nc1ncnc2c(-c3cncc(COc4ccc5ccc(N6CCC6)nc5c4)c3)c[nH]c12
REMARK SMILES IDX 13 1 12 4 8 5 9 6 29 7 10 8 11 11 7 13 2 14 3 15 32 16 4 17
REMARK SMILES IDX 6 18 31 19 5 20 30 22 1 25 14 28 15 29 16 30 28 31 17 32
REMARK SMILES IDX 27 34 18 36 26 38 19 39 21 40 20 41 22 44 23 45 25 46 24 47
REMARK H PARENT 13 2 13 3 9 9 29 10 11 12 4 21 31 23 30 24 1 26 1 27 16 33
REMARK H PARENT 28 35 17 37 19 42 20 43 23 48 23 49 25 50 25 51 24 52 24 53
REMARK Flexibility Score: inf
ROOT
ATOM      1  C   UNL     1     -45.242  37.110  29.169  1.00  0.00     0.115 C 
ATOM      2  H   UNL     1     -44.937  36.516  30.040  1.00  0.00     0.076 H 
ATOM      3  H   UNL     1     -46.309  37.325  29.310  1.00  0.00     0.076 H 
ENDROOT
BRANCH   1   4
ATOM      4  C   UNL     1     -44.522  38.430  29.096  1.00  0.00     0.008 A 
ATOM      5  C   UNL     1     -44.022  40.503  27.929  1.00  0.00     0.004 A 
ATOM      6  C   UNL     1     -43.125  40.779  28.957  1.00  0.00     0.035 A 
ATOM      7  C   UNL     1     -44.720  39.295  28.012  1.00  0.00    -0.045 A 
ATOM      8  N   UNL     1     -42.896  39.966  30.019  1.00  0.00    -0.264 NA
ATOM      9  H   UNL     1     -42.525  41.684  28.962  1.00  0.00     0.085 H 
ATOM     10  H   UNL     1     -45.426  39.019  27.231  1.00  0.00     0.063 H 
ATOM     11  C   UNL     1     -43.598  38.812  30.061  1.00  0.00     0.033 A 
ATOM     12  H   UNL     1     -43.385  38.182  30.921  1.00  0.00     0.084 H 
BRANCH   5  13
ATOM     13  C   UNL     1     -44.224  41.418  26.812  1.00  0.00     0.027 A 
ATOM     14  C   UNL     1     -43.294  43.769  24.255  1.00  0.00     0.151 A 
ATOM     15  N   UNL     1     -41.975  43.923  24.435  1.00  0.00    -0.218 NA
ATOM     16  C   UNL     1     -43.967  42.908  25.105  1.00  0.00     0.108 A 
ATOM     17  C   UNL     1     -41.383  43.227  25.425  1.00  0.00     0.118 A 
ATOM     18  C   UNL     1     -43.280  42.221  26.097  1.00  0.00     0.101 A 
ATOM     19  N   UNL     1     -45.289  42.565  25.213  1.00  0.00    -0.356 N 
ATOM     20  N   UNL     1     -41.946  42.360  26.278  1.00  0.00    -0.234 NA
ATOM     21  H   UNL     1     -40.316  43.386  25.541  1.00  0.00     0.106 H 
ATOM     22  C   UNL     1     -45.458  41.654  26.227  1.00  0.00     0.011 A 
ATOM     23  H   UNL     1     -46.027  42.946  24.637  1.00  0.00     0.166 HD
ATOM     24  H   UNL     1     -46.443  41.260  26.438  1.00  0.00     0.082 H 
BRANCH  14  25
ATOM     25  N   UNL     1     -43.902  44.467  23.224  1.00  0.00    -0.382 N 
ATOM     26  H   UNL     1     -43.975  45.446  23.485  1.00  0.00     0.158 HD
ATOM     27  H   UNL     1     -43.491  44.310  22.315  1.00  0.00     0.158 HD
ENDBRANCH  14  25
ENDBRANCH   5  13
ENDBRANCH   1   4
BRANCH   1  28
ATOM     28  O   UNL     1     -45.137  36.347  27.964  1.00  0.00    -0.489 OA
BRANCH  28  29
ATOM     29  C   UNL     1     -46.242  35.678  27.516  1.00  0.00     0.122 A 
ATOM     30  C   UNL     1     -47.559  35.927  27.888  1.00  0.00    -0.019 A 
ATOM     31  C   UNL     1     -45.969  34.636  26.623  1.00  0.00     0.007 A 
ATOM     32  C   UNL     1     -48.588  35.149  27.355  1.00  0.00    -0.049 A 
ATOM     33  H   UNL     1     -47.823  36.704  28.598  1.00  0.00     0.066 H 
ATOM     34  C   UNL     1     -46.972  33.847  26.075  1.00  0.00     0.076 A 
ATOM     35  H   UNL     1     -44.938  34.433  26.340  1.00  0.00     0.069 H 
ATOM     36  C   UNL     1     -48.301  34.114  26.450  1.00  0.00     0.001 A 
ATOM     37  H   UNL     1     -49.613  35.350  27.655  1.00  0.00     0.063 H 
ATOM     38  N   UNL     1     -46.649  32.867  25.213  1.00  0.00    -0.231 NA
ATOM     39  C   UNL     1     -49.305  33.315  25.900  1.00  0.00    -0.049 A 
ATOM     40  C   UNL     1     -47.629  32.103  24.678  1.00  0.00     0.129 A 
ATOM     41  C   UNL     1     -48.965  32.301  25.009  1.00  0.00    -0.019 A 
ATOM     42  H   UNL     1     -50.349  33.468  26.159  1.00  0.00     0.063 H 
ATOM     43  H   UNL     1     -49.738  31.668  24.590  1.00  0.00     0.066 H 
BRANCH  40  44
ATOM     44  N   UNL     1     -47.271  31.072  23.789  1.00  0.00    -0.356 N 
ATOM     45  C   UNL     1     -47.530  29.679  24.022  1.00  0.00     0.021 C 
ATOM     46  C   UNL     1     -45.958  30.810  23.274  1.00  0.00     0.021 C 
ATOM     47  C   UNL     1     -46.459  29.394  22.963  1.00  0.00    -0.018 C 
ATOM     48  H   UNL     1     -48.547  29.376  23.766  1.00  0.00     0.049 H 
ATOM     49  H   UNL     1     -47.271  29.357  25.036  1.00  0.00     0.049 H 
ATOM     50  H   UNL     1     -45.697  31.421  22.407  1.00  0.00     0.049 H 
ATOM     51  H   UNL     1     -45.178  30.867  24.040  1.00  0.00     0.049 H 
ATOM     52  H   UNL     1     -46.851  29.267  21.948  1.00  0.00     0.030 H 
ATOM     53  H   UNL     1     -45.765  28.582  23.192  1.00  0.00     0.030 H 
ENDBRANCH  40  44
ENDBRANCH  28  29
ENDBRANCH   1  28
TORSDOF 6
ENDMDL
