MODEL 1
REMARK VINA RESULT:     -11.3      0.000      0.000
REMARK SMILES c1cc(-c2cn(Cc3ccc4cc(CNCC5CCC5)[nH]c4c3)nn2)c2cn[nH]c2c1
REMARK SMILES IDX 8 1 9 2 10 3 11 4 12 5 13 6 21 7 22 8 23 9 7 15 6 18 4 19
REMARK SMILES IDX 5 20 25 21 24 23 3 24 1 25 2 26 31 27 30 30 26 32 29 33
REMARK SMILES IDX 27 34 28 35 14 38 15 41 16 43 17 46 18 47 20 48 19 50
REMARK H PARENT 9 10 10 11 12 12 21 13 23 14 7 16 7 17 5 22 1 28 2 29 31 31
REMARK H PARENT 29 36 27 37 14 39 14 40 15 42 16 44 16 45 17 49 18 51 18 52
REMARK H PARENT 20 53 20 54 19 55 19 56
REMARK Flexibility Score: inf
ROOT
ATOM      1  C   UNL     1     -47.775  35.948  27.034  1.00  0.00    -0.024 A 
ATOM      2  C   UNL     1     -46.478  35.704  26.560  1.00  0.00    -0.056 A 
ATOM      3  C   UNL     1     -46.139  34.479  25.973  1.00  0.00    -0.052 A 
ATOM      4  C   UNL     1     -47.118  33.478  25.852  1.00  0.00    -0.000 A 
ATOM      5  C   UNL     1     -47.124  32.158  25.321  1.00  0.00    -0.032 A 
ATOM      6  C   UNL     1     -48.394  31.640  25.475  1.00  0.00     0.030 A 
ATOM      7  N   UNL     1     -49.154  32.609  26.087  1.00  0.00    -0.357 N 
ATOM      8  C   UNL     1     -48.404  33.736  26.325  1.00  0.00     0.046 A 
ATOM      9  C   UNL     1     -48.763  34.955  26.916  1.00  0.00    -0.033 A 
ATOM     10  H   UNL     1     -45.707  36.471  26.649  1.00  0.00     0.063 H 
ATOM     11  H   UNL     1     -45.128  34.307  25.613  1.00  0.00     0.063 H 
ATOM     12  H   UNL     1     -46.282  31.644  24.875  1.00  0.00     0.065 H 
ATOM     13  H   UNL     1     -50.138  32.500  26.292  1.00  0.00     0.166 HD
ATOM     14  H   UNL     1     -49.777  35.118  27.269  1.00  0.00     0.065 H 
ENDROOT
BRANCH   1  15
ATOM     15  C   UNL     1     -48.113  37.277  27.667  1.00  0.00     0.068 C 
ATOM     16  H   UNL     1     -48.801  37.835  27.023  1.00  0.00     0.057 H 
ATOM     17  H   UNL     1     -48.598  37.150  28.642  1.00  0.00     0.057 H 
BRANCH  15  18
ATOM     18  N   UNL     1     -46.929  38.086  27.896  1.00  0.00    -0.247 N 
ATOM     19  C   UNL     1     -45.266  39.462  27.763  1.00  0.00     0.113 A 
ATOM     20  C   UNL     1     -46.395  39.050  27.090  1.00  0.00     0.054 A 
ATOM     21  N   UNL     1     -45.148  38.730  28.919  1.00  0.00    -0.130 NA
ATOM     22  H   UNL     1     -46.852  39.343  26.157  1.00  0.00     0.086 H 
ATOM     23  N   UNL     1     -46.168  37.886  28.987  1.00  0.00    -0.066 NA
BRANCH  19  24
ATOM     24  C   UNL     1     -44.334  40.487  27.342  1.00  0.00     0.015 A 
ATOM     25  C   UNL     1     -43.565  42.156  25.728  1.00  0.00    -0.059 A 
ATOM     26  C   UNL     1     -44.474  41.171  26.117  1.00  0.00    -0.052 A 
ATOM     27  C   UNL     1     -42.482  42.500  26.538  1.00  0.00    -0.036 A 
ATOM     28  H   UNL     1     -43.705  42.668  24.777  1.00  0.00     0.062 H 
ATOM     29  H   UNL     1     -45.309  40.949  25.456  1.00  0.00     0.063 H 
ATOM     30  C   UNL     1     -42.354  41.817  27.752  1.00  0.00     0.066 A 
ATOM     31  H   UNL     1     -41.776  43.266  26.236  1.00  0.00     0.065 H 
ATOM     32  C   UNL     1     -43.245  40.830  28.173  1.00  0.00     0.029 A 
ATOM     33  N   UNL     1     -41.421  41.921  28.750  1.00  0.00    -0.278 N 
ATOM     34  C   UNL     1     -42.729  40.424  29.431  1.00  0.00     0.057 A 
ATOM     35  N   UNL     1     -41.619  41.082  29.779  1.00  0.00    -0.183 NA
ATOM     36  H   UNL     1     -40.623  42.543  28.787  1.00  0.00     0.190 HD
ATOM     37  H   UNL     1     -43.121  39.671  30.102  1.00  0.00     0.087 H 
ENDBRANCH  19  24
ENDBRANCH  15  18
ENDBRANCH   1  15
BRANCH   6  38
ATOM     38  C   UNL     1     -48.966  30.313  25.118  1.00  0.00     0.036 C 
ATOM     39  H   UNL     1     -50.060  30.371  25.152  1.00  0.00     0.049 H 
ATOM     40  H   UNL     1     -48.671  30.069  24.091  1.00  0.00     0.049 H 
BRANCH  38  41
ATOM     41  N   UNL     1     -48.465  29.308  26.050  1.00  0.00    -0.311 NA
ATOM     42  H   UNL     1     -48.970  29.400  26.932  1.00  0.00     0.123 HD
BRANCH  41  43
ATOM     43  C   UNL     1     -48.598  27.941  25.543  1.00  0.00    -0.002 C 
ATOM     44  H   UNL     1     -48.122  27.912  24.555  1.00  0.00     0.043 H 
ATOM     45  H   UNL     1     -49.655  27.699  25.376  1.00  0.00     0.043 H 
BRANCH  43  46
ATOM     46  C   UNL     1     -47.956  26.903  26.454  1.00  0.00    -0.029 C 
ATOM     47  C   UNL     1     -48.714  25.552  26.568  1.00  0.00    -0.049 C 
ATOM     48  C   UNL     1     -46.769  26.080  25.881  1.00  0.00    -0.049 C 
ATOM     49  H   UNL     1     -47.736  27.309  27.452  1.00  0.00     0.032 H 
ATOM     50  C   UNL     1     -47.336  24.867  26.647  1.00  0.00    -0.053 C 
ATOM     51  H   UNL     1     -49.351  25.438  27.449  1.00  0.00     0.027 H 
ATOM     52  H   UNL     1     -49.289  25.273  25.677  1.00  0.00     0.027 H 
ATOM     53  H   UNL     1     -45.773  26.408  26.188  1.00  0.00     0.027 H 
ATOM     54  H   UNL     1     -46.784  25.955  24.792  1.00  0.00     0.027 H 
ATOM     55  H   UNL     1     -47.253  23.902  26.141  1.00  0.00     0.027 H 
ATOM     56  H   UNL     1     -46.949  24.770  27.669  1.00  0.00     0.027 H 
ENDBRANCH  43  46
ENDBRANCH  41  43
ENDBRANCH  38  41
ENDBRANCH   6  38
TORSDOF 7
ENDMDL
MODEL 2
REMARK VINA RESULT:     -10.4      1.239      1.991
REMARK SMILES c1cc(-c2cn(Cc3ccc4cc(CNCC5CCC5)[nH]c4c3)nn2)c2cn[nH]c2c1
REMARK SMILES IDX 8 1 9 2 10 3 11 4 12 5 13 6 21 7 22 8 23 9 7 15 6 18 4 19
REMARK SMILES IDX 5 20 25 21 24 23 3 24 1 25 2 26 31 27 30 30 26 32 29 33
REMARK SMILES IDX 27 34 28 35 14 38 15 41 16 43 17 46 18 47 20 48 19 50
REMARK H PARENT 9 10 10 11 12 12 21 13 23 14 7 16 7 17 5 22 1 28 2 29 31 31
REMARK H PARENT 29 36 27 37 14 39 14 40 15 42 16 44 16 45 17 49 18 51 18 52
REMARK H PARENT 20 53 20 54 19 55 19 56
REMARK Flexibility Score: inf
ROOT
ATOM      1  C   UNL     1     -47.875  35.381  27.058  1.00  0.00    -0.024 A 
ATOM      2  C   UNL     1     -46.550  35.384  26.599  1.00  0.00    -0.056 A 
ATOM      3  C   UNL     1     -46.051  34.333  25.820  1.00  0.00    -0.052 A 
ATOM      4  C   UNL     1     -46.895  33.258  25.489  1.00  0.00    -0.000 A 
ATOM      5  C   UNL     1     -46.726  32.062  24.737  1.00  0.00    -0.032 A 
ATOM      6  C   UNL     1     -47.924  31.376  24.750  1.00  0.00     0.030 A 
ATOM      7  N   UNL     1     -48.809  32.122  25.492  1.00  0.00    -0.357 N 
ATOM      8  C   UNL     1     -48.210  33.272  25.952  1.00  0.00     0.046 A 
ATOM      9  C   UNL     1     -48.729  34.314  26.731  1.00  0.00    -0.033 A 
ATOM     10  H   UNL     1     -45.883  36.210  26.849  1.00  0.00     0.063 H 
ATOM     11  H   UNL     1     -45.021  34.350  25.475  1.00  0.00     0.063 H 
ATOM     12  H   UNL     1     -45.820  31.742  24.240  1.00  0.00     0.065 H 
ATOM     13  H   UNL     1     -49.775  31.861  25.638  1.00  0.00     0.166 HD
ATOM     14  H   UNL     1     -49.760  34.288  27.069  1.00  0.00     0.065 H 
ENDROOT
BRANCH   1  15
ATOM     15  C   UNL     1     -48.387  36.527  27.900  1.00  0.00     0.068 C 
ATOM     16  H   UNL     1     -49.361  36.861  27.526  1.00  0.00     0.057 H 
ATOM     17  H   UNL     1     -48.515  36.233  28.948  1.00  0.00     0.057 H 
BRANCH  15  18
ATOM     18  N   UNL     1     -47.473  37.655  27.895  1.00  0.00    -0.247 N 
ATOM     19  C   UNL     1     -45.820  39.022  28.170  1.00  0.00     0.113 A 
ATOM     20  C   UNL     1     -46.213  37.725  28.415  1.00  0.00     0.054 A 
ATOM     21  N   UNL     1     -46.846  39.683  27.542  1.00  0.00    -0.130 NA
ATOM     22  H   UNL     1     -45.733  36.880  28.885  1.00  0.00     0.086 H 
ATOM     23  N   UNL     1     -47.856  38.838  27.384  1.00  0.00    -0.066 NA
BRANCH  19  24
ATOM     24  C   UNL     1     -44.547  39.619  28.514  1.00  0.00     0.015 A 
ATOM     25  C   UNL     1     -42.594  39.819  29.974  1.00  0.00    -0.059 A 
ATOM     26  C   UNL     1     -43.820  39.231  29.658  1.00  0.00    -0.052 A 
ATOM     27  C   UNL     1     -42.044  40.817  29.168  1.00  0.00    -0.036 A 
ATOM     28  H   UNL     1     -42.056  39.493  30.862  1.00  0.00     0.062 H 
ATOM     29  H   UNL     1     -44.200  38.448  30.311  1.00  0.00     0.063 H 
ATOM     30  C   UNL     1     -42.772  41.193  28.035  1.00  0.00     0.066 A 
ATOM     31  H   UNL     1     -41.091  41.274  29.413  1.00  0.00     0.065 H 
ATOM     32  C   UNL     1     -43.997  40.625  27.688  1.00  0.00     0.029 A 
ATOM     33  N   UNL     1     -42.509  42.122  27.062  1.00  0.00    -0.278 N 
ATOM     34  C   UNL     1     -44.359  41.303  26.496  1.00  0.00     0.057 A 
ATOM     35  N   UNL     1     -43.458  42.216  26.118  1.00  0.00    -0.183 NA
ATOM     36  H   UNL     1     -41.699  42.726  26.987  1.00  0.00     0.190 HD
ATOM     37  H   UNL     1     -45.247  41.167  25.892  1.00  0.00     0.087 H 
ENDBRANCH  19  24
ENDBRANCH  15  18
ENDBRANCH   1  15
BRANCH   6  38
ATOM     38  C   UNL     1     -48.320  30.075  24.145  1.00  0.00     0.036 C 
ATOM     39  H   UNL     1     -49.182  29.672  24.688  1.00  0.00     0.049 H 
ATOM     40  H   UNL     1     -48.624  30.250  23.107  1.00  0.00     0.049 H 
BRANCH  38  41
ATOM     41  N   UNL     1     -47.187  29.156  24.202  1.00  0.00    -0.311 NA
ATOM     42  H   UNL     1     -46.695  29.299  25.085  1.00  0.00     0.123 HD
BRANCH  41  43
ATOM     43  C   UNL     1     -47.583  27.751  24.078  1.00  0.00    -0.002 C 
ATOM     44  H   UNL     1     -46.814  27.249  23.479  1.00  0.00     0.043 H 
ATOM     45  H   UNL     1     -48.515  27.669  23.505  1.00  0.00     0.043 H 
BRANCH  43  46
ATOM     46  C   UNL     1     -47.726  27.052  25.424  1.00  0.00    -0.029 C 
ATOM     47  C   UNL     1     -48.938  26.089  25.552  1.00  0.00    -0.049 C 
ATOM     48  C   UNL     1     -46.832  25.809  25.686  1.00  0.00    -0.049 C 
ATOM     49  H   UNL     1     -47.705  27.763  26.262  1.00  0.00     0.032 H 
ATOM     50  C   UNL     1     -48.038  25.187  26.418  1.00  0.00    -0.053 C 
ATOM     51  H   UNL     1     -49.819  26.500  26.052  1.00  0.00     0.027 H 
ATOM     52  H   UNL     1     -49.251  25.620  24.612  1.00  0.00     0.027 H 
ATOM     53  H   UNL     1     -45.945  25.984  26.300  1.00  0.00     0.027 H 
ATOM     54  H   UNL     1     -46.538  25.261  24.783  1.00  0.00     0.027 H 
ATOM     55  H   UNL     1     -48.173  24.111  26.285  1.00  0.00     0.027 H 
ATOM     56  H   UNL     1     -48.075  25.424  27.488  1.00  0.00     0.027 H 
ENDBRANCH  43  46
ENDBRANCH  41  43
ENDBRANCH  38  41
ENDBRANCH   6  38
TORSDOF 7
ENDMDL
MODEL 3
REMARK VINA RESULT:     -10.2      1.606      2.330
REMARK SMILES c1cc(-c2cn(Cc3ccc4cc(CNCC5CCC5)[nH]c4c3)nn2)c2cn[nH]c2c1
REMARK SMILES IDX 8 1 9 2 10 3 11 4 12 5 13 6 21 7 22 8 23 9 7 15 6 18 4 19
REMARK SMILES IDX 5 20 25 21 24 23 3 24 1 25 2 26 31 27 30 30 26 32 29 33
REMARK SMILES IDX 27 34 28 35 14 38 15 41 16 43 17 46 18 47 20 48 19 50
REMARK H PARENT 9 10 10 11 12 12 21 13 23 14 7 16 7 17 5 22 1 28 2 29 31 31
REMARK H PARENT 29 36 27 37 14 39 14 40 15 42 16 44 16 45 17 49 18 51 18 52
REMARK H PARENT 20 53 20 54 19 55 19 56
REMARK Flexibility Score: inf
ROOT
ATOM      1  C   UNL     1     -48.255  33.765  26.115  1.00  0.00    -0.024 A 
ATOM      2  C   UNL     1     -46.966  33.871  25.573  1.00  0.00    -0.056 A 
ATOM      3  C   UNL     1     -46.466  32.900  24.696  1.00  0.00    -0.052 A 
ATOM      4  C   UNL     1     -47.273  31.802  24.350  1.00  0.00    -0.000 A 
ATOM      5  C   UNL     1     -47.093  30.667  23.511  1.00  0.00    -0.032 A 
ATOM      6  C   UNL     1     -48.249  29.915  23.555  1.00  0.00     0.030 A 
ATOM      7  N   UNL     1     -49.121  30.562  24.400  1.00  0.00    -0.357 N 
ATOM      8  C   UNL     1     -48.554  31.713  24.895  1.00  0.00     0.046 A 
ATOM      9  C   UNL     1     -49.072  32.673  25.773  1.00  0.00    -0.033 A 
ATOM     10  H   UNL     1     -46.328  34.716  25.834  1.00  0.00     0.063 H 
ATOM     11  H   UNL     1     -45.464  32.997  24.288  1.00  0.00     0.063 H 
ATOM     12  H   UNL     1     -46.207  30.430  22.938  1.00  0.00     0.065 H 
ATOM     13  H   UNL     1     -50.060  30.238  24.589  1.00  0.00     0.166 HD
ATOM     14  H   UNL     1     -50.076  32.569  26.173  1.00  0.00     0.065 H 
ENDROOT
BRANCH   1  15
ATOM     15  C   UNL     1     -48.769  34.825  27.061  1.00  0.00     0.068 C 
ATOM     16  H   UNL     1     -49.568  35.401  26.581  1.00  0.00     0.057 H 
ATOM     17  H   UNL     1     -49.179  34.385  27.977  1.00  0.00     0.057 H 
BRANCH  15  18
ATOM     18  N   UNL     1     -47.718  35.739  27.473  1.00  0.00    -0.247 N 
ATOM     19  C   UNL     1     -46.319  37.373  27.686  1.00  0.00     0.113 A 
ATOM     20  C   UNL     1     -47.416  36.967  26.959  1.00  0.00     0.054 A 
ATOM     21  N   UNL     1     -45.991  36.387  28.582  1.00  0.00    -0.130 NA
ATOM     22  H   UNL     1     -47.988  37.418  26.162  1.00  0.00     0.086 H 
ATOM     23  N   UNL     1     -46.851  35.387  28.438  1.00  0.00    -0.066 NA
BRANCH  19  24
ATOM     24  C   UNL     1     -45.605  38.625  27.546  1.00  0.00     0.015 A 
ATOM     25  C   UNL     1     -45.113  40.692  26.333  1.00  0.00    -0.059 A 
ATOM     26  C   UNL     1     -45.813  39.489  26.451  1.00  0.00    -0.052 A 
ATOM     27  C   UNL     1     -44.180  41.082  27.295  1.00  0.00    -0.036 A 
ATOM     28  H   UNL     1     -45.301  41.338  25.477  1.00  0.00     0.062 H 
ATOM     29  H   UNL     1     -46.539  39.236  25.682  1.00  0.00     0.063 H 
ATOM     30  C   UNL     1     -43.984  40.219  28.377  1.00  0.00     0.066 A 
ATOM     31  H   UNL     1     -43.638  42.017  27.203  1.00  0.00     0.065 H 
ATOM     32  C   UNL     1     -44.667  39.013  28.528  1.00  0.00     0.029 A 
ATOM     33  N   UNL     1     -43.158  40.313  29.466  1.00  0.00    -0.278 N 
ATOM     34  C   UNL     1     -44.154  38.484  29.741  1.00  0.00     0.057 A 
ATOM     35  N   UNL     1     -43.234  39.271  30.308  1.00  0.00    -0.183 NA
ATOM     36  H   UNL     1     -42.515  41.063  29.691  1.00  0.00     0.190 HD
ATOM     37  H   UNL     1     -44.416  37.554  30.228  1.00  0.00     0.087 H 
ENDBRANCH  19  24
ENDBRANCH  15  18
ENDBRANCH   1  15
BRANCH   6  38
ATOM     38  C   UNL     1     -48.617  28.634  22.892  1.00  0.00     0.036 C 
ATOM     39  H   UNL     1     -49.707  28.570  22.810  1.00  0.00     0.049 H 
ATOM     40  H   UNL     1     -48.198  28.631  21.879  1.00  0.00     0.049 H 
BRANCH  38  41
ATOM     41  N   UNL     1     -48.083  27.521  23.673  1.00  0.00    -0.311 NA
ATOM     42  H   UNL     1     -47.311  27.865  24.245  1.00  0.00     0.123 HD
BRANCH  41  43
ATOM     43  C   UNL     1     -49.090  26.889  24.528  1.00  0.00    -0.002 C 
ATOM     44  H   UNL     1     -49.705  26.247  23.886  1.00  0.00     0.043 H 
ATOM     45  H   UNL     1     -49.769  27.646  24.939  1.00  0.00     0.043 H 
BRANCH  43  46
ATOM     46  C   UNL     1     -48.480  26.060  25.652  1.00  0.00    -0.029 C 
ATOM     47  C   UNL     1     -46.978  25.703  25.478  1.00  0.00    -0.049 C 
ATOM     48  C   UNL     1     -48.055  26.807  26.946  1.00  0.00    -0.049 C 
ATOM     49  H   UNL     1     -49.071  25.159  25.868  1.00  0.00     0.032 H 
ATOM     50  C   UNL     1     -46.838  25.861  27.005  1.00  0.00    -0.053 C 
ATOM     51  H   UNL     1     -46.770  24.704  25.085  1.00  0.00     0.027 H 
ATOM     52  H   UNL     1     -46.395  26.436  24.909  1.00  0.00     0.027 H 
ATOM     53  H   UNL     1     -48.751  26.734  27.785  1.00  0.00     0.027 H 
ATOM     54  H   UNL     1     -47.784  27.859  26.797  1.00  0.00     0.027 H 
ATOM     55  H   UNL     1     -45.904  26.308  27.354  1.00  0.00     0.027 H 
ATOM     56  H   UNL     1     -47.024  24.937  27.564  1.00  0.00     0.027 H 
ENDBRANCH  43  46
ENDBRANCH  41  43
ENDBRANCH  38  41
ENDBRANCH   6  38
TORSDOF 7
ENDMDL
MODEL 4
REMARK VINA RESULT:     -10.1      2.041      3.139
REMARK SMILES c1cc(-c2cn(Cc3ccc4cc(CNCC5CCC5)[nH]c4c3)nn2)c2cn[nH]c2c1
REMARK SMILES IDX 8 1 9 2 10 3 11 4 12 5 13 6 21 7 22 8 23 9 7 15 6 18 4 19
REMARK SMILES IDX 5 20 25 21 24 23 3 24 1 25 2 26 31 27 30 30 26 32 29 33
REMARK SMILES IDX 27 34 28 35 14 38 15 41 16 43 17 46 18 47 20 48 19 50
REMARK H PARENT 9 10 10 11 12 12 21 13 23 14 7 16 7 17 5 22 1 28 2 29 31 31
REMARK H PARENT 29 36 27 37 14 39 14 40 15 42 16 44 16 45 17 49 18 51 18 52
REMARK H PARENT 20 53 20 54 19 55 19 56
REMARK Flexibility Score: inf
ROOT
ATOM      1  C   UNL     1     -46.409  36.259  29.044  1.00  0.00    -0.024 A 
ATOM      2  C   UNL     1     -47.740  36.485  28.664  1.00  0.00    -0.056 A 
ATOM      3  C   UNL     1     -48.306  35.815  27.572  1.00  0.00    -0.052 A 
ATOM      4  C   UNL     1     -47.527  34.896  26.847  1.00  0.00    -0.000 A 
ATOM      5  C   UNL     1     -47.772  34.063  25.721  1.00  0.00    -0.032 A 
ATOM      6  C   UNL     1     -46.615  33.361  25.448  1.00  0.00     0.030 A 
ATOM      7  N   UNL     1     -45.677  33.750  26.376  1.00  0.00    -0.357 N 
ATOM      8  C   UNL     1     -46.206  34.681  27.239  1.00  0.00     0.046 A 
ATOM      9  C   UNL     1     -45.621  35.341  28.328  1.00  0.00    -0.033 A 
ATOM     10  H   UNL     1     -48.356  37.196  29.216  1.00  0.00     0.063 H 
ATOM     11  H   UNL     1     -49.338  36.004  27.291  1.00  0.00     0.063 H 
ATOM     12  H   UNL     1     -48.701  33.988  25.170  1.00  0.00     0.065 H 
ATOM     13  H   UNL     1     -44.744  33.366  26.421  1.00  0.00     0.166 HD
ATOM     14  H   UNL     1     -44.590  35.143  28.602  1.00  0.00     0.065 H 
ENDROOT
BRANCH   1  15
ATOM     15  C   UNL     1     -45.822  36.998  30.223  1.00  0.00     0.068 C 
ATOM     16  H   UNL     1     -46.625  37.383  30.862  1.00  0.00     0.057 H 
ATOM     17  H   UNL     1     -45.192  36.345  30.838  1.00  0.00     0.057 H 
BRANCH  15  18
ATOM     18  N   UNL     1     -44.985  38.109  29.806  1.00  0.00    -0.247 N 
ATOM     19  C   UNL     1     -44.011  39.726  28.751  1.00  0.00     0.113 A 
ATOM     20  C   UNL     1     -45.052  38.829  28.648  1.00  0.00     0.054 A 
ATOM     21  N   UNL     1     -43.352  39.504  29.935  1.00  0.00    -0.130 NA
ATOM     22  H   UNL     1     -45.805  38.648  27.896  1.00  0.00     0.086 H 
ATOM     23  N   UNL     1     -43.953  38.508  30.570  1.00  0.00    -0.066 NA
BRANCH  19  24
ATOM     24  C   UNL     1     -43.644  40.738  27.783  1.00  0.00     0.015 A 
ATOM     25  C   UNL     1     -41.986  42.181  26.709  1.00  0.00    -0.059 A 
ATOM     26  C   UNL     1     -42.320  41.203  27.648  1.00  0.00    -0.052 A 
ATOM     27  C   UNL     1     -42.954  42.737  25.871  1.00  0.00    -0.036 A 
ATOM     28  H   UNL     1     -40.953  42.514  26.628  1.00  0.00     0.062 H 
ATOM     29  H   UNL     1     -41.527  40.791  28.269  1.00  0.00     0.063 H 
ATOM     30  C   UNL     1     -44.263  42.267  26.012  1.00  0.00     0.066 A 
ATOM     31  H   UNL     1     -42.694  43.496  25.141  1.00  0.00     0.065 H 
ATOM     32  C   UNL     1     -44.631  41.290  26.936  1.00  0.00     0.029 A 
ATOM     33  N   UNL     1     -45.417  42.602  25.353  1.00  0.00    -0.278 N 
ATOM     34  C   UNL     1     -46.027  41.138  26.730  1.00  0.00     0.057 A 
ATOM     35  N   UNL     1     -46.505  41.938  25.772  1.00  0.00    -0.183 NA
ATOM     36  H   UNL     1     -45.529  43.280  24.609  1.00  0.00     0.190 HD
ATOM     37  H   UNL     1     -46.710  40.475  27.245  1.00  0.00     0.087 H 
ENDBRANCH  19  24
ENDBRANCH  15  18
ENDBRANCH   1  15
BRANCH   6  38
ATOM     38  C   UNL     1     -46.294  32.366  24.388  1.00  0.00     0.036 C 
ATOM     39  H   UNL     1     -46.563  32.781  23.410  1.00  0.00     0.049 H 
ATOM     40  H   UNL     1     -45.213  32.184  24.395  1.00  0.00     0.049 H 
BRANCH  38  41
ATOM     41  N   UNL     1     -47.025  31.131  24.654  1.00  0.00    -0.311 NA
ATOM     42  H   UNL     1     -47.347  31.144  25.622  1.00  0.00     0.123 HD
BRANCH  41  43
ATOM     43  C   UNL     1     -48.166  30.938  23.756  1.00  0.00    -0.002 C 
ATOM     44  H   UNL     1     -47.788  31.013  22.729  1.00  0.00     0.043 H 
ATOM     45  H   UNL     1     -48.885  31.757  23.874  1.00  0.00     0.043 H 
BRANCH  43  46
ATOM     46  C   UNL     1     -48.857  29.594  23.953  1.00  0.00    -0.029 C 
ATOM     47  C   UNL     1     -48.098  28.363  23.387  1.00  0.00    -0.049 C 
ATOM     48  C   UNL     1     -48.725  28.916  25.345  1.00  0.00    -0.049 C 
ATOM     49  H   UNL     1     -49.896  29.608  23.595  1.00  0.00     0.032 H 
ATOM     50  C   UNL     1     -48.627  27.570  24.599  1.00  0.00    -0.053 C 
ATOM     51  H   UNL     1     -48.432  28.009  22.408  1.00  0.00     0.027 H 
ATOM     52  H   UNL     1     -47.006  28.463  23.374  1.00  0.00     0.027 H 
ATOM     53  H   UNL     1     -49.586  29.026  26.008  1.00  0.00     0.027 H 
ATOM     54  H   UNL     1     -47.815  29.179  25.896  1.00  0.00     0.027 H 
ATOM     55  H   UNL     1     -47.938  26.838  25.026  1.00  0.00     0.027 H 
ATOM     56  H   UNL     1     -49.597  27.091  24.423  1.00  0.00     0.027 H 
ENDBRANCH  43  46
ENDBRANCH  41  43
ENDBRANCH  38  41
ENDBRANCH   6  38
TORSDOF 7
ENDMDL
MODEL 5
REMARK VINA RESULT:     -10.1      2.271      3.656
REMARK SMILES c1cc(-c2cn(Cc3ccc4cc(CNCC5CCC5)[nH]c4c3)nn2)c2cn[nH]c2c1
REMARK SMILES IDX 8 1 9 2 10 3 11 4 12 5 13 6 21 7 22 8 23 9 7 15 6 18 4 19
REMARK SMILES IDX 5 20 25 21 24 23 3 24 1 25 2 26 31 27 30 30 26 32 29 33
REMARK SMILES IDX 27 34 28 35 14 38 15 41 16 43 17 46 18 47 20 48 19 50
REMARK H PARENT 9 10 10 11 12 12 21 13 23 14 7 16 7 17 5 22 1 28 2 29 31 31
REMARK H PARENT 29 36 27 37 14 39 14 40 15 42 16 44 16 45 17 49 18 51 18 52
REMARK H PARENT 20 53 20 54 19 55 19 56
REMARK Flexibility Score: inf
ROOT
ATOM      1  C   UNL     1     -47.691  36.108  27.211  1.00  0.00    -0.024 A 
ATOM      2  C   UNL     1     -46.381  35.785  26.830  1.00  0.00    -0.056 A 
ATOM      3  C   UNL     1     -46.080  34.550  26.243  1.00  0.00    -0.052 A 
ATOM      4  C   UNL     1     -47.112  33.619  26.028  1.00  0.00    -0.000 A 
ATOM      5  C   UNL     1     -47.164  32.312  25.470  1.00  0.00    -0.032 A 
ATOM      6  C   UNL     1     -48.473  31.878  25.518  1.00  0.00     0.030 A 
ATOM      7  N   UNL     1     -49.212  32.886  26.093  1.00  0.00    -0.357 N 
ATOM      8  C   UNL     1     -48.409  33.956  26.410  1.00  0.00     0.046 A 
ATOM      9  C   UNL     1     -48.731  35.186  26.998  1.00  0.00    -0.033 A 
ATOM     10  H   UNL     1     -45.570  36.497  26.992  1.00  0.00     0.063 H 
ATOM     11  H   UNL     1     -45.058  34.316  25.956  1.00  0.00     0.063 H 
ATOM     12  H   UNL     1     -46.327  31.750  25.077  1.00  0.00     0.065 H 
ATOM     13  H   UNL     1     -50.214  32.840  26.222  1.00  0.00     0.166 HD
ATOM     14  H   UNL     1     -49.755  35.412  27.279  1.00  0.00     0.065 H 
ENDROOT
BRANCH   1  15
ATOM     15  C   UNL     1     -47.987  37.447  27.846  1.00  0.00     0.068 C 
ATOM     16  H   UNL     1     -48.921  37.854  27.443  1.00  0.00     0.057 H 
ATOM     17  H   UNL     1     -48.102  37.363  28.932  1.00  0.00     0.057 H 
BRANCH  15  18
ATOM     18  N   UNL     1     -46.921  38.405  27.614  1.00  0.00    -0.247 N 
ATOM     19  C   UNL     1     -45.182  39.684  27.735  1.00  0.00     0.113 A 
ATOM     20  C   UNL     1     -45.840  38.674  28.403  1.00  0.00     0.054 A 
ATOM     21  N   UNL     1     -45.887  39.997  26.600  1.00  0.00    -0.130 NA
ATOM     22  H   UNL     1     -45.646  38.142  29.321  1.00  0.00     0.086 H 
ATOM     23  N   UNL     1     -46.954  39.212  26.539  1.00  0.00    -0.066 NA
BRANCH  19  24
ATOM     24  C   UNL     1     -43.952  40.331  28.143  1.00  0.00     0.015 A 
ATOM     25  C   UNL     1     -42.101  40.627  29.715  1.00  0.00    -0.059 A 
ATOM     26  C   UNL     1     -43.286  39.990  29.337  1.00  0.00    -0.052 A 
ATOM     27  C   UNL     1     -41.536  41.628  28.923  1.00  0.00    -0.036 A 
ATOM     28  H   UNL     1     -41.609  40.336  30.641  1.00  0.00     0.062 H 
ATOM     29  H   UNL     1     -43.679  39.207  29.982  1.00  0.00     0.063 H 
ATOM     30  C   UNL     1     -42.205  41.956  27.740  1.00  0.00     0.066 A 
ATOM     31  H   UNL     1     -40.616  42.121  29.216  1.00  0.00     0.065 H 
ATOM     32  C   UNL     1     -43.387  41.339  27.331  1.00  0.00     0.029 A 
ATOM     33  N   UNL     1     -41.914  42.874  26.765  1.00  0.00    -0.278 N 
ATOM     34  C   UNL     1     -43.696  41.982  26.105  1.00  0.00     0.057 A 
ATOM     35  N   UNL     1     -42.805  42.917  25.763  1.00  0.00    -0.183 NA
ATOM     36  H   UNL     1     -41.121  43.505  26.727  1.00  0.00     0.190 HD
ATOM     37  H   UNL     1     -44.541  41.803  25.451  1.00  0.00     0.087 H 
ENDBRANCH  19  24
ENDBRANCH  15  18
ENDBRANCH   1  15
BRANCH   6  38
ATOM     38  C   UNL     1     -49.104  30.599  25.091  1.00  0.00     0.036 C 
ATOM     39  H   UNL     1     -48.322  29.901  24.772  1.00  0.00     0.049 H 
ATOM     40  H   UNL     1     -49.622  30.160  25.951  1.00  0.00     0.049 H 
BRANCH  38  41
ATOM     41  N   UNL     1     -50.043  30.867  24.006  1.00  0.00    -0.311 NA
ATOM     42  H   UNL     1     -50.617  31.671  24.263  1.00  0.00     0.123 HD
BRANCH  41  43
ATOM     43  C   UNL     1     -49.379  31.123  22.726  1.00  0.00    -0.002 C 
ATOM     44  H   UNL     1     -48.751  30.251  22.506  1.00  0.00     0.043 H 
ATOM     45  H   UNL     1     -48.694  31.974  22.816  1.00  0.00     0.043 H 
BRANCH  43  46
ATOM     46  C   UNL     1     -50.360  31.352  21.583  1.00  0.00    -0.029 C 
ATOM     47  C   UNL     1     -51.457  30.265  21.415  1.00  0.00    -0.049 C 
ATOM     48  C   UNL     1     -51.523  32.354  21.825  1.00  0.00    -0.049 C 
ATOM     49  H   UNL     1     -49.846  31.535  20.628  1.00  0.00     0.032 H 
ATOM     50  C   UNL     1     -52.417  31.399  21.007  1.00  0.00    -0.053 C 
ATOM     51  H   UNL     1     -51.263  29.510  20.649  1.00  0.00     0.027 H 
ATOM     52  H   UNL     1     -51.748  29.760  22.344  1.00  0.00     0.027 H 
ATOM     53  H   UNL     1     -51.385  33.351  21.400  1.00  0.00     0.027 H 
ATOM     54  H   UNL     1     -51.831  32.450  22.872  1.00  0.00     0.027 H 
ATOM     55  H   UNL     1     -53.449  31.298  21.353  1.00  0.00     0.027 H 
ATOM     56  H   UNL     1     -52.419  31.609  19.931  1.00  0.00     0.027 H 
ENDBRANCH  43  46
ENDBRANCH  41  43
ENDBRANCH  38  41
ENDBRANCH   6  38
TORSDOF 7
ENDMDL
MODEL 6
REMARK VINA RESULT:      -9.8      2.158      2.740
REMARK SMILES c1cc(-c2cn(Cc3ccc4cc(CNCC5CCC5)[nH]c4c3)nn2)c2cn[nH]c2c1
REMARK SMILES IDX 8 1 9 2 10 3 11 4 12 5 13 6 21 7 22 8 23 9 7 15 6 18 4 19
REMARK SMILES IDX 5 20 25 21 24 23 3 24 1 25 2 26 31 27 30 30 26 32 29 33
REMARK SMILES IDX 27 34 28 35 14 38 15 41 16 43 17 46 18 47 20 48 19 50
REMARK H PARENT 9 10 10 11 12 12 21 13 23 14 7 16 7 17 5 22 1 28 2 29 31 31
REMARK H PARENT 29 36 27 37 14 39 14 40 15 42 16 44 16 45 17 49 18 51 18 52
REMARK H PARENT 20 53 20 54 19 55 19 56
REMARK Flexibility Score: inf
ROOT
ATOM      1  C   UNL     1     -47.387  37.094  27.742  1.00  0.00    -0.024 A 
ATOM      2  C   UNL     1     -46.053  36.675  27.844  1.00  0.00    -0.056 A 
ATOM      3  C   UNL     1     -45.661  35.396  27.431  1.00  0.00    -0.052 A 
ATOM      4  C   UNL     1     -46.622  34.518  26.899  1.00  0.00    -0.000 A 
ATOM      5  C   UNL     1     -46.577  33.189  26.393  1.00  0.00    -0.032 A 
ATOM      6  C   UNL     1     -47.852  32.838  25.999  1.00  0.00     0.030 A 
ATOM      7  N   UNL     1     -48.666  33.916  26.256  1.00  0.00    -0.357 N 
ATOM      8  C   UNL     1     -47.944  34.951  26.801  1.00  0.00     0.046 A 
ATOM      9  C   UNL     1     -48.356  36.227  27.209  1.00  0.00    -0.033 A 
ATOM     10  H   UNL     1     -45.297  37.344  28.257  1.00  0.00     0.063 H 
ATOM     11  H   UNL     1     -44.623  35.087  27.520  1.00  0.00     0.063 H 
ATOM     12  H   UNL     1     -45.699  32.560  26.328  1.00  0.00     0.065 H 
ATOM     13  H   UNL     1     -49.652  33.937  26.032  1.00  0.00     0.166 HD
ATOM     14  H   UNL     1     -49.395  36.527  27.113  1.00  0.00     0.065 H 
ENDROOT
BRANCH   1  15
ATOM     15  C   UNL     1     -47.783  38.479  28.199  1.00  0.00     0.068 C 
ATOM     16  H   UNL     1     -48.859  38.628  28.055  1.00  0.00     0.057 H 
ATOM     17  H   UNL     1     -47.565  38.632  29.262  1.00  0.00     0.057 H 
BRANCH  15  18
ATOM     18  N   UNL     1     -47.068  39.515  27.475  1.00  0.00    -0.247 N 
ATOM     19  C   UNL     1     -45.610  40.905  26.690  1.00  0.00     0.113 A 
ATOM     20  C   UNL     1     -45.742  39.833  27.545  1.00  0.00     0.054 A 
ATOM     21  N   UNL     1     -46.840  41.203  26.160  1.00  0.00    -0.130 NA
ATOM     22  H   UNL     1     -45.047  39.288  28.166  1.00  0.00     0.086 H 
ATOM     23  N   UNL     1     -47.727  40.349  26.653  1.00  0.00    -0.066 NA
BRANCH  19  24
ATOM     24  C   UNL     1     -44.389  41.623  26.387  1.00  0.00     0.015 A 
ATOM     25  C   UNL     1     -43.055  43.074  24.938  1.00  0.00    -0.059 A 
ATOM     26  C   UNL     1     -44.241  42.389  25.213  1.00  0.00    -0.052 A 
ATOM     27  C   UNL     1     -41.971  43.021  25.816  1.00  0.00    -0.036 A 
ATOM     28  H   UNL     1     -42.975  43.661  24.024  1.00  0.00     0.062 H 
ATOM     29  H   UNL     1     -45.061  42.473  24.504  1.00  0.00     0.063 H 
ATOM     30  C   UNL     1     -42.130  42.260  26.978  1.00  0.00     0.066 A 
ATOM     31  H   UNL     1     -41.050  43.553  25.603  1.00  0.00     0.065 H 
ATOM     32  C   UNL     1     -43.300  41.567  27.285  1.00  0.00     0.029 A 
ATOM     33  N   UNL     1     -41.273  42.014  28.019  1.00  0.00    -0.278 N 
ATOM     34  C   UNL     1     -43.009  40.948  28.528  1.00  0.00     0.057 A 
ATOM     35  N   UNL     1     -41.777  41.214  28.971  1.00  0.00    -0.183 NA
ATOM     36  H   UNL     1     -40.328  42.360  28.136  1.00  0.00     0.190 HD
ATOM     37  H   UNL     1     -43.650  40.310  29.124  1.00  0.00     0.087 H 
ENDBRANCH  19  24
ENDBRANCH  15  18
ENDBRANCH   1  15
BRANCH   6  38
ATOM     38  C   UNL     1     -48.390  31.579  25.415  1.00  0.00     0.036 C 
ATOM     39  H   UNL     1     -47.758  30.739  25.724  1.00  0.00     0.049 H 
ATOM     40  H   UNL     1     -49.398  31.411  25.813  1.00  0.00     0.049 H 
BRANCH  38  41
ATOM     41  N   UNL     1     -48.425  31.702  23.961  1.00  0.00    -0.311 NA
ATOM     42  H   UNL     1     -47.508  32.010  23.637  1.00  0.00     0.123 HD
BRANCH  41  43
ATOM     43  C   UNL     1     -48.793  30.453  23.290  1.00  0.00    -0.002 C 
ATOM     44  H   UNL     1     -49.628  30.679  22.618  1.00  0.00     0.043 H 
ATOM     45  H   UNL     1     -49.178  29.730  24.019  1.00  0.00     0.043 H 
BRANCH  43  46
ATOM     46  C   UNL     1     -47.643  29.844  22.497  1.00  0.00    -0.029 C 
ATOM     47  C   UNL     1     -46.500  30.824  22.117  1.00  0.00    -0.049 C 
ATOM     48  C   UNL     1     -46.569  29.046  23.287  1.00  0.00    -0.049 C 
ATOM     49  H   UNL     1     -47.997  29.298  21.611  1.00  0.00     0.032 H 
ATOM     50  C   UNL     1     -45.521  29.653  22.330  1.00  0.00    -0.053 C 
ATOM     51  H   UNL     1     -46.540  31.229  21.102  1.00  0.00     0.027 H 
ATOM     52  H   UNL     1     -46.351  31.650  22.823  1.00  0.00     0.027 H 
ATOM     53  H   UNL     1     -46.666  27.959  23.252  1.00  0.00     0.027 H 
ATOM     54  H   UNL     1     -46.443  29.360  24.329  1.00  0.00     0.027 H 
ATOM     55  H   UNL     1     -44.560  29.911  22.779  1.00  0.00     0.027 H 
ATOM     56  H   UNL     1     -45.348  29.053  21.429  1.00  0.00     0.027 H 
ENDBRANCH  43  46
ENDBRANCH  41  43
ENDBRANCH  38  41
ENDBRANCH   6  38
TORSDOF 7
ENDMDL
MODEL 7
REMARK VINA RESULT:      -9.8      2.365     10.904
REMARK SMILES c1cc(-c2cn(Cc3ccc4cc(CNCC5CCC5)[nH]c4c3)nn2)c2cn[nH]c2c1
REMARK SMILES IDX 8 1 9 2 10 3 11 4 12 5 13 6 21 7 22 8 23 9 7 15 6 18 4 19
REMARK SMILES IDX 5 20 25 21 24 23 3 24 1 25 2 26 31 27 30 30 26 32 29 33
REMARK SMILES IDX 27 34 28 35 14 38 15 41 16 43 17 46 18 47 20 48 19 50
REMARK H PARENT 9 10 10 11 12 12 21 13 23 14 7 16 7 17 5 22 1 28 2 29 31 31
REMARK H PARENT 29 36 27 37 14 39 14 40 15 42 16 44 16 45 17 49 18 51 18 52
REMARK H PARENT 20 53 20 54 19 55 19 56
REMARK Flexibility Score: inf
ROOT
ATOM      1  C   UNL     1     -46.976  36.462  27.935  1.00  0.00    -0.024 A 
ATOM      2  C   UNL     1     -48.216  37.047  28.233  1.00  0.00    -0.056 A 
ATOM      3  C   UNL     1     -48.473  38.391  27.937  1.00  0.00    -0.052 A 
ATOM      4  C   UNL     1     -47.471  39.167  27.327  1.00  0.00    -0.000 A 
ATOM      5  C   UNL     1     -47.393  40.520  26.897  1.00  0.00    -0.032 A 
ATOM      6  C   UNL     1     -46.140  40.726  26.355  1.00  0.00     0.030 A 
ATOM      7  N   UNL     1     -45.459  39.534  26.450  1.00  0.00    -0.357 N 
ATOM      8  C   UNL     1     -46.246  38.570  27.035  1.00  0.00     0.046 A 
ATOM      9  C   UNL     1     -45.969  37.227  27.322  1.00  0.00    -0.033 A 
ATOM     10  H   UNL     1     -49.001  36.458  28.708  1.00  0.00     0.063 H 
ATOM     11  H   UNL     1     -49.438  38.828  28.177  1.00  0.00     0.063 H 
ATOM     12  H   UNL     1     -48.175  41.264  26.978  1.00  0.00     0.065 H 
ATOM     13  H   UNL     1     -44.521  39.398  26.098  1.00  0.00     0.166 HD
ATOM     14  H   UNL     1     -45.002  36.799  27.075  1.00  0.00     0.065 H 
ENDROOT
BRANCH   1  15
ATOM     15  C   UNL     1     -46.724  35.010  28.268  1.00  0.00     0.068 C 
ATOM     16  H   UNL     1     -45.652  34.840  28.413  1.00  0.00     0.057 H 
ATOM     17  H   UNL     1     -47.237  34.711  29.190  1.00  0.00     0.057 H 
BRANCH  15  18
ATOM     18  N   UNL     1     -47.200  34.123  27.222  1.00  0.00    -0.247 N 
ATOM     19  C   UNL     1     -47.408  32.713  25.595  1.00  0.00     0.113 A 
ATOM     20  C   UNL     1     -46.472  33.278  26.434  1.00  0.00     0.054 A 
ATOM     21  N   UNL     1     -48.640  33.243  25.887  1.00  0.00    -0.130 NA
ATOM     22  H   UNL     1     -45.405  33.160  26.543  1.00  0.00     0.086 H 
ATOM     23  N   UNL     1     -48.500  34.110  26.880  1.00  0.00    -0.066 NA
BRANCH  19  24
ATOM     24  C   UNL     1     -47.161  31.728  24.563  1.00  0.00     0.015 A 
ATOM     25  C   UNL     1     -46.024  30.992  22.526  1.00  0.00    -0.059 A 
ATOM     26  C   UNL     1     -46.248  31.954  23.513  1.00  0.00    -0.052 A 
ATOM     27  C   UNL     1     -46.698  29.770  22.544  1.00  0.00    -0.036 A 
ATOM     28  H   UNL     1     -45.308  31.197  21.731  1.00  0.00     0.062 H 
ATOM     29  H   UNL     1     -45.688  32.886  23.463  1.00  0.00     0.063 H 
ATOM     30  C   UNL     1     -47.598  29.555  23.591  1.00  0.00     0.066 A 
ATOM     31  H   UNL     1     -46.523  29.022  21.778  1.00  0.00     0.065 H 
ATOM     32  C   UNL     1     -47.845  30.492  24.594  1.00  0.00     0.029 A 
ATOM     33  N   UNL     1     -48.398  28.482  23.887  1.00  0.00    -0.278 N 
ATOM     34  C   UNL     1     -48.810  29.859  25.418  1.00  0.00     0.057 A 
ATOM     35  N   UNL     1     -49.151  28.641  24.986  1.00  0.00    -0.183 NA
ATOM     36  H   UNL     1     -48.479  27.612  23.374  1.00  0.00     0.190 HD
ATOM     37  H   UNL     1     -49.279  30.244  26.315  1.00  0.00     0.087 H 
ENDBRANCH  19  24
ENDBRANCH  15  18
ENDBRANCH   1  15
BRANCH   6  38
ATOM     38  C   UNL     1     -45.508  41.938  25.768  1.00  0.00     0.036 C 
ATOM     39  H   UNL     1     -44.886  41.644  24.915  1.00  0.00     0.049 H 
ATOM     40  H   UNL     1     -46.298  42.602  25.400  1.00  0.00     0.049 H 
BRANCH  38  41
ATOM     41  N   UNL     1     -44.710  42.606  26.792  1.00  0.00    -0.311 NA
ATOM     42  H   UNL     1     -45.186  42.511  27.690  1.00  0.00     0.123 HD
BRANCH  41  43
ATOM     43  C   UNL     1     -43.350  42.074  26.895  1.00  0.00    -0.002 C 
ATOM     44  H   UNL     1     -42.690  42.763  26.355  1.00  0.00     0.043 H 
ATOM     45  H   UNL     1     -43.277  41.113  26.371  1.00  0.00     0.043 H 
BRANCH  43  46
ATOM     46  C   UNL     1     -42.875  41.928  28.335  1.00  0.00    -0.029 C 
ATOM     47  C   UNL     1     -43.180  40.559  29.004  1.00  0.00    -0.049 C 
ATOM     48  C   UNL     1     -41.374  41.600  28.567  1.00  0.00    -0.049 C 
ATOM     49  H   UNL     1     -43.222  42.756  28.970  1.00  0.00     0.032 H 
ATOM     50  C   UNL     1     -41.827  40.694  29.731  1.00  0.00    -0.053 C 
ATOM     51  H   UNL     1     -44.063  40.532  29.648  1.00  0.00     0.027 H 
ATOM     52  H   UNL     1     -43.220  39.710  28.312  1.00  0.00     0.027 H 
ATOM     53  H   UNL     1     -40.742  42.446  28.846  1.00  0.00     0.027 H 
ATOM     54  H   UNL     1     -40.895  41.052  27.747  1.00  0.00     0.027 H 
ATOM     55  H   UNL     1     -41.262  39.769  29.862  1.00  0.00     0.027 H 
ATOM     56  H   UNL     1     -41.894  41.214  30.694  1.00  0.00     0.027 H 
ENDBRANCH  43  46
ENDBRANCH  41  43
ENDBRANCH  38  41
ENDBRANCH   6  38
TORSDOF 7
ENDMDL
