MODEL 1
REMARK VINA RESULT:     -10.0      0.000      0.000
REMARK SMILES O=C(NCc1cc2[nH]c(CNCC3CCC3)cc2cc1F)c1cc(=O)n2ccccc2n1
REMARK SMILES IDX 5 1 6 2 7 3 8 4 9 5 17 6 18 7 19 8 20 9 21 10 4 15 3 18 1 19
REMARK SMILES IDX 2 20 22 22 23 23 32 24 24 25 31 27 25 28 26 29 30 30 27 31
REMARK SMILES IDX 29 32 28 34 10 38 11 41 12 43 13 46 14 47 16 48 15 50
REMARK H PARENT 6 11 8 12 17 13 19 14 4 16 4 17 3 21 23 26 30 33 27 35 29 36
REMARK H PARENT 28 37 10 39 10 40 11 42 12 44 12 45 13 49 14 51 14 52 16 53
REMARK H PARENT 16 54 15 55 15 56
REMARK Flexibility Score: inf
ROOT
ATOM      1  C   UNL     1     -46.425  35.906  28.006  1.00  0.00     0.009 A 
ATOM      2  C   UNL     1     -45.600  34.995  27.321  1.00  0.00    -0.030 A 
ATOM      3  C   UNL     1     -46.207  34.097  26.434  1.00  0.00     0.046 A 
ATOM      4  N   UNL     1     -45.652  33.117  25.645  1.00  0.00    -0.357 N 
ATOM      5  C   UNL     1     -46.627  32.460  24.932  1.00  0.00     0.030 A 
ATOM      6  C   UNL     1     -47.835  33.040  25.262  1.00  0.00    -0.032 A 
ATOM      7  C   UNL     1     -47.583  34.072  26.209  1.00  0.00     0.003 A 
ATOM      8  C   UNL     1     -48.399  34.986  26.898  1.00  0.00    -0.017 A 
ATOM      9  C   UNL     1     -47.802  35.885  27.784  1.00  0.00     0.128 A 
ATOM     10  F   UNL     1     -48.594  36.748  28.438  1.00  0.00    -0.207 F 
ATOM     11  H   UNL     1     -44.525  34.988  27.478  1.00  0.00     0.065 H 
ATOM     12  H   UNL     1     -44.672  32.872  25.611  1.00  0.00     0.166 HD
ATOM     13  H   UNL     1     -48.801  32.753  24.866  1.00  0.00     0.065 H 
ATOM     14  H   UNL     1     -49.473  35.001  26.754  1.00  0.00     0.066 H 
ENDROOT
BRANCH   1  15
ATOM     15  C   UNL     1     -45.819  36.884  28.973  1.00  0.00     0.046 C 
ATOM     16  H   UNL     1     -45.091  36.402  29.636  1.00  0.00     0.054 H 
ATOM     17  H   UNL     1     -46.601  37.307  29.616  1.00  0.00     0.054 H 
BRANCH  15  18
ATOM     18  N   UNL     1     -45.136  37.946  28.280  1.00  0.00    -0.347 N 
ATOM     19  O   UNL     1     -46.851  39.469  28.425  1.00  0.00    -0.268 OA
ATOM     20  C   UNL     1     -45.693  39.192  28.134  1.00  0.00     0.270 C 
ATOM     21  H   UNL     1     -44.133  37.886  28.131  1.00  0.00     0.164 HD
BRANCH  20  22
ATOM     22  C   UNL     1     -44.714  40.200  27.584  1.00  0.00     0.136 A 
ATOM     23  C   UNL     1     -43.631  40.445  28.326  1.00  0.00     0.035 A 
ATOM     24  N   UNL     1     -44.987  40.796  26.373  1.00  0.00    -0.225 NA
ATOM     25  C   UNL     1     -42.651  41.419  27.828  1.00  0.00     0.258 A 
ATOM     26  H   UNL     1     -43.426  39.968  29.276  1.00  0.00     0.071 H 
ATOM     27  C   UNL     1     -44.118  41.654  25.936  1.00  0.00     0.140 A 
ATOM     28  O   UNL     1     -41.653  41.652  28.506  1.00  0.00    -0.269 OA
ATOM     29  N   UNL     1     -42.950  42.003  26.605  1.00  0.00    -0.268 N 
ATOM     30  C   UNL     1     -44.372  42.323  24.628  1.00  0.00    -0.019 A 
ATOM     31  C   UNL     1     -42.069  42.935  26.067  1.00  0.00     0.014 A 
ATOM     32  C   UNL     1     -43.494  43.214  24.152  1.00  0.00    -0.057 A 
ATOM     33  H   UNL     1     -45.279  42.059  24.099  1.00  0.00     0.066 H 
ATOM     34  C   UNL     1     -42.304  43.533  24.893  1.00  0.00    -0.045 A 
ATOM     35  H   UNL     1     -41.175  43.161  26.646  1.00  0.00     0.082 H 
ATOM     36  H   UNL     1     -43.661  43.711  23.201  1.00  0.00     0.062 H 
ATOM     37  H   UNL     1     -41.609  44.258  24.482  1.00  0.00     0.064 H 
ENDBRANCH  20  22
ENDBRANCH  15  18
ENDBRANCH   1  15
BRANCH   5  38
ATOM     38  C   UNL     1     -46.291  31.355  23.995  1.00  0.00     0.036 C 
ATOM     39  H   UNL     1     -45.400  30.808  24.321  1.00  0.00     0.049 H 
ATOM     40  H   UNL     1     -47.114  30.631  24.028  1.00  0.00     0.049 H 
BRANCH  38  41
ATOM     41  N   UNL     1     -46.163  31.824  22.617  1.00  0.00    -0.311 NA
ATOM     42  H   UNL     1     -46.566  32.758  22.554  1.00  0.00     0.123 HD
BRANCH  41  43
ATOM     43  C   UNL     1     -46.801  30.964  21.611  1.00  0.00    -0.002 C 
ATOM     44  H   UNL     1     -46.182  30.092  21.374  1.00  0.00     0.043 H 
ATOM     45  H   UNL     1     -46.837  31.559  20.690  1.00  0.00     0.043 H 
BRANCH  43  46
ATOM     46  C   UNL     1     -48.232  30.560  21.978  1.00  0.00    -0.029 C 
ATOM     47  C   UNL     1     -49.315  31.050  20.976  1.00  0.00    -0.049 C 
ATOM     48  C   UNL     1     -48.693  29.117  21.623  1.00  0.00    -0.049 C 
ATOM     49  H   UNL     1     -48.476  30.855  23.008  1.00  0.00     0.032 H 
ATOM     50  C   UNL     1     -49.240  29.672  20.296  1.00  0.00    -0.053 C 
ATOM     51  H   UNL     1     -49.051  31.903  20.344  1.00  0.00     0.027 H 
ATOM     52  H   UNL     1     -50.285  31.252  21.446  1.00  0.00     0.027 H 
ATOM     53  H   UNL     1     -49.472  28.733  22.292  1.00  0.00     0.027 H 
ATOM     54  H   UNL     1     -47.919  28.355  21.514  1.00  0.00     0.027 H 
ATOM     55  H   UNL     1     -50.194  29.255  19.964  1.00  0.00     0.027 H 
ATOM     56  H   UNL     1     -48.524  29.626  19.468  1.00  0.00     0.027 H 
ENDBRANCH  43  46
ENDBRANCH  41  43
ENDBRANCH  38  41
ENDBRANCH   5  38
TORSDOF 7
ENDMDL
MODEL 2
REMARK VINA RESULT:      -9.7      2.589      3.479
REMARK SMILES O=C(NCc1cc2[nH]c(CNCC3CCC3)cc2cc1F)c1cc(=O)n2ccccc2n1
REMARK SMILES IDX 5 1 6 2 7 3 8 4 9 5 17 6 18 7 19 8 20 9 21 10 4 15 3 18 1 19
REMARK SMILES IDX 2 20 22 22 23 23 32 24 24 25 31 27 25 28 26 29 30 30 27 31
REMARK SMILES IDX 29 32 28 34 10 38 11 41 12 43 13 46 14 47 16 48 15 50
REMARK H PARENT 6 11 8 12 17 13 19 14 4 16 4 17 3 21 23 26 30 33 27 35 29 36
REMARK H PARENT 28 37 10 39 10 40 11 42 12 44 12 45 13 49 14 51 14 52 16 53
REMARK H PARENT 16 54 15 55 15 56
REMARK Flexibility Score: inf
ROOT
ATOM      1  C   UNL     1     -46.534  34.378  27.075  1.00  0.00     0.009 A 
ATOM      2  C   UNL     1     -46.002  33.292  26.357  1.00  0.00    -0.030 A 
ATOM      3  C   UNL     1     -46.888  32.482  25.637  1.00  0.00     0.046 A 
ATOM      4  N   UNL     1     -46.646  31.375  24.859  1.00  0.00    -0.357 N 
ATOM      5  C   UNL     1     -47.820  30.879  24.343  1.00  0.00     0.030 A 
ATOM      6  C   UNL     1     -48.839  31.696  24.789  1.00  0.00    -0.032 A 
ATOM      7  C   UNL     1     -48.264  32.709  25.607  1.00  0.00     0.003 A 
ATOM      8  C   UNL     1     -48.787  33.797  26.327  1.00  0.00    -0.017 A 
ATOM      9  C   UNL     1     -47.910  34.610  27.048  1.00  0.00     0.128 A 
ATOM     10  F   UNL     1     -48.423  35.642  27.735  1.00  0.00    -0.207 F 
ATOM     11  H   UNL     1     -44.935  33.088  26.364  1.00  0.00     0.065 H 
ATOM     12  H   UNL     1     -45.744  30.944  24.710  1.00  0.00     0.166 HD
ATOM     13  H   UNL     1     -49.889  31.579  24.556  1.00  0.00     0.065 H 
ATOM     14  H   UNL     1     -49.849  34.010  26.332  1.00  0.00     0.066 H 
ENDROOT
BRANCH   1  15
ATOM     15  C   UNL     1     -45.622  35.272  27.868  1.00  0.00     0.046 C 
ATOM     16  H   UNL     1     -44.567  35.016  27.712  1.00  0.00     0.054 H 
ATOM     17  H   UNL     1     -45.822  35.155  28.940  1.00  0.00     0.054 H 
BRANCH  15  18
ATOM     18  N   UNL     1     -45.791  36.653  27.492  1.00  0.00    -0.347 N 
ATOM     19  O   UNL     1     -45.022  37.535  29.470  1.00  0.00    -0.268 OA
ATOM     20  C   UNL     1     -45.395  37.680  28.312  1.00  0.00     0.270 C 
ATOM     21  H   UNL     1     -45.944  36.894  26.517  1.00  0.00     0.164 HD
BRANCH  20  22
ATOM     22  C   UNL     1     -45.455  39.022  27.624  1.00  0.00     0.136 A 
ATOM     23  C   UNL     1     -46.660  39.433  27.222  1.00  0.00     0.035 A 
ATOM     24  N   UNL     1     -44.287  39.732  27.457  1.00  0.00    -0.225 NA
ATOM     25  C   UNL     1     -46.763  40.734  26.549  1.00  0.00     0.258 A 
ATOM     26  H   UNL     1     -47.572  38.866  27.362  1.00  0.00     0.071 H 
ATOM     27  C   UNL     1     -44.383  40.881  26.862  1.00  0.00     0.140 A 
ATOM     28  O   UNL     1     -47.869  41.118  26.172  1.00  0.00    -0.269 OA
ATOM     29  N   UNL     1     -45.573  41.429  26.393  1.00  0.00    -0.268 N 
ATOM     30  C   UNL     1     -43.144  41.685  26.660  1.00  0.00    -0.019 A 
ATOM     31  C   UNL     1     -45.590  42.670  25.766  1.00  0.00     0.014 A 
ATOM     32  C   UNL     1     -43.212  42.875  26.050  1.00  0.00    -0.057 A 
ATOM     33  H   UNL     1     -42.213  41.268  27.021  1.00  0.00     0.066 H 
ATOM     34  C   UNL     1     -44.473  43.386  25.586  1.00  0.00    -0.045 A 
ATOM     35  H   UNL     1     -46.555  43.036  25.423  1.00  0.00     0.082 H 
ATOM     36  H   UNL     1     -42.321  43.475  25.894  1.00  0.00     0.062 H 
ATOM     37  H   UNL     1     -44.499  44.353  25.096  1.00  0.00     0.064 H 
ENDBRANCH  20  22
ENDBRANCH  15  18
ENDBRANCH   1  15
BRANCH   5  38
ATOM     38  C   UNL     1     -47.836  29.683  23.459  1.00  0.00     0.036 C 
ATOM     39  H   UNL     1     -48.838  29.490  23.062  1.00  0.00     0.049 H 
ATOM     40  H   UNL     1     -47.207  29.907  22.589  1.00  0.00     0.049 H 
BRANCH  38  41
ATOM     41  N   UNL     1     -47.280  28.505  24.120  1.00  0.00    -0.311 NA
ATOM     42  H   UNL     1     -47.076  27.801  23.412  1.00  0.00     0.123 HD
BRANCH  41  43
ATOM     43  C   UNL     1     -48.146  27.907  25.146  1.00  0.00    -0.002 C 
ATOM     44  H   UNL     1     -49.131  28.385  25.171  1.00  0.00     0.043 H 
ATOM     45  H   UNL     1     -47.678  28.148  26.109  1.00  0.00     0.043 H 
BRANCH  43  46
ATOM     46  C   UNL     1     -48.257  26.384  25.033  1.00  0.00    -0.029 C 
ATOM     47  C   UNL     1     -47.088  25.603  25.697  1.00  0.00    -0.049 C 
ATOM     48  C   UNL     1     -49.191  25.648  26.036  1.00  0.00    -0.049 C 
ATOM     49  H   UNL     1     -48.406  26.073  23.990  1.00  0.00     0.032 H 
ATOM     50  C   UNL     1     -47.969  25.444  26.948  1.00  0.00    -0.053 C 
ATOM     51  H   UNL     1     -46.153  26.150  25.846  1.00  0.00     0.027 H 
ATOM     52  H   UNL     1     -46.860  24.653  25.200  1.00  0.00     0.027 H 
ATOM     53  H   UNL     1     -49.604  24.712  25.640  1.00  0.00     0.027 H 
ATOM     54  H   UNL     1     -50.003  26.225  26.483  1.00  0.00     0.027 H 
ATOM     55  H   UNL     1     -47.908  24.475  27.451  1.00  0.00     0.027 H 
ATOM     56  H   UNL     1     -47.832  26.239  27.690  1.00  0.00     0.027 H 
ENDBRANCH  43  46
ENDBRANCH  41  43
ENDBRANCH  38  41
ENDBRANCH   5  38
TORSDOF 7
ENDMDL
MODEL 3
REMARK VINA RESULT:      -9.6      2.892      3.924
REMARK SMILES O=C(NCc1cc2[nH]c(CNCC3CCC3)cc2cc1F)c1cc(=O)n2ccccc2n1
REMARK SMILES IDX 5 1 6 2 7 3 8 4 9 5 17 6 18 7 19 8 20 9 21 10 4 15 3 18 1 19
REMARK SMILES IDX 2 20 22 22 23 23 32 24 24 25 31 27 25 28 26 29 30 30 27 31
REMARK SMILES IDX 29 32 28 34 10 38 11 41 12 43 13 46 14 47 16 48 15 50
REMARK H PARENT 6 11 8 12 17 13 19 14 4 16 4 17 3 21 23 26 30 33 27 35 29 36
REMARK H PARENT 28 37 10 39 10 40 11 42 12 44 12 45 13 49 14 51 14 52 16 53
REMARK H PARENT 16 54 15 55 15 56
REMARK Flexibility Score: inf
ROOT
ATOM      1  C   UNL     1     -48.098  34.408  26.431  1.00  0.00     0.009 A 
ATOM      2  C   UNL     1     -49.005  33.361  26.187  1.00  0.00    -0.030 A 
ATOM      3  C   UNL     1     -48.574  32.289  25.396  1.00  0.00     0.046 A 
ATOM      4  N   UNL     1     -49.239  31.151  25.005  1.00  0.00    -0.357 N 
ATOM      5  C   UNL     1     -48.433  30.365  24.216  1.00  0.00     0.030 A 
ATOM      6  C   UNL     1     -47.216  31.008  24.108  1.00  0.00    -0.032 A 
ATOM      7  C   UNL     1     -47.294  32.222  24.846  1.00  0.00     0.003 A 
ATOM      8  C   UNL     1     -46.394  33.274  25.096  1.00  0.00    -0.017 A 
ATOM      9  C   UNL     1     -46.816  34.347  25.884  1.00  0.00     0.128 A 
ATOM     10  F   UNL     1     -45.948  35.345  26.110  1.00  0.00    -0.207 F 
ATOM     11  H   UNL     1     -50.010  33.386  26.599  1.00  0.00     0.065 H 
ATOM     12  H   UNL     1     -50.200  30.925  25.223  1.00  0.00     0.166 HD
ATOM     13  H   UNL     1     -46.359  30.647  23.556  1.00  0.00     0.065 H 
ATOM     14  H   UNL     1     -45.390  33.264  24.689  1.00  0.00     0.066 H 
ENDROOT
BRANCH   1  15
ATOM     15  C   UNL     1     -48.518  35.584  27.269  1.00  0.00     0.046 C 
ATOM     16  H   UNL     1     -48.784  35.280  28.289  1.00  0.00     0.054 H 
ATOM     17  H   UNL     1     -49.409  36.053  26.836  1.00  0.00     0.054 H 
BRANCH  15  18
ATOM     18  N   UNL     1     -47.459  36.556  27.369  1.00  0.00    -0.347 N 
ATOM     19  O   UNL     1     -48.799  38.303  28.026  1.00  0.00    -0.268 OA
ATOM     20  C   UNL     1     -47.687  37.831  27.823  1.00  0.00     0.270 C 
ATOM     21  H   UNL     1     -46.491  36.246  27.375  1.00  0.00     0.164 HD
BRANCH  20  22
ATOM     22  C   UNL     1     -46.407  38.594  28.061  1.00  0.00     0.136 A 
ATOM     23  C   UNL     1     -45.717  38.274  29.158  1.00  0.00     0.035 A 
ATOM     24  N   UNL     1     -46.031  39.556  27.150  1.00  0.00    -0.225 NA
ATOM     25  C   UNL     1     -44.466  38.992  29.428  1.00  0.00     0.258 A 
ATOM     26  H   UNL     1     -46.023  37.514  29.867  1.00  0.00     0.071 H 
ATOM     27  C   UNL     1     -44.924  40.187  27.392  1.00  0.00     0.140 A 
ATOM     28  O   UNL     1     -43.826  38.705  30.439  1.00  0.00    -0.269 OA
ATOM     29  N   UNL     1     -44.109  39.955  28.496  1.00  0.00    -0.268 N 
ATOM     30  C   UNL     1     -44.477  41.237  26.433  1.00  0.00    -0.019 A 
ATOM     31  C   UNL     1     -42.935  40.676  28.682  1.00  0.00     0.014 A 
ATOM     32  C   UNL     1     -43.338  41.905  26.656  1.00  0.00    -0.057 A 
ATOM     33  H   UNL     1     -45.103  41.425  25.571  1.00  0.00     0.066 H 
ATOM     34  C   UNL     1     -42.540  41.618  27.817  1.00  0.00    -0.045 A 
ATOM     35  H   UNL     1     -42.348  40.443  29.568  1.00  0.00     0.082 H 
ATOM     36  H   UNL     1     -42.996  42.672  25.968  1.00  0.00     0.062 H 
ATOM     37  H   UNL     1     -41.622  42.175  27.972  1.00  0.00     0.064 H 
ENDBRANCH  20  22
ENDBRANCH  15  18
ENDBRANCH   1  15
BRANCH   5  38
ATOM     38  C   UNL     1     -48.911  29.069  23.665  1.00  0.00     0.036 C 
ATOM     39  H   UNL     1     -49.986  28.935  23.828  1.00  0.00     0.049 H 
ATOM     40  H   UNL     1     -48.776  29.103  22.576  1.00  0.00     0.049 H 
BRANCH  38  41
ATOM     41  N   UNL     1     -48.141  27.938  24.175  1.00  0.00    -0.311 NA
ATOM     42  H   UNL     1     -47.887  27.338  23.391  1.00  0.00     0.123 HD
BRANCH  41  43
ATOM     43  C   UNL     1     -48.832  27.128  25.187  1.00  0.00    -0.002 C 
ATOM     44  H   UNL     1     -49.881  26.960  24.923  1.00  0.00     0.043 H 
ATOM     45  H   UNL     1     -48.852  27.740  26.097  1.00  0.00     0.043 H 
BRANCH  43  46
ATOM     46  C   UNL     1     -48.112  25.814  25.508  1.00  0.00    -0.029 C 
ATOM     47  C   UNL     1     -46.562  25.894  25.421  1.00  0.00    -0.049 C 
ATOM     48  C   UNL     1     -47.913  25.442  27.005  1.00  0.00    -0.049 C 
ATOM     49  H   UNL     1     -48.506  24.988  24.901  1.00  0.00     0.032 H 
ATOM     50  C   UNL     1     -46.536  26.127  26.942  1.00  0.00    -0.053 C 
ATOM     51  H   UNL     1     -46.143  26.702  24.814  1.00  0.00     0.027 H 
ATOM     52  H   UNL     1     -46.093  24.951  25.116  1.00  0.00     0.027 H 
ATOM     53  H   UNL     1     -47.858  24.361  27.181  1.00  0.00     0.027 H 
ATOM     54  H   UNL     1     -48.607  25.878  27.727  1.00  0.00     0.027 H 
ATOM     55  H   UNL     1     -45.732  25.626  27.485  1.00  0.00     0.027 H 
ATOM     56  H   UNL     1     -46.554  27.184  27.228  1.00  0.00     0.027 H 
ENDBRANCH  43  46
ENDBRANCH  41  43
ENDBRANCH  38  41
ENDBRANCH   5  38
TORSDOF 7
ENDMDL
MODEL 4
REMARK VINA RESULT:      -9.4      1.618      2.285
REMARK SMILES O=C(NCc1cc2[nH]c(CNCC3CCC3)cc2cc1F)c1cc(=O)n2ccccc2n1
REMARK SMILES IDX 5 1 6 2 7 3 8 4 9 5 17 6 18 7 19 8 20 9 21 10 4 15 3 18 1 19
REMARK SMILES IDX 2 20 22 22 23 23 32 24 24 25 31 27 25 28 26 29 30 30 27 31
REMARK SMILES IDX 29 32 28 34 10 38 11 41 12 43 13 46 14 47 16 48 15 50
REMARK H PARENT 6 11 8 12 17 13 19 14 4 16 4 17 3 21 23 26 30 33 27 35 29 36
REMARK H PARENT 28 37 10 39 10 40 11 42 12 44 12 45 13 49 14 51 14 52 16 53
REMARK H PARENT 16 54 15 55 15 56
REMARK Flexibility Score: inf
ROOT
ATOM      1  C   UNL     1     -45.688  37.686  28.476  1.00  0.00     0.009 A 
ATOM      2  C   UNL     1     -45.155  36.456  28.051  1.00  0.00    -0.030 A 
ATOM      3  C   UNL     1     -46.008  35.560  27.395  1.00  0.00     0.046 A 
ATOM      4  N   UNL     1     -45.757  34.310  26.881  1.00  0.00    -0.357 N 
ATOM      5  C   UNL     1     -46.896  33.776  26.327  1.00  0.00     0.030 A 
ATOM      6  C   UNL     1     -47.900  34.711  26.477  1.00  0.00    -0.032 A 
ATOM      7  C   UNL     1     -47.353  35.839  27.151  1.00  0.00     0.003 A 
ATOM      8  C   UNL     1     -47.877  37.071  27.578  1.00  0.00    -0.017 A 
ATOM      9  C   UNL     1     -47.033  37.971  28.234  1.00  0.00     0.128 A 
ATOM     10  F   UNL     1     -47.549  39.140  28.640  1.00  0.00    -0.207 F 
ATOM     11  H   UNL     1     -44.112  36.208  28.231  1.00  0.00     0.065 H 
ATOM     12  H   UNL     1     -44.875  33.818  26.931  1.00  0.00     0.166 HD
ATOM     13  H   UNL     1     -48.922  34.598  26.141  1.00  0.00     0.065 H 
ATOM     14  H   UNL     1     -48.916  37.329  27.410  1.00  0.00     0.066 H 
ENDROOT
BRANCH   1  15
ATOM     15  C   UNL     1     -44.812  38.677  29.190  1.00  0.00     0.046 C 
ATOM     16  H   UNL     1     -43.816  38.266  29.392  1.00  0.00     0.054 H 
ATOM     17  H   UNL     1     -45.253  38.933  30.162  1.00  0.00     0.054 H 
BRANCH  15  18
ATOM     18  N   UNL     1     -44.636  39.874  28.408  1.00  0.00    -0.347 N 
ATOM     19  O   UNL     1     -42.595  40.442  29.296  1.00  0.00    -0.268 OA
ATOM     20  C   UNL     1     -43.487  40.621  28.476  1.00  0.00     0.270 C 
ATOM     21  H   UNL     1     -45.227  40.037  27.598  1.00  0.00     0.164 HD
BRANCH  20  22
ATOM     22  C   UNL     1     -43.430  41.688  27.410  1.00  0.00     0.136 A 
ATOM     23  C   UNL     1     -42.227  41.952  26.895  1.00  0.00     0.035 A 
ATOM     24  N   UNL     1     -44.599  42.312  27.036  1.00  0.00    -0.225 NA
ATOM     25  C   UNL     1     -42.126  42.983  25.855  1.00  0.00     0.258 A 
ATOM     26  H   UNL     1     -41.315  41.453  27.197  1.00  0.00     0.071 H 
ATOM     27  C   UNL     1     -44.505  43.221  26.115  1.00  0.00     0.140 A 
ATOM     28  O   UNL     1     -41.021  43.236  25.378  1.00  0.00    -0.269 OA
ATOM     29  N   UNL     1     -43.318  43.597  25.495  1.00  0.00    -0.268 N 
ATOM     30  C   UNL     1     -45.746  43.923  25.678  1.00  0.00    -0.019 A 
ATOM     31  C   UNL     1     -43.304  44.583  24.515  1.00  0.00     0.014 A 
ATOM     32  C   UNL     1     -45.681  44.866  24.730  1.00  0.00    -0.057 A 
ATOM     33  H   UNL     1     -46.675  43.639  26.154  1.00  0.00     0.066 H 
ATOM     34  C   UNL     1     -44.421  45.210  24.128  1.00  0.00    -0.045 A 
ATOM     35  H   UNL     1     -42.339  44.826  24.074  1.00  0.00     0.082 H 
ATOM     36  H   UNL     1     -46.573  45.388  24.398  1.00  0.00     0.062 H 
ATOM     37  H   UNL     1     -44.398  45.977  23.362  1.00  0.00     0.064 H 
ENDBRANCH  20  22
ENDBRANCH  15  18
ENDBRANCH   1  15
BRANCH   5  38
ATOM     38  C   UNL     1     -46.894  32.430  25.694  1.00  0.00     0.036 C 
ATOM     39  H   UNL     1     -46.189  31.754  26.189  1.00  0.00     0.049 H 
ATOM     40  H   UNL     1     -47.887  31.991  25.848  1.00  0.00     0.049 H 
BRANCH  38  41
ATOM     41  N   UNL     1     -46.656  32.501  24.254  1.00  0.00    -0.311 NA
ATOM     42  H   UNL     1     -47.462  32.943  23.813  1.00  0.00     0.123 HD
BRANCH  41  43
ATOM     43  C   UNL     1     -46.411  31.207  23.605  1.00  0.00    -0.002 C 
ATOM     44  H   UNL     1     -45.536  30.702  24.028  1.00  0.00     0.043 H 
ATOM     45  H   UNL     1     -46.142  31.440  22.567  1.00  0.00     0.043 H 
BRANCH  43  46
ATOM     46  C   UNL     1     -47.640  30.293  23.589  1.00  0.00    -0.029 C 
ATOM     47  C   UNL     1     -48.823  30.823  22.730  1.00  0.00    -0.049 C 
ATOM     48  C   UNL     1     -47.621  29.066  22.633  1.00  0.00    -0.049 C 
ATOM     49  H   UNL     1     -47.964  30.047  24.609  1.00  0.00     0.032 H 
ATOM     50  C   UNL     1     -48.317  29.941  21.576  1.00  0.00    -0.053 C 
ATOM     51  H   UNL     1     -48.843  31.898  22.529  1.00  0.00     0.027 H 
ATOM     52  H   UNL     1     -49.806  30.522  23.110  1.00  0.00     0.027 H 
ATOM     53  H   UNL     1     -48.238  28.231  22.986  1.00  0.00     0.027 H 
ATOM     54  H   UNL     1     -46.646  28.677  22.334  1.00  0.00     0.027 H 
ATOM     55  H   UNL     1     -49.089  29.446  20.983  1.00  0.00     0.027 H 
ATOM     56  H   UNL     1     -47.623  30.454  20.900  1.00  0.00     0.027 H 
ENDBRANCH  43  46
ENDBRANCH  41  43
ENDBRANCH  38  41
ENDBRANCH   5  38
TORSDOF 7
ENDMDL
MODEL 5
REMARK VINA RESULT:      -9.4      4.249     11.650
REMARK SMILES O=C(NCc1cc2[nH]c(CNCC3CCC3)cc2cc1F)c1cc(=O)n2ccccc2n1
REMARK SMILES IDX 5 1 6 2 7 3 8 4 9 5 17 6 18 7 19 8 20 9 21 10 4 15 3 18 1 19
REMARK SMILES IDX 2 20 22 22 23 23 32 24 24 25 31 27 25 28 26 29 30 30 27 31
REMARK SMILES IDX 29 32 28 34 10 38 11 41 12 43 13 46 14 47 16 48 15 50
REMARK H PARENT 6 11 8 12 17 13 19 14 4 16 4 17 3 21 23 26 30 33 27 35 29 36
REMARK H PARENT 28 37 10 39 10 40 11 42 12 44 12 45 13 49 14 51 14 52 16 53
REMARK H PARENT 16 54 15 55 15 56
REMARK Flexibility Score: inf
ROOT
ATOM      1  C   UNL     1     -46.957  33.646  25.624  1.00  0.00     0.009 A 
ATOM      2  C   UNL     1     -45.945  34.456  26.169  1.00  0.00    -0.030 A 
ATOM      3  C   UNL     1     -46.320  35.454  27.077  1.00  0.00     0.046 A 
ATOM      4  N   UNL     1     -45.552  36.373  27.753  1.00  0.00    -0.357 N 
ATOM      5  C   UNL     1     -46.340  37.178  28.540  1.00  0.00     0.030 A 
ATOM      6  C   UNL     1     -47.644  36.758  28.376  1.00  0.00    -0.032 A 
ATOM      7  C   UNL     1     -47.644  35.674  27.455  1.00  0.00     0.003 A 
ATOM      8  C   UNL     1     -48.649  34.859  26.904  1.00  0.00    -0.017 A 
ATOM      9  C   UNL     1     -48.285  33.860  25.998  1.00  0.00     0.128 A 
ATOM     10  F   UNL     1     -49.255  33.094  25.478  1.00  0.00    -0.207 F 
ATOM     11  H   UNL     1     -44.905  34.311  25.892  1.00  0.00     0.065 H 
ATOM     12  H   UNL     1     -44.551  36.483  27.664  1.00  0.00     0.166 HD
ATOM     13  H   UNL     1     -48.510  37.186  28.864  1.00  0.00     0.065 H 
ATOM     14  H   UNL     1     -49.691  34.994  27.169  1.00  0.00     0.066 H 
ENDROOT
BRANCH   1  15
ATOM     15  C   UNL     1     -46.605  32.565  24.640  1.00  0.00     0.046 C 
ATOM     16  H   UNL     1     -45.532  32.336  24.657  1.00  0.00     0.054 H 
ATOM     17  H   UNL     1     -46.843  32.894  23.621  1.00  0.00     0.054 H 
BRANCH  15  18
ATOM     18  N   UNL     1     -47.312  31.344  24.932  1.00  0.00    -0.347 N 
ATOM     19  O   UNL     1     -48.157  31.046  22.817  1.00  0.00    -0.268 OA
ATOM     20  C   UNL     1     -47.973  30.639  23.958  1.00  0.00     0.270 C 
ATOM     21  H   UNL     1     -47.109  30.838  25.789  1.00  0.00     0.164 HD
BRANCH  20  22
ATOM     22  C   UNL     1     -48.440  29.288  24.441  1.00  0.00     0.136 A 
ATOM     23  C   UNL     1     -49.755  29.061  24.398  1.00  0.00     0.035 A 
ATOM     24  N   UNL     1     -47.502  28.384  24.886  1.00  0.00    -0.225 NA
ATOM     25  C   UNL     1     -50.252  27.759  24.858  1.00  0.00     0.258 A 
ATOM     26  H   UNL     1     -50.483  29.780  24.044  1.00  0.00     0.071 H 
ATOM     27  C   UNL     1     -47.945  27.234  25.290  1.00  0.00     0.140 A 
ATOM     28  O   UNL     1     -51.463  27.543  24.826  1.00  0.00    -0.269 OA
ATOM     29  N   UNL     1     -49.287  26.866  25.301  1.00  0.00    -0.268 N 
ATOM     30  C   UNL     1     -46.965  26.223  25.781  1.00  0.00    -0.019 A 
ATOM     31  C   UNL     1     -49.681  25.611  25.752  1.00  0.00     0.014 A 
ATOM     32  C   UNL     1     -47.393  25.028  26.204  1.00  0.00    -0.057 A 
ATOM     33  H   UNL     1     -45.918  26.499  25.776  1.00  0.00     0.066 H 
ATOM     34  C   UNL     1     -48.795  24.708  26.191  1.00  0.00    -0.045 A 
ATOM     35  H   UNL     1     -50.746  25.392  25.733  1.00  0.00     0.082 H 
ATOM     36  H   UNL     1     -46.694  24.279  26.564  1.00  0.00     0.062 H 
ATOM     37  H   UNL     1     -49.114  23.732  26.540  1.00  0.00     0.064 H 
ENDBRANCH  20  22
ENDBRANCH  15  18
ENDBRANCH   1  15
BRANCH   5  38
ATOM     38  C   UNL     1     -45.753  38.255  29.382  1.00  0.00     0.036 C 
ATOM     39  H   UNL     1     -46.088  38.179  30.422  1.00  0.00     0.049 H 
ATOM     40  H   UNL     1     -44.667  38.101  29.405  1.00  0.00     0.049 H 
BRANCH  38  41
ATOM     41  N   UNL     1     -46.004  39.583  28.828  1.00  0.00    -0.311 NA
ATOM     42  H   UNL     1     -46.975  39.833  29.011  1.00  0.00     0.123 HD
BRANCH  41  43
ATOM     43  C   UNL     1     -45.747  39.709  27.387  1.00  0.00    -0.002 C 
ATOM     44  H   UNL     1     -46.392  40.465  26.926  1.00  0.00     0.043 H 
ATOM     45  H   UNL     1     -46.053  38.753  26.945  1.00  0.00     0.043 H 
BRANCH  43  46
ATOM     46  C   UNL     1     -44.271  39.942  27.052  1.00  0.00    -0.029 C 
ATOM     47  C   UNL     1     -44.021  41.048  25.988  1.00  0.00    -0.049 C 
ATOM     48  C   UNL     1     -43.436  40.825  28.025  1.00  0.00    -0.049 C 
ATOM     49  H   UNL     1     -43.772  39.003  26.779  1.00  0.00     0.032 H 
ATOM     50  C   UNL     1     -43.780  42.037  27.142  1.00  0.00    -0.053 C 
ATOM     51  H   UNL     1     -44.856  41.292  25.325  1.00  0.00     0.027 H 
ATOM     52  H   UNL     1     -43.130  40.869  25.375  1.00  0.00     0.027 H 
ATOM     53  H   UNL     1     -42.369  40.575  28.031  1.00  0.00     0.027 H 
ATOM     54  H   UNL     1     -43.783  40.899  29.058  1.00  0.00     0.027 H 
ATOM     55  H   UNL     1     -42.973  42.757  26.989  1.00  0.00     0.027 H 
ATOM     56  H   UNL     1     -44.681  42.575  27.459  1.00  0.00     0.027 H 
ENDBRANCH  43  46
ENDBRANCH  41  43
ENDBRANCH  38  41
ENDBRANCH   5  38
TORSDOF 7
ENDMDL
MODEL 6
REMARK VINA RESULT:      -9.4      4.090      7.010
REMARK SMILES O=C(NCc1cc2[nH]c(CNCC3CCC3)cc2cc1F)c1cc(=O)n2ccccc2n1
REMARK SMILES IDX 5 1 6 2 7 3 8 4 9 5 17 6 18 7 19 8 20 9 21 10 4 15 3 18 1 19
REMARK SMILES IDX 2 20 22 22 23 23 32 24 24 25 31 27 25 28 26 29 30 30 27 31
REMARK SMILES IDX 29 32 28 34 10 38 11 41 12 43 13 46 14 47 16 48 15 50
REMARK H PARENT 6 11 8 12 17 13 19 14 4 16 4 17 3 21 23 26 30 33 27 35 29 36
REMARK H PARENT 28 37 10 39 10 40 11 42 12 44 12 45 13 49 14 51 14 52 16 53
REMARK H PARENT 16 54 15 55 15 56
REMARK Flexibility Score: inf
ROOT
ATOM      1  C   UNL     1     -47.012  31.090  23.637  1.00  0.00     0.009 A 
ATOM      2  C   UNL     1     -47.833  30.587  24.662  1.00  0.00    -0.030 A 
ATOM      3  C   UNL     1     -48.706  29.537  24.351  1.00  0.00     0.046 A 
ATOM      4  N   UNL     1     -49.604  28.865  25.145  1.00  0.00    -0.357 N 
ATOM      5  C   UNL     1     -50.269  27.905  24.420  1.00  0.00     0.030 A 
ATOM      6  C   UNL     1     -49.776  27.953  23.132  1.00  0.00    -0.032 A 
ATOM      7  C   UNL     1     -48.792  28.980  23.076  1.00  0.00     0.003 A 
ATOM      8  C   UNL     1     -47.968  29.488  22.057  1.00  0.00    -0.017 A 
ATOM      9  C   UNL     1     -47.094  30.535  22.359  1.00  0.00     0.128 A 
ATOM     10  F   UNL     1     -46.317  31.014  21.376  1.00  0.00    -0.207 F 
ATOM     11  H   UNL     1     -47.791  31.004  25.665  1.00  0.00     0.065 H 
ATOM     12  H   UNL     1     -49.794  29.062  26.119  1.00  0.00     0.166 HD
ATOM     13  H   UNL     1     -50.090  27.320  22.312  1.00  0.00     0.065 H 
ATOM     14  H   UNL     1     -48.002  29.085  21.052  1.00  0.00     0.066 H 
ENDROOT
BRANCH   1  15
ATOM     15  C   UNL     1     -46.063  32.221  23.922  1.00  0.00     0.046 C 
ATOM     16  H   UNL     1     -45.672  32.664  22.998  1.00  0.00     0.054 H 
ATOM     17  H   UNL     1     -45.199  31.850  24.487  1.00  0.00     0.054 H 
BRANCH  15  18
ATOM     18  N   UNL     1     -46.713  33.270  24.664  1.00  0.00    -0.347 N 
ATOM     19  O   UNL     1     -45.978  32.592  26.732  1.00  0.00    -0.268 OA
ATOM     20  C   UNL     1     -46.545  33.411  26.019  1.00  0.00     0.270 C 
ATOM     21  H   UNL     1     -47.077  34.082  24.173  1.00  0.00     0.164 HD
BRANCH  20  22
ATOM     22  C   UNL     1     -47.126  34.702  26.541  1.00  0.00     0.136 A 
ATOM     23  C   UNL     1     -48.440  34.712  26.775  1.00  0.00     0.035 A 
ATOM     24  N   UNL     1     -46.284  35.772  26.745  1.00  0.00    -0.225 NA
ATOM     25  C   UNL     1     -49.047  35.948  27.285  1.00  0.00     0.258 A 
ATOM     26  H   UNL     1     -49.092  33.863  26.613  1.00  0.00     0.071 H 
ATOM     27  C   UNL     1     -46.824  36.861  27.196  1.00  0.00     0.140 A 
ATOM     28  O   UNL     1     -50.257  35.968  27.500  1.00  0.00    -0.269 OA
ATOM     29  N   UNL     1     -48.177  37.011  27.482  1.00  0.00    -0.268 N 
ATOM     30  C   UNL     1     -45.949  38.046  27.432  1.00  0.00    -0.019 A 
ATOM     31  C   UNL     1     -48.677  38.215  27.964  1.00  0.00     0.014 A 
ATOM     32  C   UNL     1     -46.478  39.184  27.898  1.00  0.00    -0.057 A 
ATOM     33  H   UNL     1     -44.895  37.940  27.213  1.00  0.00     0.066 H 
ATOM     34  C   UNL     1     -47.886  39.276  28.173  1.00  0.00    -0.045 A 
ATOM     35  H   UNL     1     -49.745  38.262  28.165  1.00  0.00     0.082 H 
ATOM     36  H   UNL     1     -45.857  40.057  28.076  1.00  0.00     0.062 H 
ATOM     37  H   UNL     1     -48.288  40.210  28.550  1.00  0.00     0.064 H 
ENDBRANCH  20  22
ENDBRANCH  15  18
ENDBRANCH   1  15
BRANCH   5  38
ATOM     38  C   UNL     1     -51.294  27.029  25.048  1.00  0.00     0.036 C 
ATOM     39  H   UNL     1     -52.198  27.590  25.308  1.00  0.00     0.049 H 
ATOM     40  H   UNL     1     -51.605  26.293  24.296  1.00  0.00     0.049 H 
BRANCH  38  41
ATOM     41  N   UNL     1     -50.763  26.297  26.195  1.00  0.00    -0.311 NA
ATOM     42  H   UNL     1     -50.400  26.971  26.869  1.00  0.00     0.123 HD
BRANCH  41  43
ATOM     43  C   UNL     1     -49.703  25.332  25.874  1.00  0.00    -0.002 C 
ATOM     44  H   UNL     1     -49.406  25.394  24.821  1.00  0.00     0.043 H 
ATOM     45  H   UNL     1     -50.157  24.340  25.993  1.00  0.00     0.043 H 
BRANCH  43  46
ATOM     46  C   UNL     1     -48.495  25.423  26.810  1.00  0.00    -0.029 C 
ATOM     47  C   UNL     1     -47.170  24.879  26.204  1.00  0.00    -0.049 C 
ATOM     48  C   UNL     1     -47.767  26.793  26.925  1.00  0.00    -0.049 C 
ATOM     49  H   UNL     1     -48.711  24.960  27.782  1.00  0.00     0.032 H 
ATOM     50  C   UNL     1     -46.812  26.324  25.814  1.00  0.00    -0.053 C 
ATOM     51  H   UNL     1     -47.262  24.175  25.372  1.00  0.00     0.027 H 
ATOM     52  H   UNL     1     -46.493  24.449  26.951  1.00  0.00     0.027 H 
ATOM     53  H   UNL     1     -47.274  26.944  27.893  1.00  0.00     0.027 H 
ATOM     54  H   UNL     1     -48.343  27.689  26.684  1.00  0.00     0.027 H 
ATOM     55  H   UNL     1     -45.763  26.603  25.941  1.00  0.00     0.027 H 
ATOM     56  H   UNL     1     -47.135  26.602  24.805  1.00  0.00     0.027 H 
ENDBRANCH  43  46
ENDBRANCH  41  43
ENDBRANCH  38  41
ENDBRANCH   5  38
TORSDOF 7
ENDMDL
MODEL 7
REMARK VINA RESULT:      -9.3      2.559      3.938
REMARK SMILES O=C(NCc1cc2[nH]c(CNCC3CCC3)cc2cc1F)c1cc(=O)n2ccccc2n1
REMARK SMILES IDX 5 1 6 2 7 3 8 4 9 5 17 6 18 7 19 8 20 9 21 10 4 15 3 18 1 19
REMARK SMILES IDX 2 20 22 22 23 23 32 24 24 25 31 27 25 28 26 29 30 30 27 31
REMARK SMILES IDX 29 32 28 34 10 38 11 41 12 43 13 46 14 47 16 48 15 50
REMARK H PARENT 6 11 8 12 17 13 19 14 4 16 4 17 3 21 23 26 30 33 27 35 29 36
REMARK H PARENT 28 37 10 39 10 40 11 42 12 44 12 45 13 49 14 51 14 52 16 53
REMARK H PARENT 16 54 15 55 15 56
REMARK Flexibility Score: inf
ROOT
ATOM      1  C   UNL     1     -48.066  34.479  26.528  1.00  0.00     0.009 A 
ATOM      2  C   UNL     1     -48.838  33.357  26.176  1.00  0.00    -0.030 A 
ATOM      3  C   UNL     1     -48.268  32.410  25.315  1.00  0.00     0.046 A 
ATOM      4  N   UNL     1     -48.786  31.238  24.817  1.00  0.00    -0.357 N 
ATOM      5  C   UNL     1     -47.878  30.619  23.991  1.00  0.00     0.030 A 
ATOM      6  C   UNL     1     -46.744  31.406  23.970  1.00  0.00    -0.032 A 
ATOM      7  C   UNL     1     -46.979  32.539  24.799  1.00  0.00     0.003 A 
ATOM      8  C   UNL     1     -46.215  33.664  25.156  1.00  0.00    -0.017 A 
ATOM      9  C   UNL     1     -46.776  34.612  26.014  1.00  0.00     0.128 A 
ATOM     10  F   UNL     1     -46.037  35.683  26.342  1.00  0.00    -0.207 F 
ATOM     11  H   UNL     1     -49.846  33.231  26.559  1.00  0.00     0.065 H 
ATOM     12  H   UNL     1     -49.718  30.885  24.988  1.00  0.00     0.166 HD
ATOM     13  H   UNL     1     -45.840  31.194  23.414  1.00  0.00     0.065 H 
ATOM     14  H   UNL     1     -45.210  33.804  24.778  1.00  0.00     0.066 H 
ENDROOT
BRANCH   1  15
ATOM     15  C   UNL     1     -48.638  35.525  27.444  1.00  0.00     0.046 C 
ATOM     16  H   UNL     1     -48.756  35.147  28.466  1.00  0.00     0.054 H 
ATOM     17  H   UNL     1     -49.636  35.820  27.098  1.00  0.00     0.054 H 
BRANCH  15  18
ATOM     18  N   UNL     1     -47.785  36.684  27.506  1.00  0.00    -0.347 N 
ATOM     19  O   UNL     1     -47.140  36.389  29.692  1.00  0.00    -0.268 OA
ATOM     20  C   UNL     1     -47.037  36.974  28.620  1.00  0.00     0.270 C 
ATOM     21  H   UNL     1     -47.505  37.149  26.647  1.00  0.00     0.164 HD
BRANCH  20  22
ATOM     22  C   UNL     1     -46.053  38.092  28.378  1.00  0.00     0.136 A 
ATOM     23  C   UNL     1     -46.251  38.835  27.287  1.00  0.00     0.035 A 
ATOM     24  N   UNL     1     -45.030  38.279  29.280  1.00  0.00    -0.225 NA
ATOM     25  C   UNL     1     -45.317  39.935  27.015  1.00  0.00     0.258 A 
ATOM     26  H   UNL     1     -47.061  38.679  26.586  1.00  0.00     0.071 H 
ATOM     27  C   UNL     1     -44.207  39.252  29.036  1.00  0.00     0.140 A 
ATOM     28  O   UNL     1     -45.490  40.622  26.010  1.00  0.00    -0.269 OA
ATOM     29  N   UNL     1     -44.296  40.102  27.939  1.00  0.00    -0.268 N 
ATOM     30  C   UNL     1     -43.084  39.493  29.987  1.00  0.00    -0.019 A 
ATOM     31  C   UNL     1     -43.372  41.124  27.749  1.00  0.00     0.014 A 
ATOM     32  C   UNL     1     -42.220  40.489  29.761  1.00  0.00    -0.057 A 
ATOM     33  H   UNL     1     -43.007  38.837  30.845  1.00  0.00     0.066 H 
ATOM     34  C   UNL     1     -42.365  41.333  28.606  1.00  0.00    -0.045 A 
ATOM     35  H   UNL     1     -43.501  41.749  26.868  1.00  0.00     0.082 H 
ATOM     36  H   UNL     1     -41.396  40.680  30.442  1.00  0.00     0.062 H 
ATOM     37  H   UNL     1     -41.650  42.134  28.449  1.00  0.00     0.064 H 
ENDBRANCH  20  22
ENDBRANCH  15  18
ENDBRANCH   1  15
BRANCH   5  38
ATOM     38  C   UNL     1     -48.189  29.326  23.326  1.00  0.00     0.036 C 
ATOM     39  H   UNL     1     -49.171  28.946  23.626  1.00  0.00     0.049 H 
ATOM     40  H   UNL     1     -48.258  29.517  22.248  1.00  0.00     0.049 H 
BRANCH  38  41
ATOM     41  N   UNL     1     -47.137  28.334  23.537  1.00  0.00    -0.311 NA
ATOM     42  H   UNL     1     -47.019  27.799  22.677  1.00  0.00     0.123 HD
BRANCH  41  43
ATOM     43  C   UNL     1     -47.384  27.401  24.645  1.00  0.00    -0.002 C 
ATOM     44  H   UNL     1     -46.609  27.476  25.416  1.00  0.00     0.043 H 
ATOM     45  H   UNL     1     -47.276  26.396  24.218  1.00  0.00     0.043 H 
BRANCH  43  46
ATOM     46  C   UNL     1     -48.790  27.522  25.239  1.00  0.00    -0.029 C 
ATOM     47  C   UNL     1     -49.817  26.501  24.673  1.00  0.00    -0.049 C 
ATOM     48  C   UNL     1     -49.051  26.869  26.627  1.00  0.00    -0.049 C 
ATOM     49  H   UNL     1     -49.165  28.552  25.164  1.00  0.00     0.032 H 
ATOM     50  C   UNL     1     -49.523  25.605  25.888  1.00  0.00    -0.053 C 
ATOM     51  H   UNL     1     -49.589  26.062  23.698  1.00  0.00     0.027 H 
ATOM     52  H   UNL     1     -50.844  26.883  24.651  1.00  0.00     0.027 H 
ATOM     53  H   UNL     1     -49.844  27.365  27.199  1.00  0.00     0.027 H 
ATOM     54  H   UNL     1     -48.189  26.720  27.282  1.00  0.00     0.027 H 
ATOM     55  H   UNL     1     -50.387  25.096  26.323  1.00  0.00     0.027 H 
ATOM     56  H   UNL     1     -48.728  24.870  25.714  1.00  0.00     0.027 H 
ENDBRANCH  43  46
ENDBRANCH  41  43
ENDBRANCH  38  41
ENDBRANCH   5  38
TORSDOF 7
ENDMDL
