MODEL 1
REMARK VINA RESULT:     -11.0      0.000      0.000
REMARK SMILES O=C(NCc1ccc2cc(CNCC3(O)CCCCC3)[nH]c2c1)c1cc(=O)n2ccccc2n1
REMARK SMILES IDX 11 1 10 4 5 5 6 6 23 7 7 8 22 10 8 12 21 14 9 15 4 18 3 21
REMARK SMILES IDX 1 22 2 23 24 25 25 26 34 27 26 28 33 30 27 31 28 32 32 33
REMARK SMILES IDX 29 34 31 35 30 37 12 41 13 43 14 46 16 47 20 48 17 49 19 52
REMARK SMILES IDX 18 55 15 62
REMARK H PARENT 11 2 11 3 6 9 23 11 7 13 21 16 9 17 4 19 4 20 3 24 25 29 32 36
REMARK H PARENT 29 38 31 39 30 40 12 42 13 44 13 45 16 50 16 51 20 53 20 54
REMARK H PARENT 17 56 17 57 19 58 19 59 18 60 18 61 15 63
REMARK Flexibility Score: inf
ROOT
ATOM      1  C   UNL     1     -48.600  30.368  23.796  1.00  0.00     0.036 C 
ATOM      2  H   UNL     1     -49.050  30.675  22.844  1.00  0.00     0.049 H 
ATOM      3  H   UNL     1     -47.736  29.731  23.574  1.00  0.00     0.049 H 
ENDROOT
BRANCH   1   4
ATOM      4  C   UNL     1     -48.154  31.581  24.532  1.00  0.00     0.030 A 
ATOM      5  C   UNL     1     -47.987  35.395  27.136  1.00  0.00    -0.027 A 
ATOM      6  C   UNL     1     -46.638  35.334  26.762  1.00  0.00    -0.057 A 
ATOM      7  C   UNL     1     -48.885  34.412  26.687  1.00  0.00    -0.033 A 
ATOM      8  C   UNL     1     -46.161  34.315  25.930  1.00  0.00    -0.052 A 
ATOM      9  H   UNL     1     -45.940  36.088  27.127  1.00  0.00     0.063 H 
ATOM     10  C   UNL     1     -48.390  33.401  25.854  1.00  0.00     0.046 A 
ATOM     11  H   UNL     1     -49.932  34.434  26.974  1.00  0.00     0.065 H 
ATOM     12  C   UNL     1     -47.053  33.330  25.467  1.00  0.00    -0.000 A 
ATOM     13  H   UNL     1     -45.112  34.284  25.651  1.00  0.00     0.063 H 
ATOM     14  N   UNL     1     -49.034  32.335  25.273  1.00  0.00    -0.357 N 
ATOM     15  C   UNL     1     -46.916  32.183  24.636  1.00  0.00    -0.032 A 
ATOM     16  H   UNL     1     -50.012  32.104  25.392  1.00  0.00     0.166 HD
ATOM     17  H   UNL     1     -46.005  31.839  24.166  1.00  0.00     0.065 H 
BRANCH   5  18
ATOM     18  C   UNL     1     -48.463  36.495  28.054  1.00  0.00     0.043 C 
ATOM     19  H   UNL     1     -49.229  37.100  27.555  1.00  0.00     0.054 H 
ATOM     20  H   UNL     1     -48.920  36.071  28.953  1.00  0.00     0.054 H 
BRANCH  18  21
ATOM     21  N   UNL     1     -47.361  37.319  28.478  1.00  0.00    -0.347 N 
ATOM     22  O   UNL     1     -47.550  38.914  26.830  1.00  0.00    -0.268 OA
ATOM     23  C   UNL     1     -46.950  38.428  27.782  1.00  0.00     0.270 C 
ATOM     24  H   UNL     1     -46.709  36.961  29.170  1.00  0.00     0.164 HD
BRANCH  23  25
ATOM     25  C   UNL     1     -45.652  38.990  28.313  1.00  0.00     0.136 A 
ATOM     26  C   UNL     1     -45.156  38.408  29.406  1.00  0.00     0.035 A 
ATOM     27  N   UNL     1     -45.070  40.051  27.654  1.00  0.00    -0.225 NA
ATOM     28  C   UNL     1     -43.899  38.925  29.961  1.00  0.00     0.258 A 
ATOM     29  H   UNL     1     -45.624  37.575  29.916  1.00  0.00     0.071 H 
ATOM     30  C   UNL     1     -43.960  40.506  28.150  1.00  0.00     0.140 A 
ATOM     31  O   UNL     1     -43.433  38.392  30.966  1.00  0.00    -0.269 OA
ATOM     32  N   UNL     1     -43.335  39.995  29.282  1.00  0.00    -0.268 N 
ATOM     33  C   UNL     1     -43.296  41.656  27.473  1.00  0.00    -0.019 A 
ATOM     34  C   UNL     1     -42.144  40.540  29.749  1.00  0.00     0.014 A 
ATOM     35  C   UNL     1     -42.150  42.148  27.960  1.00  0.00    -0.057 A 
ATOM     36  H   UNL     1     -43.776  42.063  26.593  1.00  0.00     0.066 H 
ATOM     37  C   UNL     1     -41.552  41.573  29.136  1.00  0.00    -0.045 A 
ATOM     38  H   UNL     1     -41.710  40.090  30.639  1.00  0.00     0.082 H 
ATOM     39  H   UNL     1     -41.651  42.984  27.482  1.00  0.00     0.062 H 
ATOM     40  H   UNL     1     -40.622  41.991  29.508  1.00  0.00     0.064 H 
ENDBRANCH  23  25
ENDBRANCH  18  21
ENDBRANCH   5  18
ENDBRANCH   1   4
BRANCH   1  41
ATOM     41  N   UNL     1     -49.572  29.649  24.614  1.00  0.00    -0.308 NA
ATOM     42  H   UNL     1     -49.453  29.956  25.580  1.00  0.00     0.123 HD
BRANCH  41  43
ATOM     43  C   UNL     1     -49.359  28.201  24.530  1.00  0.00     0.024 C 
ATOM     44  H   UNL     1     -48.826  27.958  23.601  1.00  0.00     0.046 H 
ATOM     45  H   UNL     1     -50.328  27.686  24.461  1.00  0.00     0.046 H 
BRANCH  43  46
ATOM     46  C   UNL     1     -48.574  27.591  25.729  1.00  0.00     0.077 C 
ATOM     47  C   UNL     1     -49.398  26.544  26.517  1.00  0.00    -0.023 C 
ATOM     48  C   UNL     1     -47.212  27.032  25.264  1.00  0.00    -0.023 C 
ATOM     49  C   UNL     1     -48.998  25.110  26.191  1.00  0.00    -0.051 C 
ATOM     50  H   UNL     1     -50.471  26.679  26.330  1.00  0.00     0.030 H 
ATOM     51  H   UNL     1     -49.271  26.701  27.597  1.00  0.00     0.030 H 
ATOM     52  C   UNL     1     -46.627  26.069  26.295  1.00  0.00    -0.051 C 
ATOM     53  H   UNL     1     -47.307  26.499  24.311  1.00  0.00     0.030 H 
ATOM     54  H   UNL     1     -46.503  27.853  25.106  1.00  0.00     0.030 H 
ATOM     55  C   UNL     1     -47.524  24.847  26.503  1.00  0.00    -0.053 C 
ATOM     56  H   UNL     1     -49.185  24.904  25.130  1.00  0.00     0.027 H 
ATOM     57  H   UNL     1     -49.620  24.406  26.754  1.00  0.00     0.027 H 
ATOM     58  H   UNL     1     -46.498  26.593  27.250  1.00  0.00     0.027 H 
ATOM     59  H   UNL     1     -45.629  25.742  25.983  1.00  0.00     0.027 H 
ATOM     60  H   UNL     1     -47.174  24.019  25.875  1.00  0.00     0.027 H 
ATOM     61  H   UNL     1     -47.418  24.507  27.541  1.00  0.00     0.027 H 
BRANCH  46  62
ATOM     62  O   UNL     1     -48.291  28.673  26.639  1.00  0.00    -0.389 OA
ATOM     63  H   UNL     1     -48.128  29.473  26.112  1.00  0.00     0.211 HD
ENDBRANCH  46  62
ENDBRANCH  43  46
ENDBRANCH  41  43
ENDBRANCH   1  41
TORSDOF 8
ENDMDL
MODEL 2
REMARK VINA RESULT:     -10.7      1.492      2.119
REMARK SMILES O=C(NCc1ccc2cc(CNCC3(O)CCCCC3)[nH]c2c1)c1cc(=O)n2ccccc2n1
REMARK SMILES IDX 11 1 10 4 5 5 6 6 23 7 7 8 22 10 8 12 21 14 9 15 4 18 3 21
REMARK SMILES IDX 1 22 2 23 24 25 25 26 34 27 26 28 33 30 27 31 28 32 32 33
REMARK SMILES IDX 29 34 31 35 30 37 12 41 13 43 14 46 16 47 20 48 17 49 19 52
REMARK SMILES IDX 18 55 15 62
REMARK H PARENT 11 2 11 3 6 9 23 11 7 13 21 16 9 17 4 19 4 20 3 24 25 29 32 36
REMARK H PARENT 29 38 31 39 30 40 12 42 13 44 13 45 16 50 16 51 20 53 20 54
REMARK H PARENT 17 56 17 57 19 58 19 59 18 60 18 61 15 63
REMARK Flexibility Score: inf
ROOT
ATOM      1  C   UNL     1     -49.157  30.711  23.991  1.00  0.00     0.036 C 
ATOM      2  H   UNL     1     -49.956  30.301  24.621  1.00  0.00     0.049 H 
ATOM      3  H   UNL     1     -49.611  31.078  23.063  1.00  0.00     0.049 H 
ENDROOT
BRANCH   1   4
ATOM      4  C   UNL     1     -48.505  31.837  24.711  1.00  0.00     0.030 A 
ATOM      5  C   UNL     1     -47.659  35.538  27.347  1.00  0.00    -0.027 A 
ATOM      6  C   UNL     1     -46.358  35.306  26.882  1.00  0.00    -0.057 A 
ATOM      7  C   UNL     1     -48.709  34.693  26.947  1.00  0.00    -0.033 A 
ATOM      8  C   UNL     1     -46.077  34.250  26.007  1.00  0.00    -0.052 A 
ATOM      9  H   UNL     1     -45.543  35.952  27.208  1.00  0.00     0.063 H 
ATOM     10  C   UNL     1     -48.409  33.643  26.069  1.00  0.00     0.046 A 
ATOM     11  H   UNL     1     -49.722  34.847  27.303  1.00  0.00     0.065 H 
ATOM     12  C   UNL     1     -47.121  33.403  25.592  1.00  0.00    -0.000 A 
ATOM     13  H   UNL     1     -45.062  34.087  25.658  1.00  0.00     0.063 H 
ATOM     14  N   UNL     1     -49.226  32.685  25.519  1.00  0.00    -0.357 N 
ATOM     15  C   UNL     1     -47.194  32.266  24.739  1.00  0.00    -0.032 A 
ATOM     16  H   UNL     1     -50.217  32.584  25.700  1.00  0.00     0.166 HD
ATOM     17  H   UNL     1     -46.369  31.815  24.205  1.00  0.00     0.065 H 
BRANCH   5  18
ATOM     18  C   UNL     1     -47.923  36.671  28.308  1.00  0.00     0.043 C 
ATOM     19  H   UNL     1     -48.898  37.126  28.100  1.00  0.00     0.054 H 
ATOM     20  H   UNL     1     -47.951  36.300  29.337  1.00  0.00     0.054 H 
BRANCH  18  21
ATOM     21  N   UNL     1     -46.876  37.657  28.235  1.00  0.00    -0.347 N 
ATOM     22  O   UNL     1     -48.183  39.401  27.496  1.00  0.00    -0.268 OA
ATOM     23  C   UNL     1     -47.085  38.929  27.762  1.00  0.00     0.270 C 
ATOM     24  H   UNL     1     -45.907  37.361  28.303  1.00  0.00     0.164 HD
BRANCH  23  25
ATOM     25  C   UNL     1     -45.794  39.694  27.588  1.00  0.00     0.136 A 
ATOM     26  C   UNL     1     -45.634  40.334  26.427  1.00  0.00     0.035 A 
ATOM     27  N   UNL     1     -44.874  39.685  28.613  1.00  0.00    -0.225 NA
ATOM     28  C   UNL     1     -44.392  41.087  26.212  1.00  0.00     0.258 A 
ATOM     29  H   UNL     1     -46.364  40.333  25.628  1.00  0.00     0.071 H 
ATOM     30  C   UNL     1     -43.776  40.349  28.416  1.00  0.00     0.140 A 
ATOM     31  O   UNL     1     -44.238  41.682  25.147  1.00  0.00    -0.269 OA
ATOM     32  N   UNL     1     -43.480  41.058  27.258  1.00  0.00    -0.268 N 
ATOM     33  C   UNL     1     -42.749  40.364  29.497  1.00  0.00    -0.019 A 
ATOM     34  C   UNL     1     -42.279  41.747  27.127  1.00  0.00     0.014 A 
ATOM     35  C   UNL     1     -41.606  41.040  29.324  1.00  0.00    -0.057 A 
ATOM     36  H   UNL     1     -42.968  39.813  30.402  1.00  0.00     0.066 H 
ATOM     37  C   UNL     1     -41.361  41.757  28.100  1.00  0.00    -0.045 A 
ATOM     38  H   UNL     1     -42.115  42.280  26.193  1.00  0.00     0.082 H 
ATOM     39  H   UNL     1     -40.847  41.064  30.099  1.00  0.00     0.062 H 
ATOM     40  H   UNL     1     -40.427  42.297  27.988  1.00  0.00     0.064 H 
ENDBRANCH  23  25
ENDBRANCH  18  21
ENDBRANCH   5  18
ENDBRANCH   1   4
BRANCH   1  41
ATOM     41  N   UNL     1     -48.155  29.689  23.703  1.00  0.00    -0.308 NA
ATOM     42  H   UNL     1     -48.547  29.058  23.003  1.00  0.00     0.123 HD
BRANCH  41  43
ATOM     43  C   UNL     1     -47.816  28.931  24.911  1.00  0.00     0.024 C 
ATOM     44  H   UNL     1     -48.332  29.366  25.778  1.00  0.00     0.046 H 
ATOM     45  H   UNL     1     -46.743  29.030  25.124  1.00  0.00     0.046 H 
BRANCH  43  46
ATOM     46  C   UNL     1     -48.156  27.413  24.841  1.00  0.00     0.077 C 
ATOM     47  C   UNL     1     -46.901  26.512  24.925  1.00  0.00    -0.023 C 
ATOM     48  C   UNL     1     -49.215  27.039  25.900  1.00  0.00    -0.023 C 
ATOM     49  C   UNL     1     -46.717  25.881  26.301  1.00  0.00    -0.051 C 
ATOM     50  H   UNL     1     -46.001  27.079  24.657  1.00  0.00     0.030 H 
ATOM     51  H   UNL     1     -46.967  25.705  24.182  1.00  0.00     0.030 H 
ATOM     52  C   UNL     1     -49.248  25.532  26.143  1.00  0.00    -0.051 C 
ATOM     53  H   UNL     1     -49.013  27.536  26.856  1.00  0.00     0.030 H 
ATOM     54  H   UNL     1     -50.209  27.365  25.570  1.00  0.00     0.030 H 
ATOM     55  C   UNL     1     -47.916  25.016  26.692  1.00  0.00    -0.053 C 
ATOM     56  H   UNL     1     -46.575  26.666  27.053  1.00  0.00     0.027 H 
ATOM     57  H   UNL     1     -45.807  25.270  26.318  1.00  0.00     0.027 H 
ATOM     58  H   UNL     1     -49.478  25.016  25.202  1.00  0.00     0.027 H 
ATOM     59  H   UNL     1     -50.055  25.278  26.840  1.00  0.00     0.027 H 
ATOM     60  H   UNL     1     -47.964  24.958  27.787  1.00  0.00     0.027 H 
ATOM     61  H   UNL     1     -47.766  23.988  26.340  1.00  0.00     0.027 H 
BRANCH  46  62
ATOM     62  O   UNL     1     -48.756  27.177  23.551  1.00  0.00    -0.389 OA
ATOM     63  H   UNL     1     -49.412  27.877  23.393  1.00  0.00     0.211 HD
ENDBRANCH  46  62
ENDBRANCH  43  46
ENDBRANCH  41  43
ENDBRANCH   1  41
TORSDOF 8
ENDMDL
MODEL 3
REMARK VINA RESULT:     -10.3      2.019      2.806
REMARK SMILES O=C(NCc1ccc2cc(CNCC3(O)CCCCC3)[nH]c2c1)c1cc(=O)n2ccccc2n1
REMARK SMILES IDX 11 1 10 4 5 5 6 6 23 7 7 8 22 10 8 12 21 14 9 15 4 18 3 21
REMARK SMILES IDX 1 22 2 23 24 25 25 26 34 27 26 28 33 30 27 31 28 32 32 33
REMARK SMILES IDX 29 34 31 35 30 37 12 41 13 43 14 46 16 47 20 48 17 49 19 52
REMARK SMILES IDX 18 55 15 62
REMARK H PARENT 11 2 11 3 6 9 23 11 7 13 21 16 9 17 4 19 4 20 3 24 25 29 32 36
REMARK H PARENT 29 38 31 39 30 40 12 42 13 44 13 45 16 50 16 51 20 53 20 54
REMARK H PARENT 17 56 17 57 19 58 19 59 18 60 18 61 15 63
REMARK Flexibility Score: inf
ROOT
ATOM      1  C   UNL     1     -46.727  31.528  24.143  1.00  0.00     0.036 C 
ATOM      2  H   UNL     1     -47.301  31.927  23.298  1.00  0.00     0.049 H 
ATOM      3  H   UNL     1     -45.707  31.324  23.796  1.00  0.00     0.049 H 
ENDROOT
BRANCH   1   4
ATOM      4  C   UNL     1     -46.693  32.547  25.226  1.00  0.00     0.030 A 
ATOM      5  C   UNL     1     -47.009  36.460  27.666  1.00  0.00    -0.027 A 
ATOM      6  C   UNL     1     -46.528  35.618  28.677  1.00  0.00    -0.057 A 
ATOM      7  C   UNL     1     -47.239  35.950  26.376  1.00  0.00    -0.033 A 
ATOM      8  C   UNL     1     -46.253  34.268  28.427  1.00  0.00    -0.052 A 
ATOM      9  H   UNL     1     -46.368  36.012  29.680  1.00  0.00     0.063 H 
ATOM     10  C   UNL     1     -46.957  34.597  26.145  1.00  0.00     0.046 A 
ATOM     11  H   UNL     1     -47.623  36.581  25.582  1.00  0.00     0.065 H 
ATOM     12  C   UNL     1     -46.471  33.747  27.138  1.00  0.00    -0.000 A 
ATOM     13  H   UNL     1     -45.881  33.631  29.223  1.00  0.00     0.063 H 
ATOM     14  N   UNL     1     -47.079  33.847  25.000  1.00  0.00    -0.357 N 
ATOM     15  C   UNL     1     -46.309  32.462  26.549  1.00  0.00    -0.032 A 
ATOM     16  H   UNL     1     -47.433  34.183  24.113  1.00  0.00     0.166 HD
ATOM     17  H   UNL     1     -45.947  31.573  27.047  1.00  0.00     0.065 H 
BRANCH   5  18
ATOM     18  C   UNL     1     -47.317  37.904  27.975  1.00  0.00     0.043 C 
ATOM     19  H   UNL     1     -48.267  38.197  27.512  1.00  0.00     0.054 H 
ATOM     20  H   UNL     1     -47.425  38.050  29.054  1.00  0.00     0.054 H 
BRANCH  18  21
ATOM     21  N   UNL     1     -46.249  38.761  27.530  1.00  0.00    -0.347 N 
ATOM     22  O   UNL     1     -44.967  38.626  29.436  1.00  0.00    -0.268 OA
ATOM     23  C   UNL     1     -45.192  39.109  28.333  1.00  0.00     0.270 C 
ATOM     24  H   UNL     1     -46.377  39.323  26.694  1.00  0.00     0.164 HD
BRANCH  23  25
ATOM     25  C   UNL     1     -44.326  40.179  27.709  1.00  0.00     0.136 A 
ATOM     26  C   UNL     1     -43.241  40.542  28.397  1.00  0.00     0.035 A 
ATOM     27  N   UNL     1     -44.700  40.710  26.494  1.00  0.00    -0.225 NA
ATOM     28  C   UNL     1     -42.374  41.583  27.832  1.00  0.00     0.258 A 
ATOM     29  H   UNL     1     -42.959  40.118  29.352  1.00  0.00     0.071 H 
ATOM     30  C   UNL     1     -43.931  41.631  26.000  1.00  0.00     0.140 A 
ATOM     31  O   UNL     1     -41.371  41.921  28.457  1.00  0.00    -0.269 OA
ATOM     32  N   UNL     1     -42.774  42.103  26.609  1.00  0.00    -0.268 N 
ATOM     33  C   UNL     1     -44.298  42.237  24.688  1.00  0.00    -0.019 A 
ATOM     34  C   UNL     1     -42.003  43.094  26.011  1.00  0.00     0.014 A 
ATOM     35  C   UNL     1     -43.525  43.190  24.152  1.00  0.00    -0.057 A 
ATOM     36  H   UNL     1     -45.198  41.879  24.206  1.00  0.00     0.066 H 
ATOM     37  C   UNL     1     -42.338  43.634  24.833  1.00  0.00    -0.045 A 
ATOM     38  H   UNL     1     -41.111  43.415  26.545  1.00  0.00     0.082 H 
ATOM     39  H   UNL     1     -43.775  43.643  23.198  1.00  0.00     0.062 H 
ATOM     40  H   UNL     1     -41.729  44.407  24.375  1.00  0.00     0.064 H 
ENDBRANCH  23  25
ENDBRANCH  18  21
ENDBRANCH   5  18
ENDBRANCH   1   4
BRANCH   1  41
ATOM     41  N   UNL     1     -47.348  30.311  24.657  1.00  0.00    -0.308 NA
ATOM     42  H   UNL     1     -46.983  30.150  25.597  1.00  0.00     0.123 HD
BRANCH  41  43
ATOM     43  C   UNL     1     -47.033  29.161  23.805  1.00  0.00     0.024 C 
ATOM     44  H   UNL     1     -45.944  29.018  23.763  1.00  0.00     0.046 H 
ATOM     45  H   UNL     1     -47.346  29.366  22.772  1.00  0.00     0.046 H 
BRANCH  43  46
ATOM     46  C   UNL     1     -47.693  27.823  24.252  1.00  0.00     0.077 C 
ATOM     47  C   UNL     1     -46.661  26.697  24.499  1.00  0.00    -0.023 C 
ATOM     48  C   UNL     1     -48.615  28.047  25.471  1.00  0.00    -0.023 C 
ATOM     49  C   UNL     1     -46.387  26.459  25.980  1.00  0.00    -0.051 C 
ATOM     50  H   UNL     1     -45.719  26.917  23.981  1.00  0.00     0.030 H 
ATOM     51  H   UNL     1     -47.019  25.756  24.059  1.00  0.00     0.030 H 
ATOM     52  C   UNL     1     -48.924  26.731  26.181  1.00  0.00    -0.051 C 
ATOM     53  H   UNL     1     -48.155  28.728  26.196  1.00  0.00     0.030 H 
ATOM     54  H   UNL     1     -49.557  28.506  25.149  1.00  0.00     0.030 H 
ATOM     55  C   UNL     1     -47.659  26.075  26.737  1.00  0.00    -0.053 C 
ATOM     56  H   UNL     1     -45.958  27.364  26.428  1.00  0.00     0.027 H 
ATOM     57  H   UNL     1     -45.637  25.670  26.104  1.00  0.00     0.027 H 
ATOM     58  H   UNL     1     -49.412  26.044  25.478  1.00  0.00     0.027 H 
ATOM     59  H   UNL     1     -49.638  26.900  26.995  1.00  0.00     0.027 H 
ATOM     60  H   UNL     1     -47.535  26.346  27.793  1.00  0.00     0.027 H 
ATOM     61  H   UNL     1     -47.791  24.986  26.716  1.00  0.00     0.027 H 
BRANCH  46  62
ATOM     62  O   UNL     1     -48.537  27.388  23.167  1.00  0.00    -0.389 OA
ATOM     63  H   UNL     1     -48.030  27.472  22.341  1.00  0.00     0.211 HD
ENDBRANCH  46  62
ENDBRANCH  43  46
ENDBRANCH  41  43
ENDBRANCH   1  41
TORSDOF 8
ENDMDL
MODEL 4
REMARK VINA RESULT:     -10.2      2.278      3.536
REMARK SMILES O=C(NCc1ccc2cc(CNCC3(O)CCCCC3)[nH]c2c1)c1cc(=O)n2ccccc2n1
REMARK SMILES IDX 11 1 10 4 5 5 6 6 23 7 7 8 22 10 8 12 21 14 9 15 4 18 3 21
REMARK SMILES IDX 1 22 2 23 24 25 25 26 34 27 26 28 33 30 27 31 28 32 32 33
REMARK SMILES IDX 29 34 31 35 30 37 12 41 13 43 14 46 16 47 20 48 17 49 19 52
REMARK SMILES IDX 18 55 15 62
REMARK H PARENT 11 2 11 3 6 9 23 11 7 13 21 16 9 17 4 19 4 20 3 24 25 29 32 36
REMARK H PARENT 29 38 31 39 30 40 12 42 13 44 13 45 16 50 16 51 20 53 20 54
REMARK H PARENT 17 56 17 57 19 58 19 59 18 60 18 61 15 63
REMARK Flexibility Score: inf
ROOT
ATOM      1  C   UNL     1     -48.888  29.374  24.893  1.00  0.00     0.036 C 
ATOM      2  H   UNL     1     -48.837  28.792  25.821  1.00  0.00     0.049 H 
ATOM      3  H   UNL     1     -49.936  29.417  24.575  1.00  0.00     0.049 H 
ENDROOT
BRANCH   1   4
ATOM      4  C   UNL     1     -48.387  30.749  25.157  1.00  0.00     0.030 A 
ATOM      5  C   UNL     1     -47.929  35.119  26.593  1.00  0.00    -0.027 A 
ATOM      6  C   UNL     1     -46.721  34.997  25.894  1.00  0.00    -0.057 A 
ATOM      7  C   UNL     1     -48.814  34.029  26.661  1.00  0.00    -0.033 A 
ATOM      8  C   UNL     1     -46.376  33.807  25.243  1.00  0.00    -0.052 A 
ATOM      9  H   UNL     1     -46.029  35.838  25.858  1.00  0.00     0.063 H 
ATOM     10  C   UNL     1     -48.452  32.846  26.002  1.00  0.00     0.046 A 
ATOM     11  H   UNL     1     -49.750  34.097  27.206  1.00  0.00     0.065 H 
ATOM     12  C   UNL     1     -47.257  32.712  25.296  1.00  0.00    -0.000 A 
ATOM     13  H   UNL     1     -45.435  33.731  24.706  1.00  0.00     0.063 H 
ATOM     14  N   UNL     1     -49.117  31.648  25.899  1.00  0.00    -0.357 N 
ATOM     15  C   UNL     1     -47.228  31.390  24.770  1.00  0.00    -0.032 A 
ATOM     16  H   UNL     1     -50.006  31.431  26.331  1.00  0.00     0.166 HD
ATOM     17  H   UNL     1     -46.437  30.959  24.171  1.00  0.00     0.065 H 
BRANCH   5  18
ATOM     18  C   UNL     1     -48.259  36.408  27.304  1.00  0.00     0.043 C 
ATOM     19  H   UNL     1     -49.132  36.883  26.842  1.00  0.00     0.054 H 
ATOM     20  H   UNL     1     -48.512  36.214  28.350  1.00  0.00     0.054 H 
BRANCH  18  21
ATOM     21  N   UNL     1     -47.129  37.301  27.293  1.00  0.00    -0.347 N 
ATOM     22  O   UNL     1     -46.583  37.091  29.518  1.00  0.00    -0.268 OA
ATOM     23  C   UNL     1     -46.426  37.624  28.427  1.00  0.00     0.270 C 
ATOM     24  H   UNL     1     -46.977  37.901  26.488  1.00  0.00     0.164 HD
BRANCH  23  25
ATOM     25  C   UNL     1     -45.431  38.735  28.187  1.00  0.00     0.136 A 
ATOM     26  C   UNL     1     -45.565  39.416  27.046  1.00  0.00     0.035 A 
ATOM     27  N   UNL     1     -44.462  38.974  29.135  1.00  0.00    -0.225 NA
ATOM     28  C   UNL     1     -44.616  40.502  26.768  1.00  0.00     0.258 A 
ATOM     29  H   UNL     1     -46.330  39.218  26.307  1.00  0.00     0.071 H 
ATOM     30  C   UNL     1     -43.624  39.933  28.884  1.00  0.00     0.140 A 
ATOM     31  O   UNL     1     -44.733  41.136  25.722  1.00  0.00    -0.269 OA
ATOM     32  N   UNL     1     -43.648  40.720  27.738  1.00  0.00    -0.268 N 
ATOM     33  C   UNL     1     -42.555  40.225  29.881  1.00  0.00    -0.019 A 
ATOM     34  C   UNL     1     -42.712  41.730  27.544  1.00  0.00     0.014 A 
ATOM     35  C   UNL     1     -41.675  41.208  29.650  1.00  0.00    -0.057 A 
ATOM     36  H   UNL     1     -42.526  39.617  30.775  1.00  0.00     0.066 H 
ATOM     37  C   UNL     1     -41.755  41.988  28.443  1.00  0.00    -0.045 A 
ATOM     38  H   UNL     1     -42.791  42.306  26.625  1.00  0.00     0.082 H 
ATOM     39  H   UNL     1     -40.891  41.436  30.364  1.00  0.00     0.062 H 
ATOM     40  H   UNL     1     -41.030  42.779  28.282  1.00  0.00     0.064 H 
ENDBRANCH  23  25
ENDBRANCH  18  21
ENDBRANCH   5  18
ENDBRANCH   1   4
BRANCH   1  41
ATOM     41  N   UNL     1     -48.062  28.761  23.856  1.00  0.00    -0.308 NA
ATOM     42  H   UNL     1     -47.586  29.511  23.354  1.00  0.00     0.123 HD
BRANCH  41  43
ATOM     43  C   UNL     1     -48.883  27.988  22.920  1.00  0.00     0.024 C 
ATOM     44  H   UNL     1     -49.737  27.547  23.453  1.00  0.00     0.046 H 
ATOM     45  H   UNL     1     -48.305  27.139  22.531  1.00  0.00     0.046 H 
BRANCH  43  46
ATOM     46  C   UNL     1     -49.422  28.801  21.706  1.00  0.00     0.077 C 
ATOM     47  C   UNL     1     -50.866  29.315  21.920  1.00  0.00    -0.023 C 
ATOM     48  C   UNL     1     -48.446  29.939  21.333  1.00  0.00    -0.023 C 
ATOM     49  C   UNL     1     -50.919  30.797  22.278  1.00  0.00    -0.051 C 
ATOM     50  H   UNL     1     -51.372  28.730  22.698  1.00  0.00     0.030 H 
ATOM     51  H   UNL     1     -51.459  29.160  21.009  1.00  0.00     0.030 H 
ATOM     52  C   UNL     1     -49.128  30.989  20.459  1.00  0.00    -0.051 C 
ATOM     53  H   UNL     1     -48.057  30.437  22.228  1.00  0.00     0.030 H 
ATOM     54  H   UNL     1     -47.585  29.532  20.790  1.00  0.00     0.030 H 
ATOM     55  C   UNL     1     -50.290  31.666  21.188  1.00  0.00    -0.053 C 
ATOM     56  H   UNL     1     -50.395  30.968  23.226  1.00  0.00     0.027 H 
ATOM     57  H   UNL     1     -51.956  31.110  22.440  1.00  0.00     0.027 H 
ATOM     58  H   UNL     1     -49.501  30.515  19.543  1.00  0.00     0.027 H 
ATOM     59  H   UNL     1     -48.403  31.747  20.143  1.00  0.00     0.027 H 
ATOM     60  H   UNL     1     -49.947  32.605  21.642  1.00  0.00     0.027 H 
ATOM     61  H   UNL     1     -51.052  31.947  20.450  1.00  0.00     0.027 H 
BRANCH  46  62
ATOM     62  O   UNL     1     -49.460  27.900  20.581  1.00  0.00    -0.389 OA
ATOM     63  H   UNL     1     -48.638  27.381  20.585  1.00  0.00     0.211 HD
ENDBRANCH  46  62
ENDBRANCH  43  46
ENDBRANCH  41  43
ENDBRANCH   1  41
TORSDOF 8
ENDMDL
MODEL 5
REMARK VINA RESULT:     -10.0      2.083     11.805
REMARK SMILES O=C(NCc1ccc2cc(CNCC3(O)CCCCC3)[nH]c2c1)c1cc(=O)n2ccccc2n1
REMARK SMILES IDX 11 1 10 4 5 5 6 6 23 7 7 8 22 10 8 12 21 14 9 15 4 18 3 21
REMARK SMILES IDX 1 22 2 23 24 25 25 26 34 27 26 28 33 30 27 31 28 32 32 33
REMARK SMILES IDX 29 34 31 35 30 37 12 41 13 43 14 46 16 47 20 48 17 49 19 52
REMARK SMILES IDX 18 55 15 62
REMARK H PARENT 11 2 11 3 6 9 23 11 7 13 21 16 9 17 4 19 4 20 3 24 25 29 32 36
REMARK H PARENT 29 38 31 39 30 40 12 42 13 44 13 45 16 50 16 51 20 53 20 54
REMARK H PARENT 17 56 17 57 19 58 19 59 18 60 18 61 15 63
REMARK Flexibility Score: inf
ROOT
ATOM      1  C   UNL     1     -46.301  37.828  29.674  1.00  0.00     0.036 C 
ATOM      2  H   UNL     1     -47.187  38.203  30.200  1.00  0.00     0.049 H 
ATOM      3  H   UNL     1     -45.619  37.400  30.420  1.00  0.00     0.049 H 
ENDROOT
BRANCH   1   4
ATOM      4  C   UNL     1     -46.719  36.773  28.713  1.00  0.00     0.030 A 
ATOM      5  C   UNL     1     -46.801  33.549  25.403  1.00  0.00    -0.027 A 
ATOM      6  C   UNL     1     -48.153  33.513  25.767  1.00  0.00    -0.057 A 
ATOM      7  C   UNL     1     -45.919  34.424  26.060  1.00  0.00    -0.033 A 
ATOM      8  C   UNL     1     -48.656  34.349  26.772  1.00  0.00    -0.052 A 
ATOM      9  H   UNL     1     -48.831  32.821  25.268  1.00  0.00     0.063 H 
ATOM     10  C   UNL     1     -46.441  35.254  27.061  1.00  0.00     0.046 A 
ATOM     11  H   UNL     1     -44.866  34.460  25.801  1.00  0.00     0.065 H 
ATOM     12  C   UNL     1     -47.785  35.235  27.431  1.00  0.00    -0.000 A 
ATOM     13  H   UNL     1     -49.707  34.306  27.041  1.00  0.00     0.063 H 
ATOM     14  N   UNL     1     -45.820  36.193  27.849  1.00  0.00    -0.357 N 
ATOM     15  C   UNL     1     -47.948  36.194  28.469  1.00  0.00    -0.032 A 
ATOM     16  H   UNL     1     -44.833  36.415  27.830  1.00  0.00     0.166 HD
ATOM     17  H   UNL     1     -48.871  36.431  28.980  1.00  0.00     0.065 H 
BRANCH   5  18
ATOM     18  C   UNL     1     -46.287  32.618  24.332  1.00  0.00     0.043 C 
ATOM     19  H   UNL     1     -46.562  32.993  23.339  1.00  0.00     0.054 H 
ATOM     20  H   UNL     1     -45.194  32.563  24.365  1.00  0.00     0.054 H 
BRANCH  18  21
ATOM     21  N   UNL     1     -46.791  31.284  24.529  1.00  0.00    -0.347 N 
ATOM     22  O   UNL     1     -48.082  31.185  22.627  1.00  0.00    -0.268 OA
ATOM     23  C   UNL     1     -47.709  30.704  23.690  1.00  0.00     0.270 C 
ATOM     24  H   UNL     1     -46.662  30.832  25.429  1.00  0.00     0.164 HD
BRANCH  23  25
ATOM     25  C   UNL     1     -48.233  29.394  24.230  1.00  0.00     0.136 A 
ATOM     26  C   UNL     1     -49.560  29.253  24.264  1.00  0.00     0.035 A 
ATOM     27  N   UNL     1     -47.331  28.443  24.652  1.00  0.00    -0.225 NA
ATOM     28  C   UNL     1     -50.113  27.998  24.788  1.00  0.00     0.258 A 
ATOM     29  H   UNL     1     -50.259  30.009  23.931  1.00  0.00     0.071 H 
ATOM     30  C   UNL     1     -47.825  27.336  25.116  1.00  0.00     0.140 A 
ATOM     31  O   UNL     1     -51.335  27.858  24.819  1.00  0.00    -0.269 OA
ATOM     32  N   UNL     1     -49.184  27.058  25.208  1.00  0.00    -0.268 N 
ATOM     33  C   UNL     1     -46.886  26.278  25.588  1.00  0.00    -0.019 A 
ATOM     34  C   UNL     1     -49.633  25.844  25.718  1.00  0.00     0.014 A 
ATOM     35  C   UNL     1     -47.365  25.126  26.072  1.00  0.00    -0.057 A 
ATOM     36  H   UNL     1     -45.826  26.486  25.522  1.00  0.00     0.066 H 
ATOM     37  C   UNL     1     -48.785  24.898  26.140  1.00  0.00    -0.045 A 
ATOM     38  H   UNL     1     -50.709  25.694  25.760  1.00  0.00     0.082 H 
ATOM     39  H   UNL     1     -46.698  24.344  26.419  1.00  0.00     0.062 H 
ATOM     40  H   UNL     1     -49.146  23.955  26.535  1.00  0.00     0.064 H 
ENDBRANCH  23  25
ENDBRANCH  18  21
ENDBRANCH   5  18
ENDBRANCH   1   4
BRANCH   1  41
ATOM     41  N   UNL     1     -45.646  38.906  28.939  1.00  0.00    -0.308 NA
ATOM     42  H   UNL     1     -45.131  39.474  29.613  1.00  0.00     0.123 HD
BRANCH  41  43
ATOM     43  C   UNL     1     -46.630  39.740  28.244  1.00  0.00     0.024 C 
ATOM     44  H   UNL     1     -46.822  40.650  28.828  1.00  0.00     0.046 H 
ATOM     45  H   UNL     1     -47.592  39.213  28.189  1.00  0.00     0.046 H 
BRANCH  43  46
ATOM     46  C   UNL     1     -46.223  40.154  26.798  1.00  0.00     0.077 C 
ATOM     47  C   UNL     1     -47.135  41.257  26.211  1.00  0.00    -0.023 C 
ATOM     48  C   UNL     1     -44.729  40.538  26.738  1.00  0.00    -0.023 C 
ATOM     49  C   UNL     1     -46.485  42.636  26.235  1.00  0.00    -0.051 C 
ATOM     50  H   UNL     1     -48.092  41.291  26.745  1.00  0.00     0.030 H 
ATOM     51  H   UNL     1     -47.394  41.016  25.170  1.00  0.00     0.030 H 
ATOM     52  C   UNL     1     -44.413  41.340  25.477  1.00  0.00    -0.051 C 
ATOM     53  H   UNL     1     -44.438  41.138  27.608  1.00  0.00     0.030 H 
ATOM     54  H   UNL     1     -44.108  39.634  26.747  1.00  0.00     0.030 H 
ATOM     55  C   UNL     1     -45.180  42.662  25.438  1.00  0.00    -0.053 C 
ATOM     56  H   UNL     1     -46.284  42.933  27.271  1.00  0.00     0.027 H 
ATOM     57  H   UNL     1     -47.174  43.386  25.829  1.00  0.00     0.027 H 
ATOM     58  H   UNL     1     -44.671  40.743  24.592  1.00  0.00     0.027 H 
ATOM     59  H   UNL     1     -43.337  41.537  25.414  1.00  0.00     0.027 H 
ATOM     60  H   UNL     1     -44.547  43.470  25.828  1.00  0.00     0.027 H 
ATOM     61  H   UNL     1     -45.387  42.918  24.392  1.00  0.00     0.027 H 
BRANCH  46  62
ATOM     62  O   UNL     1     -46.387  38.988  25.967  1.00  0.00    -0.389 OA
ATOM     63  H   UNL     1     -47.147  38.483  26.303  1.00  0.00     0.211 HD
ENDBRANCH  46  62
ENDBRANCH  43  46
ENDBRANCH  41  43
ENDBRANCH   1  41
TORSDOF 8
ENDMDL
MODEL 6
REMARK VINA RESULT:      -9.9      2.080     12.156
REMARK SMILES O=C(NCc1ccc2cc(CNCC3(O)CCCCC3)[nH]c2c1)c1cc(=O)n2ccccc2n1
REMARK SMILES IDX 11 1 10 4 5 5 6 6 23 7 7 8 22 10 8 12 21 14 9 15 4 18 3 21
REMARK SMILES IDX 1 22 2 23 24 25 25 26 34 27 26 28 33 30 27 31 28 32 32 33
REMARK SMILES IDX 29 34 31 35 30 37 12 41 13 43 14 46 16 47 20 48 17 49 19 52
REMARK SMILES IDX 18 55 15 62
REMARK H PARENT 11 2 11 3 6 9 23 11 7 13 21 16 9 17 4 19 4 20 3 24 25 29 32 36
REMARK H PARENT 29 38 31 39 30 40 12 42 13 44 13 45 16 50 16 51 20 53 20 54
REMARK H PARENT 17 56 17 57 19 58 19 59 18 60 18 61 15 63
REMARK Flexibility Score: inf
ROOT
ATOM      1  C   UNL     1     -45.636  39.347  28.627  1.00  0.00     0.036 C 
ATOM      2  H   UNL     1     -46.552  39.941  28.517  1.00  0.00     0.049 H 
ATOM      3  H   UNL     1     -45.343  39.366  29.683  1.00  0.00     0.049 H 
ENDROOT
BRANCH   1   4
ATOM      4  C   UNL     1     -45.916  37.947  28.209  1.00  0.00     0.030 A 
ATOM      5  C   UNL     1     -47.904  34.096  26.604  1.00  0.00    -0.027 A 
ATOM      6  C   UNL     1     -46.660  33.559  26.963  1.00  0.00    -0.057 A 
ATOM      7  C   UNL     1     -48.160  35.464  26.796  1.00  0.00    -0.033 A 
ATOM      8  C   UNL     1     -45.660  34.360  27.528  1.00  0.00    -0.052 A 
ATOM      9  H   UNL     1     -46.458  32.502  26.797  1.00  0.00     0.063 H 
ATOM     10  C   UNL     1     -47.148  36.249  27.364  1.00  0.00     0.046 A 
ATOM     11  H   UNL     1     -49.112  35.903  26.515  1.00  0.00     0.065 H 
ATOM     12  C   UNL     1     -45.908  35.730  27.732  1.00  0.00    -0.000 A 
ATOM     13  H   UNL     1     -44.702  33.926  27.799  1.00  0.00     0.063 H 
ATOM     14  N   UNL     1     -47.127  37.590  27.665  1.00  0.00    -0.357 N 
ATOM     15  C   UNL     1     -45.142  36.806  28.262  1.00  0.00    -0.032 A 
ATOM     16  H   UNL     1     -47.879  38.243  27.487  1.00  0.00     0.166 HD
ATOM     17  H   UNL     1     -44.131  36.744  28.642  1.00  0.00     0.065 H 
BRANCH   5  18
ATOM     18  C   UNL     1     -48.951  33.209  25.977  1.00  0.00     0.043 C 
ATOM     19  H   UNL     1     -49.828  33.136  26.631  1.00  0.00     0.054 H 
ATOM     20  H   UNL     1     -49.291  33.633  25.026  1.00  0.00     0.054 H 
BRANCH  18  21
ATOM     21  N   UNL     1     -48.414  31.903  25.697  1.00  0.00    -0.347 N 
ATOM     22  O   UNL     1     -49.972  31.289  24.119  1.00  0.00    -0.268 OA
ATOM     23  C   UNL     1     -49.018  31.019  24.838  1.00  0.00     0.270 C 
ATOM     24  H   UNL     1     -47.708  31.513  26.315  1.00  0.00     0.164 HD
BRANCH  23  25
ATOM     25  C   UNL     1     -48.379  29.650  24.882  1.00  0.00     0.136 A 
ATOM     26  C   UNL     1     -47.400  29.423  24.003  1.00  0.00     0.035 A 
ATOM     27  N   UNL     1     -48.836  28.734  25.803  1.00  0.00    -0.225 NA
ATOM     28  C   UNL     1     -46.754  28.104  24.006  1.00  0.00     0.258 A 
ATOM     29  H   UNL     1     -47.050  30.151  23.283  1.00  0.00     0.071 H 
ATOM     30  C   UNL     1     -48.264  27.569  25.799  1.00  0.00     0.140 A 
ATOM     31  O   UNL     1     -45.849  27.888  23.202  1.00  0.00    -0.269 OA
ATOM     32  N   UNL     1     -47.235  27.199  24.940  1.00  0.00    -0.268 N 
ATOM     33  C   UNL     1     -48.729  26.543  26.776  1.00  0.00    -0.019 A 
ATOM     34  C   UNL     1     -46.674  25.928  25.001  1.00  0.00     0.014 A 
ATOM     35  C   UNL     1     -48.159  25.332  26.797  1.00  0.00    -0.057 A 
ATOM     36  H   UNL     1     -49.531  26.821  27.448  1.00  0.00     0.066 H 
ATOM     37  C   UNL     1     -47.095  25.012  25.881  1.00  0.00    -0.045 A 
ATOM     38  H   UNL     1     -45.873  25.708  24.300  1.00  0.00     0.082 H 
ATOM     39  H   UNL     1     -48.482  24.573  27.501  1.00  0.00     0.062 H 
ATOM     40  H   UNL     1     -46.650  24.023  25.921  1.00  0.00     0.064 H 
ENDBRANCH  23  25
ENDBRANCH  18  21
ENDBRANCH   5  18
ENDBRANCH   1   4
BRANCH   1  41
ATOM     41  N   UNL     1     -44.570  39.888  27.788  1.00  0.00    -0.308 NA
ATOM     42  H   UNL     1     -44.059  40.577  28.341  1.00  0.00     0.123 HD
BRANCH  41  43
ATOM     43  C   UNL     1     -45.120  40.530  26.591  1.00  0.00     0.024 C 
ATOM     44  H   UNL     1     -46.217  40.525  26.638  1.00  0.00     0.046 H 
ATOM     45  H   UNL     1     -44.858  39.942  25.700  1.00  0.00     0.046 H 
BRANCH  43  46
ATOM     46  C   UNL     1     -44.638  41.993  26.361  1.00  0.00     0.077 C 
ATOM     47  C   UNL     1     -43.493  42.406  27.317  1.00  0.00    -0.023 C 
ATOM     48  C   UNL     1     -44.271  42.222  24.878  1.00  0.00    -0.023 C 
ATOM     49  C   UNL     1     -42.126  42.396  26.642  1.00  0.00    -0.051 C 
ATOM     50  H   UNL     1     -43.473  41.754  28.198  1.00  0.00     0.030 H 
ATOM     51  H   UNL     1     -43.677  43.416  27.708  1.00  0.00     0.030 H 
ATOM     52  C   UNL     1     -43.410  43.472  24.707  1.00  0.00    -0.051 C 
ATOM     53  H   UNL     1     -43.721  41.368  24.469  1.00  0.00     0.030 H 
ATOM     54  H   UNL     1     -45.183  42.336  24.279  1.00  0.00     0.030 H 
ATOM     55  C   UNL     1     -42.077  43.348  25.446  1.00  0.00    -0.053 C 
ATOM     56  H   UNL     1     -41.886  41.380  26.306  1.00  0.00     0.027 H 
ATOM     57  H   UNL     1     -41.347  42.674  27.361  1.00  0.00     0.027 H 
ATOM     58  H   UNL     1     -43.957  44.345  25.086  1.00  0.00     0.027 H 
ATOM     59  H   UNL     1     -43.224  43.660  23.644  1.00  0.00     0.027 H 
ATOM     60  H   UNL     1     -41.299  43.002  24.753  1.00  0.00     0.027 H 
ATOM     61  H   UNL     1     -41.765  44.346  25.778  1.00  0.00     0.027 H 
BRANCH  46  62
ATOM     62  O   UNL     1     -45.757  42.854  26.650  1.00  0.00    -0.389 OA
ATOM     63  H   UNL     1     -46.342  42.857  25.874  1.00  0.00     0.211 HD
ENDBRANCH  46  62
ENDBRANCH  43  46
ENDBRANCH  41  43
ENDBRANCH   1  41
TORSDOF 8
ENDMDL
MODEL 7
REMARK VINA RESULT:      -9.8      2.958      4.801
REMARK SMILES O=C(NCc1ccc2cc(CNCC3(O)CCCCC3)[nH]c2c1)c1cc(=O)n2ccccc2n1
REMARK SMILES IDX 11 1 10 4 5 5 6 6 23 7 7 8 22 10 8 12 21 14 9 15 4 18 3 21
REMARK SMILES IDX 1 22 2 23 24 25 25 26 34 27 26 28 33 30 27 31 28 32 32 33
REMARK SMILES IDX 29 34 31 35 30 37 12 41 13 43 14 46 16 47 20 48 17 49 19 52
REMARK SMILES IDX 18 55 15 62
REMARK H PARENT 11 2 11 3 6 9 23 11 7 13 21 16 9 17 4 19 4 20 3 24 25 29 32 36
REMARK H PARENT 29 38 31 39 30 40 12 42 13 44 13 45 16 50 16 51 20 53 20 54
REMARK H PARENT 17 56 17 57 19 58 19 59 18 60 18 61 15 63
REMARK Flexibility Score: inf
ROOT
ATOM      1  C   UNL     1     -46.831  32.123  26.475  1.00  0.00     0.036 C 
ATOM      2  H   UNL     1     -46.017  31.615  27.005  1.00  0.00     0.049 H 
ATOM      3  H   UNL     1     -47.782  31.729  26.854  1.00  0.00     0.049 H 
ENDROOT
BRANCH   1   4
ATOM      4  C   UNL     1     -46.748  33.583  26.748  1.00  0.00     0.030 A 
ATOM      5  C   UNL     1     -45.491  37.758  28.279  1.00  0.00    -0.027 A 
ATOM      6  C   UNL     1     -46.611  38.136  27.526  1.00  0.00    -0.057 A 
ATOM      7  C   UNL     1     -45.110  36.407  28.341  1.00  0.00    -0.033 A 
ATOM      8  C   UNL     1     -47.377  37.188  26.839  1.00  0.00    -0.052 A 
ATOM      9  H   UNL     1     -46.893  39.187  27.466  1.00  0.00     0.063 H 
ATOM     10  C   UNL     1     -45.890  35.472  27.648  1.00  0.00     0.046 A 
ATOM     11  H   UNL     1     -44.240  36.093  28.908  1.00  0.00     0.065 H 
ATOM     12  C   UNL     1     -47.011  35.831  26.901  1.00  0.00    -0.000 A 
ATOM     13  H   UNL     1     -48.242  37.500  26.261  1.00  0.00     0.063 H 
ATOM     14  N   UNL     1     -45.756  34.108  27.541  1.00  0.00    -0.357 N 
ATOM     15  C   UNL     1     -47.542  34.635  26.340  1.00  0.00    -0.032 A 
ATOM     16  H   UNL     1     -45.015  33.557  27.956  1.00  0.00     0.166 HD
ATOM     17  H   UNL     1     -48.415  34.561  25.706  1.00  0.00     0.065 H 
BRANCH   5  18
ATOM     18  C   UNL     1     -44.674  38.810  28.988  1.00  0.00     0.043 C 
ATOM     19  H   UNL     1     -45.216  39.185  29.864  1.00  0.00     0.054 H 
ATOM     20  H   UNL     1     -43.732  38.383  29.349  1.00  0.00     0.054 H 
BRANCH  18  21
ATOM     21  N   UNL     1     -44.342  39.889  28.094  1.00  0.00    -0.347 N 
ATOM     22  O   UNL     1     -42.567  40.719  29.301  1.00  0.00    -0.268 OA
ATOM     23  C   UNL     1     -43.355  40.803  28.366  1.00  0.00     0.270 C 
ATOM     24  H   UNL     1     -44.993  40.142  27.358  1.00  0.00     0.164 HD
BRANCH  23  25
ATOM     25  C   UNL     1     -43.348  41.949  27.382  1.00  0.00     0.136 A 
ATOM     26  C   UNL     1     -42.215  42.144  26.703  1.00  0.00     0.035 A 
ATOM     27  N   UNL     1     -44.486  42.714  27.249  1.00  0.00    -0.225 NA
ATOM     28  C   UNL     1     -42.162  43.251  25.741  1.00  0.00     0.258 A 
ATOM     29  H   UNL     1     -41.327  41.536  26.819  1.00  0.00     0.071 H 
ATOM     30  C   UNL     1     -44.432  43.694  26.398  1.00  0.00     0.140 A 
ATOM     31  O   UNL     1     -41.123  43.435  25.109  1.00  0.00    -0.269 OA
ATOM     32  N   UNL     1     -43.319  44.008  25.627  1.00  0.00    -0.268 N 
ATOM     33  C   UNL     1     -45.639  44.551  26.222  1.00  0.00    -0.019 A 
ATOM     34  C   UNL     1     -43.344  45.075  24.735  1.00  0.00     0.014 A 
ATOM     35  C   UNL     1     -45.615  45.569  25.352  1.00  0.00    -0.057 A 
ATOM     36  H   UNL     1     -46.510  44.316  26.819  1.00  0.00     0.066 H 
ATOM     37  C   UNL     1     -44.430  45.841  24.582  1.00  0.00    -0.045 A 
ATOM     38  H   UNL     1     -42.437  45.263  24.165  1.00  0.00     0.082 H 
ATOM     39  H   UNL     1     -46.483  46.204  25.209  1.00  0.00     0.062 H 
ATOM     40  H   UNL     1     -44.439  46.671  23.883  1.00  0.00     0.064 H 
ENDBRANCH  23  25
ENDBRANCH  18  21
ENDBRANCH   5  18
ENDBRANCH   1   4
BRANCH   1  41
ATOM     41  N   UNL     1     -46.723  31.904  25.035  1.00  0.00    -0.308 NA
ATOM     42  H   UNL     1     -46.528  32.805  24.598  1.00  0.00     0.123 HD
BRANCH  41  43
ATOM     43  C   UNL     1     -47.968  31.354  24.493  1.00  0.00     0.024 C 
ATOM     44  H   UNL     1     -48.720  32.151  24.412  1.00  0.00     0.046 H 
ATOM     45  H   UNL     1     -48.387  30.619  25.194  1.00  0.00     0.046 H 
BRANCH  43  46
ATOM     46  C   UNL     1     -47.822  30.666  23.103  1.00  0.00     0.077 C 
ATOM     47  C   UNL     1     -47.411  29.178  23.211  1.00  0.00    -0.023 C 
ATOM     48  C   UNL     1     -49.101  30.859  22.259  1.00  0.00    -0.023 C 
ATOM     49  C   UNL     1     -48.578  28.224  22.985  1.00  0.00    -0.051 C 
ATOM     50  H   UNL     1     -46.951  28.974  24.185  1.00  0.00     0.030 H 
ATOM     51  H   UNL     1     -46.631  28.949  22.470  1.00  0.00     0.030 H 
ATOM     52  C   UNL     1     -49.158  29.860  21.105  1.00  0.00    -0.051 C 
ATOM     53  H   UNL     1     -50.002  30.730  22.870  1.00  0.00     0.030 H 
ATOM     54  H   UNL     1     -49.130  31.875  21.849  1.00  0.00     0.030 H 
ATOM     55  C   UNL     1     -49.210  28.416  21.606  1.00  0.00    -0.053 C 
ATOM     56  H   UNL     1     -49.340  28.382  23.758  1.00  0.00     0.027 H 
ATOM     57  H   UNL     1     -48.244  27.186  23.091  1.00  0.00     0.027 H 
ATOM     58  H   UNL     1     -48.277  29.993  20.464  1.00  0.00     0.027 H 
ATOM     59  H   UNL     1     -50.032  30.062  20.475  1.00  0.00     0.027 H 
ATOM     60  H   UNL     1     -50.252  28.074  21.646  1.00  0.00     0.027 H 
ATOM     61  H   UNL     1     -48.707  27.772  20.873  1.00  0.00     0.027 H 
BRANCH  46  62
ATOM     62  O   UNL     1     -46.758  31.346  22.408  1.00  0.00    -0.389 OA
ATOM     63  H   UNL     1     -46.200  30.673  21.982  1.00  0.00     0.211 HD
ENDBRANCH  46  62
ENDBRANCH  43  46
ENDBRANCH  41  43
ENDBRANCH   1  41
TORSDOF 8
ENDMDL
