MODEL 1
REMARK VINA RESULT:     -10.5      0.000      0.000
REMARK SMILES Nc1ncnc2c1ccn2[C@@H]1C[C@H](CCc2ccc3cc(C#Cc4ccccc4)cnc3c2)[C@@H](O)[C@H]1O
REMARK SMILES IDX 14 1 13 4 11 5 12 6 36 7 34 11 10 15 2 16 3 17 7 18 4 19
REMARK SMILES IDX 6 20 8 21 5 22 9 24 1 27 37 30 35 32 15 34 16 37 17 38 33 39
REMARK SMILES IDX 18 40 32 42 19 44 31 46 20 47 30 48 21 49 22 52 23 53 24 54
REMARK SMILES IDX 25 55 29 56 26 57 28 59 27 61
REMARK H PARENT 14 2 14 3 11 8 12 9 12 10 36 12 13 13 34 14 4 23 8 25 9 26
REMARK H PARENT 1 28 1 29 37 31 35 33 15 35 15 36 17 41 33 43 18 45 20 50
REMARK H PARENT 30 51 25 58 29 60 26 62 28 63 27 64
REMARK Flexibility Score: inf
ROOT
ATOM      1  C   UNL     1     -50.072  32.167  24.072  1.00  0.00    -0.044 C 
ATOM      2  H   UNL     1     -49.782  33.128  23.627  1.00  0.00     0.027 H 
ATOM      3  H   UNL     1     -51.153  32.067  23.908  1.00  0.00     0.027 H 
ENDROOT
BRANCH   1   4
ATOM      4  C   UNL     1     -49.327  31.038  23.350  1.00  0.00    -0.010 C 
ATOM      5  C   UNL     1     -48.031  29.004  23.400  1.00  0.00     0.064 C 
ATOM      6  C   UNL     1     -48.360  30.254  24.236  1.00  0.00    -0.024 C 
ATOM      7  C   UNL     1     -49.331  28.737  22.595  1.00  0.00     0.101 C 
ATOM      8  H   UNL     1     -47.222  29.266  22.704  1.00  0.00     0.056 H 
ATOM      9  H   UNL     1     -48.861  29.993  25.176  1.00  0.00     0.029 H 
ATOM     10  H   UNL     1     -47.458  30.827  24.472  1.00  0.00     0.029 H 
ATOM     11  C   UNL     1     -50.266  29.926  22.885  1.00  0.00     0.085 C 
ATOM     12  H   UNL     1     -49.830  27.801  22.864  1.00  0.00     0.065 H 
ATOM     13  H   UNL     1     -48.796  31.463  22.487  1.00  0.00     0.033 H 
ATOM     14  H   UNL     1     -50.976  29.668  23.681  1.00  0.00     0.063 H 
BRANCH   5  15
ATOM     15  N   UNL     1     -47.537  27.828  24.104  1.00  0.00    -0.327 N 
ATOM     16  C   UNL     1     -47.840  25.106  26.356  1.00  0.00     0.136 A 
ATOM     17  N   UNL     1     -49.125  25.200  26.747  1.00  0.00    -0.219 NA
ATOM     18  C   UNL     1     -47.334  26.045  25.446  1.00  0.00     0.061 A 
ATOM     19  C   UNL     1     -49.869  26.198  26.238  1.00  0.00     0.120 A 
ATOM     20  C   UNL     1     -48.213  27.024  24.993  1.00  0.00     0.145 A 
ATOM     21  C   UNL     1     -46.080  26.292  24.829  1.00  0.00    -0.031 A 
ATOM     22  N   UNL     1     -49.499  27.150  25.366  1.00  0.00    -0.218 NA
ATOM     23  H   UNL     1     -50.900  26.239  26.577  1.00  0.00     0.106 H 
ATOM     24  C   UNL     1     -46.222  27.410  24.038  1.00  0.00     0.007 A 
ATOM     25  H   UNL     1     -45.168  25.727  24.963  1.00  0.00     0.065 H 
ATOM     26  H   UNL     1     -45.499  27.939  23.427  1.00  0.00     0.082 H 
BRANCH  16  27
ATOM     27  N   UNL     1     -47.081  24.082  26.906  1.00  0.00    -0.383 N 
ATOM     28  H   UNL     1     -46.776  23.441  26.181  1.00  0.00     0.158 HD
ATOM     29  H   UNL     1     -47.478  23.663  27.734  1.00  0.00     0.158 HD
ENDBRANCH  16  27
ENDBRANCH   5  15
BRANCH   7  30
ATOM     30  O   UNL     1     -49.028  28.673  21.194  1.00  0.00    -0.388 OA
ATOM     31  H   UNL     1     -49.890  28.610  20.731  1.00  0.00     0.211 HD
ENDBRANCH   7  30
BRANCH  11  32
ATOM     32  O   UNL     1     -50.982  30.310  21.718  1.00  0.00    -0.390 OA
ATOM     33  H   UNL     1     -51.633  29.607  21.537  1.00  0.00     0.211 HD
ENDBRANCH  11  32
ENDBRANCH   1   4
BRANCH   1  34
ATOM     34  C   UNL     1     -49.780  32.194  25.575  1.00  0.00    -0.027 C 
ATOM     35  H   UNL     1     -50.694  32.406  26.143  1.00  0.00     0.032 H 
ATOM     36  H   UNL     1     -49.437  31.207  25.911  1.00  0.00     0.032 H 
BRANCH  34  37
ATOM     37  C   UNL     1     -48.739  33.230  25.917  1.00  0.00    -0.046 A 
ATOM     38  C   UNL     1     -47.399  33.037  25.569  1.00  0.00    -0.058 A 
ATOM     39  C   UNL     1     -49.108  34.420  26.565  1.00  0.00    -0.033 A 
ATOM     40  C   UNL     1     -46.451  34.012  25.875  1.00  0.00    -0.052 A 
ATOM     41  H   UNL     1     -47.088  32.129  25.058  1.00  0.00     0.063 H 
ATOM     42  C   UNL     1     -48.183  35.408  26.881  1.00  0.00     0.071 A 
ATOM     43  H   UNL     1     -50.148  34.589  26.834  1.00  0.00     0.065 H 
ATOM     44  C   UNL     1     -46.833  35.195  26.529  1.00  0.00     0.001 A 
ATOM     45  H   UNL     1     -45.413  33.844  25.599  1.00  0.00     0.063 H 
ATOM     46  N   UNL     1     -48.597  36.525  27.504  1.00  0.00    -0.255 NA
ATOM     47  C   UNL     1     -45.899  36.192  26.849  1.00  0.00    -0.036 A 
ATOM     48  C   UNL     1     -47.667  37.468  27.797  1.00  0.00     0.043 A 
ATOM     49  C   UNL     1     -46.321  37.349  27.494  1.00  0.00     0.044 A 
ATOM     50  H   UNL     1     -44.850  36.066  26.594  1.00  0.00     0.064 H 
ATOM     51  H   UNL     1     -48.056  38.348  28.301  1.00  0.00     0.085 H 
BRANCH  49  52
ATOM     52  C   UNL     1     -45.394  38.382  27.832  1.00  0.00    -0.060 C 
ATOM     53  C   UNL     1     -44.614  39.250  28.116  1.00  0.00    -0.062 C 
BRANCH  53  54
ATOM     54  C   UNL     1     -43.685  40.284  28.455  1.00  0.00     0.025 A 
ATOM     55  C   UNL     1     -42.844  40.134  29.561  1.00  0.00    -0.047 A 
ATOM     56  C   UNL     1     -43.617  41.445  27.681  1.00  0.00    -0.047 A 
ATOM     57  C   UNL     1     -41.938  41.145  29.892  1.00  0.00    -0.061 A 
ATOM     58  H   UNL     1     -42.890  39.235  30.170  1.00  0.00     0.064 H 
ATOM     59  C   UNL     1     -42.711  42.453  28.013  1.00  0.00    -0.061 A 
ATOM     60  H   UNL     1     -44.268  41.571  26.820  1.00  0.00     0.064 H 
ATOM     61  C   UNL     1     -41.872  42.303  29.117  1.00  0.00    -0.062 A 
ATOM     62  H   UNL     1     -41.285  41.027  30.753  1.00  0.00     0.062 H 
ATOM     63  H   UNL     1     -42.659  43.357  27.410  1.00  0.00     0.062 H 
ATOM     64  H   UNL     1     -41.167  43.089  29.375  1.00  0.00     0.062 H 
ENDBRANCH  53  54
ENDBRANCH  49  52
ENDBRANCH  34  37
ENDBRANCH   1  34
TORSDOF 9
ENDMDL
MODEL 2
REMARK VINA RESULT:     -10.2      5.468     13.656
REMARK SMILES Nc1ncnc2c1ccn2[C@@H]1C[C@H](CCc2ccc3cc(C#Cc4ccccc4)cnc3c2)[C@@H](O)[C@H]1O
REMARK SMILES IDX 14 1 13 4 11 5 12 6 36 7 34 11 10 15 2 16 3 17 7 18 4 19
REMARK SMILES IDX 6 20 8 21 5 22 9 24 1 27 37 30 35 32 15 34 16 37 17 38 33 39
REMARK SMILES IDX 18 40 32 42 19 44 31 46 20 47 30 48 21 49 22 52 23 53 24 54
REMARK SMILES IDX 25 55 29 56 26 57 28 59 27 61
REMARK H PARENT 14 2 14 3 11 8 12 9 12 10 36 12 13 13 34 14 4 23 8 25 9 26
REMARK H PARENT 1 28 1 29 37 31 35 33 15 35 15 36 17 41 33 43 18 45 20 50
REMARK H PARENT 30 51 25 58 29 60 26 62 28 63 27 64
REMARK Flexibility Score: inf
ROOT
ATOM      1  C   UNL     1     -45.092  38.860  28.175  1.00  0.00    -0.044 C 
ATOM      2  H   UNL     1     -44.759  37.827  28.009  1.00  0.00     0.027 H 
ATOM      3  H   UNL     1     -44.935  39.065  29.242  1.00  0.00     0.027 H 
ENDROOT
BRANCH   1   4
ATOM      4  C   UNL     1     -44.230  39.804  27.329  1.00  0.00    -0.010 C 
ATOM      5  C   UNL     1     -44.019  41.641  25.780  1.00  0.00     0.064 C 
ATOM      6  C   UNL     1     -44.992  40.533  26.224  1.00  0.00    -0.024 C 
ATOM      7  C   UNL     1     -43.243  42.001  27.075  1.00  0.00     0.101 C 
ATOM      8  H   UNL     1     -43.322  41.207  25.049  1.00  0.00     0.056 H 
ATOM      9  H   UNL     1     -45.918  40.949  26.637  1.00  0.00     0.029 H 
ATOM     10  H   UNL     1     -45.249  39.870  25.392  1.00  0.00     0.029 H 
ATOM     11  C   UNL     1     -43.690  40.982  28.139  1.00  0.00     0.085 C 
ATOM     12  H   UNL     1     -43.433  43.017  27.433  1.00  0.00     0.065 H 
ATOM     13  H   UNL     1     -43.395  39.231  26.904  1.00  0.00     0.033 H 
ATOM     14  H   UNL     1     -44.482  41.408  28.767  1.00  0.00     0.063 H 
BRANCH   5  15
ATOM     15  N   UNL     1     -44.578  42.802  25.102  1.00  0.00    -0.327 N 
ATOM     16  C   UNL     1     -44.465  45.520  22.826  1.00  0.00     0.136 A 
ATOM     17  N   UNL     1     -43.250  45.372  22.265  1.00  0.00    -0.219 NA
ATOM     18  C   UNL     1     -44.876  44.610  23.810  1.00  0.00     0.061 A 
ATOM     19  C   UNL     1     -42.483  44.347  22.678  1.00  0.00     0.120 A 
ATOM     20  C   UNL     1     -43.987  43.591  24.140  1.00  0.00     0.145 A 
ATOM     21  C   UNL     1     -46.026  44.441  24.625  1.00  0.00    -0.031 A 
ATOM     22  N   UNL     1     -42.766  43.418  23.605  1.00  0.00    -0.218 NA
ATOM     23  H   UNL     1     -41.512  44.261  22.201  1.00  0.00     0.106 H 
ATOM     24  C   UNL     1     -45.805  43.348  25.431  1.00  0.00     0.007 A 
ATOM     25  H   UNL     1     -46.911  45.062  24.635  1.00  0.00     0.065 H 
ATOM     26  H   UNL     1     -46.420  42.906  26.207  1.00  0.00     0.082 H 
BRANCH  16  27
ATOM     27  N   UNL     1     -45.235  46.594  22.402  1.00  0.00    -0.383 N 
ATOM     28  H   UNL     1     -45.181  46.690  21.393  1.00  0.00     0.158 HD
ATOM     29  H   UNL     1     -45.109  47.439  22.939  1.00  0.00     0.158 HD
ENDBRANCH  16  27
ENDBRANCH   5  15
BRANCH   7  30
ATOM     30  O   UNL     1     -41.832  41.888  26.840  1.00  0.00    -0.388 OA
ATOM     31  H   UNL     1     -41.396  42.421  27.539  1.00  0.00     0.211 HD
ENDBRANCH   7  30
BRANCH  11  32
ATOM     32  O   UNL     1     -42.597  40.586  28.959  1.00  0.00    -0.390 OA
ATOM     33  H   UNL     1     -42.682  39.626  29.106  1.00  0.00     0.211 HD
ENDBRANCH  11  32
ENDBRANCH   1   4
BRANCH   1  34
ATOM     34  C   UNL     1     -46.583  38.974  27.843  1.00  0.00    -0.027 C 
ATOM     35  H   UNL     1     -47.135  39.408  28.685  1.00  0.00     0.032 H 
ATOM     36  H   UNL     1     -46.730  39.659  26.999  1.00  0.00     0.032 H 
BRANCH  34  37
ATOM     37  C   UNL     1     -47.177  37.629  27.507  1.00  0.00    -0.046 A 
ATOM     38  C   UNL     1     -48.512  37.344  27.805  1.00  0.00    -0.058 A 
ATOM     39  C   UNL     1     -46.401  36.652  26.862  1.00  0.00    -0.033 A 
ATOM     40  C   UNL     1     -49.053  36.104  27.473  1.00  0.00    -0.052 A 
ATOM     41  H   UNL     1     -49.138  38.087  28.295  1.00  0.00     0.063 H 
ATOM     42  C   UNL     1     -46.915  35.407  26.519  1.00  0.00     0.071 A 
ATOM     43  H   UNL     1     -45.363  36.861  26.615  1.00  0.00     0.065 H 
ATOM     44  C   UNL     1     -48.264  35.133  26.833  1.00  0.00     0.001 A 
ATOM     45  H   UNL     1     -50.093  35.899  27.714  1.00  0.00     0.063 H 
ATOM     46  N   UNL     1     -46.123  34.511  25.905  1.00  0.00    -0.255 NA
ATOM     47  C   UNL     1     -48.783  33.875  26.487  1.00  0.00    -0.036 A 
ATOM     48  C   UNL     1     -46.659  33.307  25.585  1.00  0.00     0.043 A 
ATOM     49  C   UNL     1     -47.968  32.945  25.852  1.00  0.00     0.044 A 
ATOM     50  H   UNL     1     -49.816  33.626  26.712  1.00  0.00     0.064 H 
ATOM     51  H   UNL     1     -45.973  32.623  25.092  1.00  0.00     0.085 H 
BRANCH  49  52
ATOM     52  C   UNL     1     -48.468  31.658  25.488  1.00  0.00    -0.060 C 
ATOM     53  C   UNL     1     -48.887  30.575  25.182  1.00  0.00    -0.062 C 
BRANCH  53  54
ATOM     54  C   UNL     1     -49.387  29.285  24.817  1.00  0.00     0.025 A 
ATOM     55  C   UNL     1     -48.880  28.138  25.433  1.00  0.00    -0.047 A 
ATOM     56  C   UNL     1     -50.383  29.169  23.845  1.00  0.00    -0.047 A 
ATOM     57  C   UNL     1     -49.367  26.879  25.076  1.00  0.00    -0.061 A 
ATOM     58  H   UNL     1     -48.103  28.217  26.191  1.00  0.00     0.064 H 
ATOM     59  C   UNL     1     -50.870  27.911  23.489  1.00  0.00    -0.061 A 
ATOM     60  H   UNL     1     -50.784  30.056  23.359  1.00  0.00     0.064 H 
ATOM     61  C   UNL     1     -50.363  26.766  24.105  1.00  0.00    -0.062 A 
ATOM     62  H   UNL     1     -48.971  25.987  25.555  1.00  0.00     0.062 H 
ATOM     63  H   UNL     1     -51.645  27.822  22.732  1.00  0.00     0.062 H 
ATOM     64  H   UNL     1     -50.742  25.786  23.827  1.00  0.00     0.062 H 
ENDBRANCH  53  54
ENDBRANCH  49  52
ENDBRANCH  34  37
ENDBRANCH   1  34
TORSDOF 9
ENDMDL
MODEL 3
REMARK VINA RESULT:      -9.4      5.076     13.195
REMARK SMILES Nc1ncnc2c1ccn2[C@@H]1C[C@H](CCc2ccc3cc(C#Cc4ccccc4)cnc3c2)[C@@H](O)[C@H]1O
REMARK SMILES IDX 14 1 13 4 11 5 12 6 36 7 34 11 10 15 2 16 3 17 7 18 4 19
REMARK SMILES IDX 6 20 8 21 5 22 9 24 1 27 37 30 35 32 15 34 16 37 17 38 33 39
REMARK SMILES IDX 18 40 32 42 19 44 31 46 20 47 30 48 21 49 22 52 23 53 24 54
REMARK SMILES IDX 25 55 29 56 26 57 28 59 27 61
REMARK H PARENT 14 2 14 3 11 8 12 9 12 10 36 12 13 13 34 14 4 23 8 25 9 26
REMARK H PARENT 1 28 1 29 37 31 35 33 15 35 15 36 17 41 33 43 18 45 20 50
REMARK H PARENT 30 51 25 58 29 60 26 62 28 63 27 64
REMARK Flexibility Score: inf
ROOT
ATOM      1  C   UNL     1     -44.667  38.751  29.410  1.00  0.00    -0.044 C 
ATOM      2  H   UNL     1     -44.235  37.752  29.555  1.00  0.00     0.027 H 
ATOM      3  H   UNL     1     -44.721  39.209  30.407  1.00  0.00     0.027 H 
ENDROOT
BRANCH   1   4
ATOM      4  C   UNL     1     -43.737  39.569  28.508  1.00  0.00    -0.010 C 
ATOM      5  C   UNL     1     -43.394  41.248  26.809  1.00  0.00     0.064 C 
ATOM      6  C   UNL     1     -44.434  40.236  27.323  1.00  0.00    -0.024 C 
ATOM      7  C   UNL     1     -42.626  41.680  28.087  1.00  0.00     0.101 C 
ATOM      8  H   UNL     1     -42.706  40.715  26.138  1.00  0.00     0.056 H 
ATOM      9  H   UNL     1     -45.345  40.735  27.674  1.00  0.00     0.029 H 
ATOM     10  H   UNL     1     -44.710  39.516  26.547  1.00  0.00     0.029 H 
ATOM     11  C   UNL     1     -43.151  40.785  29.225  1.00  0.00     0.085 C 
ATOM     12  H   UNL     1     -42.769  42.733  28.351  1.00  0.00     0.065 H 
ATOM     13  H   UNL     1     -42.925  38.918  28.156  1.00  0.00     0.033 H 
ATOM     14  H   UNL     1     -43.932  41.306  29.792  1.00  0.00     0.063 H 
BRANCH   5  15
ATOM     15  N   UNL     1     -43.874  42.372  26.018  1.00  0.00    -0.327 N 
ATOM     16  C   UNL     1     -46.385  44.539  24.763  1.00  0.00     0.136 A 
ATOM     17  N   UNL     1     -47.489  44.089  25.388  1.00  0.00    -0.219 NA
ATOM     18  C   UNL     1     -45.158  43.905  25.007  1.00  0.00     0.061 A 
ATOM     19  C   UNL     1     -47.360  43.045  26.226  1.00  0.00     0.120 A 
ATOM     20  C   UNL     1     -45.163  42.841  25.902  1.00  0.00     0.145 A 
ATOM     21  C   UNL     1     -43.824  44.059  24.548  1.00  0.00    -0.031 A 
ATOM     22  N   UNL     1     -46.247  42.362  26.538  1.00  0.00    -0.218 NA
ATOM     23  H   UNL     1     -48.273  42.713  26.712  1.00  0.00     0.106 H 
ATOM     24  C   UNL     1     -43.063  43.086  25.156  1.00  0.00     0.007 A 
ATOM     25  H   UNL     1     -43.461  44.788  23.836  1.00  0.00     0.065 H 
ATOM     26  H   UNL     1     -42.011  42.846  25.054  1.00  0.00     0.082 H 
BRANCH  16  27
ATOM     27  N   UNL     1     -46.539  45.604  23.886  1.00  0.00    -0.383 N 
ATOM     28  H   UNL     1     -45.874  45.532  23.123  1.00  0.00     0.158 HD
ATOM     29  H   UNL     1     -46.614  46.507  24.331  1.00  0.00     0.158 HD
ENDBRANCH  16  27
ENDBRANCH   5  15
BRANCH   7  30
ATOM     30  O   UNL     1     -41.219  41.474  27.901  1.00  0.00    -0.388 OA
ATOM     31  H   UNL     1     -40.829  41.424  28.799  1.00  0.00     0.211 HD
ENDBRANCH   7  30
BRANCH  11  32
ATOM     32  O   UNL     1     -42.099  40.407  30.105  1.00  0.00    -0.390 OA
ATOM     33  H   UNL     1     -41.911  39.465  29.939  1.00  0.00     0.211 HD
ENDBRANCH  11  32
ENDBRANCH   1   4
BRANCH   1  34
ATOM     34  C   UNL     1     -46.078  38.617  28.829  1.00  0.00    -0.027 C 
ATOM     35  H   UNL     1     -46.834  38.804  29.601  1.00  0.00     0.032 H 
ATOM     36  H   UNL     1     -46.241  39.377  28.055  1.00  0.00     0.032 H 
BRANCH  34  37
ATOM     37  C   UNL     1     -46.304  37.246  28.242  1.00  0.00    -0.046 A 
ATOM     38  C   UNL     1     -45.245  36.348  28.099  1.00  0.00    -0.058 A 
ATOM     39  C   UNL     1     -47.594  36.844  27.857  1.00  0.00    -0.033 A 
ATOM     40  C   UNL     1     -45.472  35.078  27.571  1.00  0.00    -0.052 A 
ATOM     41  H   UNL     1     -44.238  36.630  28.398  1.00  0.00     0.063 H 
ATOM     42  C   UNL     1     -47.849  35.584  27.329  1.00  0.00     0.071 A 
ATOM     43  H   UNL     1     -48.431  37.529  27.970  1.00  0.00     0.065 H 
ATOM     44  C   UNL     1     -46.766  34.690  27.184  1.00  0.00     0.001 A 
ATOM     45  H   UNL     1     -44.635  34.392  27.465  1.00  0.00     0.063 H 
ATOM     46  N   UNL     1     -49.104  35.257  26.976  1.00  0.00    -0.255 NA
ATOM     47  C   UNL     1     -47.023  33.418  26.650  1.00  0.00    -0.036 A 
ATOM     48  C   UNL     1     -49.315  34.019  26.464  1.00  0.00     0.043 A 
ATOM     49  C   UNL     1     -48.319  33.074  26.283  1.00  0.00     0.044 A 
ATOM     50  H   UNL     1     -46.216  32.701  26.524  1.00  0.00     0.064 H 
ATOM     51  H   UNL     1     -50.347  33.810  26.195  1.00  0.00     0.085 H 
BRANCH  49  52
ATOM     52  C   UNL     1     -48.612  31.788  25.738  1.00  0.00    -0.060 C 
ATOM     53  C   UNL     1     -48.859  30.705  25.280  1.00  0.00    -0.062 C 
BRANCH  53  54
ATOM     54  C   UNL     1     -49.152  29.415  24.735  1.00  0.00     0.025 A 
ATOM     55  C   UNL     1     -49.047  28.276  25.536  1.00  0.00    -0.047 A 
ATOM     56  C   UNL     1     -49.545  29.293  23.400  1.00  0.00    -0.047 A 
ATOM     57  C   UNL     1     -49.333  27.017  25.003  1.00  0.00    -0.061 A 
ATOM     58  H   UNL     1     -48.741  28.360  26.577  1.00  0.00     0.064 H 
ATOM     59  C   UNL     1     -49.831  28.034  22.868  1.00  0.00    -0.061 A 
ATOM     60  H   UNL     1     -49.630  30.173  22.768  1.00  0.00     0.064 H 
ATOM     61  C   UNL     1     -49.725  26.897  23.670  1.00  0.00    -0.062 A 
ATOM     62  H   UNL     1     -49.249  26.131  25.628  1.00  0.00     0.062 H 
ATOM     63  H   UNL     1     -50.137  27.940  21.830  1.00  0.00     0.062 H 
ATOM     64  H   UNL     1     -49.948  25.917  23.255  1.00  0.00     0.062 H 
ENDBRANCH  53  54
ENDBRANCH  49  52
ENDBRANCH  34  37
ENDBRANCH   1  34
TORSDOF 9
ENDMDL
MODEL 4
REMARK VINA RESULT:      -9.0      5.208     13.597
REMARK SMILES Nc1ncnc2c1ccn2[C@@H]1C[C@H](CCc2ccc3cc(C#Cc4ccccc4)cnc3c2)[C@@H](O)[C@H]1O
REMARK SMILES IDX 14 1 13 4 11 5 12 6 36 7 34 11 10 15 2 16 3 17 7 18 4 19
REMARK SMILES IDX 6 20 8 21 5 22 9 24 1 27 37 30 35 32 15 34 16 37 17 38 33 39
REMARK SMILES IDX 18 40 32 42 19 44 31 46 20 47 30 48 21 49 22 52 23 53 24 54
REMARK SMILES IDX 25 55 29 56 26 57 28 59 27 61
REMARK H PARENT 14 2 14 3 11 8 12 9 12 10 36 12 13 13 34 14 4 23 8 25 9 26
REMARK H PARENT 1 28 1 29 37 31 35 33 15 35 15 36 17 41 33 43 18 45 20 50
REMARK H PARENT 30 51 25 58 29 60 26 62 28 63 27 64
REMARK Flexibility Score: inf
ROOT
ATOM      1  C   UNL     1     -44.938  38.896  27.555  1.00  0.00    -0.044 C 
ATOM      2  H   UNL     1     -45.063  38.378  26.594  1.00  0.00     0.027 H 
ATOM      3  H   UNL     1     -43.902  38.712  27.869  1.00  0.00     0.027 H 
ENDROOT
BRANCH   1   4
ATOM      4  C   UNL     1     -45.161  40.397  27.342  1.00  0.00    -0.010 C 
ATOM      5  C   UNL     1     -44.592  42.476  26.258  1.00  0.00     0.064 C 
ATOM      6  C   UNL     1     -43.994  41.119  26.670  1.00  0.00    -0.024 C 
ATOM      7  C   UNL     1     -46.079  42.155  25.950  1.00  0.00     0.101 C 
ATOM      8  H   UNL     1     -44.540  43.147  27.128  1.00  0.00     0.056 H 
ATOM      9  H   UNL     1     -43.665  40.541  25.798  1.00  0.00     0.029 H 
ATOM     10  H   UNL     1     -43.142  41.245  27.345  1.00  0.00     0.029 H 
ATOM     11  C   UNL     1     -46.291  40.683  26.353  1.00  0.00     0.085 C 
ATOM     12  H   UNL     1     -46.350  42.292  24.899  1.00  0.00     0.065 H 
ATOM     13  H   UNL     1     -45.389  40.860  28.311  1.00  0.00     0.033 H 
ATOM     14  H   UNL     1     -46.203  40.030  25.476  1.00  0.00     0.063 H 
BRANCH   5  15
ATOM     15  N   UNL     1     -43.929  43.214  25.192  1.00  0.00    -0.327 N 
ATOM     16  C   UNL     1     -43.855  45.437  22.430  1.00  0.00     0.136 A 
ATOM     17  N   UNL     1     -45.139  45.834  22.348  1.00  0.00    -0.219 NA
ATOM     18  C   UNL     1     -43.488  44.522  23.426  1.00  0.00     0.061 A 
ATOM     19  C   UNL     1     -46.015  45.331  23.236  1.00  0.00     0.120 A 
ATOM     20  C   UNL     1     -44.491  44.085  24.284  1.00  0.00     0.145 A 
ATOM     21  C   UNL     1     -42.290  43.867  23.815  1.00  0.00    -0.031 A 
ATOM     22  N   UNL     1     -45.782  44.455  24.228  1.00  0.00    -0.218 NA
ATOM     23  H   UNL     1     -47.039  45.677  23.138  1.00  0.00     0.106 H 
ATOM     24  C   UNL     1     -42.594  43.046  24.877  1.00  0.00     0.007 A 
ATOM     25  H   UNL     1     -41.315  43.969  23.358  1.00  0.00     0.065 H 
ATOM     26  H   UNL     1     -41.972  42.361  25.442  1.00  0.00     0.082 H 
BRANCH  16  27
ATOM     27  N   UNL     1     -42.969  45.952  21.493  1.00  0.00    -0.383 N 
ATOM     28  H   UNL     1     -42.051  45.537  21.611  1.00  0.00     0.158 HD
ATOM     29  H   UNL     1     -42.997  46.956  21.396  1.00  0.00     0.158 HD
ENDBRANCH  16  27
ENDBRANCH   5  15
BRANCH   7  30
ATOM     30  O   UNL     1     -46.930  43.010  26.726  1.00  0.00    -0.388 OA
ATOM     31  H   UNL     1     -46.337  43.541  27.298  1.00  0.00     0.211 HD
ENDBRANCH   7  30
BRANCH  11  32
ATOM     32  O   UNL     1     -47.565  40.497  26.957  1.00  0.00    -0.390 OA
ATOM     33  H   UNL     1     -48.058  41.331  26.850  1.00  0.00     0.211 HD
ENDBRANCH  11  32
ENDBRANCH   1   4
BRANCH   1  34
ATOM     34  C   UNL     1     -45.902  38.300  28.584  1.00  0.00    -0.027 C 
ATOM     35  H   UNL     1     -45.358  37.969  29.477  1.00  0.00     0.032 H 
ATOM     36  H   UNL     1     -46.609  39.066  28.926  1.00  0.00     0.032 H 
BRANCH  34  37
ATOM     37  C   UNL     1     -46.665  37.131  28.014  1.00  0.00    -0.046 A 
ATOM     38  C   UNL     1     -48.058  37.077  28.103  1.00  0.00    -0.058 A 
ATOM     39  C   UNL     1     -45.984  36.092  27.358  1.00  0.00    -0.033 A 
ATOM     40  C   UNL     1     -48.751  35.999  27.555  1.00  0.00    -0.052 A 
ATOM     41  H   UNL     1     -48.610  37.873  28.597  1.00  0.00     0.063 H 
ATOM     42  C   UNL     1     -46.651  35.007  26.802  1.00  0.00     0.071 A 
ATOM     43  H   UNL     1     -44.901  36.124  27.272  1.00  0.00     0.065 H 
ATOM     44  C   UNL     1     -48.058  34.963  26.906  1.00  0.00     0.001 A 
ATOM     45  H   UNL     1     -49.836  35.972  27.635  1.00  0.00     0.063 H 
ATOM     46  N   UNL     1     -45.945  34.041  26.188  1.00  0.00    -0.255 NA
ATOM     47  C   UNL     1     -48.731  33.867  26.346  1.00  0.00    -0.036 A 
ATOM     48  C   UNL     1     -46.629  32.997  25.658  1.00  0.00     0.043 A 
ATOM     49  C   UNL     1     -48.006  32.865  25.711  1.00  0.00     0.044 A 
ATOM     50  H   UNL     1     -49.814  33.797  26.405  1.00  0.00     0.064 H 
ATOM     51  H   UNL     1     -46.008  32.246  25.176  1.00  0.00     0.085 H 
BRANCH  49  52
ATOM     52  C   UNL     1     -48.663  31.737  25.131  1.00  0.00    -0.060 C 
ATOM     53  C   UNL     1     -49.215  30.788  24.644  1.00  0.00    -0.062 C 
BRANCH  53  54
ATOM     54  C   UNL     1     -49.872  29.658  24.063  1.00  0.00     0.025 A 
ATOM     55  C   UNL     1     -51.175  29.781  23.574  1.00  0.00    -0.047 A 
ATOM     56  C   UNL     1     -49.213  28.429  23.984  1.00  0.00    -0.047 A 
ATOM     57  C   UNL     1     -51.816  28.677  23.008  1.00  0.00    -0.061 A 
ATOM     58  H   UNL     1     -51.698  30.733  23.631  1.00  0.00     0.064 H 
ATOM     59  C   UNL     1     -49.855  27.326  23.418  1.00  0.00    -0.061 A 
ATOM     60  H   UNL     1     -48.199  28.323  24.363  1.00  0.00     0.064 H 
ATOM     61  C   UNL     1     -51.156  27.451  22.930  1.00  0.00    -0.062 A 
ATOM     62  H   UNL     1     -52.830  28.774  22.628  1.00  0.00     0.062 H 
ATOM     63  H   UNL     1     -49.341  26.371  23.358  1.00  0.00     0.062 H 
ATOM     64  H   UNL     1     -51.655  26.591  22.490  1.00  0.00     0.062 H 
ENDBRANCH  53  54
ENDBRANCH  49  52
ENDBRANCH  34  37
ENDBRANCH   1  34
TORSDOF 9
ENDMDL
MODEL 5
REMARK VINA RESULT:      -9.0      5.357     13.355
REMARK SMILES Nc1ncnc2c1ccn2[C@@H]1C[C@H](CCc2ccc3cc(C#Cc4ccccc4)cnc3c2)[C@@H](O)[C@H]1O
REMARK SMILES IDX 14 1 13 4 11 5 12 6 36 7 34 11 10 15 2 16 3 17 7 18 4 19
REMARK SMILES IDX 6 20 8 21 5 22 9 24 1 27 37 30 35 32 15 34 16 37 17 38 33 39
REMARK SMILES IDX 18 40 32 42 19 44 31 46 20 47 30 48 21 49 22 52 23 53 24 54
REMARK SMILES IDX 25 55 29 56 26 57 28 59 27 61
REMARK H PARENT 14 2 14 3 11 8 12 9 12 10 36 12 13 13 34 14 4 23 8 25 9 26
REMARK H PARENT 1 28 1 29 37 31 35 33 15 35 15 36 17 41 33 43 18 45 20 50
REMARK H PARENT 30 51 25 58 29 60 26 62 28 63 27 64
REMARK Flexibility Score: inf
ROOT
ATOM      1  C   UNL     1     -43.445  39.792  28.032  1.00  0.00    -0.044 C 
ATOM      2  H   UNL     1     -43.192  38.833  27.561  1.00  0.00     0.027 H 
ATOM      3  H   UNL     1     -42.767  39.900  28.889  1.00  0.00     0.027 H 
ENDROOT
BRANCH   1   4
ATOM      4  C   UNL     1     -43.200  40.921  27.026  1.00  0.00    -0.010 C 
ATOM      5  C   UNL     1     -44.029  42.614  25.520  1.00  0.00     0.064 C 
ATOM      6  C   UNL     1     -44.411  41.267  26.160  1.00  0.00    -0.024 C 
ATOM      7  C   UNL     1     -43.146  43.304  26.594  1.00  0.00     0.101 C 
ATOM      8  H   UNL     1     -43.419  42.406  24.630  1.00  0.00     0.056 H 
ATOM      9  H   UNL     1     -45.298  41.358  26.798  1.00  0.00     0.029 H 
ATOM     10  H   UNL     1     -44.607  40.504  25.400  1.00  0.00     0.029 H 
ATOM     11  C   UNL     1     -42.936  42.263  27.709  1.00  0.00     0.085 C 
ATOM     12  H   UNL     1     -43.593  44.210  27.015  1.00  0.00     0.065 H 
ATOM     13  H   UNL     1     -42.343  40.650  26.394  1.00  0.00     0.033 H 
ATOM     14  H   UNL     1     -43.654  42.424  28.523  1.00  0.00     0.063 H 
BRANCH   5  15
ATOM     15  N   UNL     1     -45.108  43.462  25.030  1.00  0.00    -0.327 N 
ATOM     16  C   UNL     1     -48.408  44.758  25.074  1.00  0.00     0.136 A 
ATOM     17  N   UNL     1     -48.937  44.156  26.156  1.00  0.00    -0.219 NA
ATOM     18  C   UNL     1     -47.081  44.478  24.720  1.00  0.00     0.061 A 
ATOM     19  C   UNL     1     -48.158  43.308  26.852  1.00  0.00     0.120 A 
ATOM     20  C   UNL     1     -46.384  43.588  25.530  1.00  0.00     0.145 A 
ATOM     21  C   UNL     1     -46.198  44.876  23.682  1.00  0.00    -0.031 A 
ATOM     22  N   UNL     1     -46.882  42.964  26.612  1.00  0.00    -0.218 NA
ATOM     23  H   UNL     1     -48.621  42.844  27.717  1.00  0.00     0.106 H 
ATOM     24  C   UNL     1     -45.007  44.213  23.874  1.00  0.00     0.007 A 
ATOM     25  H   UNL     1     -46.416  45.557  22.870  1.00  0.00     0.065 H 
ATOM     26  H   UNL     1     -44.094  44.218  23.291  1.00  0.00     0.082 H 
BRANCH  16  27
ATOM     27  N   UNL     1     -49.232  45.614  24.356  1.00  0.00    -0.383 N 
ATOM     28  H   UNL     1     -48.888  46.567  24.416  1.00  0.00     0.158 HD
ATOM     29  H   UNL     1     -50.219  45.484  24.521  1.00  0.00     0.158 HD
ENDBRANCH  16  27
ENDBRANCH   5  15
BRANCH   7  30
ATOM     30  O   UNL     1     -41.886  43.677  26.018  1.00  0.00    -0.388 OA
ATOM     31  H   UNL     1     -41.418  42.838  25.818  1.00  0.00     0.211 HD
ENDBRANCH   7  30
BRANCH  11  32
ATOM     32  O   UNL     1     -41.612  42.326  28.226  1.00  0.00    -0.390 OA
ATOM     33  H   UNL     1     -41.675  42.199  29.190  1.00  0.00     0.211 HD
ENDBRANCH  11  32
ENDBRANCH   1   4
BRANCH   1  34
ATOM     34  C   UNL     1     -44.894  39.750  28.525  1.00  0.00    -0.027 C 
ATOM     35  H   UNL     1     -44.930  39.686  29.619  1.00  0.00     0.032 H 
ATOM     36  H   UNL     1     -45.410  40.680  28.259  1.00  0.00     0.032 H 
BRANCH  34  37
ATOM     37  C   UNL     1     -45.642  38.577  27.941  1.00  0.00    -0.046 A 
ATOM     38  C   UNL     1     -46.724  38.778  27.081  1.00  0.00    -0.058 A 
ATOM     39  C   UNL     1     -45.240  37.263  28.233  1.00  0.00    -0.033 A 
ATOM     40  C   UNL     1     -47.394  37.684  26.534  1.00  0.00    -0.052 A 
ATOM     41  H   UNL     1     -47.049  39.785  26.830  1.00  0.00     0.063 H 
ATOM     42  C   UNL     1     -45.889  36.156  27.701  1.00  0.00     0.071 A 
ATOM     43  H   UNL     1     -44.393  37.091  28.894  1.00  0.00     0.065 H 
ATOM     44  C   UNL     1     -46.985  36.375  26.839  1.00  0.00     0.001 A 
ATOM     45  H   UNL     1     -48.235  37.859  25.868  1.00  0.00     0.063 H 
ATOM     46  N   UNL     1     -45.459  34.922  28.020  1.00  0.00    -0.255 NA
ATOM     47  C   UNL     1     -47.641  35.257  26.304  1.00  0.00    -0.036 A 
ATOM     48  C   UNL     1     -46.117  33.865  27.483  1.00  0.00     0.043 A 
ATOM     49  C   UNL     1     -47.202  33.978  26.629  1.00  0.00     0.044 A 
ATOM     50  H   UNL     1     -48.489  35.384  25.635  1.00  0.00     0.064 H 
ATOM     51  H   UNL     1     -45.729  32.893  27.775  1.00  0.00     0.085 H 
BRANCH  49  52
ATOM     52  C   UNL     1     -47.849  32.821  26.099  1.00  0.00    -0.060 C 
ATOM     53  C   UNL     1     -48.394  31.848  25.653  1.00  0.00    -0.062 C 
BRANCH  53  54
ATOM     54  C   UNL     1     -49.044  30.688  25.123  1.00  0.00     0.025 A 
ATOM     55  C   UNL     1     -50.055  30.828  24.170  1.00  0.00    -0.047 A 
ATOM     56  C   UNL     1     -48.667  29.416  25.557  1.00  0.00    -0.047 A 
ATOM     57  C   UNL     1     -50.689  29.696  23.653  1.00  0.00    -0.061 A 
ATOM     58  H   UNL     1     -50.357  31.815  23.826  1.00  0.00     0.064 H 
ATOM     59  C   UNL     1     -49.300  28.285  25.039  1.00  0.00    -0.061 A 
ATOM     60  H   UNL     1     -47.881  29.297  26.299  1.00  0.00     0.064 H 
ATOM     61  C   UNL     1     -50.311  28.425  24.087  1.00  0.00    -0.062 A 
ATOM     62  H   UNL     1     -51.477  29.806  22.912  1.00  0.00     0.062 H 
ATOM     63  H   UNL     1     -49.006  27.295  25.378  1.00  0.00     0.062 H 
ATOM     64  H   UNL     1     -50.804  27.544  23.685  1.00  0.00     0.062 H 
ENDBRANCH  53  54
ENDBRANCH  49  52
ENDBRANCH  34  37
ENDBRANCH   1  34
TORSDOF 9
ENDMDL
MODEL 6
REMARK VINA RESULT:      -8.9      4.784     12.939
REMARK SMILES Nc1ncnc2c1ccn2[C@@H]1C[C@H](CCc2ccc3cc(C#Cc4ccccc4)cnc3c2)[C@@H](O)[C@H]1O
REMARK SMILES IDX 14 1 13 4 11 5 12 6 36 7 34 11 10 15 2 16 3 17 7 18 4 19
REMARK SMILES IDX 6 20 8 21 5 22 9 24 1 27 37 30 35 32 15 34 16 37 17 38 33 39
REMARK SMILES IDX 18 40 32 42 19 44 31 46 20 47 30 48 21 49 22 52 23 53 24 54
REMARK SMILES IDX 25 55 29 56 26 57 28 59 27 61
REMARK H PARENT 14 2 14 3 11 8 12 9 12 10 36 12 13 13 34 14 4 23 8 25 9 26
REMARK H PARENT 1 28 1 29 37 31 35 33 15 35 15 36 17 41 33 43 18 45 20 50
REMARK H PARENT 30 51 25 58 29 60 26 62 28 63 27 64
REMARK Flexibility Score: inf
ROOT
ATOM      1  C   UNL     1     -45.173  38.591  28.297  1.00  0.00    -0.044 C 
ATOM      2  H   UNL     1     -44.558  37.760  27.927  1.00  0.00     0.027 H 
ATOM      3  H   UNL     1     -44.570  39.104  29.058  1.00  0.00     0.027 H 
ENDROOT
BRANCH   1   4
ATOM      4  C   UNL     1     -45.471  39.545  27.135  1.00  0.00    -0.010 C 
ATOM      5  C   UNL     1     -46.666  41.426  26.211  1.00  0.00     0.064 C 
ATOM      6  C   UNL     1     -46.779  40.322  27.278  1.00  0.00    -0.024 C 
ATOM      7  C   UNL     1     -45.146  41.732  26.145  1.00  0.00     0.101 C 
ATOM      8  H   UNL     1     -46.992  41.004  25.250  1.00  0.00     0.056 H 
ATOM      9  H   UNL     1     -46.843  40.741  28.289  1.00  0.00     0.029 H 
ATOM     10  H   UNL     1     -47.656  39.690  27.108  1.00  0.00     0.029 H 
ATOM     11  C   UNL     1     -44.460  40.688  27.046  1.00  0.00     0.085 C 
ATOM     12  H   UNL     1     -44.885  42.739  26.484  1.00  0.00     0.065 H 
ATOM     13  H   UNL     1     -45.468  38.971  26.198  1.00  0.00     0.033 H 
ATOM     14  H   UNL     1     -44.271  41.107  28.042  1.00  0.00     0.063 H 
BRANCH   5  15
ATOM     15  N   UNL     1     -47.487  42.618  26.379  1.00  0.00    -0.327 N 
ATOM     16  C   UNL     1     -50.567  44.336  26.742  1.00  0.00     0.136 A 
ATOM     17  N   UNL     1     -51.456  43.326  26.769  1.00  0.00    -0.219 NA
ATOM     18  C   UNL     1     -49.205  44.040  26.596  1.00  0.00     0.061 A 
ATOM     19  C   UNL     1     -50.990  42.069  26.656  1.00  0.00     0.120 A 
ATOM     20  C   UNL     1     -48.856  42.697  26.496  1.00  0.00     0.145 A 
ATOM     21  C   UNL     1     -48.004  44.792  26.505  1.00  0.00    -0.031 A 
ATOM     22  N   UNL     1     -49.717  41.665  26.513  1.00  0.00    -0.218 NA
ATOM     23  H   UNL     1     -51.738  41.283  26.683  1.00  0.00     0.106 H 
ATOM     24  C   UNL     1     -46.969  43.899  26.338  1.00  0.00     0.007 A 
ATOM     25  H   UNL     1     -47.907  45.869  26.539  1.00  0.00     0.065 H 
ATOM     26  H   UNL     1     -45.907  44.066  26.202  1.00  0.00     0.082 H 
BRANCH  16  27
ATOM     27  N   UNL     1     -51.068  45.627  26.840  1.00  0.00    -0.383 N 
ATOM     28  H   UNL     1     -50.663  46.102  27.640  1.00  0.00     0.158 HD
ATOM     29  H   UNL     1     -52.070  45.698  26.738  1.00  0.00     0.158 HD
ENDBRANCH  16  27
ENDBRANCH   5  15
BRANCH   7  30
ATOM     30  O   UNL     1     -44.684  41.602  24.794  1.00  0.00    -0.388 OA
ATOM     31  H   UNL     1     -43.718  41.769  24.818  1.00  0.00     0.211 HD
ENDBRANCH   7  30
BRANCH  11  32
ATOM     32  O   UNL     1     -43.233  40.247  26.476  1.00  0.00    -0.390 OA
ATOM     33  H   UNL     1     -43.458  39.665  25.727  1.00  0.00     0.211 HD
ENDBRANCH  11  32
ENDBRANCH   1   4
BRANCH   1  34
ATOM     34  C   UNL     1     -46.447  38.034  28.939  1.00  0.00    -0.027 C 
ATOM     35  H   UNL     1     -46.250  37.705  29.967  1.00  0.00     0.032 H 
ATOM     36  H   UNL     1     -47.207  38.821  29.013  1.00  0.00     0.032 H 
BRANCH  34  37
ATOM     37  C   UNL     1     -47.001  36.874  28.150  1.00  0.00    -0.046 A 
ATOM     38  C   UNL     1     -48.379  36.670  28.053  1.00  0.00    -0.058 A 
ATOM     39  C   UNL     1     -46.135  35.996  27.477  1.00  0.00    -0.033 A 
ATOM     40  C   UNL     1     -48.877  35.604  27.306  1.00  0.00    -0.052 A 
ATOM     41  H   UNL     1     -49.072  37.341  28.557  1.00  0.00     0.063 H 
ATOM     42  C   UNL     1     -46.605  34.927  26.724  1.00  0.00     0.071 A 
ATOM     43  H   UNL     1     -45.059  36.146  27.535  1.00  0.00     0.065 H 
ATOM     44  C   UNL     1     -48.000  34.731  26.642  1.00  0.00     0.001 A 
ATOM     45  H   UNL     1     -49.953  35.460  27.243  1.00  0.00     0.063 H 
ATOM     46  N   UNL     1     -45.727  34.119  26.104  1.00  0.00    -0.255 NA
ATOM     47  C   UNL     1     -48.474  33.650  25.883  1.00  0.00    -0.036 A 
ATOM     48  C   UNL     1     -46.221  33.085  25.379  1.00  0.00     0.043 A 
ATOM     49  C   UNL     1     -47.571  32.811  25.240  1.00  0.00     0.044 A 
ATOM     50  H   UNL     1     -49.542  33.466  25.795  1.00  0.00     0.064 H 
ATOM     51  H   UNL     1     -45.467  32.465  24.901  1.00  0.00     0.085 H 
BRANCH  49  52
ATOM     52  C   UNL     1     -48.023  31.704  24.460  1.00  0.00    -0.060 C 
ATOM     53  C   UNL     1     -48.404  30.773  23.803  1.00  0.00    -0.062 C 
BRANCH  53  54
ATOM     54  C   UNL     1     -48.858  29.664  23.021  1.00  0.00     0.025 A 
ATOM     55  C   UNL     1     -48.913  29.765  21.629  1.00  0.00    -0.047 A 
ATOM     56  C   UNL     1     -49.246  28.478  23.648  1.00  0.00    -0.047 A 
ATOM     57  C   UNL     1     -49.356  28.682  20.866  1.00  0.00    -0.061 A 
ATOM     58  H   UNL     1     -48.613  30.685  21.131  1.00  0.00     0.064 H 
ATOM     59  C   UNL     1     -49.689  27.396  22.885  1.00  0.00    -0.061 A 
ATOM     60  H   UNL     1     -49.208  28.390  24.731  1.00  0.00     0.064 H 
ATOM     61  C   UNL     1     -49.743  27.499  21.494  1.00  0.00    -0.062 A 
ATOM     62  H   UNL     1     -49.399  28.763  19.783  1.00  0.00     0.062 H 
ATOM     63  H   UNL     1     -49.991  26.474  23.374  1.00  0.00     0.062 H 
ATOM     64  H   UNL     1     -50.089  26.656  20.901  1.00  0.00     0.062 H 
ENDBRANCH  53  54
ENDBRANCH  49  52
ENDBRANCH  34  37
ENDBRANCH   1  34
TORSDOF 9
ENDMDL
MODEL 7
REMARK VINA RESULT:      -8.7      5.057     13.170
REMARK SMILES Nc1ncnc2c1ccn2[C@@H]1C[C@H](CCc2ccc3cc(C#Cc4ccccc4)cnc3c2)[C@@H](O)[C@H]1O
REMARK SMILES IDX 14 1 13 4 11 5 12 6 36 7 34 11 10 15 2 16 3 17 7 18 4 19
REMARK SMILES IDX 6 20 8 21 5 22 9 24 1 27 37 30 35 32 15 34 16 37 17 38 33 39
REMARK SMILES IDX 18 40 32 42 19 44 31 46 20 47 30 48 21 49 22 52 23 53 24 54
REMARK SMILES IDX 25 55 29 56 26 57 28 59 27 61
REMARK H PARENT 14 2 14 3 11 8 12 9 12 10 36 12 13 13 34 14 4 23 8 25 9 26
REMARK H PARENT 1 28 1 29 37 31 35 33 15 35 15 36 17 41 33 43 18 45 20 50
REMARK H PARENT 30 51 25 58 29 60 26 62 28 63 27 64
REMARK Flexibility Score: inf
ROOT
ATOM      1  C   UNL     1     -44.879  39.354  28.023  1.00  0.00    -0.044 C 
ATOM      2  H   UNL     1     -44.234  38.560  27.623  1.00  0.00     0.027 H 
ATOM      3  H   UNL     1     -44.308  39.834  28.830  1.00  0.00     0.027 H 
ENDROOT
BRANCH   1   4
ATOM      4  C   UNL     1     -45.168  40.368  26.912  1.00  0.00    -0.010 C 
ATOM      5  C   UNL     1     -46.457  42.202  26.021  1.00  0.00     0.064 C 
ATOM      6  C   UNL     1     -46.553  41.009  26.989  1.00  0.00    -0.024 C 
ATOM      7  C   UNL     1     -44.974  42.648  26.118  1.00  0.00     0.101 C 
ATOM      8  H   UNL     1     -46.658  41.831  25.006  1.00  0.00     0.056 H 
ATOM      9  H   UNL     1     -46.742  41.338  28.018  1.00  0.00     0.029 H 
ATOM     10  H   UNL     1     -47.347  40.316  26.694  1.00  0.00     0.029 H 
ATOM     11  C   UNL     1     -44.269  41.600  26.999  1.00  0.00     0.085 C 
ATOM     12  H   UNL     1     -44.841  43.644  26.551  1.00  0.00     0.065 H 
ATOM     13  H   UNL     1     -45.030  39.875  25.940  1.00  0.00     0.033 H 
ATOM     14  H   UNL     1     -44.206  41.953  28.036  1.00  0.00     0.063 H 
BRANCH   5  15
ATOM     15  N   UNL     1     -47.401  43.298  26.198  1.00  0.00    -0.327 N 
ATOM     16  C   UNL     1     -50.652  44.704  26.351  1.00  0.00     0.136 A 
ATOM     17  N   UNL     1     -51.439  43.625  26.181  1.00  0.00    -0.219 NA
ATOM     18  C   UNL     1     -49.260  44.541  26.340  1.00  0.00     0.061 A 
ATOM     19  C   UNL     1     -50.845  42.430  26.010  1.00  0.00     0.120 A 
ATOM     20  C   UNL     1     -48.776  43.249  26.160  1.00  0.00     0.145 A 
ATOM     21  C   UNL     1     -48.133  45.396  26.460  1.00  0.00    -0.031 A 
ATOM     22  N   UNL     1     -49.532  42.151  25.982  1.00  0.00    -0.218 NA
ATOM     23  H   UNL     1     -51.513  41.585  25.877  1.00  0.00     0.106 H 
ATOM     24  C   UNL     1     -47.006  44.615  26.336  1.00  0.00     0.007 A 
ATOM     25  H   UNL     1     -48.144  46.468  26.602  1.00  0.00     0.065 H 
ATOM     26  H   UNL     1     -45.957  44.884  26.341  1.00  0.00     0.082 H 
BRANCH  16  27
ATOM     27  N   UNL     1     -51.282  45.932  26.506  1.00  0.00    -0.383 N 
ATOM     28  H   UNL     1     -51.626  46.034  27.455  1.00  0.00     0.158 HD
ATOM     29  H   UNL     1     -51.928  46.169  25.768  1.00  0.00     0.158 HD
ENDBRANCH  16  27
ENDBRANCH   5  15
BRANCH   7  30
ATOM     30  O   UNL     1     -44.388  42.671  24.808  1.00  0.00    -0.388 OA
ATOM     31  H   UNL     1     -44.830  41.958  24.299  1.00  0.00     0.211 HD
ENDBRANCH   7  30
BRANCH  11  32
ATOM     32  O   UNL     1     -42.961  41.320  26.515  1.00  0.00    -0.390 OA
ATOM     33  H   UNL     1     -43.063  40.746  25.734  1.00  0.00     0.211 HD
ENDBRANCH  11  32
ENDBRANCH   1   4
BRANCH   1  34
ATOM     34  C   UNL     1     -46.155  38.732  28.596  1.00  0.00    -0.027 C 
ATOM     35  H   UNL     1     -46.117  38.710  29.692  1.00  0.00     0.032 H 
ATOM     36  H   UNL     1     -47.025  39.347  28.335  1.00  0.00     0.032 H 
BRANCH  34  37
ATOM     37  C   UNL     1     -46.363  37.328  28.084  1.00  0.00    -0.046 A 
ATOM     38  C   UNL     1     -45.291  36.436  27.995  1.00  0.00    -0.058 A 
ATOM     39  C   UNL     1     -47.645  36.889  27.717  1.00  0.00    -0.033 A 
ATOM     40  C   UNL     1     -45.501  35.136  27.537  1.00  0.00    -0.052 A 
ATOM     41  H   UNL     1     -44.290  36.747  28.282  1.00  0.00     0.063 H 
ATOM     42  C   UNL     1     -47.882  35.599  27.258  1.00  0.00     0.071 A 
ATOM     43  H   UNL     1     -48.491  37.569  27.789  1.00  0.00     0.065 H 
ATOM     44  C   UNL     1     -46.788  34.712  27.167  1.00  0.00     0.001 A 
ATOM     45  H   UNL     1     -44.655  34.456  27.472  1.00  0.00     0.063 H 
ATOM     46  N   UNL     1     -49.132  35.237  26.919  1.00  0.00    -0.255 NA
ATOM     47  C   UNL     1     -47.028  33.409  26.703  1.00  0.00    -0.036 A 
ATOM     48  C   UNL     1     -49.326  33.971  26.475  1.00  0.00     0.043 A 
ATOM     49  C   UNL     1     -48.318  33.030  26.350  1.00  0.00     0.044 A 
ATOM     50  H   UNL     1     -46.212  32.697  26.619  1.00  0.00     0.064 H 
ATOM     51  H   UNL     1     -50.354  33.734  26.215  1.00  0.00     0.085 H 
BRANCH  49  52
ATOM     52  C   UNL     1     -48.593  31.712  25.875  1.00  0.00    -0.060 C 
ATOM     53  C   UNL     1     -48.824  30.602  25.477  1.00  0.00    -0.062 C 
BRANCH  53  54
ATOM     54  C   UNL     1     -49.098  29.281  25.002  1.00  0.00     0.025 A 
ATOM     55  C   UNL     1     -48.837  28.176  25.816  1.00  0.00    -0.047 A 
ATOM     56  C   UNL     1     -49.628  29.093  23.723  1.00  0.00    -0.047 A 
ATOM     57  C   UNL     1     -49.105  26.887  25.351  1.00  0.00    -0.061 A 
ATOM     58  H   UNL     1     -48.424  28.311  26.813  1.00  0.00     0.064 H 
ATOM     59  C   UNL     1     -49.895  27.804  23.260  1.00  0.00    -0.061 A 
ATOM     60  H   UNL     1     -49.834  29.947  23.082  1.00  0.00     0.064 H 
ATOM     61  C   UNL     1     -49.634  26.701  24.074  1.00  0.00    -0.062 A 
ATOM     62  H   UNL     1     -48.901  26.028  25.986  1.00  0.00     0.062 H 
ATOM     63  H   UNL     1     -50.307  27.659  22.264  1.00  0.00     0.062 H 
ATOM     64  H   UNL     1     -49.842  25.697  23.712  1.00  0.00     0.062 H 
ENDBRANCH  53  54
ENDBRANCH  49  52
ENDBRANCH  34  37
ENDBRANCH   1  34
TORSDOF 9
ENDMDL
