MODEL 1
REMARK VINA RESULT:     -10.6      0.000      0.000
REMARK SMILES CNc1ccc2ccc(OC[C@H]3O[C@@H](n4cc(-c5ncco5)c5c(N)ncnc54)[C@@H](F)[C@@H]3O)cc2n1
REMARK SMILES IDX 11 1 10 4 9 5 3 6 4 7 36 8 5 9 35 11 6 12 34 14 7 15 8 17
REMARK SMILES IDX 2 20 1 22 12 26 13 27 32 28 14 30 30 31 31 34 33 36 15 38
REMARK SMILES IDX 16 39 29 40 17 41 23 43 28 44 24 45 27 46 26 47 18 49 19 50
REMARK SMILES IDX 22 51 20 52 21 53 25 56
REMARK H PARENT 11 2 11 3 4 10 5 13 34 16 7 18 8 19 2 21 1 23 1 24 1 25 12 29
REMARK H PARENT 32 32 14 33 30 35 33 37 16 42 27 48 20 54 21 55 25 57 25 58
REMARK Flexibility Score: inf
ROOT
ATOM      1  C   UNL     1     -47.021  36.233  27.078  1.00  0.00     0.117 C 
ATOM      2  H   UNL     1     -47.990  35.786  27.327  1.00  0.00     0.073 H 
ATOM      3  H   UNL     1     -47.202  37.285  26.829  1.00  0.00     0.073 H 
ENDROOT
BRANCH   1   4
ATOM      4  O   UNL     1     -46.541  35.485  25.946  1.00  0.00    -0.491 OA
BRANCH   4   5
ATOM      5  C   UNL     1     -47.185  34.292  25.766  1.00  0.00     0.121 A 
ATOM      6  C   UNL     1     -47.067  30.007  23.716  1.00  0.00     0.126 A 
ATOM      7  C   UNL     1     -48.297  29.664  24.268  1.00  0.00    -0.019 A 
ATOM      8  N   UNL     1     -46.489  31.198  23.965  1.00  0.00    -0.231 NA
ATOM      9  C   UNL     1     -48.958  30.576  25.084  1.00  0.00    -0.049 A 
ATOM     10  H   UNL     1     -48.734  28.691  24.074  1.00  0.00     0.066 H 
ATOM     11  C   UNL     1     -47.126  32.089  24.747  1.00  0.00     0.076 A 
ATOM     12  C   UNL     1     -48.375  31.817  25.341  1.00  0.00     0.001 A 
ATOM     13  H   UNL     1     -49.920  30.314  25.512  1.00  0.00     0.063 H 
ATOM     14  C   UNL     1     -46.548  33.329  24.983  1.00  0.00     0.007 A 
ATOM     15  C   UNL     1     -48.998  32.771  26.164  1.00  0.00    -0.049 A 
ATOM     16  H   UNL     1     -45.588  33.556  24.527  1.00  0.00     0.069 H 
ATOM     17  C   UNL     1     -48.396  34.007  26.387  1.00  0.00    -0.019 A 
ATOM     18  H   UNL     1     -49.962  32.559  26.621  1.00  0.00     0.063 H 
ATOM     19  H   UNL     1     -48.877  34.732  27.034  1.00  0.00     0.066 H 
BRANCH   6  20
ATOM     20  N   UNL     1     -46.419  29.048  22.914  1.00  0.00    -0.373 N 
ATOM     21  H   UNL     1     -47.081  28.702  22.227  1.00  0.00     0.161 HD
BRANCH  20  22
ATOM     22  C   UNL     1     -45.199  29.533  22.287  1.00  0.00     0.005 C 
ATOM     23  H   UNL     1     -44.393  29.658  23.018  1.00  0.00     0.045 H 
ATOM     24  H   UNL     1     -44.860  28.794  21.553  1.00  0.00     0.045 H 
ATOM     25  H   UNL     1     -45.365  30.476  21.754  1.00  0.00     0.045 H 
ENDBRANCH  20  22
ENDBRANCH   6  20
ENDBRANCH   4   5
ENDBRANCH   1   4
BRANCH   1  26
ATOM     26  C   UNL     1     -46.064  36.086  28.275  1.00  0.00     0.123 C 
ATOM     27  O   UNL     1     -44.908  36.934  28.058  1.00  0.00    -0.345 OA
ATOM     28  C   UNL     1     -46.704  36.544  29.590  1.00  0.00     0.119 C 
ATOM     29  H   UNL     1     -45.697  35.055  28.343  1.00  0.00     0.067 H 
ATOM     30  C   UNL     1     -44.941  37.996  29.036  1.00  0.00     0.169 C 
ATOM     31  C   UNL     1     -46.338  38.007  29.638  1.00  0.00     0.173 C 
ATOM     32  H   UNL     1     -47.783  36.363  29.612  1.00  0.00     0.066 H 
ATOM     33  H   UNL     1     -44.184  37.745  29.790  1.00  0.00     0.088 H 
ATOM     34  F   UNL     1     -47.217  38.686  28.849  1.00  0.00    -0.239 F 
ATOM     35  H   UNL     1     -46.365  38.446  30.640  1.00  0.00     0.074 H 
BRANCH  28  36
ATOM     36  O   UNL     1     -46.120  35.853  30.698  1.00  0.00    -0.387 OA
ATOM     37  H   UNL     1     -45.249  36.252  30.877  1.00  0.00     0.211 HD
ENDBRANCH  28  36
BRANCH  30  38
ATOM     38  N   UNL     1     -44.551  39.263  28.437  1.00  0.00    -0.302 N 
ATOM     39  C   UNL     1     -45.115  39.883  27.354  1.00  0.00     0.022 A 
ATOM     40  C   UNL     1     -43.516  40.031  28.913  1.00  0.00     0.148 A 
ATOM     41  C   UNL     1     -44.445  41.073  27.148  1.00  0.00     0.068 A 
ATOM     42  H   UNL     1     -45.935  39.434  26.810  1.00  0.00     0.083 H 
ATOM     43  C   UNL     1     -43.427  41.182  28.137  1.00  0.00     0.074 A 
ATOM     44  N   UNL     1     -42.742  39.706  29.964  1.00  0.00    -0.218 NA
ATOM     45  C   UNL     1     -42.427  42.098  28.503  1.00  0.00     0.137 A 
ATOM     46  C   UNL     1     -41.815  40.647  30.201  1.00  0.00     0.120 A 
ATOM     47  N   UNL     1     -41.616  41.800  29.539  1.00  0.00    -0.219 NA
ATOM     48  H   UNL     1     -41.141  40.457  31.031  1.00  0.00     0.106 H 
BRANCH  41  49
ATOM     49  C   UNL     1     -44.798  42.070  25.999  1.00  0.00     0.228 A 
ATOM     50  N   UNL     1     -44.080  42.191  24.893  1.00  0.00    -0.218 NA
ATOM     51  O   UNL     1     -45.879  42.921  26.035  1.00  0.00    -0.444 OA
ATOM     52  C   UNL     1     -44.727  43.158  24.169  1.00  0.00     0.066 A 
ATOM     53  C   UNL     1     -45.820  43.603  24.860  1.00  0.00     0.112 A 
ATOM     54  H   UNL     1     -44.371  43.476  23.198  1.00  0.00     0.087 H 
ATOM     55  H   UNL     1     -46.597  44.332  24.683  1.00  0.00     0.106 H 
ENDBRANCH  41  49
BRANCH  45  56
ATOM     56  N   UNL     1     -42.199  43.309  27.874  1.00  0.00    -0.383 N 
ATOM     57  H   UNL     1     -41.622  43.208  27.049  1.00  0.00     0.158 HD
ATOM     58  H   UNL     1     -42.984  43.946  27.824  1.00  0.00     0.158 HD
ENDBRANCH  45  56
ENDBRANCH  30  38
ENDBRANCH   1  26
TORSDOF 9
ENDMDL
MODEL 2
REMARK VINA RESULT:      -9.2      1.751      2.283
REMARK SMILES CNc1ccc2ccc(OC[C@H]3O[C@@H](n4cc(-c5ncco5)c5c(N)ncnc54)[C@@H](F)[C@@H]3O)cc2n1
REMARK SMILES IDX 11 1 10 4 9 5 3 6 4 7 36 8 5 9 35 11 6 12 34 14 7 15 8 17
REMARK SMILES IDX 2 20 1 22 12 26 13 27 32 28 14 30 30 31 31 34 33 36 15 38
REMARK SMILES IDX 16 39 29 40 17 41 23 43 28 44 24 45 27 46 26 47 18 49 19 50
REMARK SMILES IDX 22 51 20 52 21 53 25 56
REMARK H PARENT 11 2 11 3 4 10 5 13 34 16 7 18 8 19 2 21 1 23 1 24 1 25 12 29
REMARK H PARENT 32 32 14 33 30 35 33 37 16 42 27 48 20 54 21 55 25 57 25 58
REMARK Flexibility Score: inf
ROOT
ATOM      1  C   UNL     1     -45.902  35.014  27.918  1.00  0.00     0.117 C 
ATOM      2  H   UNL     1     -45.965  35.258  26.851  1.00  0.00     0.073 H 
ATOM      3  H   UNL     1     -44.874  35.216  28.238  1.00  0.00     0.073 H 
ENDROOT
BRANCH   1   4
ATOM      4  O   UNL     1     -46.230  33.615  28.004  1.00  0.00    -0.491 OA
BRANCH   4   5
ATOM      5  C   UNL     1     -46.561  33.057  26.801  1.00  0.00     0.121 A 
ATOM      6  C   UNL     1     -49.064  29.696  24.559  1.00  0.00     0.126 A 
ATOM      7  C   UNL     1     -48.595  30.117  23.319  1.00  0.00    -0.019 A 
ATOM      8  N   UNL     1     -48.706  30.320  25.699  1.00  0.00    -0.231 NA
ATOM      9  C   UNL     1     -47.723  31.198  23.249  1.00  0.00    -0.049 A 
ATOM     10  H   UNL     1     -48.915  29.615  22.412  1.00  0.00     0.066 H 
ATOM     11  C   UNL     1     -47.855  31.362  25.640  1.00  0.00     0.076 A 
ATOM     12  C   UNL     1     -47.336  31.846  24.423  1.00  0.00     0.001 A 
ATOM     13  H   UNL     1     -47.351  31.526  22.284  1.00  0.00     0.063 H 
ATOM     14  C   UNL     1     -47.461  31.990  26.813  1.00  0.00     0.007 A 
ATOM     15  C   UNL     1     -46.462  32.947  24.406  1.00  0.00    -0.049 A 
ATOM     16  H   UNL     1     -47.848  31.624  27.760  1.00  0.00     0.069 H 
ATOM     17  C   UNL     1     -46.084  33.561  25.597  1.00  0.00    -0.019 A 
ATOM     18  H   UNL     1     -46.063  33.319  23.465  1.00  0.00     0.063 H 
ATOM     19  H   UNL     1     -45.420  34.419  25.573  1.00  0.00     0.066 H 
BRANCH   6  20
ATOM     20  N   UNL     1     -49.963  28.613  24.587  1.00  0.00    -0.373 N 
ATOM     21  H   UNL     1     -50.275  28.428  23.638  1.00  0.00     0.161 HD
BRANCH  20  22
ATOM     22  C   UNL     1     -49.427  27.418  25.219  1.00  0.00     0.005 C 
ATOM     23  H   UNL     1     -49.267  27.567  26.293  1.00  0.00     0.045 H 
ATOM     24  H   UNL     1     -50.152  26.604  25.109  1.00  0.00     0.045 H 
ATOM     25  H   UNL     1     -48.493  27.095  24.746  1.00  0.00     0.045 H 
ENDBRANCH  20  22
ENDBRANCH   6  20
ENDBRANCH   4   5
ENDBRANCH   1   4
BRANCH   1  26
ATOM     26  C   UNL     1     -46.922  35.862  28.700  1.00  0.00     0.123 C 
ATOM     27  O   UNL     1     -46.260  37.056  29.191  1.00  0.00    -0.345 OA
ATOM     28  C   UNL     1     -48.082  36.336  27.818  1.00  0.00     0.119 C 
ATOM     29  H   UNL     1     -47.280  35.311  29.577  1.00  0.00     0.067 H 
ATOM     30  C   UNL     1     -46.811  38.194  28.494  1.00  0.00     0.169 C 
ATOM     31  C   UNL     1     -47.574  37.657  27.293  1.00  0.00     0.173 C 
ATOM     32  H   UNL     1     -48.324  35.617  27.029  1.00  0.00     0.066 H 
ATOM     33  H   UNL     1     -47.485  38.694  29.203  1.00  0.00     0.088 H 
ATOM     34  F   UNL     1     -46.741  37.400  26.246  1.00  0.00    -0.239 F 
ATOM     35  H   UNL     1     -48.359  38.336  26.949  1.00  0.00     0.074 H 
BRANCH  28  36
ATOM     36  O   UNL     1     -49.259  36.538  28.605  1.00  0.00    -0.387 OA
ATOM     37  H   UNL     1     -49.573  37.447  28.450  1.00  0.00     0.211 HD
ENDBRANCH  28  36
BRANCH  30  38
ATOM     38  N   UNL     1     -45.766  39.144  28.148  1.00  0.00    -0.302 N 
ATOM     39  C   UNL     1     -45.737  40.001  27.079  1.00  0.00     0.022 A 
ATOM     40  C   UNL     1     -44.623  39.308  28.892  1.00  0.00     0.148 A 
ATOM     41  C   UNL     1     -44.570  40.734  27.153  1.00  0.00     0.068 A 
ATOM     42  H   UNL     1     -46.534  40.018  26.348  1.00  0.00     0.083 H 
ATOM     43  C   UNL     1     -43.853  40.306  28.306  1.00  0.00     0.074 A 
ATOM     44  N   UNL     1     -44.329  38.611  30.005  1.00  0.00    -0.218 NA
ATOM     45  C   UNL     1     -42.649  40.620  28.958  1.00  0.00     0.137 A 
ATOM     46  C   UNL     1     -43.149  38.987  30.522  1.00  0.00     0.120 A 
ATOM     47  N   UNL     1     -42.307  39.931  30.066  1.00  0.00    -0.219 NA
ATOM     48  H   UNL     1     -42.832  38.466  31.420  1.00  0.00     0.106 H 
BRANCH  41  49
ATOM     49  C   UNL     1     -44.171  41.823  26.107  1.00  0.00     0.228 A 
ATOM     50  N   UNL     1     -44.540  41.782  24.836  1.00  0.00    -0.218 NA
ATOM     51  O   UNL     1     -43.392  42.917  26.407  1.00  0.00    -0.444 OA
ATOM     52  C   UNL     1     -43.986  42.906  24.282  1.00  0.00     0.066 A 
ATOM     53  C   UNL     1     -43.287  43.598  25.235  1.00  0.00     0.112 A 
ATOM     54  H   UNL     1     -44.119  43.152  23.237  1.00  0.00     0.087 H 
ATOM     55  H   UNL     1     -42.710  44.510  25.252  1.00  0.00     0.106 H 
ENDBRANCH  41  49
BRANCH  45  56
ATOM     56  N   UNL     1     -41.763  41.600  28.546  1.00  0.00    -0.383 N 
ATOM     57  H   UNL     1     -40.811  41.259  28.499  1.00  0.00     0.158 HD
ATOM     58  H   UNL     1     -42.080  42.213  27.806  1.00  0.00     0.158 HD
ENDBRANCH  45  56
ENDBRANCH  30  38
ENDBRANCH   1  26
TORSDOF 9
ENDMDL
MODEL 3
REMARK VINA RESULT:      -8.9      2.507      3.370
REMARK SMILES CNc1ccc2ccc(OC[C@H]3O[C@@H](n4cc(-c5ncco5)c5c(N)ncnc54)[C@@H](F)[C@@H]3O)cc2n1
REMARK SMILES IDX 11 1 10 4 9 5 3 6 4 7 36 8 5 9 35 11 6 12 34 14 7 15 8 17
REMARK SMILES IDX 2 20 1 22 12 26 13 27 32 28 14 30 30 31 31 34 33 36 15 38
REMARK SMILES IDX 16 39 29 40 17 41 23 43 28 44 24 45 27 46 26 47 18 49 19 50
REMARK SMILES IDX 22 51 20 52 21 53 25 56
REMARK H PARENT 11 2 11 3 4 10 5 13 34 16 7 18 8 19 2 21 1 23 1 24 1 25 12 29
REMARK H PARENT 32 32 14 33 30 35 33 37 16 42 27 48 20 54 21 55 25 57 25 58
REMARK Flexibility Score: inf
ROOT
ATOM      1  C   UNL     1     -46.809  35.122  26.241  1.00  0.00     0.117 C 
ATOM      2  H   UNL     1     -47.436  35.950  25.893  1.00  0.00     0.073 H 
ATOM      3  H   UNL     1     -46.103  34.887  25.437  1.00  0.00     0.073 H 
ENDROOT
BRANCH   1   4
ATOM      4  O   UNL     1     -47.723  34.038  26.491  1.00  0.00    -0.491 OA
BRANCH   4   5
ATOM      5  C   UNL     1     -47.502  32.944  25.702  1.00  0.00     0.121 A 
ATOM      6  C   UNL     1     -48.901  28.548  24.560  1.00  0.00     0.126 A 
ATOM      7  C   UNL     1     -47.897  28.433  23.604  1.00  0.00    -0.019 A 
ATOM      8  N   UNL     1     -49.065  29.675  25.280  1.00  0.00    -0.231 NA
ATOM      9  C   UNL     1     -47.027  29.499  23.394  1.00  0.00    -0.049 A 
ATOM     10  H   UNL     1     -47.797  27.526  23.018  1.00  0.00     0.066 H 
ATOM     11  C   UNL     1     -48.222  30.708  25.089  1.00  0.00     0.076 A 
ATOM     12  C   UNL     1     -47.180  30.667  24.142  1.00  0.00     0.001 A 
ATOM     13  H   UNL     1     -46.239  29.410  22.654  1.00  0.00     0.063 H 
ATOM     14  C   UNL     1     -48.369  31.860  25.849  1.00  0.00     0.007 A 
ATOM     15  C   UNL     1     -46.332  31.774  23.963  1.00  0.00    -0.049 A 
ATOM     16  H   UNL     1     -49.164  31.904  26.587  1.00  0.00     0.069 H 
ATOM     17  C   UNL     1     -46.502  32.920  24.737  1.00  0.00    -0.019 A 
ATOM     18  H   UNL     1     -45.528  31.741  23.232  1.00  0.00     0.063 H 
ATOM     19  H   UNL     1     -45.852  33.775  24.583  1.00  0.00     0.066 H 
BRANCH   6  20
ATOM     20  N   UNL     1     -49.775  27.457  24.726  1.00  0.00    -0.373 N 
ATOM     21  H   UNL     1     -50.087  27.151  23.810  1.00  0.00     0.161 HD
BRANCH  20  22
ATOM     22  C   UNL     1     -49.208  26.360  25.495  1.00  0.00     0.005 C 
ATOM     23  H   UNL     1     -49.632  26.314  26.504  1.00  0.00     0.045 H 
ATOM     24  H   UNL     1     -49.453  25.415  24.997  1.00  0.00     0.045 H 
ATOM     25  H   UNL     1     -48.116  26.429  25.553  1.00  0.00     0.045 H 
ENDBRANCH  20  22
ENDBRANCH   6  20
ENDBRANCH   4   5
ENDBRANCH   1   4
BRANCH   1  26
ATOM     26  C   UNL     1     -46.084  35.533  27.536  1.00  0.00     0.123 C 
ATOM     27  O   UNL     1     -45.631  36.905  27.404  1.00  0.00    -0.345 OA
ATOM     28  C   UNL     1     -47.010  35.493  28.757  1.00  0.00     0.119 C 
ATOM     29  H   UNL     1     -45.193  34.914  27.685  1.00  0.00     0.067 H 
ATOM     30  C   UNL     1     -46.387  37.718  28.327  1.00  0.00     0.169 C 
ATOM     31  C   UNL     1     -47.579  36.890  28.781  1.00  0.00     0.173 C 
ATOM     32  H   UNL     1     -47.772  34.712  28.675  1.00  0.00     0.066 H 
ATOM     33  H   UNL     1     -45.714  37.940  29.165  1.00  0.00     0.088 H 
ATOM     34  F   UNL     1     -48.598  36.944  27.876  1.00  0.00    -0.239 F 
ATOM     35  H   UNL     1     -47.967  37.202  29.754  1.00  0.00     0.074 H 
BRANCH  28  36
ATOM     36  O   UNL     1     -46.255  35.248  29.948  1.00  0.00    -0.387 OA
ATOM     37  H   UNL     1     -45.619  35.978  30.057  1.00  0.00     0.211 HD
ENDBRANCH  28  36
BRANCH  30  38
ATOM     38  N   UNL     1     -46.752  38.987  27.718  1.00  0.00    -0.302 N 
ATOM     39  C   UNL     1     -48.010  39.506  27.560  1.00  0.00     0.022 A 
ATOM     40  C   UNL     1     -45.830  39.866  27.204  1.00  0.00     0.148 A 
ATOM     41  C   UNL     1     -47.887  40.741  26.955  1.00  0.00     0.068 A 
ATOM     42  H   UNL     1     -48.889  38.962  27.876  1.00  0.00     0.083 H 
ATOM     43  C   UNL     1     -46.504  40.986  26.726  1.00  0.00     0.074 A 
ATOM     44  N   UNL     1     -44.501  39.658  27.188  1.00  0.00    -0.218 NA
ATOM     45  C   UNL     1     -45.703  42.003  26.182  1.00  0.00     0.137 A 
ATOM     46  C   UNL     1     -43.849  40.688  26.627  1.00  0.00     0.120 A 
ATOM     47  N   UNL     1     -44.367  41.825  26.129  1.00  0.00    -0.219 NA
ATOM     48  H   UNL     1     -42.769  40.597  26.567  1.00  0.00     0.106 H 
BRANCH  41  49
ATOM     49  C   UNL     1     -49.108  41.652  26.605  1.00  0.00     0.228 A 
ATOM     50  N   UNL     1     -50.343  41.402  27.010  1.00  0.00    -0.218 NA
ATOM     51  O   UNL     1     -49.012  42.789  25.835  1.00  0.00    -0.444 OA
ATOM     52  C   UNL     1     -51.088  42.428  26.490  1.00  0.00     0.066 A 
ATOM     53  C   UNL     1     -50.282  43.273  25.776  1.00  0.00     0.112 A 
ATOM     54  H   UNL     1     -52.154  42.500  26.658  1.00  0.00     0.087 H 
ATOM     55  H   UNL     1     -50.430  44.182  25.214  1.00  0.00     0.106 H 
ENDBRANCH  41  49
BRANCH  45  56
ATOM     56  N   UNL     1     -46.183  43.201  25.683  1.00  0.00    -0.383 N 
ATOM     57  H   UNL     1     -47.096  43.432  26.055  1.00  0.00     0.158 HD
ATOM     58  H   UNL     1     -45.511  43.951  25.587  1.00  0.00     0.158 HD
ENDBRANCH  45  56
ENDBRANCH  30  38
ENDBRANCH   1  26
TORSDOF 9
ENDMDL
MODEL 4
REMARK VINA RESULT:      -8.9      1.856      2.205
REMARK SMILES CNc1ccc2ccc(OC[C@H]3O[C@@H](n4cc(-c5ncco5)c5c(N)ncnc54)[C@@H](F)[C@@H]3O)cc2n1
REMARK SMILES IDX 11 1 10 4 9 5 3 6 4 7 36 8 5 9 35 11 6 12 34 14 7 15 8 17
REMARK SMILES IDX 2 20 1 22 12 26 13 27 32 28 14 30 30 31 31 34 33 36 15 38
REMARK SMILES IDX 16 39 29 40 17 41 23 43 28 44 24 45 27 46 26 47 18 49 19 50
REMARK SMILES IDX 22 51 20 52 21 53 25 56
REMARK H PARENT 11 2 11 3 4 10 5 13 34 16 7 18 8 19 2 21 1 23 1 24 1 25 12 29
REMARK H PARENT 32 32 14 33 30 35 33 37 16 42 27 48 20 54 21 55 25 57 25 58
REMARK Flexibility Score: inf
ROOT
ATOM      1  C   UNL     1     -46.225  37.108  26.978  1.00  0.00     0.117 C 
ATOM      2  H   UNL     1     -46.989  37.013  26.198  1.00  0.00     0.073 H 
ATOM      3  H   UNL     1     -45.303  37.447  26.493  1.00  0.00     0.073 H 
ENDROOT
BRANCH   1   4
ATOM      4  O   UNL     1     -46.090  35.787  27.534  1.00  0.00    -0.491 OA
BRANCH   4   5
ATOM      5  C   UNL     1     -46.824  34.840  26.875  1.00  0.00     0.121 A 
ATOM      6  C   UNL     1     -46.729  31.098  23.947  1.00  0.00     0.126 A 
ATOM      7  C   UNL     1     -48.113  30.971  24.000  1.00  0.00    -0.019 A 
ATOM      8  N   UNL     1     -46.080  32.048  24.649  1.00  0.00    -0.231 NA
ATOM      9  C   UNL     1     -48.852  31.852  24.782  1.00  0.00    -0.049 A 
ATOM     10  H   UNL     1     -48.614  30.184  23.445  1.00  0.00     0.066 H 
ATOM     11  C   UNL     1     -46.789  32.911  25.402  1.00  0.00     0.076 A 
ATOM     12  C   UNL     1     -48.193  32.847  25.505  1.00  0.00     0.001 A 
ATOM     13  H   UNL     1     -49.932  31.759  24.820  1.00  0.00     0.063 H 
ATOM     14  C   UNL     1     -46.127  33.909  26.104  1.00  0.00     0.007 A 
ATOM     15  C   UNL     1     -48.892  33.759  26.314  1.00  0.00    -0.049 A 
ATOM     16  H   UNL     1     -45.046  33.974  26.030  1.00  0.00     0.069 H 
ATOM     17  C   UNL     1     -48.205  34.749  27.011  1.00  0.00    -0.019 A 
ATOM     18  H   UNL     1     -49.976  33.708  26.393  1.00  0.00     0.063 H 
ATOM     19  H   UNL     1     -48.751  35.441  27.645  1.00  0.00     0.066 H 
BRANCH   6  20
ATOM     20  N   UNL     1     -46.015  30.172  23.163  1.00  0.00    -0.373 N 
ATOM     21  H   UNL     1     -45.037  30.206  23.435  1.00  0.00     0.161 HD
BRANCH  20  22
ATOM     22  C   UNL     1     -46.542  28.818  23.225  1.00  0.00     0.005 C 
ATOM     23  H   UNL     1     -46.118  28.185  22.437  1.00  0.00     0.045 H 
ATOM     24  H   UNL     1     -46.260  28.372  24.185  1.00  0.00     0.045 H 
ATOM     25  H   UNL     1     -47.635  28.806  23.163  1.00  0.00     0.045 H 
ENDBRANCH  20  22
ENDBRANCH   6  20
ENDBRANCH   4   5
ENDBRANCH   1   4
BRANCH   1  26
ATOM     26  C   UNL     1     -46.706  38.104  28.050  1.00  0.00     0.123 C 
ATOM     27  O   UNL     1     -45.711  39.148  28.199  1.00  0.00    -0.345 OA
ATOM     28  C   UNL     1     -48.013  38.797  27.653  1.00  0.00     0.119 C 
ATOM     29  H   UNL     1     -46.793  37.603  29.021  1.00  0.00     0.067 H 
ATOM     30  C   UNL     1     -46.280  40.383  27.713  1.00  0.00     0.169 C 
ATOM     31  C   UNL     1     -47.524  40.020  26.917  1.00  0.00     0.173 C 
ATOM     32  H   UNL     1     -48.659  38.153  27.048  1.00  0.00     0.066 H 
ATOM     33  H   UNL     1     -46.534  40.976  28.602  1.00  0.00     0.088 H 
ATOM     34  F   UNL     1     -47.211  39.646  25.644  1.00  0.00    -0.239 F 
ATOM     35  H   UNL     1     -48.250  40.836  26.867  1.00  0.00     0.074 H 
BRANCH  28  36
ATOM     36  O   UNL     1     -48.747  39.185  28.818  1.00  0.00    -0.387 OA
ATOM     37  H   UNL     1     -48.360  38.726  29.586  1.00  0.00     0.211 HD
ENDBRANCH  28  36
BRANCH  30  38
ATOM     38  N   UNL     1     -45.298  41.141  26.954  1.00  0.00    -0.302 N 
ATOM     39  C   UNL     1     -45.490  41.810  25.774  1.00  0.00     0.022 A 
ATOM     40  C   UNL     1     -43.991  41.288  27.352  1.00  0.00     0.148 A 
ATOM     41  C   UNL     1     -44.296  42.408  25.425  1.00  0.00     0.068 A 
ATOM     42  H   UNL     1     -46.447  41.803  25.271  1.00  0.00     0.083 H 
ATOM     43  C   UNL     1     -43.333  42.087  26.424  1.00  0.00     0.074 A 
ATOM     44  N   UNL     1     -43.466  40.746  28.466  1.00  0.00    -0.218 NA
ATOM     45  C   UNL     1     -41.982  42.360  26.691  1.00  0.00     0.137 A 
ATOM     46  C   UNL     1     -42.168  41.061  28.599  1.00  0.00     0.120 A 
ATOM     47  N   UNL     1     -41.411  41.819  27.787  1.00  0.00    -0.219 NA
ATOM     48  H   UNL     1     -41.664  40.655  29.471  1.00  0.00     0.106 H 
BRANCH  41  49
ATOM     49  C   UNL     1     -44.110  43.266  24.133  1.00  0.00     0.228 A 
ATOM     50  N   UNL     1     -42.934  43.482  23.564  1.00  0.00    -0.218 NA
ATOM     51  O   UNL     1     -45.148  43.885  23.475  1.00  0.00    -0.444 OA
ATOM     52  C   UNL     1     -43.217  44.269  22.479  1.00  0.00     0.066 A 
ATOM     53  C   UNL     1     -44.562  44.516  22.423  1.00  0.00     0.112 A 
ATOM     54  H   UNL     1     -42.443  44.611  21.806  1.00  0.00     0.087 H 
ATOM     55  H   UNL     1     -45.214  45.068  21.762  1.00  0.00     0.106 H 
ENDBRANCH  41  49
BRANCH  45  56
ATOM     56  N   UNL     1     -41.168  43.155  25.904  1.00  0.00    -0.383 N 
ATOM     57  H   UNL     1     -40.613  43.798  26.454  1.00  0.00     0.158 HD
ATOM     58  H   UNL     1     -40.721  42.702  25.117  1.00  0.00     0.158 HD
ENDBRANCH  45  56
ENDBRANCH  30  38
ENDBRANCH   1  26
TORSDOF 9
ENDMDL
MODEL 5
REMARK VINA RESULT:      -8.8      2.471      3.132
REMARK SMILES CNc1ccc2ccc(OC[C@H]3O[C@@H](n4cc(-c5ncco5)c5c(N)ncnc54)[C@@H](F)[C@@H]3O)cc2n1
REMARK SMILES IDX 11 1 10 4 9 5 3 6 4 7 36 8 5 9 35 11 6 12 34 14 7 15 8 17
REMARK SMILES IDX 2 20 1 22 12 26 13 27 32 28 14 30 30 31 31 34 33 36 15 38
REMARK SMILES IDX 16 39 29 40 17 41 23 43 28 44 24 45 27 46 26 47 18 49 19 50
REMARK SMILES IDX 22 51 20 52 21 53 25 56
REMARK H PARENT 11 2 11 3 4 10 5 13 34 16 7 18 8 19 2 21 1 23 1 24 1 25 12 29
REMARK H PARENT 32 32 14 33 30 35 33 37 16 42 27 48 20 54 21 55 25 57 25 58
REMARK Flexibility Score: inf
ROOT
ATOM      1  C   UNL     1     -46.826  34.985  26.484  1.00  0.00     0.117 C 
ATOM      2  H   UNL     1     -47.367  35.833  26.048  1.00  0.00     0.073 H 
ATOM      3  H   UNL     1     -46.154  34.596  25.711  1.00  0.00     0.073 H 
ENDROOT
BRANCH   1   4
ATOM      4  O   UNL     1     -47.845  34.033  26.843  1.00  0.00    -0.491 OA
BRANCH   4   5
ATOM      5  C   UNL     1     -47.862  32.924  26.044  1.00  0.00     0.121 A 
ATOM      6  C   UNL     1     -46.327  30.936  22.009  1.00  0.00     0.126 A 
ATOM      7  C   UNL     1     -47.016  29.759  22.279  1.00  0.00    -0.019 A 
ATOM      8  N   UNL     1     -46.343  31.977  22.865  1.00  0.00    -0.231 NA
ATOM      9  C   UNL     1     -47.756  29.653  23.453  1.00  0.00    -0.049 A 
ATOM     10  H   UNL     1     -46.970  28.924  21.588  1.00  0.00     0.066 H 
ATOM     11  C   UNL     1     -47.064  31.885  23.999  1.00  0.00     0.076 A 
ATOM     12  C   UNL     1     -47.790  30.728  24.342  1.00  0.00     0.001 A 
ATOM     13  H   UNL     1     -48.300  28.738  23.664  1.00  0.00     0.063 H 
ATOM     14  C   UNL     1     -47.107  32.965  24.870  1.00  0.00     0.007 A 
ATOM     15  C   UNL     1     -48.517  30.670  25.544  1.00  0.00    -0.049 A 
ATOM     16  H   UNL     1     -46.557  33.867  24.617  1.00  0.00     0.069 H 
ATOM     17  C   UNL     1     -48.543  31.766  26.402  1.00  0.00    -0.019 A 
ATOM     18  H   UNL     1     -49.077  29.775  25.807  1.00  0.00     0.063 H 
ATOM     19  H   UNL     1     -49.095  31.708  27.334  1.00  0.00     0.066 H 
BRANCH   6  20
ATOM     20  N   UNL     1     -45.570  30.996  20.823  1.00  0.00    -0.373 N 
ATOM     21  H   UNL     1     -45.429  30.050  20.483  1.00  0.00     0.161 HD
BRANCH  20  22
ATOM     22  C   UNL     1     -46.148  31.853  19.799  1.00  0.00     0.005 C 
ATOM     23  H   UNL     1     -45.391  32.185  19.079  1.00  0.00     0.045 H 
ATOM     24  H   UNL     1     -46.898  31.282  19.241  1.00  0.00     0.045 H 
ATOM     25  H   UNL     1     -46.651  32.722  20.235  1.00  0.00     0.045 H 
ENDBRANCH  20  22
ENDBRANCH   6  20
ENDBRANCH   4   5
ENDBRANCH   1   4
BRANCH   1  26
ATOM     26  C   UNL     1     -46.054  35.453  27.731  1.00  0.00     0.123 C 
ATOM     27  O   UNL     1     -45.627  36.824  27.530  1.00  0.00    -0.345 OA
ATOM     28  C   UNL     1     -46.927  35.446  28.990  1.00  0.00     0.119 C 
ATOM     29  H   UNL     1     -45.148  34.851  27.864  1.00  0.00     0.067 H 
ATOM     30  C   UNL     1     -46.355  37.662  28.454  1.00  0.00     0.169 C 
ATOM     31  C   UNL     1     -47.516  36.835  28.988  1.00  0.00     0.173 C 
ATOM     32  H   UNL     1     -47.681  34.653  28.969  1.00  0.00     0.066 H 
ATOM     33  H   UNL     1     -45.651  37.923  29.255  1.00  0.00     0.088 H 
ATOM     34  F   UNL     1     -48.571  36.842  28.126  1.00  0.00    -0.239 F 
ATOM     35  H   UNL     1     -47.867  37.177  29.965  1.00  0.00     0.074 H 
BRANCH  28  36
ATOM     36  O   UNL     1     -46.120  35.255  30.156  1.00  0.00    -0.387 OA
ATOM     37  H   UNL     1     -45.356  35.857  30.097  1.00  0.00     0.211 HD
ENDBRANCH  28  36
BRANCH  30  38
ATOM     38  N   UNL     1     -46.764  38.903  27.816  1.00  0.00    -0.302 N 
ATOM     39  C   UNL     1     -48.037  39.388  27.671  1.00  0.00     0.022 A 
ATOM     40  C   UNL     1     -45.874  39.786  27.254  1.00  0.00     0.148 A 
ATOM     41  C   UNL     1     -47.957  40.606  27.027  1.00  0.00     0.068 A 
ATOM     42  H   UNL     1     -48.895  38.833  28.024  1.00  0.00     0.083 H 
ATOM     43  C   UNL     1     -46.585  40.875  26.759  1.00  0.00     0.074 A 
ATOM     44  N   UNL     1     -44.541  39.608  27.214  1.00  0.00    -0.218 NA
ATOM     45  C   UNL     1     -45.821  41.893  26.166  1.00  0.00     0.137 A 
ATOM     46  C   UNL     1     -43.927  40.636  26.607  1.00  0.00     0.120 A 
ATOM     47  N   UNL     1     -44.482  41.744  26.087  1.00  0.00    -0.219 NA
ATOM     48  H   UNL     1     -42.846  40.567  26.526  1.00  0.00     0.106 H 
BRANCH  41  49
ATOM     49  C   UNL     1     -49.206  41.477  26.677  1.00  0.00     0.228 A 
ATOM     50  N   UNL     1     -49.149  42.565  25.926  1.00  0.00    -0.218 NA
ATOM     51  O   UNL     1     -50.477  41.199  27.128  1.00  0.00    -0.444 OA
ATOM     52  C   UNL     1     -50.442  43.014  25.873  1.00  0.00     0.066 A 
ATOM     53  C   UNL     1     -51.252  42.185  26.603  1.00  0.00     0.112 A 
ATOM     54  H   UNL     1     -50.716  43.901  25.318  1.00  0.00     0.087 H 
ATOM     55  H   UNL     1     -52.306  42.150  26.834  1.00  0.00     0.106 H 
ENDBRANCH  41  49
BRANCH  45  56
ATOM     56  N   UNL     1     -46.341  43.064  25.642  1.00  0.00    -0.383 N 
ATOM     57  H   UNL     1     -47.127  43.407  26.179  1.00  0.00     0.158 HD
ATOM     58  H   UNL     1     -45.671  43.742  25.303  1.00  0.00     0.158 HD
ENDBRANCH  45  56
ENDBRANCH  30  38
ENDBRANCH   1  26
TORSDOF 9
ENDMDL
MODEL 6
REMARK VINA RESULT:      -8.8      2.550     10.367
REMARK SMILES CNc1ccc2ccc(OC[C@H]3O[C@@H](n4cc(-c5ncco5)c5c(N)ncnc54)[C@@H](F)[C@@H]3O)cc2n1
REMARK SMILES IDX 11 1 10 4 9 5 3 6 4 7 36 8 5 9 35 11 6 12 34 14 7 15 8 17
REMARK SMILES IDX 2 20 1 22 12 26 13 27 32 28 14 30 30 31 31 34 33 36 15 38
REMARK SMILES IDX 16 39 29 40 17 41 23 43 28 44 24 45 27 46 26 47 18 49 19 50
REMARK SMILES IDX 22 51 20 52 21 53 25 56
REMARK H PARENT 11 2 11 3 4 10 5 13 34 16 7 18 8 19 2 21 1 23 1 24 1 25 12 29
REMARK H PARENT 32 32 14 33 30 35 33 37 16 42 27 48 20 54 21 55 25 57 25 58
REMARK Flexibility Score: inf
ROOT
ATOM      1  C   UNL     1     -47.274  35.805  26.370  1.00  0.00     0.117 C 
ATOM      2  H   UNL     1     -46.214  35.957  26.140  1.00  0.00     0.073 H 
ATOM      3  H   UNL     1     -47.785  35.588  25.425  1.00  0.00     0.073 H 
ENDROOT
BRANCH   1   4
ATOM      4  O   UNL     1     -47.715  37.047  26.950  1.00  0.00    -0.491 OA
BRANCH   4   5
ATOM      5  C   UNL     1     -46.692  37.899  27.259  1.00  0.00     0.121 A 
ATOM      6  C   UNL     1     -44.469  41.960  26.186  1.00  0.00     0.126 A 
ATOM      7  C   UNL     1     -43.550  41.776  27.214  1.00  0.00    -0.019 A 
ATOM      8  N   UNL     1     -45.466  41.081  25.964  1.00  0.00    -0.231 NA
ATOM      9  C   UNL     1     -43.648  40.650  28.026  1.00  0.00    -0.049 A 
ATOM     10  H   UNL     1     -42.769  42.508  27.391  1.00  0.00     0.066 H 
ATOM     11  C   UNL     1     -45.562  39.984  26.740  1.00  0.00     0.076 A 
ATOM     12  C   UNL     1     -44.669  39.726  27.799  1.00  0.00     0.001 A 
ATOM     13  H   UNL     1     -42.929  40.501  28.825  1.00  0.00     0.063 H 
ATOM     14  C   UNL     1     -46.570  39.061  26.497  1.00  0.00     0.007 A 
ATOM     15  C   UNL     1     -44.816  38.577  28.594  1.00  0.00    -0.049 A 
ATOM     16  H   UNL     1     -47.263  39.243  25.680  1.00  0.00     0.069 H 
ATOM     17  C   UNL     1     -45.837  37.667  28.331  1.00  0.00    -0.019 A 
ATOM     18  H   UNL     1     -44.126  38.380  29.411  1.00  0.00     0.063 H 
ATOM     19  H   UNL     1     -45.951  36.789  28.958  1.00  0.00     0.066 H 
BRANCH   6  20
ATOM     20  N   UNL     1     -44.351  43.123  25.402  1.00  0.00    -0.373 N 
ATOM     21  H   UNL     1     -43.659  43.731  25.829  1.00  0.00     0.161 HD
BRANCH  20  22
ATOM     22  C   UNL     1     -44.045  42.862  24.004  1.00  0.00     0.005 C 
ATOM     23  H   UNL     1     -44.862  43.179  23.347  1.00  0.00     0.045 H 
ATOM     24  H   UNL     1     -43.159  43.441  23.721  1.00  0.00     0.045 H 
ATOM     25  H   UNL     1     -43.818  41.805  23.830  1.00  0.00     0.045 H 
ENDBRANCH  20  22
ENDBRANCH   6  20
ENDBRANCH   4   5
ENDBRANCH   1   4
BRANCH   1  26
ATOM     26  C   UNL     1     -47.422  34.650  27.377  1.00  0.00     0.123 C 
ATOM     27  O   UNL     1     -48.120  33.554  26.734  1.00  0.00    -0.345 OA
ATOM     28  C   UNL     1     -46.066  34.100  27.832  1.00  0.00     0.119 C 
ATOM     29  H   UNL     1     -48.036  34.966  28.229  1.00  0.00     0.067 H 
ATOM     30  C   UNL     1     -47.193  32.456  26.587  1.00  0.00     0.169 C 
ATOM     31  C   UNL     1     -45.797  33.015  26.819  1.00  0.00     0.173 C 
ATOM     32  H   UNL     1     -45.292  34.873  27.860  1.00  0.00     0.066 H 
ATOM     33  H   UNL     1     -47.461  31.720  27.356  1.00  0.00     0.088 H 
ATOM     34  F   UNL     1     -45.302  33.604  25.694  1.00  0.00    -0.239 F 
ATOM     35  H   UNL     1     -45.085  32.255  27.151  1.00  0.00     0.074 H 
BRANCH  28  36
ATOM     36  O   UNL     1     -46.170  33.535  29.143  1.00  0.00    -0.387 OA
ATOM     37  H   UNL     1     -46.599  32.664  29.063  1.00  0.00     0.211 HD
ENDBRANCH  28  36
BRANCH  30  38
ATOM     38  N   UNL     1     -47.358  31.810  25.295  1.00  0.00    -0.302 N 
ATOM     39  C   UNL     1     -46.970  32.282  24.069  1.00  0.00     0.022 A 
ATOM     40  C   UNL     1     -47.953  30.581  25.141  1.00  0.00     0.148 A 
ATOM     41  C   UNL     1     -47.303  31.333  23.123  1.00  0.00     0.068 A 
ATOM     42  H   UNL     1     -46.500  33.250  23.960  1.00  0.00     0.083 H 
ATOM     43  C   UNL     1     -47.926  30.242  23.792  1.00  0.00     0.074 A 
ATOM     44  N   UNL     1     -48.459  29.845  26.147  1.00  0.00    -0.218 NA
ATOM     45  C   UNL     1     -48.478  28.995  23.457  1.00  0.00     0.137 A 
ATOM     46  C   UNL     1     -48.974  28.689  25.698  1.00  0.00     0.120 A 
ATOM     47  N   UNL     1     -49.014  28.234  24.434  1.00  0.00    -0.219 NA
ATOM     48  H   UNL     1     -49.412  28.037  26.448  1.00  0.00     0.106 H 
BRANCH  41  49
ATOM     49  C   UNL     1     -47.020  31.505  21.596  1.00  0.00     0.228 A 
ATOM     50  N   UNL     1     -47.908  31.229  20.654  1.00  0.00    -0.218 NA
ATOM     51  O   UNL     1     -45.819  31.949  21.091  1.00  0.00    -0.444 OA
ATOM     52  C   UNL     1     -47.262  31.515  19.480  1.00  0.00     0.066 A 
ATOM     53  C   UNL     1     -45.992  31.953  19.742  1.00  0.00     0.112 A 
ATOM     54  H   UNL     1     -47.744  31.390  18.520  1.00  0.00     0.087 H 
ATOM     55  H   UNL     1     -45.155  32.280  19.145  1.00  0.00     0.106 H 
ENDBRANCH  41  49
BRANCH  45  56
ATOM     56  N   UNL     1     -48.519  28.470  22.177  1.00  0.00    -0.383 N 
ATOM     57  H   UNL     1     -47.822  27.750  22.037  1.00  0.00     0.158 HD
ATOM     58  H   UNL     1     -49.438  28.318  21.782  1.00  0.00     0.158 HD
ENDBRANCH  45  56
ENDBRANCH  30  38
ENDBRANCH   1  26
TORSDOF 9
ENDMDL
MODEL 7
REMARK VINA RESULT:      -8.6      4.796      8.453
REMARK SMILES CNc1ccc2ccc(OC[C@H]3O[C@@H](n4cc(-c5ncco5)c5c(N)ncnc54)[C@@H](F)[C@@H]3O)cc2n1
REMARK SMILES IDX 11 1 10 4 9 5 3 6 4 7 36 8 5 9 35 11 6 12 34 14 7 15 8 17
REMARK SMILES IDX 2 20 1 22 12 26 13 27 32 28 14 30 30 31 31 34 33 36 15 38
REMARK SMILES IDX 16 39 29 40 17 41 23 43 28 44 24 45 27 46 26 47 18 49 19 50
REMARK SMILES IDX 22 51 20 52 21 53 25 56
REMARK H PARENT 11 2 11 3 4 10 5 13 34 16 7 18 8 19 2 21 1 23 1 24 1 25 12 29
REMARK H PARENT 32 32 14 33 30 35 33 37 16 42 27 48 20 54 21 55 25 57 25 58
REMARK Flexibility Score: inf
ROOT
ATOM      1  C   UNL     1     -44.790  38.499  28.253  1.00  0.00     0.117 C 
ATOM      2  H   UNL     1     -44.014  37.727  28.196  1.00  0.00     0.073 H 
ATOM      3  H   UNL     1     -45.036  38.790  27.226  1.00  0.00     0.073 H 
ENDROOT
BRANCH   1   4
ATOM      4  O   UNL     1     -44.191  39.580  28.992  1.00  0.00    -0.491 OA
BRANCH   4   5
ATOM      5  C   UNL     1     -43.562  40.500  28.200  1.00  0.00     0.121 A 
ATOM      6  C   UNL     1     -43.712  42.998  24.160  1.00  0.00     0.126 A 
ATOM      7  C   UNL     1     -42.496  43.611  24.447  1.00  0.00    -0.019 A 
ATOM      8  N   UNL     1     -44.276  42.117  25.010  1.00  0.00    -0.231 NA
ATOM      9  C   UNL     1     -41.835  43.299  25.630  1.00  0.00    -0.049 A 
ATOM     10  H   UNL     1     -42.071  44.335  23.760  1.00  0.00     0.066 H 
ATOM     11  C   UNL     1     -43.638  41.803  26.153  1.00  0.00     0.076 A 
ATOM     12  C   UNL     1     -42.403  42.379  26.513  1.00  0.00     0.001 A 
ATOM     13  H   UNL     1     -40.884  43.771  25.854  1.00  0.00     0.063 H 
ATOM     14  C   UNL     1     -44.201  40.875  27.018  1.00  0.00     0.007 A 
ATOM     15  C   UNL     1     -41.779  42.035  27.723  1.00  0.00    -0.049 A 
ATOM     16  H   UNL     1     -45.150  40.417  26.751  1.00  0.00     0.069 H 
ATOM     17  C   UNL     1     -42.366  41.102  28.575  1.00  0.00    -0.019 A 
ATOM     18  H   UNL     1     -40.827  42.481  28.000  1.00  0.00     0.063 H 
ATOM     19  H   UNL     1     -41.884  40.852  29.514  1.00  0.00     0.066 H 
BRANCH   6  20
ATOM     20  N   UNL     1     -44.362  43.358  22.964  1.00  0.00    -0.373 N 
ATOM     21  H   UNL     1     -45.315  43.008  22.998  1.00  0.00     0.161 HD
BRANCH  20  22
ATOM     22  C   UNL     1     -44.323  44.783  22.679  1.00  0.00     0.005 C 
ATOM     23  H   UNL     1     -45.292  45.148  22.318  1.00  0.00     0.045 H 
ATOM     24  H   UNL     1     -44.098  45.324  23.605  1.00  0.00     0.045 H 
ATOM     25  H   UNL     1     -43.541  45.030  21.954  1.00  0.00     0.045 H 
ENDBRANCH  20  22
ENDBRANCH   6  20
ENDBRANCH   4   5
ENDBRANCH   1   4
BRANCH   1  26
ATOM     26  C   UNL     1     -46.016  37.943  28.999  1.00  0.00     0.123 C 
ATOM     27  O   UNL     1     -46.962  39.021  29.217  1.00  0.00    -0.345 OA
ATOM     28  C   UNL     1     -46.752  36.871  28.187  1.00  0.00     0.119 C 
ATOM     29  H   UNL     1     -45.722  37.569  29.986  1.00  0.00     0.067 H 
ATOM     30  C   UNL     1     -48.133  38.760  28.413  1.00  0.00     0.169 C 
ATOM     31  C   UNL     1     -47.754  37.685  27.405  1.00  0.00     0.173 C 
ATOM     32  H   UNL     1     -46.074  36.290  27.554  1.00  0.00     0.066 H 
ATOM     33  H   UNL     1     -48.908  38.403  29.104  1.00  0.00     0.088 H 
ATOM     34  F   UNL     1     -47.113  38.216  26.326  1.00  0.00    -0.239 F 
ATOM     35  H   UNL     1     -48.616  37.115  27.047  1.00  0.00     0.074 H 
BRANCH  28  36
ATOM     36  O   UNL     1     -47.430  35.961  29.058  1.00  0.00    -0.387 OA
ATOM     37  H   UNL     1     -47.729  35.201  28.527  1.00  0.00     0.211 HD
ENDBRANCH  28  36
BRANCH  30  38
ATOM     38  N   UNL     1     -48.626  39.985  27.805  1.00  0.00    -0.302 N 
ATOM     39  C   UNL     1     -47.891  41.053  27.362  1.00  0.00     0.022 A 
ATOM     40  C   UNL     1     -49.960  40.231  27.589  1.00  0.00     0.148 A 
ATOM     41  C   UNL     1     -48.765  41.983  26.838  1.00  0.00     0.068 A 
ATOM     42  H   UNL     1     -46.814  41.076  27.460  1.00  0.00     0.083 H 
ATOM     43  C   UNL     1     -50.087  41.472  26.971  1.00  0.00     0.074 A 
ATOM     44  N   UNL     1     -50.957  39.390  27.919  1.00  0.00    -0.218 NA
ATOM     45  C   UNL     1     -51.395  41.873  26.654  1.00  0.00     0.137 A 
ATOM     46  C   UNL     1     -52.155  39.894  27.585  1.00  0.00     0.120 A 
ATOM     47  N   UNL     1     -52.424  41.067  26.987  1.00  0.00    -0.219 NA
ATOM     48  H   UNL     1     -53.017  39.278  27.825  1.00  0.00     0.106 H 
BRANCH  41  49
ATOM     49  C   UNL     1     -48.306  43.347  26.228  1.00  0.00     0.228 A 
ATOM     50  N   UNL     1     -47.121  43.532  25.670  1.00  0.00    -0.218 NA
ATOM     51  O   UNL     1     -49.087  44.480  26.226  1.00  0.00    -0.444 OA
ATOM     52  C   UNL     1     -47.129  44.844  25.275  1.00  0.00     0.066 A 
ATOM     53  C   UNL     1     -48.323  45.423  25.611  1.00  0.00     0.112 A 
ATOM     54  H   UNL     1     -46.283  45.295  24.775  1.00  0.00     0.087 H 
ATOM     55  H   UNL     1     -48.760  46.404  25.499  1.00  0.00     0.106 H 
ENDBRANCH  41  49
BRANCH  45  56
ATOM     56  N   UNL     1     -51.722  43.056  26.015  1.00  0.00    -0.383 N 
ATOM     57  H   UNL     1     -51.594  43.862  26.613  1.00  0.00     0.158 HD
ATOM     58  H   UNL     1     -51.440  43.139  25.047  1.00  0.00     0.158 HD
ENDBRANCH  45  56
ENDBRANCH  30  38
ENDBRANCH   1  26
TORSDOF 9
ENDMDL
