MODEL 1
REMARK VINA RESULT:      -9.5      0.000      0.000
REMARK SMILES CNc1ccc2ccc(OCc3ncc(-n4cc(Cl)c5c(N)ncnc54)s3)cc2n1.O=C(O)C(F)(F)F
REMARK SMILES IDX 11 1 10 4 9 5 3 6 4 7 30 8 5 9 29 11 6 12 28 14 7 15 8 17
REMARK SMILES IDX 2 20 1 22 12 26 13 27 27 28 14 29 15 30 16 32 17 33 26 34
REMARK SMILES IDX 18 35 20 37 25 38 19 39 21 40 24 41 23 42 22 44
REMARK H PARENT 11 2 11 3 4 10 5 13 28 16 7 18 8 19 2 21 1 23 1 24 1 25 14 31
REMARK H PARENT 17 36 24 43 22 45 22 46
REMARK Flexibility Score: inf
ROOT
ATOM      1  C   UNL     1     -47.718  36.101  26.947  1.00  0.00     0.140 C 
ATOM      2  H   UNL     1     -47.110  36.860  26.442  1.00  0.00     0.078 H 
ATOM      3  H   UNL     1     -48.751  36.454  26.872  1.00  0.00     0.078 H 
ENDROOT
BRANCH   1   4
ATOM      4  O   UNL     1     -47.244  36.036  28.295  1.00  0.00    -0.486 OA
BRANCH   4   5
ATOM      5  C   UNL     1     -46.279  36.905  28.717  1.00  0.00     0.122 A 
ATOM      6  C   UNL     1     -43.796  40.746  27.361  1.00  0.00     0.126 A 
ATOM      7  C   UNL     1     -43.101  40.777  28.564  1.00  0.00    -0.019 A 
ATOM      8  N   UNL     1     -44.723  39.801  27.105  1.00  0.00    -0.231 NA
ATOM      9  C   UNL     1     -43.379  39.824  29.539  1.00  0.00    -0.049 A 
ATOM     10  H   UNL     1     -42.339  41.528  28.739  1.00  0.00     0.066 H 
ATOM     11  C   UNL     1     -44.996  38.873  28.042  1.00  0.00     0.076 A 
ATOM     12  C   UNL     1     -44.345  38.847  29.287  1.00  0.00     0.001 A 
ATOM     13  H   UNL     1     -42.835  39.847  30.479  1.00  0.00     0.063 H 
ATOM     14  C   UNL     1     -45.953  37.900  27.787  1.00  0.00     0.007 A 
ATOM     15  C   UNL     1     -44.668  37.861  30.234  1.00  0.00    -0.049 A 
ATOM     16  H   UNL     1     -46.458  37.911  26.823  1.00  0.00     0.069 H 
ATOM     17  C   UNL     1     -45.637  36.896  29.951  1.00  0.00    -0.019 A 
ATOM     18  H   UNL     1     -44.167  37.841  31.201  1.00  0.00     0.063 H 
ATOM     19  H   UNL     1     -45.857  36.166  30.720  1.00  0.00     0.066 H 
BRANCH   6  20
ATOM     20  N   UNL     1     -43.470  41.711  26.389  1.00  0.00    -0.373 N 
ATOM     21  H   UNL     1     -42.694  41.366  25.833  1.00  0.00     0.161 HD
BRANCH  20  22
ATOM     22  C   UNL     1     -43.199  43.032  26.934  1.00  0.00     0.005 C 
ATOM     23  H   UNL     1     -42.342  43.503  26.439  1.00  0.00     0.045 H 
ATOM     24  H   UNL     1     -44.073  43.687  26.861  1.00  0.00     0.045 H 
ATOM     25  H   UNL     1     -42.947  42.933  27.995  1.00  0.00     0.045 H 
ENDBRANCH  20  22
ENDBRANCH   6  20
ENDBRANCH   4   5
ENDBRANCH   1   4
BRANCH   1  26
ATOM     26  C   UNL     1     -47.468  34.785  26.270  1.00  0.00     0.132 A 
ATOM     27  N   UNL     1     -46.339  34.449  25.674  1.00  0.00    -0.244 NA
ATOM     28  S   UNL     1     -48.711  33.598  26.185  1.00  0.00    -0.097 S 
ATOM     29  C   UNL     1     -46.440  33.167  25.166  1.00  0.00     0.063 A 
ATOM     30  C   UNL     1     -47.660  32.556  25.352  1.00  0.00     0.121 A 
ATOM     31  H   UNL     1     -45.574  32.750  24.667  1.00  0.00     0.087 H 
BRANCH  30  32
ATOM     32  N   UNL     1     -48.050  31.269  24.946  1.00  0.00    -0.289 N 
ATOM     33  C   UNL     1     -48.503  30.289  25.819  1.00  0.00     0.031 A 
ATOM     34  C   UNL     1     -48.068  30.706  23.664  1.00  0.00     0.152 A 
ATOM     35  C   UNL     1     -48.807  29.151  25.114  1.00  0.00     0.072 A 
ATOM     36  H   UNL     1     -48.579  30.477  26.880  1.00  0.00     0.084 H 
ATOM     37  C   UNL     1     -48.540  29.398  23.749  1.00  0.00     0.080 A 
ATOM     38  N   UNL     1     -47.692  31.313  22.519  1.00  0.00    -0.218 NA
ATOM     39  Cl  UNL     1     -49.390  27.700  25.779  1.00  0.00    -0.082 Cl
ATOM     40  C   UNL     1     -48.636  28.674  22.550  1.00  0.00     0.137 A 
ATOM     41  C   UNL     1     -47.820  30.526  21.444  1.00  0.00     0.120 A 
ATOM     42  N   UNL     1     -48.259  29.259  21.400  1.00  0.00    -0.219 NA
ATOM     43  H   UNL     1     -47.535  30.963  20.492  1.00  0.00     0.106 H 
BRANCH  40  44
ATOM     44  N   UNL     1     -49.093  27.370  22.467  1.00  0.00    -0.383 N 
ATOM     45  H   UNL     1     -48.537  26.812  21.830  1.00  0.00     0.158 HD
ATOM     46  H   UNL     1     -49.382  26.937  23.334  1.00  0.00     0.158 HD
ENDBRANCH  40  44
ENDBRANCH  30  32
ENDBRANCH   1  26
TORSDOF 7
ENDMDL
MODEL 2
REMARK VINA RESULT:      -9.3      3.383     10.883
REMARK SMILES CNc1ccc2ccc(OCc3ncc(-n4cc(Cl)c5c(N)ncnc54)s3)cc2n1.O=C(O)C(F)(F)F
REMARK SMILES IDX 11 1 10 4 9 5 3 6 4 7 30 8 5 9 29 11 6 12 28 14 7 15 8 17
REMARK SMILES IDX 2 20 1 22 12 26 13 27 27 28 14 29 15 30 16 32 17 33 26 34
REMARK SMILES IDX 18 35 20 37 25 38 19 39 21 40 24 41 23 42 22 44
REMARK H PARENT 11 2 11 3 4 10 5 13 28 16 7 18 8 19 2 21 1 23 1 24 1 25 14 31
REMARK H PARENT 17 36 24 43 22 45 22 46
REMARK Flexibility Score: inf
ROOT
ATOM      1  C   UNL     1     -49.102  34.125  26.534  1.00  0.00     0.140 C 
ATOM      2  H   UNL     1     -49.976  33.872  27.145  1.00  0.00     0.078 H 
ATOM      3  H   UNL     1     -49.459  34.139  25.500  1.00  0.00     0.078 H 
ENDROOT
BRANCH   1   4
ATOM      4  O   UNL     1     -48.130  33.104  26.779  1.00  0.00    -0.486 OA
BRANCH   4   5
ATOM      5  C   UNL     1     -47.823  32.209  25.794  1.00  0.00     0.122 A 
ATOM      6  C   UNL     1     -48.917  27.861  24.163  1.00  0.00     0.126 A 
ATOM      7  C   UNL     1     -47.999  27.972  23.125  1.00  0.00    -0.019 A 
ATOM      8  N   UNL     1     -49.088  28.852  25.061  1.00  0.00    -0.231 NA
ATOM      9  C   UNL     1     -47.254  29.139  22.992  1.00  0.00    -0.049 A 
ATOM     10  H   UNL     1     -47.855  27.152  22.429  1.00  0.00     0.066 H 
ATOM     11  C   UNL     1     -48.369  29.984  24.942  1.00  0.00     0.076 A 
ATOM     12  C   UNL     1     -47.432  30.176  23.911  1.00  0.00     0.001 A 
ATOM     13  H   UNL     1     -46.536  29.225  22.181  1.00  0.00     0.063 H 
ATOM     14  C   UNL     1     -48.545  31.010  25.860  1.00  0.00     0.007 A 
ATOM     15  C   UNL     1     -46.708  31.376  23.826  1.00  0.00    -0.049 A 
ATOM     16  H   UNL     1     -49.265  30.868  26.664  1.00  0.00     0.069 H 
ATOM     17  C   UNL     1     -46.908  32.392  24.764  1.00  0.00    -0.019 A 
ATOM     18  H   UNL     1     -45.985  31.527  23.027  1.00  0.00     0.063 H 
ATOM     19  H   UNL     1     -46.334  33.303  24.645  1.00  0.00     0.066 H 
BRANCH   6  20
ATOM     20  N   UNL     1     -49.634  26.657  24.280  1.00  0.00    -0.373 N 
ATOM     21  H   UNL     1     -50.591  26.815  23.981  1.00  0.00     0.161 HD
BRANCH  20  22
ATOM     22  C   UNL     1     -49.575  26.057  25.604  1.00  0.00     0.005 C 
ATOM     23  H   UNL     1     -48.597  26.211  26.072  1.00  0.00     0.045 H 
ATOM     24  H   UNL     1     -50.363  26.444  26.259  1.00  0.00     0.045 H 
ATOM     25  H   UNL     1     -49.724  24.977  25.510  1.00  0.00     0.045 H 
ENDBRANCH  20  22
ENDBRANCH   6  20
ENDBRANCH   4   5
ENDBRANCH   1   4
BRANCH   1  26
ATOM     26  C   UNL     1     -48.568  35.442  27.018  1.00  0.00     0.132 A 
ATOM     27  N   UNL     1     -49.215  36.267  27.820  1.00  0.00    -0.244 NA
ATOM     28  S   UNL     1     -47.028  36.004  26.494  1.00  0.00    -0.097 S 
ATOM     29  C   UNL     1     -48.436  37.379  28.077  1.00  0.00     0.063 A 
ATOM     30  C   UNL     1     -47.216  37.403  27.438  1.00  0.00     0.121 A 
ATOM     31  H   UNL     1     -48.835  38.135  28.743  1.00  0.00     0.087 H 
BRANCH  30  32
ATOM     32  N   UNL     1     -46.226  38.397  27.508  1.00  0.00    -0.289 N 
ATOM     33  C   UNL     1     -46.036  39.365  26.532  1.00  0.00     0.031 A 
ATOM     34  C   UNL     1     -45.265  38.629  28.499  1.00  0.00     0.152 A 
ATOM     35  C   UNL     1     -44.998  40.187  26.895  1.00  0.00     0.072 A 
ATOM     36  H   UNL     1     -46.657  39.399  25.649  1.00  0.00     0.084 H 
ATOM     37  C   UNL     1     -44.501  39.738  28.139  1.00  0.00     0.080 A 
ATOM     38  N   UNL     1     -45.088  37.909  29.626  1.00  0.00    -0.218 NA
ATOM     39  Cl  UNL     1     -44.414  41.505  25.995  1.00  0.00    -0.082 Cl
ATOM     40  C   UNL     1     -43.484  40.128  29.025  1.00  0.00     0.137 A 
ATOM     41  C   UNL     1     -44.089  38.369  30.389  1.00  0.00     0.120 A 
ATOM     42  N   UNL     1     -43.288  39.418  30.150  1.00  0.00    -0.219 NA
ATOM     43  H   UNL     1     -43.903  37.829  31.312  1.00  0.00     0.106 H 
BRANCH  40  44
ATOM     44  N   UNL     1     -42.646  41.209  28.815  1.00  0.00    -0.383 N 
ATOM     45  H   UNL     1     -42.889  41.999  29.401  1.00  0.00     0.158 HD
ATOM     46  H   UNL     1     -41.664  41.002  28.697  1.00  0.00     0.158 HD
ENDBRANCH  40  44
ENDBRANCH  30  32
ENDBRANCH   1  26
TORSDOF 7
ENDMDL
MODEL 3
REMARK VINA RESULT:      -9.1      3.470     10.827
REMARK SMILES CNc1ccc2ccc(OCc3ncc(-n4cc(Cl)c5c(N)ncnc54)s3)cc2n1.O=C(O)C(F)(F)F
REMARK SMILES IDX 11 1 10 4 9 5 3 6 4 7 30 8 5 9 29 11 6 12 28 14 7 15 8 17
REMARK SMILES IDX 2 20 1 22 12 26 13 27 27 28 14 29 15 30 16 32 17 33 26 34
REMARK SMILES IDX 18 35 20 37 25 38 19 39 21 40 24 41 23 42 22 44
REMARK H PARENT 11 2 11 3 4 10 5 13 28 16 7 18 8 19 2 21 1 23 1 24 1 25 14 31
REMARK H PARENT 17 36 24 43 22 45 22 46
REMARK Flexibility Score: inf
ROOT
ATOM      1  C   UNL     1     -47.401  35.057  27.984  1.00  0.00     0.140 C 
ATOM      2  H   UNL     1     -47.582  34.625  28.974  1.00  0.00     0.078 H 
ATOM      3  H   UNL     1     -48.391  35.259  27.565  1.00  0.00     0.078 H 
ENDROOT
BRANCH   1   4
ATOM      4  O   UNL     1     -46.668  34.076  27.244  1.00  0.00    -0.486 OA
BRANCH   4   5
ATOM      5  C   UNL     1     -47.308  33.310  26.313  1.00  0.00     0.122 A 
ATOM      6  C   UNL     1     -46.514  30.429  22.594  1.00  0.00     0.126 A 
ATOM      7  C   UNL     1     -47.876  30.217  22.411  1.00  0.00    -0.019 A 
ATOM      8  N   UNL     1     -46.051  31.233  23.572  1.00  0.00    -0.231 NA
ATOM      9  C   UNL     1     -48.784  30.829  23.269  1.00  0.00    -0.049 A 
ATOM     10  H   UNL     1     -48.230  29.590  21.600  1.00  0.00     0.066 H 
ATOM     11  C   UNL     1     -46.924  31.831  24.405  1.00  0.00     0.076 A 
ATOM     12  C   UNL     1     -48.314  31.654  24.292  1.00  0.00     0.001 A 
ATOM     13  H   UNL     1     -49.849  30.664  23.125  1.00  0.00     0.063 H 
ATOM     14  C   UNL     1     -46.452  32.655  25.418  1.00  0.00     0.007 A 
ATOM     15  C   UNL     1     -49.184  32.296  25.188  1.00  0.00    -0.049 A 
ATOM     16  H   UNL     1     -45.378  32.800  25.510  1.00  0.00     0.069 H 
ATOM     17  C   UNL     1     -48.681  33.119  26.199  1.00  0.00    -0.019 A 
ATOM     18  H   UNL     1     -50.260  32.159  25.104  1.00  0.00     0.063 H 
ATOM     19  H   UNL     1     -49.394  33.580  26.871  1.00  0.00     0.066 H 
BRANCH   6  20
ATOM     20  N   UNL     1     -45.627  29.814  21.692  1.00  0.00    -0.373 N 
ATOM     21  H   UNL     1     -46.164  29.391  20.941  1.00  0.00     0.161 HD
BRANCH  20  22
ATOM     22  C   UNL     1     -44.720  28.860  22.310  1.00  0.00     0.005 C 
ATOM     23  H   UNL     1     -43.913  28.571  21.628  1.00  0.00     0.045 H 
ATOM     24  H   UNL     1     -44.295  29.250  23.241  1.00  0.00     0.045 H 
ATOM     25  H   UNL     1     -45.277  27.951  22.558  1.00  0.00     0.045 H 
ENDBRANCH  20  22
ENDBRANCH   6  20
ENDBRANCH   4   5
ENDBRANCH   1   4
BRANCH   1  26
ATOM     26  C   UNL     1     -46.548  36.280  28.164  1.00  0.00     0.132 A 
ATOM     27  N   UNL     1     -45.806  36.529  29.226  1.00  0.00    -0.244 NA
ATOM     28  S   UNL     1     -46.524  37.510  26.960  1.00  0.00    -0.097 S 
ATOM     29  C   UNL     1     -45.142  37.730  29.063  1.00  0.00     0.063 A 
ATOM     30  C   UNL     1     -45.415  38.398  27.889  1.00  0.00     0.121 A 
ATOM     31  H   UNL     1     -44.475  38.052  29.853  1.00  0.00     0.087 H 
BRANCH  30  32
ATOM     32  N   UNL     1     -44.893  39.629  27.457  1.00  0.00    -0.289 N 
ATOM     33  C   UNL     1     -45.322  40.288  26.314  1.00  0.00     0.031 A 
ATOM     34  C   UNL     1     -43.891  40.422  28.029  1.00  0.00     0.152 A 
ATOM     35  C   UNL     1     -44.623  41.462  26.170  1.00  0.00     0.072 A 
ATOM     36  H   UNL     1     -46.097  39.874  25.686  1.00  0.00     0.084 H 
ATOM     37  C   UNL     1     -43.715  41.563  27.248  1.00  0.00     0.080 A 
ATOM     38  N   UNL     1     -43.193  40.145  29.150  1.00  0.00    -0.218 NA
ATOM     39  Cl  UNL     1     -44.816  42.583  24.908  1.00  0.00    -0.082 Cl
ATOM     40  C   UNL     1     -42.748  42.487  27.676  1.00  0.00     0.137 A 
ATOM     41  C   UNL     1     -42.297  41.091  29.456  1.00  0.00     0.120 A 
ATOM     42  N   UNL     1     -42.038  42.225  28.787  1.00  0.00    -0.219 NA
ATOM     43  H   UNL     1     -41.708  40.922  30.351  1.00  0.00     0.106 H 
BRANCH  40  44
ATOM     44  N   UNL     1     -42.462  43.669  27.016  1.00  0.00    -0.383 N 
ATOM     45  H   UNL     1     -42.970  44.455  27.404  1.00  0.00     0.158 HD
ATOM     46  H   UNL     1     -41.495  43.821  26.762  1.00  0.00     0.158 HD
ENDBRANCH  40  44
ENDBRANCH  30  32
ENDBRANCH   1  26
TORSDOF 7
ENDMDL
MODEL 4
REMARK VINA RESULT:      -9.0      3.362     10.786
REMARK SMILES CNc1ccc2ccc(OCc3ncc(-n4cc(Cl)c5c(N)ncnc54)s3)cc2n1.O=C(O)C(F)(F)F
REMARK SMILES IDX 11 1 10 4 9 5 3 6 4 7 30 8 5 9 29 11 6 12 28 14 7 15 8 17
REMARK SMILES IDX 2 20 1 22 12 26 13 27 27 28 14 29 15 30 16 32 17 33 26 34
REMARK SMILES IDX 18 35 20 37 25 38 19 39 21 40 24 41 23 42 22 44
REMARK H PARENT 11 2 11 3 4 10 5 13 28 16 7 18 8 19 2 21 1 23 1 24 1 25 14 31
REMARK H PARENT 17 36 24 43 22 45 22 46
REMARK Flexibility Score: inf
ROOT
ATOM      1  C   UNL     1     -48.460  35.542  26.998  1.00  0.00     0.140 C 
ATOM      2  H   UNL     1     -49.442  35.774  27.425  1.00  0.00     0.078 H 
ATOM      3  H   UNL     1     -48.547  35.751  25.928  1.00  0.00     0.078 H 
ENDROOT
BRANCH   1   4
ATOM      4  O   UNL     1     -48.212  34.162  27.282  1.00  0.00    -0.486 OA
BRANCH   4   5
ATOM      5  C   UNL     1     -47.743  33.340  26.298  1.00  0.00     0.122 A 
ATOM      6  C   UNL     1     -48.711  29.284  23.981  1.00  0.00     0.126 A 
ATOM      7  C   UNL     1     -47.569  29.408  23.196  1.00  0.00    -0.019 A 
ATOM      8  N   UNL     1     -49.022  30.197  24.922  1.00  0.00    -0.231 NA
ATOM      9  C   UNL     1     -46.738  30.509  23.370  1.00  0.00    -0.049 A 
ATOM     10  H   UNL     1     -47.321  28.648  22.464  1.00  0.00     0.066 H 
ATOM     11  C   UNL     1     -48.220  31.265  25.098  1.00  0.00     0.076 A 
ATOM     12  C   UNL     1     -47.057  31.466  24.335  1.00  0.00     0.001 A 
ATOM     13  H   UNL     1     -45.845  30.605  22.757  1.00  0.00     0.063 H 
ATOM     14  C   UNL     1     -48.538  32.210  26.063  1.00  0.00     0.007 A 
ATOM     15  C   UNL     1     -46.255  32.598  24.553  1.00  0.00    -0.049 A 
ATOM     16  H   UNL     1     -49.435  32.060  26.661  1.00  0.00     0.069 H 
ATOM     17  C   UNL     1     -46.601  33.535  25.529  1.00  0.00    -0.019 A 
ATOM     18  H   UNL     1     -45.356  32.758  23.961  1.00  0.00     0.063 H 
ATOM     19  H   UNL     1     -45.955  34.397  25.648  1.00  0.00     0.066 H 
BRANCH   6  20
ATOM     20  N   UNL     1     -49.515  28.144  23.794  1.00  0.00    -0.373 N 
ATOM     21  H   UNL     1     -50.486  28.399  23.946  1.00  0.00     0.161 HD
BRANCH  20  22
ATOM     22  C   UNL     1     -49.123  27.003  24.608  1.00  0.00     0.005 C 
ATOM     23  H   UNL     1     -48.167  27.178  25.112  1.00  0.00     0.045 H 
ATOM     24  H   UNL     1     -49.891  26.752  25.348  1.00  0.00     0.045 H 
ATOM     25  H   UNL     1     -48.994  26.132  23.958  1.00  0.00     0.045 H 
ENDBRANCH  20  22
ENDBRANCH   6  20
ENDBRANCH   4   5
ENDBRANCH   1   4
BRANCH   1  26
ATOM     26  C   UNL     1     -47.440  36.384  27.708  1.00  0.00     0.132 A 
ATOM     27  N   UNL     1     -47.069  36.217  28.963  1.00  0.00    -0.244 NA
ATOM     28  S   UNL     1     -46.693  37.710  26.904  1.00  0.00    -0.097 S 
ATOM     29  C   UNL     1     -46.107  37.152  29.297  1.00  0.00     0.063 A 
ATOM     30  C   UNL     1     -45.782  38.043  28.298  1.00  0.00     0.121 A 
ATOM     31  H   UNL     1     -45.692  37.118  30.297  1.00  0.00     0.087 H 
BRANCH  30  32
ATOM     32  N   UNL     1     -44.850  39.092  28.350  1.00  0.00    -0.289 N 
ATOM     33  C   UNL     1     -43.852  39.190  29.310  1.00  0.00     0.031 A 
ATOM     34  C   UNL     1     -44.715  40.207  27.513  1.00  0.00     0.152 A 
ATOM     35  C   UNL     1     -43.107  40.321  29.085  1.00  0.00     0.072 A 
ATOM     36  H   UNL     1     -43.745  38.443  30.084  1.00  0.00     0.084 H 
ATOM     37  C   UNL     1     -43.637  40.974  27.951  1.00  0.00     0.080 A 
ATOM     38  N   UNL     1     -45.492  40.510  26.453  1.00  0.00    -0.218 NA
ATOM     39  Cl  UNL     1     -41.786  40.840  30.021  1.00  0.00    -0.082 Cl
ATOM     40  C   UNL     1     -43.343  42.138  27.222  1.00  0.00     0.137 A 
ATOM     41  C   UNL     1     -45.123  41.641  25.840  1.00  0.00     0.120 A 
ATOM     42  N   UNL     1     -44.111  42.460  26.166  1.00  0.00    -0.219 NA
ATOM     43  H   UNL     1     -45.712  41.933  24.977  1.00  0.00     0.106 H 
BRANCH  40  44
ATOM     44  N   UNL     1     -42.303  42.999  27.523  1.00  0.00    -0.383 N 
ATOM     45  H   UNL     1     -42.143  43.676  26.787  1.00  0.00     0.158 HD
ATOM     46  H   UNL     1     -42.253  43.329  28.477  1.00  0.00     0.158 HD
ENDBRANCH  40  44
ENDBRANCH  30  32
ENDBRANCH   1  26
TORSDOF 7
ENDMDL
MODEL 5
REMARK VINA RESULT:      -9.0      1.822      2.254
REMARK SMILES CNc1ccc2ccc(OCc3ncc(-n4cc(Cl)c5c(N)ncnc54)s3)cc2n1.O=C(O)C(F)(F)F
REMARK SMILES IDX 11 1 10 4 9 5 3 6 4 7 30 8 5 9 29 11 6 12 28 14 7 15 8 17
REMARK SMILES IDX 2 20 1 22 12 26 13 27 27 28 14 29 15 30 16 32 17 33 26 34
REMARK SMILES IDX 18 35 20 37 25 38 19 39 21 40 24 41 23 42 22 44
REMARK H PARENT 11 2 11 3 4 10 5 13 28 16 7 18 8 19 2 21 1 23 1 24 1 25 14 31
REMARK H PARENT 17 36 24 43 22 45 22 46
REMARK Flexibility Score: inf
ROOT
ATOM      1  C   UNL     1     -47.331  36.631  28.067  1.00  0.00     0.140 C 
ATOM      2  H   UNL     1     -48.178  37.324  28.134  1.00  0.00     0.078 H 
ATOM      3  H   UNL     1     -47.059  36.398  29.101  1.00  0.00     0.078 H 
ENDROOT
BRANCH   1   4
ATOM      4  O   UNL     1     -46.299  37.322  27.357  1.00  0.00    -0.486 OA
BRANCH   4   5
ATOM      5  C   UNL     1     -45.374  38.052  28.045  1.00  0.00     0.122 A 
ATOM      6  C   UNL     1     -42.622  41.936  27.722  1.00  0.00     0.126 A 
ATOM      7  C   UNL     1     -42.091  41.719  28.989  1.00  0.00    -0.019 A 
ATOM      8  N   UNL     1     -43.534  41.099  27.188  1.00  0.00    -0.231 NA
ATOM      9  C   UNL     1     -42.523  40.626  29.733  1.00  0.00    -0.049 A 
ATOM     10  H   UNL     1     -41.337  42.387  29.390  1.00  0.00     0.066 H 
ATOM     11  C   UNL     1     -43.956  40.038  27.900  1.00  0.00     0.076 A 
ATOM     12  C   UNL     1     -43.476  39.760  29.192  1.00  0.00     0.001 A 
ATOM     13  H   UNL     1     -42.107  40.456  30.722  1.00  0.00     0.063 H 
ATOM     14  C   UNL     1     -44.898  39.176  27.357  1.00  0.00     0.007 A 
ATOM     15  C   UNL     1     -43.949  38.642  29.898  1.00  0.00    -0.049 A 
ATOM     16  H   UNL     1     -45.273  39.382  26.356  1.00  0.00     0.069 H 
ATOM     17  C   UNL     1     -44.900  37.793  29.327  1.00  0.00    -0.019 A 
ATOM     18  H   UNL     1     -43.581  38.427  30.899  1.00  0.00     0.063 H 
ATOM     19  H   UNL     1     -45.241  36.953  29.919  1.00  0.00     0.066 H 
BRANCH   6  20
ATOM     20  N   UNL     1     -42.143  43.037  26.989  1.00  0.00    -0.373 N 
ATOM     21  H   UNL     1     -41.958  43.802  27.630  1.00  0.00     0.161 HD
BRANCH  20  22
ATOM     22  C   UNL     1     -43.012  43.445  25.896  1.00  0.00     0.005 C 
ATOM     23  H   UNL     1     -42.681  44.390  25.450  1.00  0.00     0.045 H 
ATOM     24  H   UNL     1     -43.078  42.674  25.122  1.00  0.00     0.045 H 
ATOM     25  H   UNL     1     -44.021  43.607  26.288  1.00  0.00     0.045 H 
ENDBRANCH  20  22
ENDBRANCH   6  20
ENDBRANCH   4   5
ENDBRANCH   1   4
BRANCH   1  26
ATOM     26  C   UNL     1     -47.773  35.441  27.265  1.00  0.00     0.132 A 
ATOM     27  N   UNL     1     -48.978  34.906  27.314  1.00  0.00    -0.244 NA
ATOM     28  S   UNL     1     -46.668  34.636  26.219  1.00  0.00    -0.097 S 
ATOM     29  C   UNL     1     -49.053  33.835  26.444  1.00  0.00     0.063 A 
ATOM     30  C   UNL     1     -47.889  33.546  25.767  1.00  0.00     0.121 A 
ATOM     31  H   UNL     1     -49.998  33.311  26.364  1.00  0.00     0.087 H 
BRANCH  30  32
ATOM     32  N   UNL     1     -47.669  32.523  24.830  1.00  0.00    -0.289 N 
ATOM     33  C   UNL     1     -46.412  32.165  24.361  1.00  0.00     0.031 A 
ATOM     34  C   UNL     1     -48.592  31.688  24.189  1.00  0.00     0.152 A 
ATOM     35  C   UNL     1     -46.534  31.134  23.462  1.00  0.00     0.072 A 
ATOM     36  H   UNL     1     -45.522  32.670  24.705  1.00  0.00     0.084 H 
ATOM     37  C   UNL     1     -47.905  30.817  23.344  1.00  0.00     0.080 A 
ATOM     38  N   UNL     1     -49.931  31.707  24.346  1.00  0.00    -0.218 NA
ATOM     39  Cl  UNL     1     -45.253  30.383  22.636  1.00  0.00    -0.082 Cl
ATOM     40  C   UNL     1     -48.673  29.893  22.619  1.00  0.00     0.137 A 
ATOM     41  C   UNL     1     -50.558  30.788  23.602  1.00  0.00     0.120 A 
ATOM     42  N   UNL     1     -50.011  29.901  22.757  1.00  0.00    -0.219 NA
ATOM     43  H   UNL     1     -51.639  30.755  23.690  1.00  0.00     0.106 H 
BRANCH  40  44
ATOM     44  N   UNL     1     -48.142  28.959  21.746  1.00  0.00    -0.383 N 
ATOM     45  H   UNL     1     -47.342  28.479  22.143  1.00  0.00     0.158 HD
ATOM     46  H   UNL     1     -48.804  28.404  21.221  1.00  0.00     0.158 HD
ENDBRANCH  40  44
ENDBRANCH  30  32
ENDBRANCH   1  26
TORSDOF 7
ENDMDL
MODEL 6
REMARK VINA RESULT:      -8.8      1.527      2.129
REMARK SMILES CNc1ccc2ccc(OCc3ncc(-n4cc(Cl)c5c(N)ncnc54)s3)cc2n1.O=C(O)C(F)(F)F
REMARK SMILES IDX 11 1 10 4 9 5 3 6 4 7 30 8 5 9 29 11 6 12 28 14 7 15 8 17
REMARK SMILES IDX 2 20 1 22 12 26 13 27 27 28 14 29 15 30 16 32 17 33 26 34
REMARK SMILES IDX 18 35 20 37 25 38 19 39 21 40 24 41 23 42 22 44
REMARK H PARENT 11 2 11 3 4 10 5 13 28 16 7 18 8 19 2 21 1 23 1 24 1 25 14 31
REMARK H PARENT 17 36 24 43 22 45 22 46
REMARK Flexibility Score: inf
ROOT
ATOM      1  C   UNL     1     -47.388  35.743  28.240  1.00  0.00     0.140 C 
ATOM      2  H   UNL     1     -48.170  36.435  27.907  1.00  0.00     0.078 H 
ATOM      3  H   UNL     1     -47.729  35.356  29.205  1.00  0.00     0.078 H 
ENDROOT
BRANCH   1   4
ATOM      4  O   UNL     1     -46.184  36.510  28.337  1.00  0.00    -0.486 OA
BRANCH   4   5
ATOM      5  C   UNL     1     -46.119  37.747  27.761  1.00  0.00     0.122 A 
ATOM      6  C   UNL     1     -43.371  41.634  27.454  1.00  0.00     0.126 A 
ATOM      7  C   UNL     1     -44.279  42.263  26.610  1.00  0.00    -0.019 A 
ATOM      8  N   UNL     1     -43.601  40.398  27.941  1.00  0.00    -0.231 NA
ATOM      9  C   UNL     1     -45.443  41.597  26.239  1.00  0.00    -0.049 A 
ATOM     10  H   UNL     1     -44.090  43.269  26.251  1.00  0.00     0.066 H 
ATOM     11  C   UNL     1     -44.727  39.748  27.590  1.00  0.00     0.076 A 
ATOM     12  C   UNL     1     -45.684  40.312  26.730  1.00  0.00     0.001 A 
ATOM     13  H   UNL     1     -46.152  42.089  25.580  1.00  0.00     0.063 H 
ATOM     14  C   UNL     1     -44.966  38.473  28.084  1.00  0.00     0.007 A 
ATOM     15  C   UNL     1     -46.841  39.593  26.389  1.00  0.00    -0.049 A 
ATOM     16  H   UNL     1     -44.231  38.031  28.754  1.00  0.00     0.069 H 
ATOM     17  C   UNL     1     -47.055  38.310  26.900  1.00  0.00    -0.019 A 
ATOM     18  H   UNL     1     -47.583  40.027  25.721  1.00  0.00     0.063 H 
ATOM     19  H   UNL     1     -47.957  37.793  26.596  1.00  0.00     0.066 H 
BRANCH   6  20
ATOM     20  N   UNL     1     -42.217  42.348  27.827  1.00  0.00    -0.373 N 
ATOM     21  H   UNL     1     -41.451  42.073  27.221  1.00  0.00     0.161 HD
BRANCH  20  22
ATOM     22  C   UNL     1     -41.868  42.217  29.233  1.00  0.00     0.005 C 
ATOM     23  H   UNL     1     -42.665  42.593  29.883  1.00  0.00     0.045 H 
ATOM     24  H   UNL     1     -41.633  41.180  29.496  1.00  0.00     0.045 H 
ATOM     25  H   UNL     1     -40.975  42.818  29.433  1.00  0.00     0.045 H 
ENDBRANCH  20  22
ENDBRANCH   6  20
ENDBRANCH   4   5
ENDBRANCH   1   4
BRANCH   1  26
ATOM     26  C   UNL     1     -47.222  34.693  27.180  1.00  0.00     0.132 A 
ATOM     27  N   UNL     1     -46.064  34.319  26.667  1.00  0.00    -0.244 NA
ATOM     28  S   UNL     1     -48.598  33.911  26.504  1.00  0.00    -0.097 S 
ATOM     29  C   UNL     1     -46.267  33.327  25.726  1.00  0.00     0.063 A 
ATOM     30  C   UNL     1     -47.583  32.981  25.510  1.00  0.00     0.121 A 
ATOM     31  H   UNL     1     -45.396  32.907  25.237  1.00  0.00     0.087 H 
BRANCH  30  32
ATOM     32  N   UNL     1     -48.085  32.017  24.621  1.00  0.00    -0.289 N 
ATOM     33  C   UNL     1     -49.328  31.416  24.759  1.00  0.00     0.031 A 
ATOM     34  C   UNL     1     -47.497  31.469  23.475  1.00  0.00     0.152 A 
ATOM     35  C   UNL     1     -49.525  30.526  23.732  1.00  0.00     0.072 A 
ATOM     36  H   UNL     1     -49.985  31.669  25.579  1.00  0.00     0.084 H 
ATOM     37  C   UNL     1     -48.378  30.549  22.909  1.00  0.00     0.080 A 
ATOM     38  N   UNL     1     -46.277  31.766  22.982  1.00  0.00    -0.218 NA
ATOM     39  Cl  UNL     1     -50.907  29.562  23.506  1.00  0.00    -0.082 Cl
ATOM     40  C   UNL     1     -47.957  29.900  21.737  1.00  0.00     0.137 A 
ATOM     41  C   UNL     1     -45.982  31.084  21.869  1.00  0.00     0.120 A 
ATOM     42  N   UNL     1     -46.742  30.178  21.234  1.00  0.00    -0.219 NA
ATOM     43  H   UNL     1     -45.012  31.285  21.425  1.00  0.00     0.106 H 
BRANCH  40  44
ATOM     44  N   UNL     1     -48.718  28.969  21.052  1.00  0.00    -0.383 N 
ATOM     45  H   UNL     1     -49.544  29.382  20.637  1.00  0.00     0.158 HD
ATOM     46  H   UNL     1     -48.210  28.290  20.500  1.00  0.00     0.158 HD
ENDBRANCH  40  44
ENDBRANCH  30  32
ENDBRANCH   1  26
TORSDOF 7
ENDMDL
MODEL 7
REMARK VINA RESULT:      -8.5      3.653     10.655
REMARK SMILES CNc1ccc2ccc(OCc3ncc(-n4cc(Cl)c5c(N)ncnc54)s3)cc2n1.O=C(O)C(F)(F)F
REMARK SMILES IDX 11 1 10 4 9 5 3 6 4 7 30 8 5 9 29 11 6 12 28 14 7 15 8 17
REMARK SMILES IDX 2 20 1 22 12 26 13 27 27 28 14 29 15 30 16 32 17 33 26 34
REMARK SMILES IDX 18 35 20 37 25 38 19 39 21 40 24 41 23 42 22 44
REMARK H PARENT 11 2 11 3 4 10 5 13 28 16 7 18 8 19 2 21 1 23 1 24 1 25 14 31
REMARK H PARENT 17 36 24 43 22 45 22 46
REMARK Flexibility Score: inf
ROOT
ATOM      1  C   UNL     1     -48.287  36.416  27.873  1.00  0.00     0.140 C 
ATOM      2  H   UNL     1     -48.436  36.125  28.920  1.00  0.00     0.078 H 
ATOM      3  H   UNL     1     -49.284  36.413  27.422  1.00  0.00     0.078 H 
ENDROOT
BRANCH   1   4
ATOM      4  O   UNL     1     -47.411  35.438  27.304  1.00  0.00    -0.486 OA
BRANCH   4   5
ATOM      5  C   UNL     1     -47.930  34.385  26.608  1.00  0.00     0.122 A 
ATOM      6  C   UNL     1     -46.705  30.793  23.717  1.00  0.00     0.126 A 
ATOM      7  C   UNL     1     -48.024  30.364  23.619  1.00  0.00    -0.019 A 
ATOM      8  N   UNL     1     -46.368  31.870  24.454  1.00  0.00    -0.231 NA
ATOM      9  C   UNL     1     -49.018  31.046  24.313  1.00  0.00    -0.049 A 
ATOM     10  H   UNL     1     -48.280  29.512  22.998  1.00  0.00     0.066 H 
ATOM     11  C   UNL     1     -47.324  32.538  25.126  1.00  0.00     0.076 A 
ATOM     12  C   UNL     1     -48.677  32.157  25.087  1.00  0.00     0.001 A 
ATOM     13  H   UNL     1     -50.049  30.711  24.235  1.00  0.00     0.063 H 
ATOM     14  C   UNL     1     -46.981  33.645  25.890  1.00  0.00     0.007 A 
ATOM     15  C   UNL     1     -49.638  32.883  25.808  1.00  0.00    -0.049 A 
ATOM     16  H   UNL     1     -45.937  33.949  25.922  1.00  0.00     0.069 H 
ATOM     17  C   UNL     1     -49.263  33.992  26.571  1.00  0.00    -0.019 A 
ATOM     18  H   UNL     1     -50.685  32.588  25.782  1.00  0.00     0.063 H 
ATOM     19  H   UNL     1     -50.042  34.509  27.119  1.00  0.00     0.066 H 
BRANCH   6  20
ATOM     20  N   UNL     1     -45.731  30.093  22.982  1.00  0.00    -0.373 N 
ATOM     21  H   UNL     1     -44.847  30.143  23.479  1.00  0.00     0.161 HD
BRANCH  20  22
ATOM     22  C   UNL     1     -45.599  30.534  21.602  1.00  0.00     0.005 C 
ATOM     23  H   UNL     1     -45.049  29.805  20.997  1.00  0.00     0.045 H 
ATOM     24  H   UNL     1     -46.575  30.732  21.146  1.00  0.00     0.045 H 
ATOM     25  H   UNL     1     -45.030  31.469  21.582  1.00  0.00     0.045 H 
ENDBRANCH  20  22
ENDBRANCH   6  20
ENDBRANCH   4   5
ENDBRANCH   1   4
BRANCH   1  26
ATOM     26  C   UNL     1     -47.610  37.756  27.860  1.00  0.00     0.132 A 
ATOM     27  N   UNL     1     -48.211  38.905  28.102  1.00  0.00    -0.244 NA
ATOM     28  S   UNL     1     -45.940  37.884  27.461  1.00  0.00    -0.097 S 
ATOM     29  C   UNL     1     -47.298  39.939  28.020  1.00  0.00     0.063 A 
ATOM     30  C   UNL     1     -46.016  39.566  27.681  1.00  0.00     0.121 A 
ATOM     31  H   UNL     1     -47.651  40.944  28.219  1.00  0.00     0.087 H 
BRANCH  30  32
ATOM     32  N   UNL     1     -44.892  40.392  27.523  1.00  0.00    -0.289 N 
ATOM     33  C   UNL     1     -43.762  40.318  28.327  1.00  0.00     0.031 A 
ATOM     34  C   UNL     1     -44.659  41.413  26.594  1.00  0.00     0.152 A 
ATOM     35  C   UNL     1     -42.844  41.252  27.916  1.00  0.00     0.072 A 
ATOM     36  H   UNL     1     -43.695  39.602  29.133  1.00  0.00     0.084 H 
ATOM     37  C   UNL     1     -43.393  41.952  26.819  1.00  0.00     0.080 A 
ATOM     38  N   UNL     1     -45.508  41.827  25.630  1.00  0.00    -0.218 NA
ATOM     39  Cl  UNL     1     -41.319  41.519  28.618  1.00  0.00    -0.082 Cl
ATOM     40  C   UNL     1     -42.981  42.991  25.969  1.00  0.00     0.137 A 
ATOM     41  C   UNL     1     -45.012  42.824  24.888  1.00  0.00     0.120 A 
ATOM     42  N   UNL     1     -43.816  43.421  25.008  1.00  0.00    -0.219 NA
ATOM     43  H   UNL     1     -45.652  43.195  24.094  1.00  0.00     0.106 H 
BRANCH  40  44
ATOM     44  N   UNL     1     -41.753  43.622  26.058  1.00  0.00    -0.383 N 
ATOM     45  H   UNL     1     -41.358  43.817  25.146  1.00  0.00     0.158 HD
ATOM     46  H   UNL     1     -41.664  44.339  26.766  1.00  0.00     0.158 HD
ENDBRANCH  40  44
ENDBRANCH  30  32
ENDBRANCH   1  26
TORSDOF 7
ENDMDL
