MODEL 1
REMARK VINA RESULT:     -10.3      0.000      0.000
REMARK SMILES Nc1ccc2ccc(OC[C@H]3O[C@@H](n4ccc5c(NCCc6ccccc6)ncnc54)[C@H](O)[C@@H]3O)cc2n1
REMARK SMILES IDX 14 1 15 2 16 3 17 4 18 5 28 6 29 7 30 8 31 9 13 13 11 14
REMARK SMILES IDX 12 15 34 16 32 18 10 22 9 25 8 26 2 27 3 28 38 29 4 30 37 32
REMARK SMILES IDX 5 33 36 35 6 36 7 38 1 41 35 44 33 46 19 48 20 50 21 53
REMARK SMILES IDX 22 56 23 57 27 58 24 59 26 61 25 63
REMARK H PARENT 15 10 16 11 29 12 11 17 34 19 13 20 32 21 10 23 10 24 3 31
REMARK H PARENT 4 34 36 37 6 39 7 40 1 42 1 43 35 45 33 47 19 49 20 51 20 52
REMARK H PARENT 21 54 21 55 23 60 27 62 24 64 26 65 25 66
REMARK Flexibility Score: inf
ROOT
ATOM      1  N   UNL     1     -44.596  39.122  28.355  1.00  0.00    -0.303 N 
ATOM      2  C   UNL     1     -45.182  39.685  27.244  1.00  0.00     0.009 A 
ATOM      3  C   UNL     1     -44.548  40.884  26.993  1.00  0.00    -0.031 A 
ATOM      4  C   UNL     1     -43.536  41.055  27.978  1.00  0.00     0.061 A 
ATOM      5  C   UNL     1     -42.560  42.027  28.270  1.00  0.00     0.138 A 
ATOM      6  N   UNL     1     -41.754  41.814  29.337  1.00  0.00    -0.219 NA
ATOM      7  C   UNL     1     -41.921  40.691  30.063  1.00  0.00     0.120 A 
ATOM      8  N   UNL     1     -42.800  39.697  29.865  1.00  0.00    -0.218 NA
ATOM      9  C   UNL     1     -43.589  39.941  28.805  1.00  0.00     0.147 A 
ATOM     10  H   UNL     1     -45.992  39.191  26.724  1.00  0.00     0.082 H 
ATOM     11  H   UNL     1     -44.785  41.564  26.185  1.00  0.00     0.065 H 
ATOM     12  H   UNL     1     -41.257  40.576  30.914  1.00  0.00     0.106 H 
ENDROOT
BRANCH   1  13
ATOM     13  C   UNL     1     -44.973  37.866  28.989  1.00  0.00     0.164 C 
ATOM     14  C   UNL     1     -46.335  36.090  28.289  1.00  0.00     0.123 C 
ATOM     15  O   UNL     1     -45.155  36.856  27.963  1.00  0.00    -0.345 OA
ATOM     16  C   UNL     1     -46.773  36.517  29.690  1.00  0.00     0.114 C 
ATOM     17  H   UNL     1     -46.048  35.034  28.288  1.00  0.00     0.067 H 
ATOM     18  C   UNL     1     -46.293  37.956  29.761  1.00  0.00     0.128 C 
ATOM     19  H   UNL     1     -47.840  36.407  29.901  1.00  0.00     0.066 H 
ATOM     20  H   UNL     1     -44.141  37.544  29.626  1.00  0.00     0.088 H 
ATOM     21  H   UNL     1     -47.004  38.622  29.259  1.00  0.00     0.068 H 
BRANCH  14  22
ATOM     22  C   UNL     1     -47.406  36.353  27.223  1.00  0.00     0.117 C 
ATOM     23  H   UNL     1     -46.978  36.747  26.295  1.00  0.00     0.073 H 
ATOM     24  H   UNL     1     -48.075  37.149  27.568  1.00  0.00     0.073 H 
BRANCH  22  25
ATOM     25  O   UNL     1     -48.220  35.203  27.005  1.00  0.00    -0.491 OA
BRANCH  25  26
ATOM     26  C   UNL     1     -47.751  34.204  26.198  1.00  0.00     0.121 A 
ATOM     27  C   UNL     1     -48.807  29.876  24.539  1.00  0.00     0.124 A 
ATOM     28  C   UNL     1     -47.636  29.801  23.804  1.00  0.00    -0.019 A 
ATOM     29  N   UNL     1     -49.135  30.942  25.287  1.00  0.00    -0.231 NA
ATOM     30  C   UNL     1     -46.750  30.870  23.854  1.00  0.00    -0.049 A 
ATOM     31  H   UNL     1     -47.420  28.932  23.195  1.00  0.00     0.066 H 
ATOM     32  C   UNL     1     -48.282  31.982  25.334  1.00  0.00     0.076 A 
ATOM     33  C   UNL     1     -47.063  31.990  24.630  1.00  0.00     0.001 A 
ATOM     34  H   UNL     1     -45.827  30.826  23.282  1.00  0.00     0.063 H 
ATOM     35  C   UNL     1     -48.599  33.093  26.103  1.00  0.00     0.007 A 
ATOM     36  C   UNL     1     -46.206  33.099  24.714  1.00  0.00    -0.049 A 
ATOM     37  H   UNL     1     -49.543  33.095  26.645  1.00  0.00     0.069 H 
ATOM     38  C   UNL     1     -46.550  34.202  25.498  1.00  0.00    -0.019 A 
ATOM     39  H   UNL     1     -45.265  33.110  24.167  1.00  0.00     0.063 H 
ATOM     40  H   UNL     1     -45.856  35.036  25.528  1.00  0.00     0.066 H 
BRANCH  27  41
ATOM     41  N   UNL     1     -49.733  28.837  24.501  1.00  0.00    -0.384 N 
ATOM     42  H   UNL     1     -50.645  29.246  24.686  1.00  0.00     0.158 HD
ATOM     43  H   UNL     1     -49.505  28.108  25.166  1.00  0.00     0.158 HD
ENDBRANCH  27  41
ENDBRANCH  25  26
ENDBRANCH  22  25
ENDBRANCH  14  22
BRANCH  16  44
ATOM     44  O   UNL     1     -46.057  35.768  30.692  1.00  0.00    -0.387 OA
ATOM     45  H   UNL     1     -46.359  34.843  30.628  1.00  0.00     0.211 HD
ENDBRANCH  16  44
BRANCH  18  46
ATOM     46  O   UNL     1     -46.162  38.380  31.115  1.00  0.00    -0.386 OA
ATOM     47  H   UNL     1     -46.423  37.609  31.660  1.00  0.00     0.211 HD
ENDBRANCH  18  46
ENDBRANCH   1  13
BRANCH   5  48
ATOM     48  N   UNL     1     -42.415  43.178  27.495  1.00  0.00    -0.369 N 
ATOM     49  H   UNL     1     -43.134  43.865  27.703  1.00  0.00     0.162 HD
BRANCH  48  50
ATOM     50  C   UNL     1     -42.184  42.986  26.065  1.00  0.00     0.020 C 
ATOM     51  H   UNL     1     -41.103  42.872  25.921  1.00  0.00     0.049 H 
ATOM     52  H   UNL     1     -42.633  42.048  25.716  1.00  0.00     0.049 H 
BRANCH  50  53
ATOM     53  C   UNL     1     -42.689  44.161  25.214  1.00  0.00    -0.010 C 
ATOM     54  H   UNL     1     -42.066  45.042  25.415  1.00  0.00     0.033 H 
ATOM     55  H   UNL     1     -42.559  43.947  24.147  1.00  0.00     0.033 H 
BRANCH  53  56
ATOM     56  C   UNL     1     -44.132  44.523  25.486  1.00  0.00    -0.046 A 
ATOM     57  C   UNL     1     -44.445  45.585  26.346  1.00  0.00    -0.059 A 
ATOM     58  C   UNL     1     -45.173  43.822  24.864  1.00  0.00    -0.059 A 
ATOM     59  C   UNL     1     -45.775  45.940  26.577  1.00  0.00    -0.062 A 
ATOM     60  H   UNL     1     -43.653  46.147  26.836  1.00  0.00     0.063 H 
ATOM     61  C   UNL     1     -46.503  44.177  25.098  1.00  0.00    -0.062 A 
ATOM     62  H   UNL     1     -44.956  42.994  24.193  1.00  0.00     0.063 H 
ATOM     63  C   UNL     1     -46.803  45.235  25.954  1.00  0.00    -0.062 A 
ATOM     64  H   UNL     1     -46.008  46.765  27.246  1.00  0.00     0.062 H 
ATOM     65  H   UNL     1     -47.306  43.627  24.614  1.00  0.00     0.062 H 
ATOM     66  H   UNL     1     -47.839  45.510  26.136  1.00  0.00     0.062 H 
ENDBRANCH  53  56
ENDBRANCH  50  53
ENDBRANCH  48  50
ENDBRANCH   5  48
TORSDOF 11
ENDMDL
MODEL 2
REMARK VINA RESULT:     -10.2      2.497     11.799
REMARK SMILES Nc1ccc2ccc(OC[C@H]3O[C@@H](n4ccc5c(NCCc6ccccc6)ncnc54)[C@H](O)[C@@H]3O)cc2n1
REMARK SMILES IDX 14 1 15 2 16 3 17 4 18 5 28 6 29 7 30 8 31 9 13 13 11 14
REMARK SMILES IDX 12 15 34 16 32 18 10 22 9 25 8 26 2 27 3 28 38 29 4 30 37 32
REMARK SMILES IDX 5 33 36 35 6 36 7 38 1 41 35 44 33 46 19 48 20 50 21 53
REMARK SMILES IDX 22 56 23 57 27 58 24 59 26 61 25 63
REMARK H PARENT 15 10 16 11 29 12 11 17 34 19 13 20 32 21 10 23 10 24 3 31
REMARK H PARENT 4 34 36 37 6 39 7 40 1 42 1 43 35 45 33 47 19 49 20 51 20 52
REMARK H PARENT 21 54 21 55 23 60 27 62 24 64 26 65 25 66
REMARK Flexibility Score: inf
ROOT
ATOM      1  N   UNL     1     -47.267  35.237  26.446  1.00  0.00    -0.303 N 
ATOM      2  C   UNL     1     -45.977  34.860  26.148  1.00  0.00     0.009 A 
ATOM      3  C   UNL     1     -46.005  33.543  25.739  1.00  0.00    -0.031 A 
ATOM      4  C   UNL     1     -47.358  33.104  25.780  1.00  0.00     0.061 A 
ATOM      5  C   UNL     1     -48.045  31.910  25.487  1.00  0.00     0.138 A 
ATOM      6  N   UNL     1     -49.388  31.894  25.661  1.00  0.00    -0.219 NA
ATOM      7  C   UNL     1     -49.999  33.010  26.104  1.00  0.00     0.120 A 
ATOM      8  N   UNL     1     -49.448  34.199  26.394  1.00  0.00    -0.218 NA
ATOM      9  C   UNL     1     -48.117  34.181  26.218  1.00  0.00     0.147 A 
ATOM     10  H   UNL     1     -45.152  35.552  26.247  1.00  0.00     0.082 H 
ATOM     11  H   UNL     1     -45.145  32.959  25.440  1.00  0.00     0.065 H 
ATOM     12  H   UNL     1     -51.074  32.938  26.238  1.00  0.00     0.106 H 
ENDROOT
BRANCH   1  13
ATOM     13  C   UNL     1     -47.696  36.537  26.944  1.00  0.00     0.164 C 
ATOM     14  C   UNL     1     -46.512  38.482  27.502  1.00  0.00     0.123 C 
ATOM     15  O   UNL     1     -46.798  37.556  26.433  1.00  0.00    -0.345 OA
ATOM     16  C   UNL     1     -47.444  38.130  28.662  1.00  0.00     0.114 C 
ATOM     17  H   UNL     1     -46.733  39.488  27.132  1.00  0.00     0.067 H 
ATOM     18  C   UNL     1     -47.657  36.638  28.471  1.00  0.00     0.128 C 
ATOM     19  H   UNL     1     -47.074  38.389  29.657  1.00  0.00     0.066 H 
ATOM     20  H   UNL     1     -48.694  36.743  26.540  1.00  0.00     0.088 H 
ATOM     21  H   UNL     1     -46.812  36.076  28.886  1.00  0.00     0.068 H 
BRANCH  14  22
ATOM     22  C   UNL     1     -45.028  38.366  27.874  1.00  0.00     0.117 C 
ATOM     23  H   UNL     1     -44.399  38.156  27.002  1.00  0.00     0.073 H 
ATOM     24  H   UNL     1     -44.882  37.495  28.523  1.00  0.00     0.073 H 
BRANCH  22  25
ATOM     25  O   UNL     1     -44.582  39.502  28.611  1.00  0.00    -0.491 OA
BRANCH  25  26
ATOM     26  C   UNL     1     -43.842  40.457  27.971  1.00  0.00     0.121 A 
ATOM     27  C   UNL     1     -43.698  43.126  24.040  1.00  0.00     0.124 A 
ATOM     28  C   UNL     1     -42.514  43.735  24.419  1.00  0.00    -0.019 A 
ATOM     29  N   UNL     1     -44.317  42.199  24.790  1.00  0.00    -0.231 NA
ATOM     30  C   UNL     1     -41.929  43.361  25.623  1.00  0.00    -0.049 A 
ATOM     31  H   UNL     1     -42.058  44.495  23.796  1.00  0.00     0.066 H 
ATOM     32  C   UNL     1     -43.756  41.838  25.958  1.00  0.00     0.076 A 
ATOM     33  C   UNL     1     -42.548  42.394  26.420  1.00  0.00     0.001 A 
ATOM     34  H   UNL     1     -41.000  43.832  25.934  1.00  0.00     0.063 H 
ATOM     35  C   UNL     1     -44.377  40.880  26.749  1.00  0.00     0.007 A 
ATOM     36  C   UNL     1     -42.003  41.982  27.646  1.00  0.00    -0.049 A 
ATOM     37  H   UNL     1     -45.314  40.450  26.400  1.00  0.00     0.069 H 
ATOM     38  C   UNL     1     -42.649  41.014  28.418  1.00  0.00    -0.019 A 
ATOM     39  H   UNL     1     -41.072  42.413  28.008  1.00  0.00     0.063 H 
ATOM     40  H   UNL     1     -42.189  40.730  29.360  1.00  0.00     0.066 H 
BRANCH  27  41
ATOM     41  N   UNL     1     -44.329  43.486  22.853  1.00  0.00    -0.384 N 
ATOM     42  H   UNL     1     -43.625  43.449  22.120  1.00  0.00     0.158 HD
ATOM     43  H   UNL     1     -44.757  44.402  22.919  1.00  0.00     0.158 HD
ENDBRANCH  27  41
ENDBRANCH  25  26
ENDBRANCH  22  25
ENDBRANCH  14  22
BRANCH  16  44
ATOM     44  O   UNL     1     -48.721  38.777  28.496  1.00  0.00    -0.387 OA
ATOM     45  H   UNL     1     -49.338  38.107  28.148  1.00  0.00     0.211 HD
ENDBRANCH  16  44
BRANCH  18  46
ATOM     46  O   UNL     1     -48.846  36.208  29.126  1.00  0.00    -0.386 OA
ATOM     47  H   UNL     1     -48.901  36.737  29.949  1.00  0.00     0.211 HD
ENDBRANCH  18  46
ENDBRANCH   1  13
BRANCH   5  48
ATOM     48  N   UNL     1     -47.379  30.774  25.029  1.00  0.00    -0.369 N 
ATOM     49  H   UNL     1     -46.520  31.011  24.540  1.00  0.00     0.162 HD
BRANCH  48  50
ATOM     50  C   UNL     1     -48.184  29.768  24.341  1.00  0.00     0.020 C 
ATOM     51  H   UNL     1     -48.974  29.452  25.032  1.00  0.00     0.049 H 
ATOM     52  H   UNL     1     -48.700  30.202  23.475  1.00  0.00     0.049 H 
BRANCH  50  53
ATOM     53  C   UNL     1     -47.368  28.540  23.907  1.00  0.00    -0.010 C 
ATOM     54  H   UNL     1     -47.629  28.284  22.872  1.00  0.00     0.033 H 
ATOM     55  H   UNL     1     -46.297  28.777  23.889  1.00  0.00     0.033 H 
BRANCH  53  56
ATOM     56  C   UNL     1     -47.604  27.325  24.776  1.00  0.00    -0.046 A 
ATOM     57  C   UNL     1     -48.907  26.957  25.139  1.00  0.00    -0.059 A 
ATOM     58  C   UNL     1     -46.530  26.536  25.207  1.00  0.00    -0.059 A 
ATOM     59  C   UNL     1     -49.130  25.821  25.917  1.00  0.00    -0.062 A 
ATOM     60  H   UNL     1     -49.757  27.553  24.812  1.00  0.00     0.063 H 
ATOM     61  C   UNL     1     -46.755  25.400  25.987  1.00  0.00    -0.062 A 
ATOM     62  H   UNL     1     -45.509  26.800  24.938  1.00  0.00     0.063 H 
ATOM     63  C   UNL     1     -48.054  25.043  26.341  1.00  0.00    -0.062 A 
ATOM     64  H   UNL     1     -50.144  25.544  26.194  1.00  0.00     0.062 H 
ATOM     65  H   UNL     1     -45.916  24.794  26.319  1.00  0.00     0.062 H 
ATOM     66  H   UNL     1     -48.229  24.159  26.949  1.00  0.00     0.062 H 
ENDBRANCH  53  56
ENDBRANCH  50  53
ENDBRANCH  48  50
ENDBRANCH   5  48
TORSDOF 11
ENDMDL
MODEL 3
REMARK VINA RESULT:     -10.0      2.245     11.728
REMARK SMILES Nc1ccc2ccc(OC[C@H]3O[C@@H](n4ccc5c(NCCc6ccccc6)ncnc54)[C@H](O)[C@@H]3O)cc2n1
REMARK SMILES IDX 14 1 15 2 16 3 17 4 18 5 28 6 29 7 30 8 31 9 13 13 11 14
REMARK SMILES IDX 12 15 34 16 32 18 10 22 9 25 8 26 2 27 3 28 38 29 4 30 37 32
REMARK SMILES IDX 5 33 36 35 6 36 7 38 1 41 35 44 33 46 19 48 20 50 21 53
REMARK SMILES IDX 22 56 23 57 27 58 24 59 26 61 25 63
REMARK H PARENT 15 10 16 11 29 12 11 17 34 19 13 20 32 21 10 23 10 24 3 31
REMARK H PARENT 4 34 36 37 6 39 7 40 1 42 1 43 35 45 33 47 19 49 20 51 20 52
REMARK H PARENT 21 54 21 55 23 60 27 62 24 64 26 65 25 66
REMARK Flexibility Score: inf
ROOT
ATOM      1  N   UNL     1     -47.151  33.358  26.190  1.00  0.00    -0.303 N 
ATOM      2  C   UNL     1     -46.026  32.937  25.519  1.00  0.00     0.009 A 
ATOM      3  C   UNL     1     -46.432  32.130  24.477  1.00  0.00    -0.031 A 
ATOM      4  C   UNL     1     -47.853  32.062  24.509  1.00  0.00     0.061 A 
ATOM      5  C   UNL     1     -48.855  31.435  23.743  1.00  0.00     0.138 A 
ATOM      6  N   UNL     1     -50.144  31.624  24.110  1.00  0.00    -0.219 NA
ATOM      7  C   UNL     1     -50.407  32.397  25.182  1.00  0.00     0.120 A 
ATOM      8  N   UNL     1     -49.538  33.052  25.967  1.00  0.00    -0.218 NA
ATOM      9  C   UNL     1     -48.268  32.840  25.581  1.00  0.00     0.147 A 
ATOM     10  H   UNL     1     -45.037  33.246  25.830  1.00  0.00     0.082 H 
ATOM     11  H   UNL     1     -45.778  31.643  23.766  1.00  0.00     0.065 H 
ATOM     12  H   UNL     1     -51.456  32.505  25.441  1.00  0.00     0.106 H 
ENDROOT
BRANCH   1  13
ATOM     13  C   UNL     1     -47.186  34.204  27.376  1.00  0.00     0.164 C 
ATOM     14  C   UNL     1     -47.200  36.532  27.653  1.00  0.00     0.123 C 
ATOM     15  O   UNL     1     -47.910  35.422  27.063  1.00  0.00    -0.345 OA
ATOM     16  C   UNL     1     -46.106  35.942  28.544  1.00  0.00     0.114 C 
ATOM     17  H   UNL     1     -47.918  37.094  28.259  1.00  0.00     0.067 H 
ATOM     18  C   UNL     1     -45.793  34.626  27.853  1.00  0.00     0.128 C 
ATOM     19  H   UNL     1     -45.227  36.574  28.688  1.00  0.00     0.066 H 
ATOM     20  H   UNL     1     -47.748  33.675  28.154  1.00  0.00     0.088 H 
ATOM     21  H   UNL     1     -45.115  34.791  27.008  1.00  0.00     0.068 H 
BRANCH  14  22
ATOM     22  C   UNL     1     -46.642  37.416  26.531  1.00  0.00     0.117 C 
ATOM     23  H   UNL     1     -47.035  37.133  25.548  1.00  0.00     0.073 H 
ATOM     24  H   UNL     1     -45.561  37.254  26.443  1.00  0.00     0.073 H 
BRANCH  22  25
ATOM     25  O   UNL     1     -46.825  38.801  26.816  1.00  0.00    -0.491 OA
BRANCH  25  26
ATOM     26  C   UNL     1     -45.734  39.625  26.826  1.00  0.00     0.121 A 
ATOM     27  C   UNL     1     -42.051  40.987  29.506  1.00  0.00     0.124 A 
ATOM     28  C   UNL     1     -41.587  41.861  28.537  1.00  0.00    -0.019 A 
ATOM     29  N   UNL     1     -43.148  40.230  29.343  1.00  0.00    -0.231 NA
ATOM     30  C   UNL     1     -42.295  41.973  27.347  1.00  0.00    -0.049 A 
ATOM     31  H   UNL     1     -40.684  42.438  28.699  1.00  0.00     0.066 H 
ATOM     32  C   UNL     1     -43.835  40.331  28.190  1.00  0.00     0.076 A 
ATOM     33  C   UNL     1     -43.445  41.201  27.154  1.00  0.00     0.001 A 
ATOM     34  H   UNL     1     -41.942  42.654  26.578  1.00  0.00     0.063 H 
ATOM     35  C   UNL     1     -44.973  39.560  28.000  1.00  0.00     0.007 A 
ATOM     36  C   UNL     1     -44.196  41.272  25.970  1.00  0.00    -0.049 A 
ATOM     37  H   UNL     1     -45.276  38.882  28.795  1.00  0.00     0.069 H 
ATOM     38  C   UNL     1     -45.339  40.486  25.809  1.00  0.00    -0.019 A 
ATOM     39  H   UNL     1     -43.896  41.940  25.166  1.00  0.00     0.063 H 
ATOM     40  H   UNL     1     -45.885  40.574  24.875  1.00  0.00     0.066 H 
BRANCH  27  41
ATOM     41  N   UNL     1     -41.360  40.828  30.703  1.00  0.00    -0.384 N 
ATOM     42  H   UNL     1     -41.974  40.317  31.333  1.00  0.00     0.158 HD
ATOM     43  H   UNL     1     -41.076  41.719  31.093  1.00  0.00     0.158 HD
ENDBRANCH  27  41
ENDBRANCH  25  26
ENDBRANCH  22  25
ENDBRANCH  14  22
BRANCH  16  44
ATOM     44  O   UNL     1     -46.632  35.634  29.850  1.00  0.00    -0.387 OA
ATOM     45  H   UNL     1     -46.732  36.481  30.326  1.00  0.00     0.211 HD
ENDBRANCH  16  44
BRANCH  18  46
ATOM     46  O   UNL     1     -45.172  33.715  28.755  1.00  0.00    -0.386 OA
ATOM     47  H   UNL     1     -44.614  34.265  29.343  1.00  0.00     0.211 HD
ENDBRANCH  18  46
ENDBRANCH   1  13
BRANCH   5  48
ATOM     48  N   UNL     1     -48.545  30.642  22.637  1.00  0.00    -0.369 N 
ATOM     49  H   UNL     1     -48.849  31.072  21.769  1.00  0.00     0.162 HD
BRANCH  48  50
ATOM     50  C   UNL     1     -48.869  29.221  22.732  1.00  0.00     0.020 C 
ATOM     51  H   UNL     1     -49.584  29.103  23.555  1.00  0.00     0.049 H 
ATOM     52  H   UNL     1     -49.391  28.876  21.831  1.00  0.00     0.049 H 
BRANCH  50  53
ATOM     53  C   UNL     1     -47.637  28.342  22.998  1.00  0.00    -0.010 C 
ATOM     54  H   UNL     1     -47.503  27.650  22.156  1.00  0.00     0.033 H 
ATOM     55  H   UNL     1     -46.727  28.953  23.023  1.00  0.00     0.033 H 
BRANCH  53  56
ATOM     56  C   UNL     1     -47.741  27.533  24.272  1.00  0.00    -0.046 A 
ATOM     57  C   UNL     1     -46.633  26.818  24.747  1.00  0.00    -0.059 A 
ATOM     58  C   UNL     1     -48.933  27.508  25.007  1.00  0.00    -0.059 A 
ATOM     59  C   UNL     1     -46.717  26.093  25.937  1.00  0.00    -0.062 A 
ATOM     60  H   UNL     1     -45.696  26.826  24.195  1.00  0.00     0.063 H 
ATOM     61  C   UNL     1     -49.016  26.781  26.195  1.00  0.00    -0.062 A 
ATOM     62  H   UNL     1     -49.807  28.056  24.658  1.00  0.00     0.063 H 
ATOM     63  C   UNL     1     -47.908  26.075  26.660  1.00  0.00    -0.062 A 
ATOM     64  H   UNL     1     -45.853  25.541  26.297  1.00  0.00     0.062 H 
ATOM     65  H   UNL     1     -49.945  26.765  26.759  1.00  0.00     0.062 H 
ATOM     66  H   UNL     1     -47.974  25.508  27.585  1.00  0.00     0.062 H 
ENDBRANCH  53  56
ENDBRANCH  50  53
ENDBRANCH  48  50
ENDBRANCH   5  48
TORSDOF 11
ENDMDL
MODEL 4
REMARK VINA RESULT:      -9.6      2.537     11.917
REMARK SMILES Nc1ccc2ccc(OC[C@H]3O[C@@H](n4ccc5c(NCCc6ccccc6)ncnc54)[C@H](O)[C@@H]3O)cc2n1
REMARK SMILES IDX 14 1 15 2 16 3 17 4 18 5 28 6 29 7 30 8 31 9 13 13 11 14
REMARK SMILES IDX 12 15 34 16 32 18 10 22 9 25 8 26 2 27 3 28 38 29 4 30 37 32
REMARK SMILES IDX 5 33 36 35 6 36 7 38 1 41 35 44 33 46 19 48 20 50 21 53
REMARK SMILES IDX 22 56 23 57 27 58 24 59 26 61 25 63
REMARK H PARENT 15 10 16 11 29 12 11 17 34 19 13 20 32 21 10 23 10 24 3 31
REMARK H PARENT 4 34 36 37 6 39 7 40 1 42 1 43 35 45 33 47 19 49 20 51 20 52
REMARK H PARENT 21 54 21 55 23 60 27 62 24 64 26 65 25 66
REMARK Flexibility Score: inf
ROOT
ATOM      1  N   UNL     1     -47.225  33.818  26.275  1.00  0.00    -0.303 N 
ATOM      2  C   UNL     1     -45.955  33.571  25.804  1.00  0.00     0.009 A 
ATOM      3  C   UNL     1     -46.043  32.582  24.847  1.00  0.00    -0.031 A 
ATOM      4  C   UNL     1     -47.413  32.218  24.723  1.00  0.00     0.061 A 
ATOM      5  C   UNL     1     -48.153  31.309  23.943  1.00  0.00     0.138 A 
ATOM      6  N   UNL     1     -49.494  31.261  24.128  1.00  0.00    -0.219 NA
ATOM      7  C   UNL     1     -50.052  32.078  25.042  1.00  0.00     0.120 A 
ATOM      8  N   UNL     1     -49.449  32.989  25.822  1.00  0.00    -0.218 NA
ATOM      9  C   UNL     1     -48.121  33.008  25.620  1.00  0.00     0.147 A 
ATOM     10  H   UNL     1     -45.100  34.116  26.181  1.00  0.00     0.082 H 
ATOM     11  H   UNL     1     -45.211  32.166  24.294  1.00  0.00     0.065 H 
ATOM     12  H   UNL     1     -51.128  31.990  25.160  1.00  0.00     0.106 H 
ENDROOT
BRANCH   1  13
ATOM     13  C   UNL     1     -47.592  34.767  27.316  1.00  0.00     0.164 C 
ATOM     14  C   UNL     1     -47.524  37.109  27.412  1.00  0.00     0.123 C 
ATOM     15  O   UNL     1     -48.075  35.986  26.693  1.00  0.00    -0.345 OA
ATOM     16  C   UNL     1     -46.842  36.551  28.661  1.00  0.00     0.114 C 
ATOM     17  H   UNL     1     -48.360  37.756  27.696  1.00  0.00     0.067 H 
ATOM     18  C   UNL     1     -46.414  35.164  28.210  1.00  0.00     0.128 C 
ATOM     19  H   UNL     1     -46.017  37.150  29.052  1.00  0.00     0.066 H 
ATOM     20  H   UNL     1     -48.422  34.338  27.890  1.00  0.00     0.088 H 
ATOM     21  H   UNL     1     -45.481  35.220  27.638  1.00  0.00     0.068 H 
BRANCH  14  22
ATOM     22  C   UNL     1     -46.557  37.861  26.490  1.00  0.00     0.117 C 
ATOM     23  H   UNL     1     -47.082  38.524  25.793  1.00  0.00     0.073 H 
ATOM     24  H   UNL     1     -46.042  37.144  25.840  1.00  0.00     0.073 H 
BRANCH  22  25
ATOM     25  O   UNL     1     -45.545  38.538  27.232  1.00  0.00    -0.491 OA
BRANCH  25  26
ATOM     26  C   UNL     1     -45.239  39.830  26.908  1.00  0.00     0.121 A 
ATOM     27  C   UNL     1     -47.181  43.949  25.545  1.00  0.00     0.124 A 
ATOM     28  C   UNL     1     -45.954  44.588  25.503  1.00  0.00    -0.019 A 
ATOM     29  N   UNL     1     -47.324  42.660  25.895  1.00  0.00    -0.231 NA
ATOM     30  C   UNL     1     -44.814  43.862  25.824  1.00  0.00    -0.049 A 
ATOM     31  H   UNL     1     -45.885  45.637  25.237  1.00  0.00     0.066 H 
ATOM     32  C   UNL     1     -46.223  41.954  26.211  1.00  0.00     0.076 A 
ATOM     33  C   UNL     1     -44.932  42.516  26.186  1.00  0.00     0.001 A 
ATOM     34  H   UNL     1     -43.844  44.351  25.797  1.00  0.00     0.063 H 
ATOM     35  C   UNL     1     -46.346  40.620  26.575  1.00  0.00     0.007 A 
ATOM     36  C   UNL     1     -43.815  41.737  26.522  1.00  0.00    -0.049 A 
ATOM     37  H   UNL     1     -47.341  40.181  26.601  1.00  0.00     0.069 H 
ATOM     38  C   UNL     1     -43.969  40.396  26.881  1.00  0.00    -0.019 A 
ATOM     39  H   UNL     1     -42.816  42.170  26.508  1.00  0.00     0.063 H 
ATOM     40  H   UNL     1     -43.075  39.835  27.135  1.00  0.00     0.066 H 
BRANCH  27  41
ATOM     41  N   UNL     1     -48.351  44.645  25.252  1.00  0.00    -0.384 N 
ATOM     42  H   UNL     1     -48.296  45.535  25.741  1.00  0.00     0.158 HD
ATOM     43  H   UNL     1     -49.176  44.119  25.517  1.00  0.00     0.158 HD
ENDBRANCH  27  41
ENDBRANCH  25  26
ENDBRANCH  22  25
ENDBRANCH  14  22
BRANCH  16  44
ATOM     44  O   UNL     1     -47.798  36.387  29.727  1.00  0.00    -0.387 OA
ATOM     45  H   UNL     1     -47.987  37.276  30.081  1.00  0.00     0.211 HD
ENDBRANCH  16  44
BRANCH  18  46
ATOM     46  O   UNL     1     -46.203  34.310  29.329  1.00  0.00    -0.386 OA
ATOM     47  H   UNL     1     -45.234  34.166  29.374  1.00  0.00     0.211 HD
ENDBRANCH  18  46
ENDBRANCH   1  13
BRANCH   5  48
ATOM     48  N   UNL     1     -47.541  30.478  23.005  1.00  0.00    -0.369 N 
ATOM     49  H   UNL     1     -48.058  30.452  22.130  1.00  0.00     0.162 HD
BRANCH  48  50
ATOM     50  C   UNL     1     -47.109  29.162  23.468  1.00  0.00     0.020 C 
ATOM     51  H   UNL     1     -46.329  28.813  22.781  1.00  0.00     0.049 H 
ATOM     52  H   UNL     1     -46.631  29.230  24.453  1.00  0.00     0.049 H 
BRANCH  50  53
ATOM     53  C   UNL     1     -48.251  28.135  23.505  1.00  0.00    -0.010 C 
ATOM     54  H   UNL     1     -49.200  28.662  23.673  1.00  0.00     0.033 H 
ATOM     55  H   UNL     1     -48.357  27.643  22.532  1.00  0.00     0.033 H 
BRANCH  53  56
ATOM     56  C   UNL     1     -48.085  27.091  24.586  1.00  0.00    -0.046 A 
ATOM     57  C   UNL     1     -46.807  26.746  25.047  1.00  0.00    -0.059 A 
ATOM     58  C   UNL     1     -49.204  26.473  25.160  1.00  0.00    -0.059 A 
ATOM     59  C   UNL     1     -46.651  25.803  26.063  1.00  0.00    -0.062 A 
ATOM     60  H   UNL     1     -45.924  27.216  24.619  1.00  0.00     0.063 H 
ATOM     61  C   UNL     1     -49.046  25.528  26.176  1.00  0.00    -0.062 A 
ATOM     62  H   UNL     1     -50.206  26.723  24.820  1.00  0.00     0.063 H 
ATOM     63  C   UNL     1     -47.771  25.194  26.627  1.00  0.00    -0.062 A 
ATOM     64  H   UNL     1     -45.655  25.542  26.413  1.00  0.00     0.062 H 
ATOM     65  H   UNL     1     -49.919  25.052  26.615  1.00  0.00     0.062 H 
ATOM     66  H   UNL     1     -47.649  24.458  27.417  1.00  0.00     0.062 H 
ENDBRANCH  53  56
ENDBRANCH  50  53
ENDBRANCH  48  50
ENDBRANCH   5  48
TORSDOF 11
ENDMDL
MODEL 5
REMARK VINA RESULT:      -9.6      2.112      3.547
REMARK SMILES Nc1ccc2ccc(OC[C@H]3O[C@@H](n4ccc5c(NCCc6ccccc6)ncnc54)[C@H](O)[C@@H]3O)cc2n1
REMARK SMILES IDX 14 1 15 2 16 3 17 4 18 5 28 6 29 7 30 8 31 9 13 13 11 14
REMARK SMILES IDX 12 15 34 16 32 18 10 22 9 25 8 26 2 27 3 28 38 29 4 30 37 32
REMARK SMILES IDX 5 33 36 35 6 36 7 38 1 41 35 44 33 46 19 48 20 50 21 53
REMARK SMILES IDX 22 56 23 57 27 58 24 59 26 61 25 63
REMARK H PARENT 15 10 16 11 29 12 11 17 34 19 13 20 32 21 10 23 10 24 3 31
REMARK H PARENT 4 34 36 37 6 39 7 40 1 42 1 43 35 45 33 47 19 49 20 51 20 52
REMARK H PARENT 21 54 21 55 23 60 27 62 24 64 26 65 25 66
REMARK Flexibility Score: inf
ROOT
ATOM      1  N   UNL     1     -46.299  39.274  27.493  1.00  0.00    -0.303 N 
ATOM      2  C   UNL     1     -45.003  39.258  27.027  1.00  0.00     0.009 A 
ATOM      3  C   UNL     1     -44.789  40.430  26.333  1.00  0.00    -0.031 A 
ATOM      4  C   UNL     1     -45.991  41.191  26.383  1.00  0.00     0.061 A 
ATOM      5  C   UNL     1     -46.419  42.442  25.898  1.00  0.00     0.138 A 
ATOM      6  N   UNL     1     -47.689  42.824  26.170  1.00  0.00    -0.219 NA
ATOM      7  C   UNL     1     -48.478  41.998  26.884  1.00  0.00     0.120 A 
ATOM      8  N   UNL     1     -48.169  40.801  27.406  1.00  0.00    -0.218 NA
ATOM      9  C   UNL     1     -46.906  40.447  27.115  1.00  0.00     0.147 A 
ATOM     10  H   UNL     1     -44.344  38.424  27.228  1.00  0.00     0.082 H 
ATOM     11  H   UNL     1     -43.866  40.711  25.844  1.00  0.00     0.065 H 
ATOM     12  H   UNL     1     -49.490  42.348  27.062  1.00  0.00     0.106 H 
ENDROOT
BRANCH   1  13
ATOM     13  C   UNL     1     -46.958  38.220  28.252  1.00  0.00     0.164 C 
ATOM     14  C   UNL     1     -46.618  35.903  28.361  1.00  0.00     0.123 C 
ATOM     15  O   UNL     1     -45.989  37.186  28.562  1.00  0.00    -0.345 OA
ATOM     16  C   UNL     1     -48.105  36.166  28.119  1.00  0.00     0.114 C 
ATOM     17  H   UNL     1     -46.482  35.325  29.280  1.00  0.00     0.067 H 
ATOM     18  C   UNL     1     -48.095  37.544  27.480  1.00  0.00     0.128 C 
ATOM     19  H   UNL     1     -48.622  35.415  27.517  1.00  0.00     0.066 H 
ATOM     20  H   UNL     1     -47.299  38.650  29.202  1.00  0.00     0.088 H 
ATOM     21  H   UNL     1     -47.862  37.469  26.412  1.00  0.00     0.068 H 
BRANCH  14  22
ATOM     22  C   UNL     1     -45.938  35.197  27.181  1.00  0.00     0.117 C 
ATOM     23  H   UNL     1     -45.483  34.245  27.477  1.00  0.00     0.073 H 
ATOM     24  H   UNL     1     -45.092  35.802  26.835  1.00  0.00     0.073 H 
BRANCH  22  25
ATOM     25  O   UNL     1     -46.823  35.060  26.072  1.00  0.00    -0.491 OA
BRANCH  25  26
ATOM     26  C   UNL     1     -47.264  33.813  25.727  1.00  0.00     0.121 A 
ATOM     27  C   UNL     1     -46.258  30.076  22.967  1.00  0.00     0.124 A 
ATOM     28  C   UNL     1     -47.367  29.372  23.406  1.00  0.00    -0.019 A 
ATOM     29  N   UNL     1     -45.949  31.305  23.412  1.00  0.00    -0.231 NA
ATOM     30  C   UNL     1     -48.208  29.968  24.338  1.00  0.00    -0.049 A 
ATOM     31  H   UNL     1     -47.569  28.372  23.039  1.00  0.00     0.066 H 
ATOM     32  C   UNL     1     -46.758  31.884  24.318  1.00  0.00     0.076 A 
ATOM     33  C   UNL     1     -47.913  31.250  24.813  1.00  0.00     0.001 A 
ATOM     34  H   UNL     1     -49.081  29.427  24.692  1.00  0.00     0.063 H 
ATOM     35  C   UNL     1     -46.459  33.155  24.790  1.00  0.00     0.007 A 
ATOM     36  C   UNL     1     -48.726  31.897  25.756  1.00  0.00    -0.049 A 
ATOM     37  H   UNL     1     -45.565  33.649  24.415  1.00  0.00     0.069 H 
ATOM     38  C   UNL     1     -48.402  33.177  26.211  1.00  0.00    -0.019 A 
ATOM     39  H   UNL     1     -49.617  31.407  26.144  1.00  0.00     0.063 H 
ATOM     40  H   UNL     1     -49.060  33.635  26.942  1.00  0.00     0.066 H 
BRANCH  27  41
ATOM     41  N   UNL     1     -45.378  29.508  22.051  1.00  0.00    -0.384 N 
ATOM     42  H   UNL     1     -45.810  29.593  21.134  1.00  0.00     0.158 HD
ATOM     43  H   UNL     1     -45.168  28.544  22.281  1.00  0.00     0.158 HD
ENDBRANCH  27  41
ENDBRANCH  25  26
ENDBRANCH  22  25
ENDBRANCH  14  22
BRANCH  16  44
ATOM     44  O   UNL     1     -48.808  36.271  29.372  1.00  0.00    -0.387 OA
ATOM     45  H   UNL     1     -49.733  36.501  29.163  1.00  0.00     0.211 HD
ENDBRANCH  16  44
BRANCH  18  46
ATOM     46  O   UNL     1     -49.364  38.175  27.618  1.00  0.00    -0.386 OA
ATOM     47  H   UNL     1     -49.600  38.495  26.722  1.00  0.00     0.211 HD
ENDBRANCH  18  46
ENDBRANCH   1  13
BRANCH   5  48
ATOM     48  N   UNL     1     -45.573  43.272  25.163  1.00  0.00    -0.369 N 
ATOM     49  H   UNL     1     -44.791  42.758  24.767  1.00  0.00     0.162 HD
BRANCH  48  50
ATOM     50  C   UNL     1     -45.188  44.538  25.782  1.00  0.00     0.020 C 
ATOM     51  H   UNL     1     -45.648  45.342  25.195  1.00  0.00     0.049 H 
ATOM     52  H   UNL     1     -45.608  44.627  26.791  1.00  0.00     0.049 H 
BRANCH  50  53
ATOM     53  C   UNL     1     -43.666  44.747  25.823  1.00  0.00    -0.010 C 
ATOM     54  H   UNL     1     -43.280  44.769  24.795  1.00  0.00     0.033 H 
ATOM     55  H   UNL     1     -43.424  45.727  26.249  1.00  0.00     0.033 H 
BRANCH  53  56
ATOM     56  C   UNL     1     -42.933  43.667  26.587  1.00  0.00    -0.046 A 
ATOM     57  C   UNL     1     -43.201  43.455  27.946  1.00  0.00    -0.059 A 
ATOM     58  C   UNL     1     -41.996  42.847  25.943  1.00  0.00    -0.059 A 
ATOM     59  C   UNL     1     -42.547  42.441  28.647  1.00  0.00    -0.062 A 
ATOM     60  H   UNL     1     -43.928  44.076  28.466  1.00  0.00     0.063 H 
ATOM     61  C   UNL     1     -41.341  41.835  26.646  1.00  0.00    -0.062 A 
ATOM     62  H   UNL     1     -41.770  42.992  24.888  1.00  0.00     0.063 H 
ATOM     63  C   UNL     1     -41.617  41.632  27.997  1.00  0.00    -0.062 A 
ATOM     64  H   UNL     1     -42.761  42.285  29.701  1.00  0.00     0.062 H 
ATOM     65  H   UNL     1     -40.614  41.205  26.140  1.00  0.00     0.062 H 
ATOM     66  H   UNL     1     -41.105  40.844  28.544  1.00  0.00     0.062 H 
ENDBRANCH  53  56
ENDBRANCH  50  53
ENDBRANCH  48  50
ENDBRANCH   5  48
TORSDOF 11
ENDMDL
MODEL 6
REMARK VINA RESULT:      -9.4      5.965      9.728
REMARK SMILES Nc1ccc2ccc(OC[C@H]3O[C@@H](n4ccc5c(NCCc6ccccc6)ncnc54)[C@H](O)[C@@H]3O)cc2n1
REMARK SMILES IDX 14 1 15 2 16 3 17 4 18 5 28 6 29 7 30 8 31 9 13 13 11 14
REMARK SMILES IDX 12 15 34 16 32 18 10 22 9 25 8 26 2 27 3 28 38 29 4 30 37 32
REMARK SMILES IDX 5 33 36 35 6 36 7 38 1 41 35 44 33 46 19 48 20 50 21 53
REMARK SMILES IDX 22 56 23 57 27 58 24 59 26 61 25 63
REMARK H PARENT 15 10 16 11 29 12 11 17 34 19 13 20 32 21 10 23 10 24 3 31
REMARK H PARENT 4 34 36 37 6 39 7 40 1 42 1 43 35 45 33 47 19 49 20 51 20 52
REMARK H PARENT 21 54 21 55 23 60 27 62 24 64 26 65 25 66
REMARK Flexibility Score: inf
ROOT
ATOM      1  N   UNL     1     -49.999  31.360  23.168  1.00  0.00    -0.303 N 
ATOM      2  C   UNL     1     -50.509  31.839  24.354  1.00  0.00     0.009 A 
ATOM      3  C   UNL     1     -49.447  32.116  25.190  1.00  0.00    -0.031 A 
ATOM      4  C   UNL     1     -48.249  31.804  24.488  1.00  0.00     0.061 A 
ATOM      5  C   UNL     1     -46.869  31.866  24.762  1.00  0.00     0.138 A 
ATOM      6  N   UNL     1     -46.013  31.464  23.793  1.00  0.00    -0.219 NA
ATOM      7  C   UNL     1     -46.516  31.026  22.623  1.00  0.00     0.120 A 
ATOM      8  N   UNL     1     -47.803  30.942  22.251  1.00  0.00    -0.218 NA
ATOM      9  C   UNL     1     -48.627  31.342  23.234  1.00  0.00     0.147 A 
ATOM     10  H   UNL     1     -51.575  31.946  24.505  1.00  0.00     0.082 H 
ATOM     11  H   UNL     1     -49.524  32.504  26.196  1.00  0.00     0.065 H 
ATOM     12  H   UNL     1     -45.787  30.703  21.886  1.00  0.00     0.106 H 
ENDROOT
BRANCH   1  13
ATOM     13  C   UNL     1     -50.767  30.916  22.013  1.00  0.00     0.164 C 
ATOM     14  C   UNL     1     -52.379  29.236  21.740  1.00  0.00     0.123 C 
ATOM     15  O   UNL     1     -52.064  30.446  22.462  1.00  0.00    -0.345 OA
ATOM     16  C   UNL     1     -51.321  29.076  20.649  1.00  0.00     0.114 C 
ATOM     17  H   UNL     1     -53.368  29.373  21.291  1.00  0.00     0.067 H 
ATOM     18  C   UNL     1     -50.109  29.753  21.265  1.00  0.00     0.128 C 
ATOM     19  H   UNL     1     -51.127  28.049  20.331  1.00  0.00     0.066 H 
ATOM     20  H   UNL     1     -50.936  31.784  21.364  1.00  0.00     0.088 H 
ATOM     21  H   UNL     1     -49.601  29.071  21.957  1.00  0.00     0.068 H 
BRANCH  14  22
ATOM     22  C   UNL     1     -52.401  28.062  22.726  1.00  0.00     0.117 C 
ATOM     23  H   UNL     1     -51.903  27.173  22.322  1.00  0.00     0.073 H 
ATOM     24  H   UNL     1     -53.437  27.739  22.885  1.00  0.00     0.073 H 
BRANCH  22  25
ATOM     25  O   UNL     1     -51.892  28.441  24.003  1.00  0.00    -0.491 OA
BRANCH  25  26
ATOM     26  C   UNL     1     -50.888  27.701  24.562  1.00  0.00     0.121 A 
ATOM     27  C   UNL     1     -46.199  26.940  24.373  1.00  0.00     0.124 A 
ATOM     28  C   UNL     1     -46.249  25.984  25.373  1.00  0.00    -0.019 A 
ATOM     29  N   UNL     1     -47.285  27.594  23.932  1.00  0.00    -0.231 NA
ATOM     30  C   UNL     1     -47.480  25.675  25.938  1.00  0.00    -0.049 A 
ATOM     31  H   UNL     1     -45.345  25.494  25.717  1.00  0.00     0.066 H 
ATOM     32  C   UNL     1     -48.479  27.302  24.479  1.00  0.00     0.076 A 
ATOM     33  C   UNL     1     -48.629  26.336  25.493  1.00  0.00     0.001 A 
ATOM     34  H   UNL     1     -47.534  24.927  26.725  1.00  0.00     0.063 H 
ATOM     35  C   UNL     1     -49.616  27.965  24.037  1.00  0.00     0.007 A 
ATOM     36  C   UNL     1     -49.897  26.066  26.030  1.00  0.00    -0.049 A 
ATOM     37  H   UNL     1     -49.507  28.716  23.257  1.00  0.00     0.069 H 
ATOM     38  C   UNL     1     -51.024  26.746  25.564  1.00  0.00    -0.019 A 
ATOM     39  H   UNL     1     -50.015  25.323  26.817  1.00  0.00     0.063 H 
ATOM     40  H   UNL     1     -51.982  26.504  26.012  1.00  0.00     0.066 H 
BRANCH  27  41
ATOM     41  N   UNL     1     -44.983  27.296  23.795  1.00  0.00    -0.384 N 
ATOM     42  H   UNL     1     -44.596  28.047  24.361  1.00  0.00     0.158 HD
ATOM     43  H   UNL     1     -45.096  27.571  22.827  1.00  0.00     0.158 HD
ENDBRANCH  27  41
ENDBRANCH  25  26
ENDBRANCH  22  25
ENDBRANCH  14  22
BRANCH  16  44
ATOM     44  O   UNL     1     -51.690  29.827  19.475  1.00  0.00    -0.387 OA
ATOM     45  H   UNL     1     -51.119  29.518  18.747  1.00  0.00     0.211 HD
ENDBRANCH  16  44
BRANCH  18  46
ATOM     46  O   UNL     1     -49.180  30.143  20.258  1.00  0.00    -0.386 OA
ATOM     47  H   UNL     1     -49.659  30.782  19.689  1.00  0.00     0.211 HD
ENDBRANCH  18  46
ENDBRANCH   1  13
BRANCH   5  48
ATOM     48  N   UNL     1     -46.384  32.327  25.986  1.00  0.00    -0.369 N 
ATOM     49  H   UNL     1     -46.505  31.637  26.722  1.00  0.00     0.162 HD
BRANCH  48  50
ATOM     50  C   UNL     1     -46.767  33.679  26.382  1.00  0.00     0.020 C 
ATOM     51  H   UNL     1     -46.796  34.291  25.472  1.00  0.00     0.049 H 
ATOM     52  H   UNL     1     -47.787  33.697  26.786  1.00  0.00     0.049 H 
BRANCH  50  53
ATOM     53  C   UNL     1     -45.790  34.309  27.387  1.00  0.00    -0.010 C 
ATOM     54  H   UNL     1     -45.982  33.889  28.383  1.00  0.00     0.033 H 
ATOM     55  H   UNL     1     -44.758  34.031  27.145  1.00  0.00     0.033 H 
BRANCH  53  56
ATOM     56  C   UNL     1     -45.903  35.815  27.471  1.00  0.00    -0.046 A 
ATOM     57  C   UNL     1     -46.888  36.493  26.740  1.00  0.00    -0.059 A 
ATOM     58  C   UNL     1     -45.045  36.550  28.300  1.00  0.00    -0.059 A 
ATOM     59  C   UNL     1     -47.013  37.879  26.837  1.00  0.00    -0.062 A 
ATOM     60  H   UNL     1     -47.569  35.942  26.094  1.00  0.00     0.063 H 
ATOM     61  C   UNL     1     -45.170  37.937  28.394  1.00  0.00    -0.062 A 
ATOM     62  H   UNL     1     -44.272  36.047  28.878  1.00  0.00     0.063 H 
ATOM     63  C   UNL     1     -46.154  38.600  27.664  1.00  0.00    -0.062 A 
ATOM     64  H   UNL     1     -47.780  38.396  26.266  1.00  0.00     0.062 H 
ATOM     65  H   UNL     1     -44.500  38.501  29.037  1.00  0.00     0.062 H 
ATOM     66  H   UNL     1     -46.250  39.681  27.737  1.00  0.00     0.062 H 
ENDBRANCH  53  56
ENDBRANCH  50  53
ENDBRANCH  48  50
ENDBRANCH   5  48
TORSDOF 11
ENDMDL
MODEL 7
REMARK VINA RESULT:      -9.3      2.654     12.044
REMARK SMILES Nc1ccc2ccc(OC[C@H]3O[C@@H](n4ccc5c(NCCc6ccccc6)ncnc54)[C@H](O)[C@@H]3O)cc2n1
REMARK SMILES IDX 14 1 15 2 16 3 17 4 18 5 28 6 29 7 30 8 31 9 13 13 11 14
REMARK SMILES IDX 12 15 34 16 32 18 10 22 9 25 8 26 2 27 3 28 38 29 4 30 37 32
REMARK SMILES IDX 5 33 36 35 6 36 7 38 1 41 35 44 33 46 19 48 20 50 21 53
REMARK SMILES IDX 22 56 23 57 27 58 24 59 26 61 25 63
REMARK H PARENT 15 10 16 11 29 12 11 17 34 19 13 20 32 21 10 23 10 24 3 31
REMARK H PARENT 4 34 36 37 6 39 7 40 1 42 1 43 35 45 33 47 19 49 20 51 20 52
REMARK H PARENT 21 54 21 55 23 60 27 62 24 64 26 65 25 66
REMARK Flexibility Score: inf
ROOT
ATOM      1  N   UNL     1     -48.442  32.264  25.280  1.00  0.00    -0.303 N 
ATOM      2  C   UNL     1     -49.799  32.475  25.187  1.00  0.00     0.009 A 
ATOM      3  C   UNL     1     -50.258  31.798  24.076  1.00  0.00    -0.031 A 
ATOM      4  C   UNL     1     -49.145  31.145  23.476  1.00  0.00     0.061 A 
ATOM      5  C   UNL     1     -48.941  30.311  22.360  1.00  0.00     0.138 A 
ATOM      6  N   UNL     1     -47.681  29.878  22.115  1.00  0.00    -0.219 NA
ATOM      7  C   UNL     1     -46.691  30.261  22.944  1.00  0.00     0.120 A 
ATOM      8  N   UNL     1     -46.775  31.032  24.039  1.00  0.00    -0.218 NA
ATOM      9  C   UNL     1     -48.034  31.450  24.251  1.00  0.00     0.147 A 
ATOM     10  H   UNL     1     -50.325  33.081  25.913  1.00  0.00     0.082 H 
ATOM     11  H   UNL     1     -51.284  31.772  23.734  1.00  0.00     0.065 H 
ATOM     12  H   UNL     1     -45.699  29.896  22.695  1.00  0.00     0.106 H 
ENDROOT
BRANCH   1  13
ATOM     13  C   UNL     1     -47.548  32.818  26.287  1.00  0.00     0.164 C 
ATOM     14  C   UNL     1     -47.571  34.835  27.482  1.00  0.00     0.123 C 
ATOM     15  O   UNL     1     -48.321  33.632  27.207  1.00  0.00    -0.345 OA
ATOM     16  C   UNL     1     -46.184  34.650  26.868  1.00  0.00     0.114 C 
ATOM     17  H   UNL     1     -47.493  34.928  28.570  1.00  0.00     0.067 H 
ATOM     18  C   UNL     1     -46.464  33.724  25.696  1.00  0.00     0.128 C 
ATOM     19  H   UNL     1     -45.673  35.571  26.577  1.00  0.00     0.066 H 
ATOM     20  H   UNL     1     -47.124  31.984  26.860  1.00  0.00     0.088 H 
ATOM     21  H   UNL     1     -46.845  34.295  24.841  1.00  0.00     0.068 H 
BRANCH  14  22
ATOM     22  C   UNL     1     -48.328  36.034  26.898  1.00  0.00     0.117 C 
ATOM     23  H   UNL     1     -49.329  35.761  26.548  1.00  0.00     0.073 H 
ATOM     24  H   UNL     1     -47.815  36.382  25.993  1.00  0.00     0.073 H 
BRANCH  22  25
ATOM     25  O   UNL     1     -48.346  37.134  27.805  1.00  0.00    -0.491 OA
BRANCH  25  26
ATOM     26  C   UNL     1     -47.205  37.866  27.981  1.00  0.00     0.121 A 
ATOM     27  C   UNL     1     -44.618  41.360  26.059  1.00  0.00     0.124 A 
ATOM     28  C   UNL     1     -43.664  41.292  27.061  1.00  0.00    -0.019 A 
ATOM     29  N   UNL     1     -45.703  40.569  26.027  1.00  0.00    -0.231 NA
ATOM     30  C   UNL     1     -43.827  40.354  28.073  1.00  0.00    -0.049 A 
ATOM     31  H   UNL     1     -42.814  41.965  27.062  1.00  0.00     0.066 H 
ATOM     32  C   UNL     1     -45.867  39.662  27.008  1.00  0.00     0.076 A 
ATOM     33  C   UNL     1     -44.945  39.514  28.061  1.00  0.00     0.001 A 
ATOM     34  H   UNL     1     -43.088  40.291  28.866  1.00  0.00     0.063 H 
ATOM     35  C   UNL     1     -46.980  38.833  26.994  1.00  0.00     0.007 A 
ATOM     36  C   UNL     1     -45.160  38.551  29.059  1.00  0.00    -0.049 A 
ATOM     37  H   UNL     1     -47.700  38.946  26.186  1.00  0.00     0.069 H 
ATOM     38  C   UNL     1     -46.288  37.728  29.018  1.00  0.00    -0.019 A 
ATOM     39  H   UNL     1     -44.451  38.437  29.877  1.00  0.00     0.063 H 
ATOM     40  H   UNL     1     -46.412  37.001  29.814  1.00  0.00     0.066 H 
BRANCH  27  41
ATOM     41  N   UNL     1     -44.505  42.299  25.038  1.00  0.00    -0.384 N 
ATOM     42  H   UNL     1     -43.631  42.108  24.555  1.00  0.00     0.158 HD
ATOM     43  H   UNL     1     -44.539  43.246  25.395  1.00  0.00     0.158 HD
ENDBRANCH  27  41
ENDBRANCH  25  26
ENDBRANCH  22  25
ENDBRANCH  14  22
BRANCH  16  44
ATOM     44  O   UNL     1     -45.318  33.947  27.780  1.00  0.00    -0.387 OA
ATOM     45  H   UNL     1     -45.854  33.715  28.562  1.00  0.00     0.211 HD
ENDBRANCH  16  44
BRANCH  18  46
ATOM     46  O   UNL     1     -45.279  33.047  25.290  1.00  0.00    -0.386 OA
ATOM     47  H   UNL     1     -44.612  33.244  25.980  1.00  0.00     0.211 HD
ENDBRANCH  18  46
ENDBRANCH   1  13
BRANCH   5  48
ATOM     48  N   UNL     1     -49.992  29.934  21.523  1.00  0.00    -0.369 N 
ATOM     49  H   UNL     1     -50.752  30.607  21.546  1.00  0.00     0.162 HD
BRANCH  48  50
ATOM     50  C   UNL     1     -50.437  28.545  21.608  1.00  0.00     0.020 C 
ATOM     51  H   UNL     1     -50.923  28.299  20.656  1.00  0.00     0.049 H 
ATOM     52  H   UNL     1     -49.583  27.862  21.693  1.00  0.00     0.049 H 
BRANCH  50  53
ATOM     53  C   UNL     1     -51.425  28.302  22.760  1.00  0.00    -0.010 C 
ATOM     54  H   UNL     1     -51.769  29.271  23.146  1.00  0.00     0.033 H 
ATOM     55  H   UNL     1     -52.325  27.796  22.394  1.00  0.00     0.033 H 
BRANCH  53  56
ATOM     56  C   UNL     1     -50.829  27.514  23.905  1.00  0.00    -0.046 A 
ATOM     57  C   UNL     1     -49.455  27.241  23.937  1.00  0.00    -0.059 A 
ATOM     58  C   UNL     1     -51.636  27.069  24.961  1.00  0.00    -0.059 A 
ATOM     59  C   UNL     1     -48.898  26.539  25.006  1.00  0.00    -0.062 A 
ATOM     60  H   UNL     1     -48.809  27.581  23.130  1.00  0.00     0.063 H 
ATOM     61  C   UNL     1     -51.077  26.364  26.028  1.00  0.00    -0.062 A 
ATOM     62  H   UNL     1     -52.705  27.268  24.959  1.00  0.00     0.063 H 
ATOM     63  C   UNL     1     -49.709  26.100  26.051  1.00  0.00    -0.062 A 
ATOM     64  H   UNL     1     -47.831  26.331  25.022  1.00  0.00     0.062 H 
ATOM     65  H   UNL     1     -51.709  26.020  26.843  1.00  0.00     0.062 H 
ATOM     66  H   UNL     1     -49.275  25.550  26.882  1.00  0.00     0.062 H 
ENDBRANCH  53  56
ENDBRANCH  50  53
ENDBRANCH  48  50
ENDBRANCH   5  48
TORSDOF 11
ENDMDL
