MODEL 1
REMARK VINA RESULT:     -11.5      0.000      0.000
REMARK SMILES Cn1ccc(-c2cn([C@@H]3O[C@H](COc4ccc5ccc(NC6CNC6)nc5c4)[C@@H](O)[C@@H]3F)c3ncnc(N)c23)n1
REMARK SMILES IDX 12 1 11 4 9 5 10 6 31 7 29 9 32 10 8 14 6 15 7 16 39 17
REMARK SMILES IDX 33 19 37 20 34 21 36 22 35 23 5 25 2 26 3 27 40 28 4 29 1 32
REMARK SMILES IDX 38 36 30 39 13 41 14 42 15 43 28 44 16 45 27 47 17 49 26 51
REMARK SMILES IDX 18 52 20 53 19 54 21 57 22 59 23 60 25 61 24 63
REMARK H PARENT 12 2 12 3 9 8 31 11 11 12 29 13 7 18 35 24 3 30 4 31 1 33 1 34
REMARK H PARENT 1 35 38 37 38 38 30 40 15 46 28 48 16 50 18 55 19 56 21 58
REMARK H PARENT 22 62 23 64 23 65 25 66 25 67 24 68
REMARK Flexibility Score: inf
ROOT
ATOM      1  C   UNL     1     -47.771  36.176  27.070  1.00  0.00     0.117 C 
ATOM      2  H   UNL     1     -48.411  37.045  27.237  1.00  0.00     0.073 H 
ATOM      3  H   UNL     1     -47.427  36.252  26.031  1.00  0.00     0.073 H 
ENDROOT
BRANCH   1   4
ATOM      4  C   UNL     1     -46.541  36.221  27.985  1.00  0.00     0.123 C 
ATOM      5  C   UNL     1     -45.151  38.004  28.551  1.00  0.00     0.169 C 
ATOM      6  O   UNL     1     -45.572  37.154  27.462  1.00  0.00    -0.345 OA
ATOM      7  C   UNL     1     -46.282  38.013  29.568  1.00  0.00     0.173 C 
ATOM      8  H   UNL     1     -44.250  37.543  28.975  1.00  0.00     0.088 H 
ATOM      9  C   UNL     1     -46.854  36.620  29.433  1.00  0.00     0.119 C 
ATOM     10  F   UNL     1     -47.247  38.915  29.246  1.00  0.00    -0.239 F 
ATOM     11  H   UNL     1     -45.934  38.245  30.578  1.00  0.00     0.074 H 
ATOM     12  H   UNL     1     -46.064  35.233  27.954  1.00  0.00     0.067 H 
ATOM     13  H   UNL     1     -47.923  36.567  29.661  1.00  0.00     0.066 H 
BRANCH   5  14
ATOM     14  N   UNL     1     -44.762  39.314  28.057  1.00  0.00    -0.302 N 
ATOM     15  C   UNL     1     -44.604  41.179  26.840  1.00  0.00     0.033 A 
ATOM     16  C   UNL     1     -45.265  39.971  26.963  1.00  0.00     0.019 A 
ATOM     17  C   UNL     1     -43.619  41.236  27.876  1.00  0.00     0.071 A 
ATOM     18  H   UNL     1     -46.062  39.537  26.373  1.00  0.00     0.083 H 
ATOM     19  C   UNL     1     -43.754  40.063  28.612  1.00  0.00     0.148 A 
ATOM     20  C   UNL     1     -42.609  42.117  28.303  1.00  0.00     0.137 A 
ATOM     21  N   UNL     1     -43.031  39.697  29.686  1.00  0.00    -0.218 NA
ATOM     22  N   UNL     1     -41.884  41.803  29.397  1.00  0.00    -0.219 NA
ATOM     23  C   UNL     1     -42.125  40.633  30.011  1.00  0.00     0.120 A 
ATOM     24  H   UNL     1     -41.506  40.418  30.876  1.00  0.00     0.106 H 
BRANCH  15  25
ATOM     25  C   UNL     1     -44.864  42.202  25.823  1.00  0.00     0.095 A 
ATOM     26  N   UNL     1     -44.662  43.473  24.144  1.00  0.00    -0.275 N 
ATOM     27  C   UNL     1     -45.862  43.818  24.685  1.00  0.00     0.025 A 
ATOM     28  N   UNL     1     -44.024  42.498  24.819  1.00  0.00    -0.173 NA
ATOM     29  C   UNL     1     -46.022  43.012  25.787  1.00  0.00    -0.016 A 
ATOM     30  H   UNL     1     -46.489  44.592  24.264  1.00  0.00     0.084 H 
ATOM     31  H   UNL     1     -46.861  43.014  26.469  1.00  0.00     0.066 H 
BRANCH  26  32
ATOM     32  C   UNL     1     -44.048  44.036  22.966  1.00  0.00     0.030 C 
ATOM     33  H   UNL     1     -43.055  43.602  22.830  1.00  0.00     0.048 H 
ATOM     34  H   UNL     1     -43.967  45.116  23.103  1.00  0.00     0.048 H 
ATOM     35  H   UNL     1     -44.678  43.802  22.104  1.00  0.00     0.048 H 
ENDBRANCH  26  32
ENDBRANCH  15  25
BRANCH  20  36
ATOM     36  N   UNL     1     -42.296  43.310  27.668  1.00  0.00    -0.383 N 
ATOM     37  H   UNL     1     -42.776  43.408  26.768  1.00  0.00     0.158 HD
ATOM     38  H   UNL     1     -42.338  44.095  28.301  1.00  0.00     0.158 HD
ENDBRANCH  20  36
ENDBRANCH   5  14
BRANCH   9  39
ATOM     39  O   UNL     1     -46.180  35.729  30.334  1.00  0.00    -0.387 OA
ATOM     40  H   UNL     1     -45.472  36.235  30.773  1.00  0.00     0.211 HD
ENDBRANCH   9  39
ENDBRANCH   1   4
BRANCH   1  41
ATOM     41  O   UNL     1     -48.464  34.932  27.159  1.00  0.00    -0.491 OA
BRANCH  41  42
ATOM     42  C   UNL     1     -48.078  33.885  26.371  1.00  0.00     0.121 A 
ATOM     43  C   UNL     1     -46.918  34.121  25.632  1.00  0.00    -0.019 A 
ATOM     44  C   UNL     1     -48.738  32.665  26.222  1.00  0.00     0.007 A 
ATOM     45  C   UNL     1     -46.412  33.145  24.778  1.00  0.00    -0.049 A 
ATOM     46  H   UNL     1     -46.393  35.068  25.740  1.00  0.00     0.066 H 
ATOM     47  C   UNL     1     -48.259  31.672  25.372  1.00  0.00     0.076 A 
ATOM     48  H   UNL     1     -49.654  32.441  26.754  1.00  0.00     0.069 H 
ATOM     49  C   UNL     1     -47.080  31.921  24.642  1.00  0.00     0.001 A 
ATOM     50  H   UNL     1     -45.496  33.345  24.226  1.00  0.00     0.063 H 
ATOM     51  N   UNL     1     -48.932  30.511  25.271  1.00  0.00    -0.231 NA
ATOM     52  C   UNL     1     -46.611  30.919  23.791  1.00  0.00    -0.049 A 
ATOM     53  C   UNL     1     -48.474  29.557  24.435  1.00  0.00     0.126 A 
ATOM     54  C   UNL     1     -47.316  29.726  23.686  1.00  0.00    -0.019 A 
ATOM     55  H   UNL     1     -45.698  31.056  23.218  1.00  0.00     0.063 H 
ATOM     56  H   UNL     1     -46.953  28.932  23.043  1.00  0.00     0.066 H 
BRANCH  53  57
ATOM     57  N   UNL     1     -49.153  28.321  24.350  1.00  0.00    -0.365 N 
ATOM     58  H   UNL     1     -50.126  28.466  24.618  1.00  0.00     0.162 HD
BRANCH  57  59
ATOM     59  C   UNL     1     -48.647  27.145  25.030  1.00  0.00     0.052 C 
ATOM     60  C   UNL     1     -49.748  26.079  25.247  1.00  0.00     0.017 C 
ATOM     61  C   UNL     1     -48.686  27.268  26.573  1.00  0.00     0.017 C 
ATOM     62  H   UNL     1     -47.720  26.770  24.586  1.00  0.00     0.055 H 
ATOM     63  N   UNL     1     -50.083  26.752  26.532  1.00  0.00    -0.313 NA
ATOM     64  H   UNL     1     -49.362  25.060  25.373  1.00  0.00     0.045 H 
ATOM     65  H   UNL     1     -50.564  26.058  24.518  1.00  0.00     0.045 H 
ATOM     66  H   UNL     1     -48.587  28.273  26.997  1.00  0.00     0.045 H 
ATOM     67  H   UNL     1     -47.986  26.601  27.089  1.00  0.00     0.045 H 
ATOM     68  H   UNL     1     -50.320  26.118  27.294  1.00  0.00     0.122 HD
ENDBRANCH  57  59
ENDBRANCH  53  57
ENDBRANCH  41  42
ENDBRANCH   1  41
TORSDOF 10
ENDMDL
MODEL 2
REMARK VINA RESULT:      -9.5      1.390      2.337
REMARK SMILES Cn1ccc(-c2cn([C@@H]3O[C@H](COc4ccc5ccc(NC6CNC6)nc5c4)[C@@H](O)[C@@H]3F)c3ncnc(N)c23)n1
REMARK SMILES IDX 12 1 11 4 9 5 10 6 31 7 29 9 32 10 8 14 6 15 7 16 39 17
REMARK SMILES IDX 33 19 37 20 34 21 36 22 35 23 5 25 2 26 3 27 40 28 4 29 1 32
REMARK SMILES IDX 38 36 30 39 13 41 14 42 15 43 28 44 16 45 27 47 17 49 26 51
REMARK SMILES IDX 18 52 20 53 19 54 21 57 22 59 23 60 25 61 24 63
REMARK H PARENT 12 2 12 3 9 8 31 11 11 12 29 13 7 18 35 24 3 30 4 31 1 33 1 34
REMARK H PARENT 1 35 38 37 38 38 30 40 15 46 28 48 16 50 18 55 19 56 21 58
REMARK H PARENT 22 62 23 64 23 65 25 66 25 67 24 68
REMARK Flexibility Score: inf
ROOT
ATOM      1  C   UNL     1     -47.427  36.111  27.480  1.00  0.00     0.117 C 
ATOM      2  H   UNL     1     -48.247  35.609  27.997  1.00  0.00     0.073 H 
ATOM      3  H   UNL     1     -47.803  37.107  27.216  1.00  0.00     0.073 H 
ENDROOT
BRANCH   1   4
ATOM      4  C   UNL     1     -46.221  36.288  28.412  1.00  0.00     0.123 C 
ATOM      5  C   UNL     1     -44.925  38.173  28.855  1.00  0.00     0.169 C 
ATOM      6  O   UNL     1     -45.283  37.218  27.832  1.00  0.00    -0.345 OA
ATOM      7  C   UNL     1     -46.078  38.213  29.845  1.00  0.00     0.173 C 
ATOM      8  H   UNL     1     -44.014  37.790  29.332  1.00  0.00     0.088 H 
ATOM      9  C   UNL     1     -46.585  36.789  29.816  1.00  0.00     0.119 C 
ATOM     10  F   UNL     1     -47.075  39.040  29.432  1.00  0.00    -0.239 F 
ATOM     11  H   UNL     1     -45.764  38.543  30.839  1.00  0.00     0.074 H 
ATOM     12  H   UNL     1     -45.700  35.323  28.472  1.00  0.00     0.067 H 
ATOM     13  H   UNL     1     -47.655  36.706  30.027  1.00  0.00     0.066 H 
BRANCH   5  14
ATOM     14  N   UNL     1     -44.583  39.454  28.261  1.00  0.00    -0.302 N 
ATOM     15  C   UNL     1     -44.529  41.248  26.934  1.00  0.00     0.033 A 
ATOM     16  C   UNL     1     -45.170  40.047  27.173  1.00  0.00     0.019 A 
ATOM     17  C   UNL     1     -43.470  41.367  27.890  1.00  0.00     0.071 A 
ATOM     18  H   UNL     1     -46.005  39.579  26.668  1.00  0.00     0.083 H 
ATOM     19  C   UNL     1     -43.542  40.236  28.698  1.00  0.00     0.148 A 
ATOM     20  C   UNL     1     -42.439  42.274  28.191  1.00  0.00     0.137 A 
ATOM     21  N   UNL     1     -42.740  39.933  29.734  1.00  0.00    -0.218 NA
ATOM     22  N   UNL     1     -41.632  42.024  29.244  1.00  0.00    -0.219 NA
ATOM     23  C   UNL     1     -41.819  40.889  29.938  1.00  0.00     0.120 A 
ATOM     24  H   UNL     1     -41.136  40.725  30.766  1.00  0.00     0.106 H 
BRANCH  15  25
ATOM     25  C   UNL     1     -44.871  42.213  25.883  1.00  0.00     0.095 A 
ATOM     26  N   UNL     1     -44.793  43.403  24.136  1.00  0.00    -0.275 N 
ATOM     27  C   UNL     1     -45.973  43.743  24.722  1.00  0.00     0.025 A 
ATOM     28  N   UNL     1     -44.092  42.480  24.824  1.00  0.00    -0.173 NA
ATOM     29  C   UNL     1     -46.053  42.988  25.869  1.00  0.00    -0.016 A 
ATOM     30  H   UNL     1     -46.644  44.477  24.298  1.00  0.00     0.084 H 
ATOM     31  H   UNL     1     -46.855  43.002  26.594  1.00  0.00     0.066 H 
BRANCH  26  32
ATOM     32  C   UNL     1     -44.257  43.922  22.902  1.00  0.00     0.030 C 
ATOM     33  H   UNL     1     -44.457  43.217  22.092  1.00  0.00     0.048 H 
ATOM     34  H   UNL     1     -43.180  44.055  23.023  1.00  0.00     0.048 H 
ATOM     35  H   UNL     1     -44.742  44.879  22.691  1.00  0.00     0.048 H 
ENDBRANCH  26  32
ENDBRANCH  15  25
BRANCH  20  36
ATOM     36  N   UNL     1     -42.183  43.430  27.469  1.00  0.00    -0.383 N 
ATOM     37  H   UNL     1     -43.008  44.032  27.393  1.00  0.00     0.158 HD
ATOM     38  H   UNL     1     -41.318  43.867  27.754  1.00  0.00     0.158 HD
ENDBRANCH  20  36
ENDBRANCH   5  14
BRANCH   9  39
ATOM     39  O   UNL     1     -45.893  36.007  30.801  1.00  0.00    -0.387 OA
ATOM     40  H   UNL     1     -44.968  35.916  30.506  1.00  0.00     0.211 HD
ENDBRANCH   9  39
ENDBRANCH   1   4
BRANCH   1  41
ATOM     41  O   UNL     1     -47.067  35.493  26.245  1.00  0.00    -0.491 OA
BRANCH  41  42
ATOM     42  C   UNL     1     -47.563  34.258  25.938  1.00  0.00     0.121 A 
ATOM     43  C   UNL     1     -48.896  34.068  26.303  1.00  0.00    -0.019 A 
ATOM     44  C   UNL     1     -46.867  33.202  25.348  1.00  0.00     0.007 A 
ATOM     45  C   UNL     1     -49.530  32.853  26.059  1.00  0.00    -0.049 A 
ATOM     46  H   UNL     1     -49.450  34.884  26.762  1.00  0.00     0.066 H 
ATOM     47  C   UNL     1     -47.473  31.975  25.097  1.00  0.00     0.076 A 
ATOM     48  H   UNL     1     -45.824  33.290  25.068  1.00  0.00     0.069 H 
ATOM     49  C   UNL     1     -48.822  31.803  25.460  1.00  0.00     0.001 A 
ATOM     50  H   UNL     1     -50.576  32.736  26.336  1.00  0.00     0.063 H 
ATOM     51  N   UNL     1     -46.756  30.993  24.519  1.00  0.00    -0.231 NA
ATOM     52  C   UNL     1     -49.418  30.567  25.206  1.00  0.00    -0.049 A 
ATOM     53  C   UNL     1     -47.342  29.799  24.291  1.00  0.00     0.126 A 
ATOM     54  C   UNL     1     -48.670  29.555  24.616  1.00  0.00    -0.019 A 
ATOM     55  H   UNL     1     -50.462  30.389  25.452  1.00  0.00     0.063 H 
ATOM     56  H   UNL     1     -49.126  28.596  24.396  1.00  0.00     0.066 H 
BRANCH  53  57
ATOM     57  N   UNL     1     -46.608  28.775  23.652  1.00  0.00    -0.365 N 
ATOM     58  H   UNL     1     -45.876  28.456  24.287  1.00  0.00     0.162 HD
BRANCH  57  59
ATOM     59  C   UNL     1     -46.036  28.978  22.336  1.00  0.00     0.052 C 
ATOM     60  C   UNL     1     -44.493  28.856  22.347  1.00  0.00     0.017 C 
ATOM     61  C   UNL     1     -45.755  30.468  22.017  1.00  0.00     0.017 C 
ATOM     62  H   UNL     1     -46.542  28.393  21.564  1.00  0.00     0.055 H 
ATOM     63  N   UNL     1     -44.425  30.307  22.667  1.00  0.00    -0.313 NA
ATOM     64  H   UNL     1     -44.060  28.600  21.372  1.00  0.00     0.045 H 
ATOM     65  H   UNL     1     -44.056  28.200  23.107  1.00  0.00     0.045 H 
ATOM     66  H   UNL     1     -46.404  31.211  22.490  1.00  0.00     0.045 H 
ATOM     67  H   UNL     1     -45.696  30.688  20.944  1.00  0.00     0.045 H 
ATOM     68  H   UNL     1     -43.667  30.809  22.205  1.00  0.00     0.122 HD
ENDBRANCH  57  59
ENDBRANCH  53  57
ENDBRANCH  41  42
ENDBRANCH   1  41
TORSDOF 10
ENDMDL
MODEL 3
REMARK VINA RESULT:      -9.5      1.935      2.675
REMARK SMILES Cn1ccc(-c2cn([C@@H]3O[C@H](COc4ccc5ccc(NC6CNC6)nc5c4)[C@@H](O)[C@@H]3F)c3ncnc(N)c23)n1
REMARK SMILES IDX 12 1 11 4 9 5 10 6 31 7 29 9 32 10 8 14 6 15 7 16 39 17
REMARK SMILES IDX 33 19 37 20 34 21 36 22 35 23 5 25 2 26 3 27 40 28 4 29 1 32
REMARK SMILES IDX 38 36 30 39 13 41 14 42 15 43 28 44 16 45 27 47 17 49 26 51
REMARK SMILES IDX 18 52 20 53 19 54 21 57 22 59 23 60 25 61 24 63
REMARK H PARENT 12 2 12 3 9 8 31 11 11 12 29 13 7 18 35 24 3 30 4 31 1 33 1 34
REMARK H PARENT 1 35 38 37 38 38 30 40 15 46 28 48 16 50 18 55 19 56 21 58
REMARK H PARENT 22 62 23 64 23 65 25 66 25 67 24 68
REMARK Flexibility Score: inf
ROOT
ATOM      1  C   UNL     1     -45.414  34.839  27.639  1.00  0.00     0.117 C 
ATOM      2  H   UNL     1     -44.338  35.016  27.580  1.00  0.00     0.073 H 
ATOM      3  H   UNL     1     -45.531  33.822  28.033  1.00  0.00     0.073 H 
ENDROOT
BRANCH   1   4
ATOM      4  C   UNL     1     -46.073  35.813  28.625  1.00  0.00     0.123 C 
ATOM      5  C   UNL     1     -46.046  38.142  28.683  1.00  0.00     0.169 C 
ATOM      6  O   UNL     1     -45.224  36.962  28.822  1.00  0.00    -0.345 OA
ATOM      7  C   UNL     1     -47.227  37.757  27.806  1.00  0.00     0.173 C 
ATOM      8  H   UNL     1     -46.381  38.408  29.693  1.00  0.00     0.088 H 
ATOM      9  C   UNL     1     -47.455  36.310  28.181  1.00  0.00     0.119 C 
ATOM     10  F   UNL     1     -46.920  37.823  26.483  1.00  0.00    -0.239 F 
ATOM     11  H   UNL     1     -48.099  38.394  27.977  1.00  0.00     0.074 H 
ATOM     12  H   UNL     1     -46.141  35.309  29.598  1.00  0.00     0.067 H 
ATOM     13  H   UNL     1     -47.874  35.714  27.365  1.00  0.00     0.066 H 
BRANCH   5  14
ATOM     14  N   UNL     1     -45.257  39.259  28.192  1.00  0.00    -0.302 N 
ATOM     15  C   UNL     1     -44.481  40.947  26.954  1.00  0.00     0.033 A 
ATOM     16  C   UNL     1     -45.477  39.993  27.055  1.00  0.00     0.019 A 
ATOM     17  C   UNL     1     -43.586  40.751  28.053  1.00  0.00     0.071 A 
ATOM     18  H   UNL     1     -46.330  39.792  26.420  1.00  0.00     0.083 H 
ATOM     19  C   UNL     1     -44.107  39.698  28.800  1.00  0.00     0.148 A 
ATOM     20  C   UNL     1     -42.388  41.310  28.531  1.00  0.00     0.137 A 
ATOM     21  N   UNL     1     -43.589  39.176  29.927  1.00  0.00    -0.218 NA
ATOM     22  N   UNL     1     -41.854  40.838  29.677  1.00  0.00    -0.219 NA
ATOM     23  C   UNL     1     -42.467  39.815  30.295  1.00  0.00     0.120 A 
ATOM     24  H   UNL     1     -41.992  39.460  31.204  1.00  0.00     0.106 H 
BRANCH  15  25
ATOM     25  C   UNL     1     -44.366  41.963  25.903  1.00  0.00     0.095 A 
ATOM     26  N   UNL     1     -43.581  43.234  24.405  1.00  0.00    -0.275 N 
ATOM     27  C   UNL     1     -44.902  43.555  24.461  1.00  0.00     0.025 A 
ATOM     28  N   UNL     1     -43.220  42.274  25.279  1.00  0.00    -0.173 NA
ATOM     29  C   UNL     1     -45.444  42.748  25.433  1.00  0.00    -0.016 A 
ATOM     30  H   UNL     1     -45.344  44.315  23.830  1.00  0.00     0.084 H 
ATOM     31  H   UNL     1     -46.476  42.734  25.757  1.00  0.00     0.066 H 
BRANCH  26  32
ATOM     32  C   UNL     1     -42.585  43.807  23.533  1.00  0.00     0.030 C 
ATOM     33  H   UNL     1     -42.860  43.617  22.492  1.00  0.00     0.048 H 
ATOM     34  H   UNL     1     -41.623  43.341  23.755  1.00  0.00     0.048 H 
ATOM     35  H   UNL     1     -42.545  44.884  23.717  1.00  0.00     0.048 H 
ENDBRANCH  26  32
ENDBRANCH  15  25
BRANCH  20  36
ATOM     36  N   UNL     1     -41.699  42.333  27.896  1.00  0.00    -0.383 N 
ATOM     37  H   UNL     1     -42.326  42.980  27.409  1.00  0.00     0.158 HD
ATOM     38  H   UNL     1     -40.993  42.738  28.493  1.00  0.00     0.158 HD
ENDBRANCH  20  36
ENDBRANCH   5  14
BRANCH   9  39
ATOM     39  O   UNL     1     -48.371  36.232  29.283  1.00  0.00    -0.387 OA
ATOM     40  H   UNL     1     -48.713  37.131  29.444  1.00  0.00     0.211 HD
ENDBRANCH   9  39
ENDBRANCH   1   4
BRANCH   1  41
ATOM     41  O   UNL     1     -46.063  34.838  26.367  1.00  0.00    -0.491 OA
BRANCH  41  42
ATOM     42  C   UNL     1     -46.656  33.695  25.912  1.00  0.00     0.121 A 
ATOM     43  C   UNL     1     -47.347  32.980  26.890  1.00  0.00    -0.019 A 
ATOM     44  C   UNL     1     -46.601  33.187  24.614  1.00  0.00     0.007 A 
ATOM     45  C   UNL     1     -47.993  31.788  26.570  1.00  0.00    -0.049 A 
ATOM     46  H   UNL     1     -47.399  33.366  27.906  1.00  0.00     0.066 H 
ATOM     47  C   UNL     1     -47.233  31.997  24.266  1.00  0.00     0.076 A 
ATOM     48  H   UNL     1     -46.058  33.691  23.824  1.00  0.00     0.069 H 
ATOM     49  C   UNL     1     -47.937  31.292  25.262  1.00  0.00     0.001 A 
ATOM     50  H   UNL     1     -48.541  31.258  27.346  1.00  0.00     0.063 H 
ATOM     51  N   UNL     1     -47.153  31.556  22.997  1.00  0.00    -0.231 NA
ATOM     52  C   UNL     1     -48.564  30.098  24.902  1.00  0.00    -0.049 A 
ATOM     53  C   UNL     1     -47.754  30.393  22.667  1.00  0.00     0.126 A 
ATOM     54  C   UNL     1     -48.471  29.644  23.592  1.00  0.00    -0.019 A 
ATOM     55  H   UNL     1     -49.133  29.525  25.629  1.00  0.00     0.063 H 
ATOM     56  H   UNL     1     -48.969  28.728  23.294  1.00  0.00     0.066 H 
BRANCH  53  57
ATOM     57  N   UNL     1     -47.706  29.941  21.330  1.00  0.00    -0.365 N 
ATOM     58  H   UNL     1     -46.736  29.959  21.015  1.00  0.00     0.162 HD
BRANCH  57  59
ATOM     59  C   UNL     1     -48.544  30.541  20.310  1.00  0.00     0.052 C 
ATOM     60  C   UNL     1     -49.924  30.967  20.866  1.00  0.00     0.017 C 
ATOM     61  C   UNL     1     -49.367  29.502  19.508  1.00  0.00     0.017 C 
ATOM     62  H   UNL     1     -48.018  31.308  19.734  1.00  0.00     0.055 H 
ATOM     63  N   UNL     1     -50.421  29.600  20.555  1.00  0.00    -0.313 NA
ATOM     64  H   UNL     1     -50.414  31.756  20.283  1.00  0.00     0.045 H 
ATOM     65  H   UNL     1     -49.966  31.237  21.926  1.00  0.00     0.045 H 
ATOM     66  H   UNL     1     -48.935  28.504  19.392  1.00  0.00     0.045 H 
ATOM     67  H   UNL     1     -49.691  29.859  18.523  1.00  0.00     0.045 H 
ATOM     68  H   UNL     1     -51.375  29.566  20.196  1.00  0.00     0.122 HD
ENDBRANCH  57  59
ENDBRANCH  53  57
ENDBRANCH  41  42
ENDBRANCH   1  41
TORSDOF 10
ENDMDL
MODEL 4
REMARK VINA RESULT:      -9.3      1.701      2.095
REMARK SMILES Cn1ccc(-c2cn([C@@H]3O[C@H](COc4ccc5ccc(NC6CNC6)nc5c4)[C@@H](O)[C@@H]3F)c3ncnc(N)c23)n1
REMARK SMILES IDX 12 1 11 4 9 5 10 6 31 7 29 9 32 10 8 14 6 15 7 16 39 17
REMARK SMILES IDX 33 19 37 20 34 21 36 22 35 23 5 25 2 26 3 27 40 28 4 29 1 32
REMARK SMILES IDX 38 36 30 39 13 41 14 42 15 43 28 44 16 45 27 47 17 49 26 51
REMARK SMILES IDX 18 52 20 53 19 54 21 57 22 59 23 60 25 61 24 63
REMARK H PARENT 12 2 12 3 9 8 31 11 11 12 29 13 7 18 35 24 3 30 4 31 1 33 1 34
REMARK H PARENT 1 35 38 37 38 38 30 40 15 46 28 48 16 50 18 55 19 56 21 58
REMARK H PARENT 22 62 23 64 23 65 25 66 25 67 24 68
REMARK Flexibility Score: inf
ROOT
ATOM      1  C   UNL     1     -45.880  34.236  27.834  1.00  0.00     0.117 C 
ATOM      2  H   UNL     1     -45.474  34.562  26.874  1.00  0.00     0.073 H 
ATOM      3  H   UNL     1     -45.027  34.192  28.522  1.00  0.00     0.073 H 
ENDROOT
BRANCH   1   4
ATOM      4  C   UNL     1     -46.882  35.262  28.380  1.00  0.00     0.123 C 
ATOM      5  C   UNL     1     -46.862  37.589  28.269  1.00  0.00     0.169 C 
ATOM      6  O   UNL     1     -46.183  36.442  28.826  1.00  0.00    -0.345 OA
ATOM      7  C   UNL     1     -47.573  37.115  27.012  1.00  0.00     0.173 C 
ATOM      8  H   UNL     1     -47.586  37.919  29.026  1.00  0.00     0.088 H 
ATOM      9  C   UNL     1     -47.948  35.693  27.365  1.00  0.00     0.119 C 
ATOM     10  F   UNL     1     -46.743  37.093  25.936  1.00  0.00    -0.239 F 
ATOM     11  H   UNL     1     -48.432  37.741  26.756  1.00  0.00     0.074 H 
ATOM     12  H   UNL     1     -47.353  34.828  29.271  1.00  0.00     0.067 H 
ATOM     13  H   UNL     1     -47.995  35.030  26.496  1.00  0.00     0.066 H 
BRANCH   5  14
ATOM     14  N   UNL     1     -45.932  38.687  28.069  1.00  0.00    -0.302 N 
ATOM     15  C   UNL     1     -44.867  40.460  27.227  1.00  0.00     0.033 A 
ATOM     16  C   UNL     1     -45.936  39.601  27.046  1.00  0.00     0.019 A 
ATOM     17  C   UNL     1     -44.152  40.016  28.385  1.00  0.00     0.071 A 
ATOM     18  H   UNL     1     -46.704  39.580  26.285  1.00  0.00     0.083 H 
ATOM     19  C   UNL     1     -44.848  38.918  28.880  1.00  0.00     0.148 A 
ATOM     20  C   UNL     1     -42.993  40.381  29.094  1.00  0.00     0.137 A 
ATOM     21  N   UNL     1     -44.534  38.186  29.964  1.00  0.00    -0.218 NA
ATOM     22  N   UNL     1     -42.662  39.694  30.207  1.00  0.00    -0.219 NA
ATOM     23  C   UNL     1     -43.429  38.653  30.569  1.00  0.00     0.120 A 
ATOM     24  H   UNL     1     -43.114  38.122  31.462  1.00  0.00     0.106 H 
BRANCH  15  25
ATOM     25  C   UNL     1     -44.530  41.606  26.377  1.00  0.00     0.095 A 
ATOM     26  N   UNL     1     -43.451  43.009  25.219  1.00  0.00    -0.275 N 
ATOM     27  C   UNL     1     -44.740  43.437  25.150  1.00  0.00     0.025 A 
ATOM     28  N   UNL     1     -43.287  41.901  25.967  1.00  0.00    -0.173 NA
ATOM     29  C   UNL     1     -45.472  42.547  25.901  1.00  0.00    -0.016 A 
ATOM     30  H   UNL     1     -45.032  44.319  24.597  1.00  0.00     0.084 H 
ATOM     31  H   UNL     1     -46.538  42.579  26.079  1.00  0.00     0.066 H 
BRANCH  26  32
ATOM     32  C   UNL     1     -42.302  43.612  24.589  1.00  0.00     0.030 C 
ATOM     33  H   UNL     1     -41.460  42.918  24.625  1.00  0.00     0.048 H 
ATOM     34  H   UNL     1     -42.054  44.528  25.130  1.00  0.00     0.048 H 
ATOM     35  H   UNL     1     -42.556  43.836  23.550  1.00  0.00     0.048 H 
ENDBRANCH  26  32
ENDBRANCH  15  25
BRANCH  20  36
ATOM     36  N   UNL     1     -42.148  41.417  28.725  1.00  0.00    -0.383 N 
ATOM     37  H   UNL     1     -41.934  42.042  29.507  1.00  0.00     0.158 HD
ATOM     38  H   UNL     1     -41.371  41.088  28.171  1.00  0.00     0.158 HD
ENDBRANCH  20  36
ENDBRANCH   5  14
BRANCH   9  39
ATOM     39  O   UNL     1     -49.242  35.672  27.988  1.00  0.00    -0.387 OA
ATOM     40  H   UNL     1     -49.880  36.041  27.351  1.00  0.00     0.211 HD
ENDBRANCH   9  39
ENDBRANCH   1   4
BRANCH   1  41
ATOM     41  O   UNL     1     -46.422  32.916  27.805  1.00  0.00    -0.491 OA
BRANCH  41  42
ATOM     42  C   UNL     1     -46.871  32.396  26.624  1.00  0.00     0.121 A 
ATOM     43  C   UNL     1     -46.049  32.663  25.530  1.00  0.00    -0.019 A 
ATOM     44  C   UNL     1     -48.053  31.681  26.424  1.00  0.00     0.007 A 
ATOM     45  C   UNL     1     -46.388  32.202  24.261  1.00  0.00    -0.049 A 
ATOM     46  H   UNL     1     -45.124  33.218  25.673  1.00  0.00     0.066 H 
ATOM     47  C   UNL     1     -48.420  31.212  25.166  1.00  0.00     0.076 A 
ATOM     48  H   UNL     1     -48.738  31.467  27.236  1.00  0.00     0.069 H 
ATOM     49  C   UNL     1     -47.573  31.480  24.074  1.00  0.00     0.001 A 
ATOM     50  H   UNL     1     -45.721  32.407  23.426  1.00  0.00     0.063 H 
ATOM     51  N   UNL     1     -49.568  30.522  25.031  1.00  0.00    -0.231 NA
ATOM     52  C   UNL     1     -47.954  31.006  22.817  1.00  0.00    -0.049 A 
ATOM     53  C   UNL     1     -49.929  30.082  23.808  1.00  0.00     0.126 A 
ATOM     54  C   UNL     1     -49.144  30.301  22.683  1.00  0.00    -0.019 A 
ATOM     55  H   UNL     1     -47.328  31.173  21.945  1.00  0.00     0.063 H 
ATOM     56  H   UNL     1     -49.443  29.912  21.716  1.00  0.00     0.066 H 
BRANCH  53  57
ATOM     57  N   UNL     1     -51.113  29.325  23.662  1.00  0.00    -0.365 N 
ATOM     58  H   UNL     1     -51.666  29.419  24.514  1.00  0.00     0.162 HD
BRANCH  57  59
ATOM     59  C   UNL     1     -51.062  27.926  23.285  1.00  0.00     0.052 C 
ATOM     60  C   UNL     1     -52.399  27.198  23.565  1.00  0.00     0.017 C 
ATOM     61  C   UNL     1     -50.514  27.012  24.410  1.00  0.00     0.017 C 
ATOM     62  H   UNL     1     -50.653  27.777  22.282  1.00  0.00     0.055 H 
ATOM     63  N   UNL     1     -51.903  26.909  24.938  1.00  0.00    -0.313 NA
ATOM     64  H   UNL     1     -52.552  26.300  22.955  1.00  0.00     0.045 H 
ATOM     65  H   UNL     1     -53.308  27.806  23.527  1.00  0.00     0.045 H 
ATOM     66  H   UNL     1     -49.796  27.453  25.107  1.00  0.00     0.045 H 
ATOM     67  H   UNL     1     -50.110  26.059  24.048  1.00  0.00     0.045 H 
ATOM     68  H   UNL     1     -52.151  25.986  25.293  1.00  0.00     0.122 HD
ENDBRANCH  57  59
ENDBRANCH  53  57
ENDBRANCH  41  42
ENDBRANCH   1  41
TORSDOF 10
ENDMDL
MODEL 5
REMARK VINA RESULT:      -8.9      2.681     11.926
REMARK SMILES Cn1ccc(-c2cn([C@@H]3O[C@H](COc4ccc5ccc(NC6CNC6)nc5c4)[C@@H](O)[C@@H]3F)c3ncnc(N)c23)n1
REMARK SMILES IDX 12 1 11 4 9 5 10 6 31 7 29 9 32 10 8 14 6 15 7 16 39 17
REMARK SMILES IDX 33 19 37 20 34 21 36 22 35 23 5 25 2 26 3 27 40 28 4 29 1 32
REMARK SMILES IDX 38 36 30 39 13 41 14 42 15 43 28 44 16 45 27 47 17 49 26 51
REMARK SMILES IDX 18 52 20 53 19 54 21 57 22 59 23 60 25 61 24 63
REMARK H PARENT 12 2 12 3 9 8 31 11 11 12 29 13 7 18 35 24 3 30 4 31 1 33 1 34
REMARK H PARENT 1 35 38 37 38 38 30 40 15 46 28 48 16 50 18 55 19 56 21 58
REMARK H PARENT 22 62 23 64 23 65 25 66 25 67 24 68
REMARK Flexibility Score: inf
ROOT
ATOM      1  C   UNL     1     -47.826  35.895  26.714  1.00  0.00     0.117 C 
ATOM      2  H   UNL     1     -47.097  36.069  25.919  1.00  0.00     0.073 H 
ATOM      3  H   UNL     1     -48.805  35.862  26.222  1.00  0.00     0.073 H 
ENDROOT
BRANCH   1   4
ATOM      4  C   UNL     1     -47.583  34.540  27.390  1.00  0.00     0.123 C 
ATOM      5  C   UNL     1     -47.929  32.378  26.593  1.00  0.00     0.169 C 
ATOM      6  O   UNL     1     -48.596  33.598  26.981  1.00  0.00    -0.345 OA
ATOM      7  C   UNL     1     -46.518  32.760  26.172  1.00  0.00     0.173 C 
ATOM      8  H   UNL     1     -47.910  31.737  27.483  1.00  0.00     0.088 H 
ATOM      9  C   UNL     1     -46.210  33.926  27.084  1.00  0.00     0.119 C 
ATOM     10  F   UNL     1     -46.471  33.189  24.883  1.00  0.00    -0.239 F 
ATOM     11  H   UNL     1     -45.813  31.931  26.273  1.00  0.00     0.074 H 
ATOM     12  H   UNL     1     -47.709  34.678  28.472  1.00  0.00     0.067 H 
ATOM     13  H   UNL     1     -45.516  34.648  26.643  1.00  0.00     0.066 H 
BRANCH   5  14
ATOM     14  N   UNL     1     -48.698  31.673  25.582  1.00  0.00    -0.302 N 
ATOM     15  C   UNL     1     -50.030  31.200  23.853  1.00  0.00     0.033 A 
ATOM     16  C   UNL     1     -49.448  32.226  24.575  1.00  0.00     0.019 A 
ATOM     17  C   UNL     1     -49.657  29.969  24.480  1.00  0.00     0.071 A 
ATOM     18  H   UNL     1     -49.494  33.299  24.442  1.00  0.00     0.083 H 
ATOM     19  C   UNL     1     -48.827  30.306  25.545  1.00  0.00     0.148 A 
ATOM     20  C   UNL     1     -49.911  28.596  24.309  1.00  0.00     0.137 A 
ATOM     21  N   UNL     1     -48.240  29.459  26.410  1.00  0.00    -0.218 NA
ATOM     22  N   UNL     1     -49.313  27.711  25.134  1.00  0.00    -0.219 NA
ATOM     23  C   UNL     1     -48.534  28.181  26.122  1.00  0.00     0.120 A 
ATOM     24  H   UNL     1     -48.088  27.431  26.768  1.00  0.00     0.106 H 
BRANCH  15  25
ATOM     25  C   UNL     1     -50.880  31.356  22.669  1.00  0.00     0.095 A 
ATOM     26  N   UNL     1     -51.754  31.073  20.764  1.00  0.00    -0.275 N 
ATOM     27  C   UNL     1     -52.425  32.134  21.287  1.00  0.00     0.025 A 
ATOM     28  N   UNL     1     -50.799  30.581  21.576  1.00  0.00    -0.173 NA
ATOM     29  C   UNL     1     -51.875  32.350  22.529  1.00  0.00    -0.016 A 
ATOM     30  H   UNL     1     -53.213  32.646  20.752  1.00  0.00     0.084 H 
ATOM     31  H   UNL     1     -52.156  33.123  23.232  1.00  0.00     0.066 H 
BRANCH  26  32
ATOM     32  C   UNL     1     -51.970  30.461  19.475  1.00  0.00     0.030 C 
ATOM     33  H   UNL     1     -51.538  29.457  19.471  1.00  0.00     0.048 H 
ATOM     34  H   UNL     1     -51.484  31.078  18.715  1.00  0.00     0.048 H 
ATOM     35  H   UNL     1     -53.046  30.405  19.296  1.00  0.00     0.048 H 
ENDBRANCH  26  32
ENDBRANCH  15  25
BRANCH  20  36
ATOM     36  N   UNL     1     -50.748  28.075  23.334  1.00  0.00    -0.383 N 
ATOM     37  H   UNL     1     -51.737  28.146  23.592  1.00  0.00     0.158 HD
ATOM     38  H   UNL     1     -50.489  28.388  22.410  1.00  0.00     0.158 HD
ENDBRANCH  20  36
ENDBRANCH   5  14
BRANCH   9  39
ATOM     39  O   UNL     1     -45.615  33.449  28.300  1.00  0.00    -0.387 OA
ATOM     40  H   UNL     1     -46.326  33.363  28.961  1.00  0.00     0.211 HD
ENDBRANCH   9  39
ENDBRANCH   1   4
BRANCH   1  41
ATOM     41  O   UNL     1     -47.903  36.963  27.659  1.00  0.00    -0.491 OA
BRANCH  41  42
ATOM     42  C   UNL     1     -46.889  37.874  27.733  1.00  0.00     0.121 A 
ATOM     43  C   UNL     1     -45.867  37.523  28.614  1.00  0.00    -0.019 A 
ATOM     44  C   UNL     1     -46.811  39.093  27.057  1.00  0.00     0.007 A 
ATOM     45  C   UNL     1     -44.772  38.364  28.799  1.00  0.00    -0.049 A 
ATOM     46  H   UNL     1     -45.915  36.576  29.147  1.00  0.00     0.066 H 
ATOM     47  C   UNL     1     -45.732  39.955  27.225  1.00  0.00     0.076 A 
ATOM     48  H   UNL     1     -47.590  39.423  26.380  1.00  0.00     0.069 H 
ATOM     49  C   UNL     1     -44.702  39.581  28.109  1.00  0.00     0.001 A 
ATOM     50  H   UNL     1     -43.978  38.060  29.478  1.00  0.00     0.063 H 
ATOM     51  N   UNL     1     -45.705  41.115  26.542  1.00  0.00    -0.231 NA
ATOM     52  C   UNL     1     -43.626  40.456  28.271  1.00  0.00    -0.049 A 
ATOM     53  C   UNL     1     -44.665  41.956  26.719  1.00  0.00     0.126 A 
ATOM     54  C   UNL     1     -43.608  41.655  27.569  1.00  0.00    -0.019 A 
ATOM     55  H   UNL     1     -42.799  40.207  28.930  1.00  0.00     0.063 H 
ATOM     56  H   UNL     1     -42.770  42.336  27.672  1.00  0.00     0.066 H 
BRANCH  53  57
ATOM     57  N   UNL     1     -44.609  43.159  25.980  1.00  0.00    -0.365 N 
ATOM     58  H   UNL     1     -44.858  42.957  25.012  1.00  0.00     0.162 HD
BRANCH  57  59
ATOM     59  C   UNL     1     -43.421  43.990  25.998  1.00  0.00     0.052 C 
ATOM     60  C   UNL     1     -43.528  45.179  25.013  1.00  0.00     0.017 C 
ATOM     61  C   UNL     1     -42.317  43.496  25.030  1.00  0.00     0.017 C 
ATOM     62  H   UNL     1     -43.109  44.253  27.012  1.00  0.00     0.055 H 
ATOM     63  N   UNL     1     -42.968  44.296  23.955  1.00  0.00    -0.313 NA
ATOM     64  H   UNL     1     -42.879  46.026  25.267  1.00  0.00     0.045 H 
ATOM     65  H   UNL     1     -44.533  45.558  24.805  1.00  0.00     0.045 H 
ATOM     66  H   UNL     1     -42.272  42.421  24.830  1.00  0.00     0.045 H 
ATOM     67  H   UNL     1     -41.310  43.845  25.290  1.00  0.00     0.045 H 
ATOM     68  H   UNL     1     -42.316  44.756  23.319  1.00  0.00     0.122 HD
ENDBRANCH  57  59
ENDBRANCH  53  57
ENDBRANCH  41  42
ENDBRANCH   1  41
TORSDOF 10
ENDMDL
MODEL 6
REMARK VINA RESULT:      -8.9      2.596      3.365
REMARK SMILES Cn1ccc(-c2cn([C@@H]3O[C@H](COc4ccc5ccc(NC6CNC6)nc5c4)[C@@H](O)[C@@H]3F)c3ncnc(N)c23)n1
REMARK SMILES IDX 12 1 11 4 9 5 10 6 31 7 29 9 32 10 8 14 6 15 7 16 39 17
REMARK SMILES IDX 33 19 37 20 34 21 36 22 35 23 5 25 2 26 3 27 40 28 4 29 1 32
REMARK SMILES IDX 38 36 30 39 13 41 14 42 15 43 28 44 16 45 27 47 17 49 26 51
REMARK SMILES IDX 18 52 20 53 19 54 21 57 22 59 23 60 25 61 24 63
REMARK H PARENT 12 2 12 3 9 8 31 11 11 12 29 13 7 18 35 24 3 30 4 31 1 33 1 34
REMARK H PARENT 1 35 38 37 38 38 30 40 15 46 28 48 16 50 18 55 19 56 21 58
REMARK H PARENT 22 62 23 64 23 65 25 66 25 67 24 68
REMARK Flexibility Score: inf
ROOT
ATOM      1  C   UNL     1     -46.507  34.776  25.974  1.00  0.00     0.117 C 
ATOM      2  H   UNL     1     -46.774  35.538  25.238  1.00  0.00     0.073 H 
ATOM      3  H   UNL     1     -45.646  34.242  25.555  1.00  0.00     0.073 H 
ENDROOT
BRANCH   1   4
ATOM      4  C   UNL     1     -46.073  35.423  27.295  1.00  0.00     0.123 C 
ATOM      5  C   UNL     1     -46.574  37.519  28.180  1.00  0.00     0.169 C 
ATOM      6  O   UNL     1     -45.882  36.840  27.109  1.00  0.00    -0.345 OA
ATOM      7  C   UNL     1     -47.681  36.589  28.651  1.00  0.00     0.173 C 
ATOM      8  H   UNL     1     -45.835  37.680  28.975  1.00  0.00     0.088 H 
ATOM      9  C   UNL     1     -47.069  35.222  28.445  1.00  0.00     0.119 C 
ATOM     10  F   UNL     1     -48.793  36.691  27.875  1.00  0.00    -0.239 F 
ATOM     11  H   UNL     1     -47.978  36.782  29.685  1.00  0.00     0.074 H 
ATOM     12  H   UNL     1     -45.091  35.012  27.562  1.00  0.00     0.067 H 
ATOM     13  H   UNL     1     -47.808  34.445  28.230  1.00  0.00     0.066 H 
BRANCH   5  14
ATOM     14  N   UNL     1     -47.021  38.833  27.748  1.00  0.00    -0.302 N 
ATOM     15  C   UNL     1     -48.285  40.606  27.257  1.00  0.00     0.033 A 
ATOM     16  C   UNL     1     -48.300  39.325  27.777  1.00  0.00     0.019 A 
ATOM     17  C   UNL     1     -46.944  40.887  26.846  1.00  0.00     0.071 A 
ATOM     18  H   UNL     1     -49.113  38.735  28.180  1.00  0.00     0.083 H 
ATOM     19  C   UNL     1     -46.190  39.763  27.173  1.00  0.00     0.148 A 
ATOM     20  C   UNL     1     -46.244  41.937  26.227  1.00  0.00     0.137 A 
ATOM     21  N   UNL     1     -44.871  39.589  26.969  1.00  0.00    -0.218 NA
ATOM     22  N   UNL     1     -44.914  41.817  26.035  1.00  0.00    -0.219 NA
ATOM     23  C   UNL     1     -44.315  40.672  26.403  1.00  0.00     0.120 A 
ATOM     24  H   UNL     1     -43.247  40.617  26.214  1.00  0.00     0.106 H 
BRANCH  15  25
ATOM     25  C   UNL     1     -49.441  41.502  27.142  1.00  0.00     0.095 A 
ATOM     26  N   UNL     1     -50.867  42.863  26.377  1.00  0.00    -0.275 N 
ATOM     27  C   UNL     1     -51.271  42.636  27.656  1.00  0.00     0.025 A 
ATOM     28  N   UNL     1     -49.749  42.194  26.035  1.00  0.00    -0.173 NA
ATOM     29  C   UNL     1     -50.358  41.756  28.188  1.00  0.00    -0.016 A 
ATOM     30  H   UNL     1     -52.145  43.108  28.084  1.00  0.00     0.084 H 
ATOM     31  H   UNL     1     -50.357  41.357  29.193  1.00  0.00     0.066 H 
BRANCH  26  32
ATOM     32  C   UNL     1     -51.506  43.717  25.406  1.00  0.00     0.030 C 
ATOM     33  H   UNL     1     -51.029  44.700  25.416  1.00  0.00     0.048 H 
ATOM     34  H   UNL     1     -52.561  43.812  25.671  1.00  0.00     0.048 H 
ATOM     35  H   UNL     1     -51.396  43.260  24.419  1.00  0.00     0.048 H 
ENDBRANCH  26  32
ENDBRANCH  15  25
BRANCH  20  36
ATOM     36  N   UNL     1     -46.834  43.114  25.789  1.00  0.00    -0.383 N 
ATOM     37  H   UNL     1     -46.691  43.271  24.787  1.00  0.00     0.158 HD
ATOM     38  H   UNL     1     -47.774  43.217  26.142  1.00  0.00     0.158 HD
ENDBRANCH  20  36
ENDBRANCH   5  14
BRANCH   9  39
ATOM     39  O   UNL     1     -46.362  34.823  29.629  1.00  0.00    -0.387 OA
ATOM     40  H   UNL     1     -46.923  34.183  30.104  1.00  0.00     0.211 HD
ENDBRANCH   9  39
ENDBRANCH   1   4
BRANCH   1  41
ATOM     41  O   UNL     1     -47.520  33.788  26.164  1.00  0.00    -0.491 OA
BRANCH  41  42
ATOM     42  C   UNL     1     -47.449  32.608  25.480  1.00  0.00     0.121 A 
ATOM     43  C   UNL     1     -46.568  32.624  24.399  1.00  0.00    -0.019 A 
ATOM     44  C   UNL     1     -48.181  31.449  25.739  1.00  0.00     0.007 A 
ATOM     45  C   UNL     1     -46.401  31.492  23.605  1.00  0.00    -0.049 A 
ATOM     46  H   UNL     1     -45.990  33.521  24.187  1.00  0.00     0.066 H 
ATOM     47  C   UNL     1     -48.040  30.304  24.960  1.00  0.00     0.076 A 
ATOM     48  H   UNL     1     -48.896  31.392  26.551  1.00  0.00     0.069 H 
ATOM     49  C   UNL     1     -47.137  30.332  23.880  1.00  0.00     0.001 A 
ATOM     50  H   UNL     1     -45.694  31.523  22.779  1.00  0.00     0.063 H 
ATOM     51  N   UNL     1     -48.766  29.211  25.259  1.00  0.00    -0.231 NA
ATOM     52  C   UNL     1     -47.006  29.179  23.104  1.00  0.00    -0.049 A 
ATOM     53  C   UNL     1     -48.638  28.108  24.492  1.00  0.00     0.126 A 
ATOM     54  C   UNL     1     -47.764  28.056  23.414  1.00  0.00    -0.019 A 
ATOM     55  H   UNL     1     -46.311  29.144  22.269  1.00  0.00     0.063 H 
ATOM     56  H   UNL     1     -47.659  27.148  22.831  1.00  0.00     0.066 H 
BRANCH  53  57
ATOM     57  N   UNL     1     -49.369  26.944  24.820  1.00  0.00    -0.365 N 
ATOM     58  H   UNL     1     -50.364  27.150  24.732  1.00  0.00     0.162 HD
BRANCH  57  59
ATOM     59  C   UNL     1     -49.140  26.249  26.072  1.00  0.00     0.052 C 
ATOM     60  C   UNL     1     -48.305  27.093  27.063  1.00  0.00     0.017 C 
ATOM     61  C   UNL     1     -47.888  25.337  26.043  1.00  0.00     0.017 C 
ATOM     62  H   UNL     1     -50.057  25.819  26.485  1.00  0.00     0.055 H 
ATOM     63  N   UNL     1     -47.078  26.518  26.450  1.00  0.00    -0.313 NA
ATOM     64  H   UNL     1     -48.444  26.812  28.114  1.00  0.00     0.045 H 
ATOM     65  H   UNL     1     -48.391  28.181  26.977  1.00  0.00     0.045 H 
ATOM     66  H   UNL     1     -47.606  24.905  25.078  1.00  0.00     0.045 H 
ATOM     67  H   UNL     1     -47.906  24.536  26.792  1.00  0.00     0.045 H 
ATOM     68  H   UNL     1     -46.331  26.308  27.112  1.00  0.00     0.122 HD
ENDBRANCH  57  59
ENDBRANCH  53  57
ENDBRANCH  41  42
ENDBRANCH   1  41
TORSDOF 10
ENDMDL
MODEL 7
REMARK VINA RESULT:      -8.9      5.185      8.941
REMARK SMILES Cn1ccc(-c2cn([C@@H]3O[C@H](COc4ccc5ccc(NC6CNC6)nc5c4)[C@@H](O)[C@@H]3F)c3ncnc(N)c23)n1
REMARK SMILES IDX 12 1 11 4 9 5 10 6 31 7 29 9 32 10 8 14 6 15 7 16 39 17
REMARK SMILES IDX 33 19 37 20 34 21 36 22 35 23 5 25 2 26 3 27 40 28 4 29 1 32
REMARK SMILES IDX 38 36 30 39 13 41 14 42 15 43 28 44 16 45 27 47 17 49 26 51
REMARK SMILES IDX 18 52 20 53 19 54 21 57 22 59 23 60 25 61 24 63
REMARK H PARENT 12 2 12 3 9 8 31 11 11 12 29 13 7 18 35 24 3 30 4 31 1 33 1 34
REMARK H PARENT 1 35 38 37 38 38 30 40 15 46 28 48 16 50 18 55 19 56 21 58
REMARK H PARENT 22 62 23 64 23 65 25 66 25 67 24 68
REMARK Flexibility Score: inf
ROOT
ATOM      1  C   UNL     1     -48.892  36.863  28.192  1.00  0.00     0.117 C 
ATOM      2  H   UNL     1     -49.491  36.043  27.792  1.00  0.00     0.073 H 
ATOM      3  H   UNL     1     -49.279  37.054  29.201  1.00  0.00     0.073 H 
ENDROOT
BRANCH   1   4
ATOM      4  C   UNL     1     -47.419  36.454  28.315  1.00  0.00     0.123 C 
ATOM      5  C   UNL     1     -45.490  37.760  28.318  1.00  0.00     0.169 C 
ATOM      6  O   UNL     1     -46.599  37.321  27.504  1.00  0.00    -0.345 OA
ATOM      7  C   UNL     1     -45.945  37.679  29.767  1.00  0.00     0.173 C 
ATOM      8  H   UNL     1     -44.667  37.060  28.128  1.00  0.00     0.088 H 
ATOM      9  C   UNL     1     -46.878  36.489  29.750  1.00  0.00     0.119 C 
ATOM     10  F   UNL     1     -46.648  38.780  30.141  1.00  0.00    -0.239 F 
ATOM     11  H   UNL     1     -45.109  37.566  30.462  1.00  0.00     0.074 H 
ATOM     12  H   UNL     1     -47.315  35.447  27.890  1.00  0.00     0.067 H 
ATOM     13  H   UNL     1     -47.674  36.554  30.497  1.00  0.00     0.066 H 
BRANCH   5  14
ATOM     14  N   UNL     1     -45.032  39.073  27.893  1.00  0.00    -0.302 N 
ATOM     15  C   UNL     1     -44.755  40.976  26.761  1.00  0.00     0.033 A 
ATOM     16  C   UNL     1     -45.467  39.792  26.809  1.00  0.00     0.019 A 
ATOM     17  C   UNL     1     -43.810  40.954  27.835  1.00  0.00     0.071 A 
ATOM     18  H   UNL     1     -46.255  39.414  26.172  1.00  0.00     0.083 H 
ATOM     19  C   UNL     1     -44.019  39.758  28.516  1.00  0.00     0.148 A 
ATOM     20  C   UNL     1     -42.785  41.776  28.336  1.00  0.00     0.137 A 
ATOM     21  N   UNL     1     -43.353  39.321  29.601  1.00  0.00    -0.218 NA
ATOM     22  N   UNL     1     -42.116  41.391  29.443  1.00  0.00    -0.219 NA
ATOM     23  C   UNL     1     -42.425  40.207  29.998  1.00  0.00     0.120 A 
ATOM     24  H   UNL     1     -41.849  39.934  30.876  1.00  0.00     0.106 H 
BRANCH  15  25
ATOM     25  C   UNL     1     -44.936  42.049  25.778  1.00  0.00     0.095 A 
ATOM     26  N   UNL     1     -45.699  43.732  24.748  1.00  0.00    -0.275 N 
ATOM     27  C   UNL     1     -44.620  43.349  24.014  1.00  0.00     0.025 A 
ATOM     28  N   UNL     1     -45.926  42.954  25.825  1.00  0.00    -0.173 NA
ATOM     29  C   UNL     1     -44.101  42.249  24.655  1.00  0.00    -0.016 A 
ATOM     30  H   UNL     1     -44.314  43.866  23.114  1.00  0.00     0.084 H 
ATOM     31  H   UNL     1     -43.240  41.672  24.348  1.00  0.00     0.066 H 
BRANCH  26  32
ATOM     32  C   UNL     1     -46.577  44.845  24.483  1.00  0.00     0.030 C 
ATOM     33  H   UNL     1     -47.344  44.898  25.260  1.00  0.00     0.048 H 
ATOM     34  H   UNL     1     -47.045  44.691  23.508  1.00  0.00     0.048 H 
ATOM     35  H   UNL     1     -45.982  45.762  24.484  1.00  0.00     0.048 H 
ENDBRANCH  26  32
ENDBRANCH  15  25
BRANCH  20  36
ATOM     36  N   UNL     1     -42.403  42.980  27.762  1.00  0.00    -0.383 N 
ATOM     37  H   UNL     1     -41.826  42.847  26.926  1.00  0.00     0.158 HD
ATOM     38  H   UNL     1     -43.176  43.625  27.691  1.00  0.00     0.158 HD
ENDBRANCH  20  36
ENDBRANCH   5  14
BRANCH   9  39
ATOM     39  O   UNL     1     -46.139  35.288  30.015  1.00  0.00    -0.387 OA
ATOM     40  H   UNL     1     -46.783  34.588  30.228  1.00  0.00     0.211 HD
ENDBRANCH   9  39
ENDBRANCH   1   4
BRANCH   1  41
ATOM     41  O   UNL     1     -49.053  38.089  27.478  1.00  0.00    -0.491 OA
BRANCH  41  42
ATOM     42  C   UNL     1     -49.609  39.168  28.104  1.00  0.00     0.121 A 
ATOM     43  C   UNL     1     -50.923  38.970  28.529  1.00  0.00    -0.019 A 
ATOM     44  C   UNL     1     -49.010  40.411  28.314  1.00  0.00     0.007 A 
ATOM     45  C   UNL     1     -51.619  39.989  29.175  1.00  0.00    -0.049 A 
ATOM     46  H   UNL     1     -51.401  38.005  28.373  1.00  0.00     0.066 H 
ATOM     47  C   UNL     1     -49.683  41.449  28.951  1.00  0.00     0.076 A 
ATOM     48  H   UNL     1     -48.001  40.623  27.982  1.00  0.00     0.069 H 
ATOM     49  C   UNL     1     -51.005  41.230  29.385  1.00  0.00     0.001 A 
ATOM     50  H   UNL     1     -52.636  39.804  29.513  1.00  0.00     0.063 H 
ATOM     51  N   UNL     1     -49.055  42.625  29.133  1.00  0.00    -0.231 NA
ATOM     52  C   UNL     1     -51.669  42.280  30.021  1.00  0.00    -0.049 A 
ATOM     53  C   UNL     1     -49.715  43.636  29.738  1.00  0.00     0.126 A 
ATOM     54  C   UNL     1     -51.018  43.494  30.198  1.00  0.00    -0.019 A 
ATOM     55  H   UNL     1     -52.684  42.157  30.388  1.00  0.00     0.063 H 
ATOM     56  H   UNL     1     -51.516  44.312  30.707  1.00  0.00     0.066 H 
BRANCH  53  57
ATOM     57  N   UNL     1     -49.052  44.862  29.966  1.00  0.00    -0.365 N 
ATOM     58  H   UNL     1     -48.096  44.784  29.618  1.00  0.00     0.162 HD
BRANCH  57  59
ATOM     59  C   UNL     1     -49.026  45.461  31.286  1.00  0.00     0.052 C 
ATOM     60  C   UNL     1     -47.842  46.442  31.457  1.00  0.00     0.017 C 
ATOM     61  C   UNL     1     -48.260  44.608  32.328  1.00  0.00     0.017 C 
ATOM     62  H   UNL     1     -50.001  45.853  31.587  1.00  0.00     0.055 H 
ATOM     63  N   UNL     1     -47.009  45.291  31.897  1.00  0.00    -0.313 NA
ATOM     64  H   UNL     1     -47.998  47.196  32.239  1.00  0.00     0.045 H 
ATOM     65  H   UNL     1     -47.484  46.945  30.553  1.00  0.00     0.045 H 
ATOM     66  H   UNL     1     -48.258  43.523  32.180  1.00  0.00     0.045 H 
ATOM     67  H   UNL     1     -48.542  44.819  33.367  1.00  0.00     0.045 H 
ATOM     68  H   UNL     1     -46.361  45.501  32.656  1.00  0.00     0.122 HD
ENDBRANCH  57  59
ENDBRANCH  53  57
ENDBRANCH  41  42
ENDBRANCH   1  41
TORSDOF 10
ENDMDL
