MODEL 1
REMARK VINA RESULT:     -10.5      0.000      0.000
REMARK SMILES C[S@@+]([O-])c1cn(-c2cncc(COc3ccc4ccc(N5CCC5)nc4c3)c2)c2ncnc(N)c12
REMARK SMILES IDX 7 1 8 2 9 3 10 4 11 5 28 6 6 10 4 11 5 12 35 13 29 15 33 16
REMARK SMILES IDX 30 17 32 18 31 19 2 21 3 22 1 23 34 27 12 30 13 33 14 34
REMARK SMILES IDX 15 35 27 36 16 37 26 39 17 41 25 43 18 44 20 45 19 46 21 49
REMARK SMILES IDX 22 50 24 51 23 52
REMARK H PARENT 8 7 10 8 28 9 5 14 31 20 1 24 1 25 1 26 34 28 34 29 12 31
REMARK H PARENT 12 32 15 38 27 40 16 42 18 47 19 48 22 53 22 54 24 55 24 56
REMARK H PARENT 23 57 23 58
REMARK Flexibility Score: inf
ROOT
ATOM      1  C   UNL     1     -47.411  32.998  25.902  1.00  0.00     0.066 A 
ATOM      2  C   UNL     1     -46.739  32.432  26.980  1.00  0.00     0.051 A 
ATOM      3  N   UNL     1     -46.168  33.147  27.984  1.00  0.00    -0.262 NA
ATOM      4  C   UNL     1     -46.273  34.490  27.923  1.00  0.00     0.034 A 
ATOM      5  C   UNL     1     -46.926  35.167  26.904  1.00  0.00     0.010 A 
ATOM      6  C   UNL     1     -47.490  34.397  25.875  1.00  0.00    -0.028 A 
ATOM      7  H   UNL     1     -46.626  31.364  27.122  1.00  0.00     0.086 H 
ATOM      8  H   UNL     1     -45.797  35.016  28.746  1.00  0.00     0.084 H 
ATOM      9  H   UNL     1     -47.977  34.932  25.065  1.00  0.00     0.065 H 
ENDROOT
BRANCH   1  10
ATOM     10  N   UNL     1     -47.998  32.201  24.866  1.00  0.00    -0.294 N 
ATOM     11  C   UNL     1     -49.560  31.192  23.605  1.00  0.00     0.183 A 
ATOM     12  C   UNL     1     -49.361  32.024  24.678  1.00  0.00     0.067 A 
ATOM     13  C   UNL     1     -48.303  30.827  23.075  1.00  0.00     0.117 A 
ATOM     14  H   UNL     1     -50.090  32.474  25.335  1.00  0.00     0.088 H 
ATOM     15  C   UNL     1     -47.349  31.466  23.869  1.00  0.00     0.155 A 
ATOM     16  C   UNL     1     -47.824  30.044  22.010  1.00  0.00     0.141 A 
ATOM     17  N   UNL     1     -46.016  31.390  23.676  1.00  0.00    -0.218 NA
ATOM     18  N   UNL     1     -46.497  29.950  21.812  1.00  0.00    -0.219 NA
ATOM     19  C   UNL     1     -45.679  30.616  22.638  1.00  0.00     0.120 A 
ATOM     20  H   UNL     1     -44.617  30.517  22.438  1.00  0.00     0.106 H 
BRANCH  11  21
ATOM     21  S   UNL     1     -51.187  30.684  23.048  1.00  0.00    -0.016 S 
ATOM     22  O   UNL     1     -52.286  31.622  23.863  1.00  0.00    -0.612 OA
BRANCH  21  23
ATOM     23  C   UNL     1     -51.191  29.043  23.813  1.00  0.00     0.100 C 
ATOM     24  H   UNL     1     -51.421  29.138  24.877  1.00  0.00     0.082 H 
ATOM     25  H   UNL     1     -50.197  28.606  23.697  1.00  0.00     0.082 H 
ATOM     26  H   UNL     1     -51.924  28.394  23.329  1.00  0.00     0.082 H 
ENDBRANCH  21  23
ENDBRANCH  11  21
BRANCH  16  27
ATOM     27  N   UNL     1     -48.633  29.351  21.121  1.00  0.00    -0.383 N 
ATOM     28  H   UNL     1     -48.460  29.656  20.172  1.00  0.00     0.158 HD
ATOM     29  H   UNL     1     -48.610  28.335  21.252  1.00  0.00     0.158 HD
ENDBRANCH  16  27
ENDBRANCH   1  10
BRANCH   5  30
ATOM     30  C   UNL     1     -46.963  36.672  26.883  1.00  0.00     0.115 C 
ATOM     31  H   UNL     1     -46.115  37.055  26.302  1.00  0.00     0.076 H 
ATOM     32  H   UNL     1     -47.907  36.982  26.417  1.00  0.00     0.076 H 
BRANCH  30  33
ATOM     33  O   UNL     1     -46.879  37.161  28.223  1.00  0.00    -0.489 OA
BRANCH  33  34
ATOM     34  C   UNL     1     -45.845  38.007  28.515  1.00  0.00     0.122 A 
ATOM     35  C   UNL     1     -45.119  37.664  29.653  1.00  0.00    -0.019 A 
ATOM     36  C   UNL     1     -45.482  39.144  27.789  1.00  0.00     0.007 A 
ATOM     37  C   UNL     1     -44.041  38.447  30.062  1.00  0.00    -0.049 A 
ATOM     38  H   UNL     1     -45.391  36.780  30.225  1.00  0.00     0.066 H 
ATOM     39  C   UNL     1     -44.412  39.943  28.173  1.00  0.00     0.076 A 
ATOM     40  H   UNL     1     -46.021  39.448  26.898  1.00  0.00     0.069 H 
ATOM     41  C   UNL     1     -43.685  39.587  29.325  1.00  0.00     0.001 A 
ATOM     42  H   UNL     1     -43.485  38.165  30.952  1.00  0.00     0.063 H 
ATOM     43  N   UNL     1     -44.107  41.025  27.435  1.00  0.00    -0.231 NA
ATOM     44  C   UNL     1     -42.615  40.402  29.698  1.00  0.00    -0.049 A 
ATOM     45  C   UNL     1     -43.065  41.806  27.800  1.00  0.00     0.129 A 
ATOM     46  C   UNL     1     -42.306  41.522  28.930  1.00  0.00    -0.019 A 
ATOM     47  H   UNL     1     -42.022  40.180  30.581  1.00  0.00     0.063 H 
ATOM     48  H   UNL     1     -41.486  42.168  29.223  1.00  0.00     0.066 H 
BRANCH  45  49
ATOM     49  N   UNL     1     -42.771  42.943  27.023  1.00  0.00    -0.356 N 
ATOM     50  C   UNL     1     -43.759  43.849  26.510  1.00  0.00     0.021 C 
ATOM     51  C   UNL     1     -42.015  42.970  25.805  1.00  0.00     0.021 C 
ATOM     52  C   UNL     1     -42.683  44.320  25.525  1.00  0.00    -0.018 C 
ATOM     53  H   UNL     1     -44.612  43.339  26.050  1.00  0.00     0.049 H 
ATOM     54  H   UNL     1     -44.094  44.587  27.241  1.00  0.00     0.049 H 
ATOM     55  H   UNL     1     -42.289  42.166  25.113  1.00  0.00     0.049 H 
ATOM     56  H   UNL     1     -40.934  43.000  25.959  1.00  0.00     0.049 H 
ATOM     57  H   UNL     1     -42.109  45.189  25.866  1.00  0.00     0.030 H 
ATOM     58  H   UNL     1     -43.018  44.484  24.496  1.00  0.00     0.030 H 
ENDBRANCH  45  49
ENDBRANCH  33  34
ENDBRANCH  30  33
ENDBRANCH   5  30
TORSDOF 8
ENDMDL
MODEL 2
REMARK VINA RESULT:      -9.8      1.879      2.566
REMARK SMILES C[S@@+]([O-])c1cn(-c2cncc(COc3ccc4ccc(N5CCC5)nc4c3)c2)c2ncnc(N)c12
REMARK SMILES IDX 7 1 8 2 9 3 10 4 11 5 28 6 6 10 4 11 5 12 35 13 29 15 33 16
REMARK SMILES IDX 30 17 32 18 31 19 2 21 3 22 1 23 34 27 12 30 13 33 14 34
REMARK SMILES IDX 15 35 27 36 16 37 26 39 17 41 25 43 18 44 20 45 19 46 21 49
REMARK SMILES IDX 22 50 24 51 23 52
REMARK H PARENT 8 7 10 8 28 9 5 14 31 20 1 24 1 25 1 26 34 28 34 29 12 31
REMARK H PARENT 12 32 15 38 27 40 16 42 18 47 19 48 22 53 22 54 24 55 24 56
REMARK H PARENT 23 57 23 58
REMARK Flexibility Score: inf
ROOT
ATOM      1  C   UNL     1     -46.886  33.059  26.027  1.00  0.00     0.066 A 
ATOM      2  C   UNL     1     -46.454  32.504  27.227  1.00  0.00     0.051 A 
ATOM      3  N   UNL     1     -46.114  33.230  28.324  1.00  0.00    -0.262 NA
ATOM      4  C   UNL     1     -46.215  34.572  28.233  1.00  0.00     0.034 A 
ATOM      5  C   UNL     1     -46.643  35.238  27.094  1.00  0.00     0.010 A 
ATOM      6  C   UNL     1     -46.970  34.458  25.975  1.00  0.00    -0.028 A 
ATOM      7  H   UNL     1     -46.364  31.438  27.397  1.00  0.00     0.086 H 
ATOM      8  H   UNL     1     -45.929  35.107  29.135  1.00  0.00     0.084 H 
ATOM      9  H   UNL     1     -47.278  34.984  25.076  1.00  0.00     0.065 H 
ENDROOT
BRANCH   1  10
ATOM     10  N   UNL     1     -47.234  32.251  24.896  1.00  0.00    -0.294 N 
ATOM     11  C   UNL     1     -47.008  30.965  23.067  1.00  0.00     0.183 A 
ATOM     12  C   UNL     1     -46.323  31.646  24.043  1.00  0.00     0.067 A 
ATOM     13  C   UNL     1     -48.393  31.119  23.296  1.00  0.00     0.117 A 
ATOM     14  H   UNL     1     -45.258  31.768  24.167  1.00  0.00     0.088 H 
ATOM     15  C   UNL     1     -48.512  31.916  24.435  1.00  0.00     0.155 A 
ATOM     16  C   UNL     1     -49.588  30.680  22.699  1.00  0.00     0.141 A 
ATOM     17  N   UNL     1     -49.682  32.278  24.999  1.00  0.00    -0.218 NA
ATOM     18  N   UNL     1     -50.764  31.042  23.244  1.00  0.00    -0.219 NA
ATOM     19  C   UNL     1     -50.749  31.805  24.345  1.00  0.00     0.120 A 
ATOM     20  H   UNL     1     -51.719  32.069  24.754  1.00  0.00     0.106 H 
BRANCH  11  21
ATOM     21  S   UNL     1     -46.196  30.069  21.744  1.00  0.00    -0.016 S 
ATOM     22  O   UNL     1     -44.768  29.494  22.362  1.00  0.00    -0.612 OA
BRANCH  21  23
ATOM     23  C   UNL     1     -45.807  31.499  20.702  1.00  0.00     0.100 C 
ATOM     24  H   UNL     1     -46.731  32.025  20.448  1.00  0.00     0.082 H 
ATOM     25  H   UNL     1     -45.335  31.138  19.786  1.00  0.00     0.082 H 
ATOM     26  H   UNL     1     -45.120  32.174  21.217  1.00  0.00     0.082 H 
ENDBRANCH  21  23
ENDBRANCH  11  21
BRANCH  16  27
ATOM     27  N   UNL     1     -49.652  29.876  21.571  1.00  0.00    -0.383 N 
ATOM     28  H   UNL     1     -50.545  29.982  21.107  1.00  0.00     0.158 HD
ATOM     29  H   UNL     1     -48.839  29.970  20.953  1.00  0.00     0.158 HD
ENDBRANCH  16  27
ENDBRANCH   1  10
BRANCH   5  30
ATOM     30  C   UNL     1     -46.687  36.743  27.056  1.00  0.00     0.115 C 
ATOM     31  H   UNL     1     -45.868  37.121  26.432  1.00  0.00     0.076 H 
ATOM     32  H   UNL     1     -47.653  37.042  26.629  1.00  0.00     0.076 H 
BRANCH  30  33
ATOM     33  O   UNL     1     -46.544  37.248  28.384  1.00  0.00    -0.489 OA
BRANCH  33  34
ATOM     34  C   UNL     1     -45.539  38.149  28.603  1.00  0.00     0.122 A 
ATOM     35  C   UNL     1     -44.792  37.915  29.756  1.00  0.00    -0.019 A 
ATOM     36  C   UNL     1     -45.222  39.243  27.794  1.00  0.00     0.007 A 
ATOM     37  C   UNL     1     -43.739  38.762  30.095  1.00  0.00    -0.049 A 
ATOM     38  H   UNL     1     -45.027  37.065  30.392  1.00  0.00     0.066 H 
ATOM     39  C   UNL     1     -44.178  40.105  28.109  1.00  0.00     0.076 A 
ATOM     40  H   UNL     1     -45.779  39.463  26.890  1.00  0.00     0.069 H 
ATOM     41  C   UNL     1     -43.430  39.858  29.275  1.00  0.00     0.001 A 
ATOM     42  H   UNL     1     -43.166  38.564  30.997  1.00  0.00     0.063 H 
ATOM     43  N   UNL     1     -43.919  41.141  27.292  1.00  0.00    -0.231 NA
ATOM     44  C   UNL     1     -42.386  40.735  29.577  1.00  0.00    -0.049 A 
ATOM     45  C   UNL     1     -42.902  41.982  27.589  1.00  0.00     0.129 A 
ATOM     46  C   UNL     1     -42.124  41.806  28.728  1.00  0.00    -0.019 A 
ATOM     47  H   UNL     1     -41.779  40.598  30.468  1.00  0.00     0.063 H 
ATOM     48  H   UNL     1     -41.325  42.500  28.966  1.00  0.00     0.066 H 
BRANCH  45  49
ATOM     49  N   UNL     1     -42.655  43.070  26.730  1.00  0.00    -0.356 N 
ATOM     50  C   UNL     1     -43.676  43.792  26.026  1.00  0.00     0.021 C 
ATOM     51  C   UNL     1     -41.774  43.079  25.598  1.00  0.00     0.021 C 
ATOM     52  C   UNL     1     -42.558  44.302  25.111  1.00  0.00    -0.018 C 
ATOM     53  H   UNL     1     -44.408  43.139  25.539  1.00  0.00     0.049 H 
ATOM     54  H   UNL     1     -44.174  44.547  26.637  1.00  0.00     0.049 H 
ATOM     55  H   UNL     1     -41.873  42.186  24.971  1.00  0.00     0.049 H 
ATOM     56  H   UNL     1     -40.729  43.259  25.856  1.00  0.00     0.049 H 
ATOM     57  H   UNL     1     -42.130  45.265  25.414  1.00  0.00     0.030 H 
ATOM     58  H   UNL     1     -42.790  44.326  24.042  1.00  0.00     0.030 H 
ENDBRANCH  45  49
ENDBRANCH  33  34
ENDBRANCH  30  33
ENDBRANCH   5  30
TORSDOF 8
ENDMDL
MODEL 3
REMARK VINA RESULT:      -9.7      2.316      3.050
REMARK SMILES C[S@@+]([O-])c1cn(-c2cncc(COc3ccc4ccc(N5CCC5)nc4c3)c2)c2ncnc(N)c12
REMARK SMILES IDX 7 1 8 2 9 3 10 4 11 5 28 6 6 10 4 11 5 12 35 13 29 15 33 16
REMARK SMILES IDX 30 17 32 18 31 19 2 21 3 22 1 23 34 27 12 30 13 33 14 34
REMARK SMILES IDX 15 35 27 36 16 37 26 39 17 41 25 43 18 44 20 45 19 46 21 49
REMARK SMILES IDX 22 50 24 51 23 52
REMARK H PARENT 8 7 10 8 28 9 5 14 31 20 1 24 1 25 1 26 34 28 34 29 12 31
REMARK H PARENT 12 32 15 38 27 40 16 42 18 47 19 48 22 53 22 54 24 55 24 56
REMARK H PARENT 23 57 23 58
REMARK Flexibility Score: inf
ROOT
ATOM      1  C   UNL     1     -48.133  32.196  25.326  1.00  0.00     0.066 A 
ATOM      2  C   UNL     1     -46.824  32.417  24.910  1.00  0.00     0.051 A 
ATOM      3  N   UNL     1     -46.117  33.545  25.180  1.00  0.00    -0.262 NA
ATOM      4  C   UNL     1     -46.733  34.501  25.906  1.00  0.00     0.034 A 
ATOM      5  C   UNL     1     -48.030  34.391  26.383  1.00  0.00     0.010 A 
ATOM      6  C   UNL     1     -48.736  33.219  26.072  1.00  0.00    -0.028 A 
ATOM      7  H   UNL     1     -46.245  31.697  24.344  1.00  0.00     0.086 H 
ATOM      8  H   UNL     1     -46.128  35.384  26.092  1.00  0.00     0.084 H 
ATOM      9  H   UNL     1     -49.761  33.149  26.424  1.00  0.00     0.065 H 
ENDROOT
BRANCH   1  10
ATOM     10  N   UNL     1     -48.837  30.988  25.017  1.00  0.00    -0.294 N 
ATOM     11  C   UNL     1     -49.416  28.816  25.027  1.00  0.00     0.183 A 
ATOM     12  C   UNL     1     -48.552  29.743  25.557  1.00  0.00     0.067 A 
ATOM     13  C   UNL     1     -50.289  29.472  24.132  1.00  0.00     0.117 A 
ATOM     14  H   UNL     1     -47.740  29.596  26.252  1.00  0.00     0.088 H 
ATOM     15  C   UNL     1     -49.917  30.817  24.143  1.00  0.00     0.155 A 
ATOM     16  C   UNL     1     -51.371  29.118  23.307  1.00  0.00     0.141 A 
ATOM     17  N   UNL     1     -50.525  31.787  23.431  1.00  0.00    -0.218 NA
ATOM     18  N   UNL     1     -51.982  30.073  22.583  1.00  0.00    -0.219 NA
ATOM     19  C   UNL     1     -51.537  31.333  22.682  1.00  0.00     0.120 A 
ATOM     20  H   UNL     1     -52.062  32.072  22.085  1.00  0.00     0.106 H 
BRANCH  11  21
ATOM     21  S   UNL     1     -49.360  27.074  25.444  1.00  0.00    -0.016 S 
ATOM     22  O   UNL     1     -50.874  26.663  25.985  1.00  0.00    -0.612 OA
BRANCH  21  23
ATOM     23  C   UNL     1     -48.280  27.217  26.890  1.00  0.00     0.100 C 
ATOM     24  H   UNL     1     -48.882  27.455  27.771  1.00  0.00     0.082 H 
ATOM     25  H   UNL     1     -47.570  28.027  26.711  1.00  0.00     0.082 H 
ATOM     26  H   UNL     1     -47.729  26.288  27.053  1.00  0.00     0.082 H 
ENDBRANCH  21  23
ENDBRANCH  11  21
BRANCH  16  27
ATOM     27  N   UNL     1     -51.876  27.832  23.186  1.00  0.00    -0.383 N 
ATOM     28  H   UNL     1     -52.802  27.773  23.591  1.00  0.00     0.158 HD
ATOM     29  H   UNL     1     -51.803  27.450  22.237  1.00  0.00     0.158 HD
ENDBRANCH  16  27
ENDBRANCH   1  10
BRANCH   5  30
ATOM     30  C   UNL     1     -48.664  35.522  27.149  1.00  0.00     0.115 C 
ATOM     31  H   UNL     1     -48.655  36.433  26.540  1.00  0.00     0.076 H 
ATOM     32  H   UNL     1     -49.698  35.236  27.381  1.00  0.00     0.076 H 
BRANCH  30  33
ATOM     33  O   UNL     1     -47.923  35.747  28.350  1.00  0.00    -0.489 OA
BRANCH  33  34
ATOM     34  C   UNL     1     -46.998  36.753  28.332  1.00  0.00     0.122 A 
ATOM     35  C   UNL     1     -46.040  36.678  29.341  1.00  0.00    -0.019 A 
ATOM     36  C   UNL     1     -46.947  37.809  27.419  1.00  0.00     0.007 A 
ATOM     37  C   UNL     1     -45.042  37.646  29.436  1.00  0.00    -0.049 A 
ATOM     38  H   UNL     1     -46.067  35.859  30.056  1.00  0.00     0.066 H 
ATOM     39  C   UNL     1     -45.964  38.789  27.490  1.00  0.00     0.076 A 
ATOM     40  H   UNL     1     -47.674  37.907  26.620  1.00  0.00     0.069 H 
ATOM     41  C   UNL     1     -45.001  38.702  28.514  1.00  0.00     0.001 A 
ATOM     42  H   UNL     1     -44.302  37.571  30.229  1.00  0.00     0.063 H 
ATOM     43  N   UNL     1     -45.964  39.781  26.584  1.00  0.00    -0.231 NA
ATOM     44  C   UNL     1     -44.022  39.695  28.572  1.00  0.00    -0.049 A 
ATOM     45  C   UNL     1     -45.008  40.736  26.644  1.00  0.00     0.129 A 
ATOM     46  C   UNL     1     -44.029  40.721  27.631  1.00  0.00    -0.019 A 
ATOM     47  H   UNL     1     -43.257  39.684  29.343  1.00  0.00     0.063 H 
ATOM     48  H   UNL     1     -43.280  41.504  27.680  1.00  0.00     0.066 H 
BRANCH  45  49
ATOM     49  N   UNL     1     -45.034  41.775  25.695  1.00  0.00    -0.356 N 
ATOM     50  C   UNL     1     -43.895  42.574  25.339  1.00  0.00     0.021 C 
ATOM     51  C   UNL     1     -45.913  42.909  25.696  1.00  0.00     0.021 C 
ATOM     52  C   UNL     1     -44.896  43.586  24.771  1.00  0.00    -0.018 C 
ATOM     53  H   UNL     1     -43.328  42.925  26.207  1.00  0.00     0.049 H 
ATOM     54  H   UNL     1     -43.237  42.093  24.612  1.00  0.00     0.049 H 
ATOM     55  H   UNL     1     -46.016  43.369  26.685  1.00  0.00     0.049 H 
ATOM     56  H   UNL     1     -46.891  42.706  25.256  1.00  0.00     0.049 H 
ATOM     57  H   UNL     1     -45.104  43.463  23.701  1.00  0.00     0.030 H 
ATOM     58  H   UNL     1     -44.683  44.637  24.983  1.00  0.00     0.030 H 
ENDBRANCH  45  49
ENDBRANCH  33  34
ENDBRANCH  30  33
ENDBRANCH   5  30
TORSDOF 8
ENDMDL
MODEL 4
REMARK VINA RESULT:      -9.6      3.312     11.749
REMARK SMILES C[S@@+]([O-])c1cn(-c2cncc(COc3ccc4ccc(N5CCC5)nc4c3)c2)c2ncnc(N)c12
REMARK SMILES IDX 7 1 8 2 9 3 10 4 11 5 28 6 6 10 4 11 5 12 35 13 29 15 33 16
REMARK SMILES IDX 30 17 32 18 31 19 2 21 3 22 1 23 34 27 12 30 13 33 14 34
REMARK SMILES IDX 15 35 27 36 16 37 26 39 17 41 25 43 18 44 20 45 19 46 21 49
REMARK SMILES IDX 22 50 24 51 23 52
REMARK H PARENT 8 7 10 8 28 9 5 14 31 20 1 24 1 25 1 26 34 28 34 29 12 31
REMARK H PARENT 12 32 15 38 27 40 16 42 18 47 19 48 22 53 22 54 24 55 24 56
REMARK H PARENT 23 57 23 58
REMARK Flexibility Score: inf
ROOT
ATOM      1  C   UNL     1     -46.322  38.297  27.550  1.00  0.00     0.066 A 
ATOM      2  C   UNL     1     -47.675  38.520  27.782  1.00  0.00     0.051 A 
ATOM      3  N   UNL     1     -48.614  37.539  27.830  1.00  0.00    -0.262 NA
ATOM      4  C   UNL     1     -48.191  36.271  27.650  1.00  0.00     0.034 A 
ATOM      5  C   UNL     1     -46.869  35.923  27.421  1.00  0.00     0.010 A 
ATOM      6  C   UNL     1     -45.929  36.964  27.361  1.00  0.00    -0.028 A 
ATOM      7  H   UNL     1     -48.099  39.501  27.960  1.00  0.00     0.086 H 
ATOM      8  H   UNL     1     -48.979  35.523  27.694  1.00  0.00     0.084 H 
ATOM      9  H   UNL     1     -44.898  36.691  27.155  1.00  0.00     0.065 H 
ENDROOT
BRANCH   1  10
ATOM     10  N   UNL     1     -45.370  39.365  27.509  1.00  0.00    -0.294 N 
ATOM     11  C   UNL     1     -44.269  41.190  26.794  1.00  0.00     0.183 A 
ATOM     12  C   UNL     1     -45.310  40.337  26.521  1.00  0.00     0.067 A 
ATOM     13  C   UNL     1     -43.644  40.772  27.990  1.00  0.00     0.117 A 
ATOM     14  H   UNL     1     -45.987  40.337  25.680  1.00  0.00     0.088 H 
ATOM     15  C   UNL     1     -44.343  39.643  28.418  1.00  0.00     0.155 A 
ATOM     16  C   UNL     1     -42.575  41.202  28.795  1.00  0.00     0.141 A 
ATOM     17  N   UNL     1     -44.070  38.954  29.545  1.00  0.00    -0.218 NA
ATOM     18  N   UNL     1     -42.283  40.519  29.916  1.00  0.00    -0.219 NA
ATOM     19  C   UNL     1     -43.033  39.453  30.227  1.00  0.00     0.120 A 
ATOM     20  H   UNL     1     -42.766  38.934  31.143  1.00  0.00     0.106 H 
BRANCH  11  21
ATOM     21  S   UNL     1     -43.830  42.570  25.738  1.00  0.00    -0.016 S 
ATOM     22  O   UNL     1     -42.176  42.694  25.775  1.00  0.00    -0.612 OA
BRANCH  21  23
ATOM     23  C   UNL     1     -44.503  43.885  26.785  1.00  0.00     0.100 C 
ATOM     24  H   UNL     1     -45.594  43.820  26.794  1.00  0.00     0.082 H 
ATOM     25  H   UNL     1     -44.203  44.847  26.364  1.00  0.00     0.082 H 
ATOM     26  H   UNL     1     -44.115  43.803  27.802  1.00  0.00     0.082 H 
ENDBRANCH  21  23
ENDBRANCH  11  21
BRANCH  16  27
ATOM     27  N   UNL     1     -41.783  42.308  28.522  1.00  0.00    -0.383 N 
ATOM     28  H   UNL     1     -41.652  42.415  27.524  1.00  0.00     0.158 HD
ATOM     29  H   UNL     1     -42.088  43.160  29.003  1.00  0.00     0.158 HD
ENDBRANCH  16  27
ENDBRANCH   1  10
BRANCH   5  30
ATOM     30  C   UNL     1     -46.481  34.487  27.185  1.00  0.00     0.115 C 
ATOM     31  H   UNL     1     -45.877  34.413  26.273  1.00  0.00     0.076 H 
ATOM     32  H   UNL     1     -45.899  34.147  28.050  1.00  0.00     0.076 H 
BRANCH  30  33
ATOM     33  O   UNL     1     -47.666  33.703  27.034  1.00  0.00    -0.489 OA
BRANCH  33  34
ATOM     34  C   UNL     1     -47.677  32.776  26.029  1.00  0.00     0.122 A 
ATOM     35  C   UNL     1     -46.538  32.778  25.226  1.00  0.00    -0.019 A 
ATOM     36  C   UNL     1     -48.704  31.870  25.756  1.00  0.00     0.007 A 
ATOM     37  C   UNL     1     -46.425  31.883  24.164  1.00  0.00    -0.049 A 
ATOM     38  H   UNL     1     -45.730  33.477  25.431  1.00  0.00     0.066 H 
ATOM     39  C   UNL     1     -48.619  30.967  24.703  1.00  0.00     0.076 A 
ATOM     40  H   UNL     1     -49.608  31.836  26.353  1.00  0.00     0.069 H 
ATOM     41  C   UNL     1     -47.463  30.977  23.899  1.00  0.00     0.001 A 
ATOM     42  H   UNL     1     -45.529  31.897  23.549  1.00  0.00     0.063 H 
ATOM     43  N   UNL     1     -49.638  30.117  24.488  1.00  0.00    -0.231 NA
ATOM     44  C   UNL     1     -47.395  30.065  22.844  1.00  0.00    -0.049 A 
ATOM     45  C   UNL     1     -49.561  29.232  23.467  1.00  0.00     0.129 A 
ATOM     46  C   UNL     1     -48.455  29.189  22.626  1.00  0.00    -0.019 A 
ATOM     47  H   UNL     1     -46.531  30.031  22.187  1.00  0.00     0.063 H 
ATOM     48  H   UNL     1     -48.415  28.489  21.799  1.00  0.00     0.066 H 
BRANCH  45  49
ATOM     49  N   UNL     1     -50.645  28.361  23.249  1.00  0.00    -0.356 N 
ATOM     50  C   UNL     1     -51.990  28.791  22.988  1.00  0.00     0.021 C 
ATOM     51  C   UNL     1     -51.080  27.307  24.119  1.00  0.00     0.021 C 
ATOM     52  C   UNL     1     -52.423  27.376  23.385  1.00  0.00    -0.018 C 
ATOM     53  H   UNL     1     -52.326  29.584  23.666  1.00  0.00     0.049 H 
ATOM     54  H   UNL     1     -52.163  29.070  21.947  1.00  0.00     0.049 H 
ATOM     55  H   UNL     1     -51.111  27.606  25.172  1.00  0.00     0.049 H 
ATOM     56  H   UNL     1     -50.521  26.377  23.995  1.00  0.00     0.049 H 
ATOM     57  H   UNL     1     -52.517  26.680  22.544  1.00  0.00     0.030 H 
ATOM     58  H   UNL     1     -53.315  27.311  24.015  1.00  0.00     0.030 H 
ENDBRANCH  45  49
ENDBRANCH  33  34
ENDBRANCH  30  33
ENDBRANCH   5  30
TORSDOF 8
ENDMDL
MODEL 5
REMARK VINA RESULT:      -9.6      1.856      2.029
REMARK SMILES C[S@@+]([O-])c1cn(-c2cncc(COc3ccc4ccc(N5CCC5)nc4c3)c2)c2ncnc(N)c12
REMARK SMILES IDX 7 1 8 2 9 3 10 4 11 5 28 6 6 10 4 11 5 12 35 13 29 15 33 16
REMARK SMILES IDX 30 17 32 18 31 19 2 21 3 22 1 23 34 27 12 30 13 33 14 34
REMARK SMILES IDX 15 35 27 36 16 37 26 39 17 41 25 43 18 44 20 45 19 46 21 49
REMARK SMILES IDX 22 50 24 51 23 52
REMARK H PARENT 8 7 10 8 28 9 5 14 31 20 1 24 1 25 1 26 34 28 34 29 12 31
REMARK H PARENT 12 32 15 38 27 40 16 42 18 47 19 48 22 53 22 54 24 55 24 56
REMARK H PARENT 23 57 23 58
REMARK Flexibility Score: inf
ROOT
ATOM      1  C   UNL     1     -48.205  32.808  26.036  1.00  0.00     0.066 A 
ATOM      2  C   UNL     1     -49.410  33.478  26.216  1.00  0.00     0.051 A 
ATOM      3  N   UNL     1     -49.520  34.717  26.764  1.00  0.00    -0.262 NA
ATOM      4  C   UNL     1     -48.380  35.327  27.145  1.00  0.00     0.034 A 
ATOM      5  C   UNL     1     -47.120  34.764  27.007  1.00  0.00     0.010 A 
ATOM      6  C   UNL     1     -47.045  33.478  26.452  1.00  0.00    -0.028 A 
ATOM      7  H   UNL     1     -50.371  33.075  25.920  1.00  0.00     0.086 H 
ATOM      8  H   UNL     1     -48.521  36.313  27.580  1.00  0.00     0.084 H 
ATOM      9  H   UNL     1     -46.060  33.029  26.371  1.00  0.00     0.065 H 
ENDROOT
BRANCH   1  10
ATOM     10  N   UNL     1     -48.139  31.502  25.452  1.00  0.00    -0.294 N 
ATOM     11  C   UNL     1     -48.485  29.302  25.149  1.00  0.00     0.183 A 
ATOM     12  C   UNL     1     -48.780  30.377  25.951  1.00  0.00     0.067 A 
ATOM     13  C   UNL     1     -47.645  29.736  24.100  1.00  0.00     0.117 A 
ATOM     14  H   UNL     1     -49.371  30.411  26.853  1.00  0.00     0.088 H 
ATOM     15  C   UNL     1     -47.446  31.102  24.305  1.00  0.00     0.155 A 
ATOM     16  C   UNL     1     -47.022  29.163  22.978  1.00  0.00     0.141 A 
ATOM     17  N   UNL     1     -46.713  31.899  23.500  1.00  0.00    -0.218 NA
ATOM     18  N   UNL     1     -46.279  29.943  22.172  1.00  0.00    -0.219 NA
ATOM     19  C   UNL     1     -46.168  31.245  22.468  1.00  0.00     0.120 A 
ATOM     20  H   UNL     1     -45.564  31.838  21.789  1.00  0.00     0.106 H 
BRANCH  11  21
ATOM     21  S   UNL     1     -49.094  27.646  25.468  1.00  0.00    -0.016 S 
ATOM     22  O   UNL     1     -47.842  26.606  25.143  1.00  0.00    -0.612 OA
BRANCH  21  23
ATOM     23  C   UNL     1     -50.256  27.556  24.082  1.00  0.00     0.100 C 
ATOM     24  H   UNL     1     -51.174  28.089  24.342  1.00  0.00     0.082 H 
ATOM     25  H   UNL     1     -50.490  26.506  23.897  1.00  0.00     0.082 H 
ATOM     26  H   UNL     1     -49.814  27.988  23.181  1.00  0.00     0.082 H 
ENDBRANCH  21  23
ENDBRANCH  11  21
BRANCH  16  27
ATOM     27  N   UNL     1     -47.123  27.826  22.623  1.00  0.00    -0.383 N 
ATOM     28  H   UNL     1     -46.503  27.615  21.852  1.00  0.00     0.158 HD
ATOM     29  H   UNL     1     -47.046  27.183  23.418  1.00  0.00     0.158 HD
ENDBRANCH  16  27
ENDBRANCH   1  10
BRANCH   5  30
ATOM     30  C   UNL     1     -45.896  35.492  27.498  1.00  0.00     0.115 C 
ATOM     31  H   UNL     1     -45.226  34.788  28.006  1.00  0.00     0.076 H 
ATOM     32  H   UNL     1     -45.390  35.929  26.628  1.00  0.00     0.076 H 
BRANCH  30  33
ATOM     33  O   UNL     1     -46.295  36.513  28.414  1.00  0.00    -0.489 OA
BRANCH  33  34
ATOM     34  C   UNL     1     -45.454  37.581  28.562  1.00  0.00     0.122 A 
ATOM     35  C   UNL     1     -44.786  37.628  29.783  1.00  0.00    -0.019 A 
ATOM     36  C   UNL     1     -45.229  38.588  27.620  1.00  0.00     0.007 A 
ATOM     37  C   UNL     1     -43.901  38.668  30.060  1.00  0.00    -0.049 A 
ATOM     38  H   UNL     1     -44.950  36.848  30.523  1.00  0.00     0.066 H 
ATOM     39  C   UNL     1     -44.353  39.638  27.870  1.00  0.00     0.076 A 
ATOM     40  H   UNL     1     -45.730  38.591  26.658  1.00  0.00     0.069 H 
ATOM     41  C   UNL     1     -43.682  39.675  29.107  1.00  0.00     0.001 A 
ATOM     42  H   UNL     1     -43.387  38.689  31.018  1.00  0.00     0.063 H 
ATOM     43  N   UNL     1     -44.175  40.578  26.926  1.00  0.00    -0.231 NA
ATOM     44  C   UNL     1     -42.808  40.737  29.342  1.00  0.00    -0.049 A 
ATOM     45  C   UNL     1     -43.321  41.601  27.160  1.00  0.00     0.129 A 
ATOM     46  C   UNL     1     -42.630  41.708  28.362  1.00  0.00    -0.019 A 
ATOM     47  H   UNL     1     -42.268  40.821  30.282  1.00  0.00     0.063 H 
ATOM     48  H   UNL     1     -41.963  42.544  28.544  1.00  0.00     0.066 H 
BRANCH  45  49
ATOM     49  N   UNL     1     -43.159  42.584  26.166  1.00  0.00    -0.356 N 
ATOM     50  C   UNL     1     -41.889  43.073  25.711  1.00  0.00     0.021 C 
ATOM     51  C   UNL     1     -43.741  43.895  26.161  1.00  0.00     0.021 C 
ATOM     52  C   UNL     1     -42.654  44.277  25.151  1.00  0.00    -0.018 C 
ATOM     53  H   UNL     1     -41.199  43.306  26.530  1.00  0.00     0.049 H 
ATOM     54  H   UNL     1     -41.412  42.425  24.973  1.00  0.00     0.049 H 
ATOM     55  H   UNL     1     -43.669  44.399  27.131  1.00  0.00     0.049 H 
ATOM     56  H   UNL     1     -44.766  43.920  25.785  1.00  0.00     0.049 H 
ATOM     57  H   UNL     1     -42.954  44.173  24.102  1.00  0.00     0.030 H 
ATOM     58  H   UNL     1     -42.183  45.253  25.301  1.00  0.00     0.030 H 
ENDBRANCH  45  49
ENDBRANCH  33  34
ENDBRANCH  30  33
ENDBRANCH   5  30
TORSDOF 8
ENDMDL
MODEL 6
REMARK VINA RESULT:      -9.4      2.363      3.183
REMARK SMILES C[S@@+]([O-])c1cn(-c2cncc(COc3ccc4ccc(N5CCC5)nc4c3)c2)c2ncnc(N)c12
REMARK SMILES IDX 7 1 8 2 9 3 10 4 11 5 28 6 6 10 4 11 5 12 35 13 29 15 33 16
REMARK SMILES IDX 30 17 32 18 31 19 2 21 3 22 1 23 34 27 12 30 13 33 14 34
REMARK SMILES IDX 15 35 27 36 16 37 26 39 17 41 25 43 18 44 20 45 19 46 21 49
REMARK SMILES IDX 22 50 24 51 23 52
REMARK H PARENT 8 7 10 8 28 9 5 14 31 20 1 24 1 25 1 26 34 28 34 29 12 31
REMARK H PARENT 12 32 15 38 27 40 16 42 18 47 19 48 22 53 22 54 24 55 24 56
REMARK H PARENT 23 57 23 58
REMARK Flexibility Score: inf
ROOT
ATOM      1  C   UNL     1     -47.908  31.698  24.486  1.00  0.00     0.066 A 
ATOM      2  C   UNL     1     -46.528  31.836  24.390  1.00  0.00     0.051 A 
ATOM      3  N   UNL     1     -45.815  32.820  24.999  1.00  0.00    -0.262 NA
ATOM      4  C   UNL     1     -46.502  33.707  25.747  1.00  0.00     0.034 A 
ATOM      5  C   UNL     1     -47.876  33.667  25.925  1.00  0.00     0.010 A 
ATOM      6  C   UNL     1     -48.582  32.646  25.269  1.00  0.00    -0.028 A 
ATOM      7  H   UNL     1     -45.894  31.158  23.832  1.00  0.00     0.086 H 
ATOM      8  H   UNL     1     -45.888  34.476  26.210  1.00  0.00     0.084 H 
ATOM      9  H   UNL     1     -49.661  32.634  25.388  1.00  0.00     0.065 H 
ENDROOT
BRANCH   1  10
ATOM     10  N   UNL     1     -48.616  30.642  23.826  1.00  0.00    -0.294 N 
ATOM     11  C   UNL     1     -49.697  29.504  22.217  1.00  0.00     0.183 A 
ATOM     12  C   UNL     1     -49.044  30.677  22.507  1.00  0.00     0.067 A 
ATOM     13  C   UNL     1     -49.682  28.683  23.365  1.00  0.00     0.117 A 
ATOM     14  H   UNL     1     -48.886  31.541  21.880  1.00  0.00     0.088 H 
ATOM     15  C   UNL     1     -49.005  29.404  24.349  1.00  0.00     0.155 A 
ATOM     16  C   UNL     1     -50.143  27.402  23.718  1.00  0.00     0.141 A 
ATOM     17  N   UNL     1     -48.757  28.954  25.596  1.00  0.00    -0.218 NA
ATOM     18  N   UNL     1     -49.912  26.943  24.962  1.00  0.00    -0.219 NA
ATOM     19  C   UNL     1     -49.243  27.727  25.818  1.00  0.00     0.120 A 
ATOM     20  H   UNL     1     -49.075  27.316  26.808  1.00  0.00     0.106 H 
BRANCH  11  21
ATOM     21  S   UNL     1     -50.435  29.163  20.620  1.00  0.00    -0.016 S 
ATOM     22  O   UNL     1     -49.228  28.557  19.655  1.00  0.00    -0.612 OA
BRANCH  21  23
ATOM     23  C   UNL     1     -50.721  30.882  20.126  1.00  0.00     0.100 C 
ATOM     24  H   UNL     1     -51.701  30.964  19.648  1.00  0.00     0.082 H 
ATOM     25  H   UNL     1     -49.947  31.167  19.410  1.00  0.00     0.082 H 
ATOM     26  H   UNL     1     -50.669  31.545  20.992  1.00  0.00     0.082 H 
ENDBRANCH  21  23
ENDBRANCH  11  21
BRANCH  16  27
ATOM     27  N   UNL     1     -50.824  26.550  22.862  1.00  0.00    -0.383 N 
ATOM     28  H   UNL     1     -51.693  26.970  22.558  1.00  0.00     0.158 HD
ATOM     29  H   UNL     1     -50.243  26.180  22.102  1.00  0.00     0.158 HD
ENDBRANCH  16  27
ENDBRANCH   1  10
BRANCH   5  30
ATOM     30  C   UNL     1     -48.577  34.721  26.741  1.00  0.00     0.115 C 
ATOM     31  H   UNL     1     -48.587  35.669  26.190  1.00  0.00     0.076 H 
ATOM     32  H   UNL     1     -49.605  34.382  26.921  1.00  0.00     0.076 H 
BRANCH  30  33
ATOM     33  O   UNL     1     -47.880  34.896  27.975  1.00  0.00    -0.489 OA
BRANCH  33  34
ATOM     34  C   UNL     1     -47.064  35.989  28.081  1.00  0.00     0.122 A 
ATOM     35  C   UNL     1     -46.185  35.953  29.161  1.00  0.00    -0.019 A 
ATOM     36  C   UNL     1     -47.051  37.092  27.225  1.00  0.00     0.007 A 
ATOM     37  C   UNL     1     -45.301  37.008  29.383  1.00  0.00    -0.049 A 
ATOM     38  H   UNL     1     -46.184  35.098  29.833  1.00  0.00     0.066 H 
ATOM     39  C   UNL     1     -46.182  38.158  27.422  1.00  0.00     0.076 A 
ATOM     40  H   UNL     1     -47.720  37.162  26.374  1.00  0.00     0.069 H 
ATOM     41  C   UNL     1     -45.297  38.111  28.517  1.00  0.00     0.001 A 
ATOM     42  H   UNL     1     -44.621  36.963  30.230  1.00  0.00     0.063 H 
ATOM     43  N   UNL     1     -46.213  39.193  26.566  1.00  0.00    -0.231 NA
ATOM     44  C   UNL     1     -44.432  39.191  28.701  1.00  0.00    -0.049 A 
ATOM     45  C   UNL     1     -45.367  40.233  26.749  1.00  0.00     0.129 A 
ATOM     46  C   UNL     1     -44.471  40.261  27.812  1.00  0.00    -0.019 A 
ATOM     47  H   UNL     1     -43.732  39.213  29.532  1.00  0.00     0.063 H 
ATOM     48  H   UNL     1     -43.812  41.109  27.959  1.00  0.00     0.066 H 
BRANCH  45  49
ATOM     49  N   UNL     1     -45.425  41.315  25.850  1.00  0.00    -0.356 N 
ATOM     50  C   UNL     1     -44.278  42.046  25.389  1.00  0.00     0.021 C 
ATOM     51  C   UNL     1     -46.208  42.507  26.001  1.00  0.00     0.021 C 
ATOM     52  C   UNL     1     -45.259  43.152  24.985  1.00  0.00    -0.018 C 
ATOM     53  H   UNL     1     -43.587  42.315  26.195  1.00  0.00     0.049 H 
ATOM     54  H   UNL     1     -43.750  41.554  24.570  1.00  0.00     0.049 H 
ATOM     55  H   UNL     1     -46.158  42.927  27.012  1.00  0.00     0.049 H 
ATOM     56  H   UNL     1     -47.244  42.396  25.676  1.00  0.00     0.049 H 
ATOM     57  H   UNL     1     -45.601  43.095  23.945  1.00  0.00     0.030 H 
ATOM     58  H   UNL     1     -44.942  44.175  25.210  1.00  0.00     0.030 H 
ENDBRANCH  45  49
ENDBRANCH  33  34
ENDBRANCH  30  33
ENDBRANCH   5  30
TORSDOF 8
ENDMDL
MODEL 7
REMARK VINA RESULT:      -9.3      3.570     11.046
REMARK SMILES C[S@@+]([O-])c1cn(-c2cncc(COc3ccc4ccc(N5CCC5)nc4c3)c2)c2ncnc(N)c12
REMARK SMILES IDX 7 1 8 2 9 3 10 4 11 5 28 6 6 10 4 11 5 12 35 13 29 15 33 16
REMARK SMILES IDX 30 17 32 18 31 19 2 21 3 22 1 23 34 27 12 30 13 33 14 34
REMARK SMILES IDX 15 35 27 36 16 37 26 39 17 41 25 43 18 44 20 45 19 46 21 49
REMARK SMILES IDX 22 50 24 51 23 52
REMARK H PARENT 8 7 10 8 28 9 5 14 31 20 1 24 1 25 1 26 34 28 34 29 12 31
REMARK H PARENT 12 32 15 38 27 40 16 42 18 47 19 48 22 53 22 54 24 55 24 56
REMARK H PARENT 23 57 23 58
REMARK Flexibility Score: inf
ROOT
ATOM      1  C   UNL     1     -46.681  40.901  26.884  1.00  0.00     0.066 A 
ATOM      2  C   UNL     1     -47.860  41.598  27.127  1.00  0.00     0.051 A 
ATOM      3  N   UNL     1     -48.992  41.032  27.623  1.00  0.00    -0.262 NA
ATOM      4  C   UNL     1     -48.953  39.713  27.900  1.00  0.00     0.034 A 
ATOM      5  C   UNL     1     -47.834  38.917  27.710  1.00  0.00     0.010 A 
ATOM      6  C   UNL     1     -46.688  39.531  27.181  1.00  0.00    -0.028 A 
ATOM      7  H   UNL     1     -47.975  42.661  26.956  1.00  0.00     0.086 H 
ATOM      8  H   UNL     1     -49.883  39.308  28.291  1.00  0.00     0.084 H 
ATOM      9  H   UNL     1     -45.822  38.899  27.007  1.00  0.00     0.065 H 
ENDROOT
BRANCH   1  10
ATOM     10  N   UNL     1     -45.512  41.542  26.360  1.00  0.00    -0.294 N 
ATOM     11  C   UNL     1     -44.185  42.720  24.981  1.00  0.00     0.183 A 
ATOM     12  C   UNL     1     -45.464  42.260  25.175  1.00  0.00     0.067 A 
ATOM     13  C   UNL     1     -43.385  42.303  26.068  1.00  0.00     0.117 A 
ATOM     14  H   UNL     1     -46.329  42.366  24.538  1.00  0.00     0.088 H 
ATOM     15  C   UNL     1     -44.227  41.578  26.913  1.00  0.00     0.155 A 
ATOM     16  C   UNL     1     -42.047  42.448  26.474  1.00  0.00     0.141 A 
ATOM     17  N   UNL     1     -43.848  41.025  28.082  1.00  0.00    -0.218 NA
ATOM     18  N   UNL     1     -41.651  41.892  27.633  1.00  0.00    -0.219 NA
ATOM     19  C   UNL     1     -42.555  41.225  28.363  1.00  0.00     0.120 A 
ATOM     20  H   UNL     1     -42.193  40.798  29.293  1.00  0.00     0.106 H 
BRANCH  11  21
ATOM     21  S   UNL     1     -43.693  43.669  23.542  1.00  0.00    -0.016 S 
ATOM     22  O   UNL     1     -42.802  44.953  24.099  1.00  0.00    -0.612 OA
BRANCH  21  23
ATOM     23  C   UNL     1     -45.335  44.290  23.102  1.00  0.00     0.100 C 
ATOM     24  H   UNL     1     -46.096  43.595  23.465  1.00  0.00     0.082 H 
ATOM     25  H   UNL     1     -45.398  44.356  22.014  1.00  0.00     0.082 H 
ATOM     26  H   UNL     1     -45.500  45.281  23.531  1.00  0.00     0.082 H 
ENDBRANCH  21  23
ENDBRANCH  11  21
BRANCH  16  27
ATOM     27  N   UNL     1     -41.082  43.143  25.760  1.00  0.00    -0.383 N 
ATOM     28  H   UNL     1     -40.877  42.674  24.887  1.00  0.00     0.158 HD
ATOM     29  H   UNL     1     -41.282  44.144  25.667  1.00  0.00     0.158 HD
ENDBRANCH  16  27
ENDBRANCH   1  10
BRANCH   5  30
ATOM     30  C   UNL     1     -47.883  37.441  28.002  1.00  0.00     0.115 C 
ATOM     31  H   UNL     1     -47.557  37.257  29.033  1.00  0.00     0.076 H 
ATOM     32  H   UNL     1     -48.919  37.103  27.870  1.00  0.00     0.076 H 
BRANCH  30  33
ATOM     33  O   UNL     1     -47.012  36.757  27.100  1.00  0.00    -0.489 OA
BRANCH  33  34
ATOM     34  C   UNL     1     -47.430  35.543  26.629  1.00  0.00     0.122 A 
ATOM     35  C   UNL     1     -48.729  35.195  26.994  1.00  0.00    -0.019 A 
ATOM     36  C   UNL     1     -46.681  34.661  25.846  1.00  0.00     0.007 A 
ATOM     37  C   UNL     1     -49.274  33.981  26.581  1.00  0.00    -0.049 A 
ATOM     38  H   UNL     1     -49.323  35.875  27.601  1.00  0.00     0.066 H 
ATOM     39  C   UNL     1     -47.199  33.444  25.421  1.00  0.00     0.076 A 
ATOM     40  H   UNL     1     -45.666  34.891  25.542  1.00  0.00     0.069 H 
ATOM     41  C   UNL     1     -48.513  33.103  25.795  1.00  0.00     0.001 A 
ATOM     42  H   UNL     1     -50.289  33.727  26.874  1.00  0.00     0.063 H 
ATOM     43  N   UNL     1     -46.432  32.636  24.669  1.00  0.00    -0.231 NA
ATOM     44  C   UNL     1     -49.016  31.876  25.361  1.00  0.00    -0.049 A 
ATOM     45  C   UNL     1     -46.930  31.451  24.246  1.00  0.00     0.129 A 
ATOM     46  C   UNL     1     -48.216  31.043  24.584  1.00  0.00    -0.019 A 
ATOM     47  H   UNL     1     -50.021  31.557  25.624  1.00  0.00     0.063 H 
ATOM     48  H   UNL     1     -48.596  30.082  24.256  1.00  0.00     0.066 H 
BRANCH  45  49
ATOM     49  N   UNL     1     -46.107  30.611  23.472  1.00  0.00    -0.356 N 
ATOM     50  C   UNL     1     -45.652  30.924  22.147  1.00  0.00     0.021 C 
ATOM     51  C   UNL     1     -46.366  29.242  23.133  1.00  0.00     0.021 C 
ATOM     52  C   UNL     1     -45.359  29.428  21.992  1.00  0.00    -0.018 C 
ATOM     53  H   UNL     1     -46.447  31.307  21.498  1.00  0.00     0.049 H 
ATOM     54  H   UNL     1     -44.784  31.585  22.130  1.00  0.00     0.049 H 
ATOM     55  H   UNL     1     -47.399  29.067  22.814  1.00  0.00     0.049 H 
ATOM     56  H   UNL     1     -46.073  28.534  23.911  1.00  0.00     0.049 H 
ATOM     57  H   UNL     1     -44.331  29.141  22.244  1.00  0.00     0.030 H 
ATOM     58  H   UNL     1     -45.638  28.984  21.032  1.00  0.00     0.030 H 
ENDBRANCH  45  49
ENDBRANCH  33  34
ENDBRANCH  30  33
ENDBRANCH   5  30
TORSDOF 8
ENDMDL
