MODEL 1
REMARK VINA RESULT:     -10.7      0.000      0.000
REMARK SMILES Nc1cccc2ccc(CC[C@H]3C[C@@H](n4ccc5c(N)ncnc54)[C@H](O)[C@@H]3O)cc12
REMARK SMILES IDX 11 1 10 4 9 7 2 8 3 9 30 10 4 11 6 13 29 14 5 15 7 17 8 20
REMARK SMILES IDX 1 23 12 26 13 27 27 28 14 30 25 33 28 37 15 39 16 40 24 41
REMARK SMILES IDX 17 42 18 44 23 45 19 47 22 48 21 49 20 51 26 54
REMARK H PARENT 11 2 11 3 10 5 10 6 3 12 4 16 29 18 5 19 7 21 8 22 1 24 1 25
REMARK H PARENT 12 29 13 31 13 32 27 34 14 35 25 36 28 38 16 43 17 46 22 50
REMARK H PARENT 20 52 20 53 26 55
REMARK Flexibility Score: inf
ROOT
ATOM      1  C   UNL     1     -47.127  35.554  28.023  1.00  0.00    -0.044 C 
ATOM      2  H   UNL     1     -48.210  35.369  28.064  1.00  0.00     0.027 H 
ATOM      3  H   UNL     1     -46.700  34.923  28.811  1.00  0.00     0.027 H 
ENDROOT
BRANCH   1   4
ATOM      4  C   UNL     1     -46.675  35.065  26.641  1.00  0.00    -0.028 C 
ATOM      5  H   UNL     1     -46.784  35.898  25.932  1.00  0.00     0.032 H 
ATOM      6  H   UNL     1     -45.599  34.856  26.676  1.00  0.00     0.032 H 
BRANCH   4   7
ATOM      7  C   UNL     1     -47.415  33.891  26.050  1.00  0.00    -0.047 A 
ATOM      8  C   UNL     1     -46.738  31.036  23.646  1.00  0.00     0.039 A 
ATOM      9  C   UNL     1     -47.416  29.902  23.180  1.00  0.00    -0.039 A 
ATOM     10  C   UNL     1     -47.384  31.921  24.553  1.00  0.00     0.005 A 
ATOM     11  C   UNL     1     -48.750  29.683  23.509  1.00  0.00    -0.060 A 
ATOM     12  H   UNL     1     -46.901  29.195  22.534  1.00  0.00     0.064 H 
ATOM     13  C   UNL     1     -48.746  31.694  24.872  1.00  0.00    -0.016 A 
ATOM     14  C   UNL     1     -46.745  33.025  25.166  1.00  0.00    -0.049 A 
ATOM     15  C   UNL     1     -49.412  30.581  24.339  1.00  0.00    -0.054 A 
ATOM     16  H   UNL     1     -49.270  28.811  23.120  1.00  0.00     0.062 H 
ATOM     17  C   UNL     1     -49.420  32.577  25.730  1.00  0.00    -0.054 A 
ATOM     18  H   UNL     1     -45.696  33.222  24.961  1.00  0.00     0.063 H 
ATOM     19  H   UNL     1     -50.456  30.394  24.584  1.00  0.00     0.063 H 
ATOM     20  C   UNL     1     -48.768  33.671  26.299  1.00  0.00    -0.058 A 
ATOM     21  H   UNL     1     -50.471  32.417  25.965  1.00  0.00     0.063 H 
ATOM     22  H   UNL     1     -49.330  34.340  26.946  1.00  0.00     0.063 H 
BRANCH   8  23
ATOM     23  N   UNL     1     -45.355  31.115  23.355  1.00  0.00    -0.398 N 
ATOM     24  H   UNL     1     -45.005  32.048  23.564  1.00  0.00     0.156 HD
ATOM     25  H   UNL     1     -45.157  30.892  22.384  1.00  0.00     0.156 HD
ENDBRANCH   8  23
ENDBRANCH   4   7
ENDBRANCH   1   4
BRANCH   1  26
ATOM     26  C   UNL     1     -46.919  37.032  28.388  1.00  0.00    -0.010 C 
ATOM     27  C   UNL     1     -45.559  37.616  28.008  1.00  0.00    -0.024 C 
ATOM     28  C   UNL     1     -47.878  38.059  27.784  1.00  0.00     0.085 C 
ATOM     29  H   UNL     1     -47.004  37.079  29.485  1.00  0.00     0.033 H 
ATOM     30  C   UNL     1     -45.731  39.115  28.309  1.00  0.00     0.064 C 
ATOM     31  H   UNL     1     -44.747  37.181  28.600  1.00  0.00     0.029 H 
ATOM     32  H   UNL     1     -45.328  37.441  26.955  1.00  0.00     0.029 H 
ATOM     33  C   UNL     1     -47.238  39.418  28.137  1.00  0.00     0.101 C 
ATOM     34  H   UNL     1     -47.937  37.963  26.698  1.00  0.00     0.063 H 
ATOM     35  H   UNL     1     -45.467  39.276  29.365  1.00  0.00     0.056 H 
ATOM     36  H   UNL     1     -47.478  40.171  27.380  1.00  0.00     0.065 H 
BRANCH  28  37
ATOM     37  O   UNL     1     -49.183  37.929  28.330  1.00  0.00    -0.390 OA
ATOM     38  H   UNL     1     -49.495  38.849  28.463  1.00  0.00     0.211 HD
ENDBRANCH  28  37
BRANCH  30  39
ATOM     39  N   UNL     1     -44.845  39.974  27.545  1.00  0.00    -0.327 N 
ATOM     40  C   UNL     1     -45.077  40.381  26.252  1.00  0.00     0.007 A 
ATOM     41  C   UNL     1     -43.668  40.523  27.992  1.00  0.00     0.145 A 
ATOM     42  C   UNL     1     -44.041  41.209  25.875  1.00  0.00    -0.031 A 
ATOM     43  H   UNL     1     -45.960  40.064  25.711  1.00  0.00     0.082 H 
ATOM     44  C   UNL     1     -43.145  41.307  26.973  1.00  0.00     0.061 A 
ATOM     45  N   UNL     1     -43.129  40.332  29.208  1.00  0.00    -0.218 NA
ATOM     46  H   UNL     1     -43.945  41.702  24.917  1.00  0.00     0.065 H 
ATOM     47  C   UNL     1     -41.941  41.971  27.245  1.00  0.00     0.136 A 
ATOM     48  C   UNL     1     -41.991  41.034  29.356  1.00  0.00     0.120 A 
ATOM     49  N   UNL     1     -41.371  41.819  28.453  1.00  0.00    -0.219 NA
ATOM     50  H   UNL     1     -41.504  40.952  30.323  1.00  0.00     0.106 H 
BRANCH  47  51
ATOM     51  N   UNL     1     -41.284  42.778  26.326  1.00  0.00    -0.383 N 
ATOM     52  H   UNL     1     -40.289  42.797  26.521  1.00  0.00     0.158 HD
ATOM     53  H   UNL     1     -41.552  42.632  25.364  1.00  0.00     0.158 HD
ENDBRANCH  47  51
ENDBRANCH  30  39
BRANCH  33  54
ATOM     54  O   UNL     1     -47.797  39.879  29.383  1.00  0.00    -0.388 OA
ATOM     55  H   UNL     1     -48.764  39.915  29.259  1.00  0.00     0.211 HD
ENDBRANCH  33  54
ENDBRANCH   1  26
TORSDOF 8
ENDMDL
MODEL 2
REMARK VINA RESULT:     -10.1      2.484      9.989
REMARK SMILES Nc1cccc2ccc(CC[C@H]3C[C@@H](n4ccc5c(N)ncnc54)[C@H](O)[C@@H]3O)cc12
REMARK SMILES IDX 11 1 10 4 9 7 2 8 3 9 30 10 4 11 6 13 29 14 5 15 7 17 8 20
REMARK SMILES IDX 1 23 12 26 13 27 27 28 14 30 25 33 28 37 15 39 16 40 24 41
REMARK SMILES IDX 17 42 18 44 23 45 19 47 22 48 21 49 20 51 26 54
REMARK H PARENT 11 2 11 3 10 5 10 6 3 12 4 16 29 18 5 19 7 21 8 22 1 24 1 25
REMARK H PARENT 12 29 13 31 13 32 27 34 14 35 25 36 28 38 16 43 17 46 22 50
REMARK H PARENT 20 52 20 53 26 55
REMARK Flexibility Score: inf
ROOT
ATOM      1  C   UNL     1     -47.725  36.194  27.110  1.00  0.00    -0.044 C 
ATOM      2  H   UNL     1     -48.740  36.365  26.723  1.00  0.00     0.027 H 
ATOM      3  H   UNL     1     -47.060  36.698  26.399  1.00  0.00     0.027 H 
ENDROOT
BRANCH   1   4
ATOM      4  C   UNL     1     -47.679  36.894  28.475  1.00  0.00    -0.028 C 
ATOM      5  H   UNL     1     -48.529  37.588  28.531  1.00  0.00     0.032 H 
ATOM      6  H   UNL     1     -47.863  36.150  29.259  1.00  0.00     0.032 H 
BRANCH   4   7
ATOM      7  C   UNL     1     -46.442  37.694  28.798  1.00  0.00    -0.047 A 
ATOM      8  C   UNL     1     -44.309  40.387  27.190  1.00  0.00     0.039 A 
ATOM      9  C   UNL     1     -43.211  41.180  27.549  1.00  0.00    -0.039 A 
ATOM     10  C   UNL     1     -44.809  39.419  28.105  1.00  0.00     0.005 A 
ATOM     11  C   UNL     1     -42.537  40.965  28.746  1.00  0.00    -0.060 A 
ATOM     12  H   UNL     1     -42.867  41.960  26.874  1.00  0.00     0.064 H 
ATOM     13  C   UNL     1     -44.108  39.200  29.316  1.00  0.00    -0.016 A 
ATOM     14  C   UNL     1     -45.978  38.654  27.879  1.00  0.00    -0.049 A 
ATOM     15  C   UNL     1     -42.976  39.972  29.617  1.00  0.00    -0.054 A 
ATOM     16  H   UNL     1     -41.672  41.572  29.001  1.00  0.00     0.062 H 
ATOM     17  C   UNL     1     -44.555  38.220  30.216  1.00  0.00    -0.054 A 
ATOM     18  H   UNL     1     -46.554  38.805  26.970  1.00  0.00     0.063 H 
ATOM     19  H   UNL     1     -42.435  39.817  30.548  1.00  0.00     0.063 H 
ATOM     20  C   UNL     1     -45.698  37.465  29.954  1.00  0.00    -0.058 A 
ATOM     21  H   UNL     1     -44.010  38.037  31.140  1.00  0.00     0.063 H 
ATOM     22  H   UNL     1     -46.002  36.706  30.670  1.00  0.00     0.063 H 
BRANCH   8  23
ATOM     23  N   UNL     1     -45.000  40.753  26.010  1.00  0.00    -0.398 N 
ATOM     24  H   UNL     1     -45.970  40.449  26.063  1.00  0.00     0.156 HD
ATOM     25  H   UNL     1     -44.570  40.359  25.179  1.00  0.00     0.156 HD
ENDBRANCH   8  23
ENDBRANCH   4   7
ENDBRANCH   1   4
BRANCH   1  26
ATOM     26  C   UNL     1     -47.480  34.679  27.049  1.00  0.00    -0.010 C 
ATOM     27  C   UNL     1     -48.088  33.965  25.842  1.00  0.00    -0.024 C 
ATOM     28  C   UNL     1     -46.032  34.190  27.003  1.00  0.00     0.085 C 
ATOM     29  H   UNL     1     -47.958  34.266  27.952  1.00  0.00     0.033 H 
ATOM     30  C   UNL     1     -47.513  32.542  25.958  1.00  0.00     0.064 C 
ATOM     31  H   UNL     1     -49.182  33.956  25.880  1.00  0.00     0.029 H 
ATOM     32  H   UNL     1     -47.795  34.443  24.905  1.00  0.00     0.029 H 
ATOM     33  C   UNL     1     -46.157  32.685  26.688  1.00  0.00     0.101 C 
ATOM     34  H   UNL     1     -45.469  34.677  26.202  1.00  0.00     0.063 H 
ATOM     35  H   UNL     1     -48.190  31.960  26.601  1.00  0.00     0.056 H 
ATOM     36  H   UNL     1     -45.287  32.329  26.128  1.00  0.00     0.065 H 
BRANCH  28  37
ATOM     37  O   UNL     1     -45.370  34.422  28.238  1.00  0.00    -0.390 OA
ATOM     38  H   UNL     1     -44.432  34.574  27.997  1.00  0.00     0.211 HD
ENDBRANCH  28  37
BRANCH  30  39
ATOM     39  N   UNL     1     -47.453  31.828  24.696  1.00  0.00    -0.327 N 
ATOM     40  C   UNL     1     -46.297  31.584  23.991  1.00  0.00     0.007 A 
ATOM     41  C   UNL     1     -48.519  31.274  24.030  1.00  0.00     0.145 A 
ATOM     42  C   UNL     1     -46.630  30.855  22.869  1.00  0.00    -0.031 A 
ATOM     43  H   UNL     1     -45.336  31.931  24.348  1.00  0.00     0.082 H 
ATOM     44  C   UNL     1     -48.036  30.653  22.887  1.00  0.00     0.061 A 
ATOM     45  N   UNL     1     -49.802  31.327  24.426  1.00  0.00    -0.218 NA
ATOM     46  H   UNL     1     -45.935  30.495  22.122  1.00  0.00     0.065 H 
ATOM     47  C   UNL     1     -48.979  30.009  22.074  1.00  0.00     0.136 A 
ATOM     48  C   UNL     1     -50.607  30.661  23.580  1.00  0.00     0.120 A 
ATOM     49  N   UNL     1     -50.274  30.026  22.438  1.00  0.00    -0.219 NA
ATOM     50  H   UNL     1     -51.659  30.636  23.843  1.00  0.00     0.106 H 
BRANCH  47  51
ATOM     51  N   UNL     1     -48.658  29.357  20.891  1.00  0.00    -0.383 N 
ATOM     52  H   UNL     1     -49.427  29.419  20.234  1.00  0.00     0.158 HD
ATOM     53  H   UNL     1     -47.738  29.562  20.529  1.00  0.00     0.158 HD
ENDBRANCH  47  51
ENDBRANCH  30  39
BRANCH  33  54
ATOM     54  O   UNL     1     -46.185  31.957  27.932  1.00  0.00    -0.388 OA
ATOM     55  H   UNL     1     -46.694  32.501  28.562  1.00  0.00     0.211 HD
ENDBRANCH  33  54
ENDBRANCH   1  26
TORSDOF 8
ENDMDL
MODEL 3
REMARK VINA RESULT:     -10.1      2.301      9.593
REMARK SMILES Nc1cccc2ccc(CC[C@H]3C[C@@H](n4ccc5c(N)ncnc54)[C@H](O)[C@@H]3O)cc12
REMARK SMILES IDX 11 1 10 4 9 7 2 8 3 9 30 10 4 11 6 13 29 14 5 15 7 17 8 20
REMARK SMILES IDX 1 23 12 26 13 27 27 28 14 30 25 33 28 37 15 39 16 40 24 41
REMARK SMILES IDX 17 42 18 44 23 45 19 47 22 48 21 49 20 51 26 54
REMARK H PARENT 11 2 11 3 10 5 10 6 3 12 4 16 29 18 5 19 7 21 8 22 1 24 1 25
REMARK H PARENT 12 29 13 31 13 32 27 34 14 35 25 36 28 38 16 43 17 46 22 50
REMARK H PARENT 20 52 20 53 26 55
REMARK Flexibility Score: inf
ROOT
ATOM      1  C   UNL     1     -47.710  37.495  27.761  1.00  0.00    -0.044 C 
ATOM      2  H   UNL     1     -47.340  37.944  28.694  1.00  0.00     0.027 H 
ATOM      3  H   UNL     1     -48.797  37.634  27.789  1.00  0.00     0.027 H 
ENDROOT
BRANCH   1   4
ATOM      4  C   UNL     1     -47.092  38.326  26.629  1.00  0.00    -0.028 C 
ATOM      5  H   UNL     1     -46.766  37.637  25.838  1.00  0.00     0.032 H 
ATOM      6  H   UNL     1     -47.879  38.938  26.171  1.00  0.00     0.032 H 
BRANCH   4   7
ATOM      7  C   UNL     1     -45.902  39.186  26.976  1.00  0.00    -0.047 A 
ATOM      8  C   UNL     1     -43.367  39.519  29.778  1.00  0.00     0.039 A 
ATOM      9  C   UNL     1     -42.213  40.269  30.035  1.00  0.00    -0.039 A 
ATOM     10  C   UNL     1     -44.091  39.730  28.571  1.00  0.00     0.005 A 
ATOM     11  C   UNL     1     -41.820  41.292  29.178  1.00  0.00    -0.060 A 
ATOM     12  H   UNL     1     -41.627  40.066  30.929  1.00  0.00     0.064 H 
ATOM     13  C   UNL     1     -43.688  40.781  27.711  1.00  0.00    -0.016 A 
ATOM     14  C   UNL     1     -45.198  38.945  28.169  1.00  0.00    -0.049 A 
ATOM     15  C   UNL     1     -42.562  41.553  28.031  1.00  0.00    -0.054 A 
ATOM     16  H   UNL     1     -40.936  41.882  29.404  1.00  0.00     0.062 H 
ATOM     17  C   UNL     1     -44.412  41.040  26.536  1.00  0.00    -0.054 A 
ATOM     18  H   UNL     1     -45.526  38.117  28.793  1.00  0.00     0.063 H 
ATOM     19  H   UNL     1     -42.241  42.358  27.373  1.00  0.00     0.063 H 
ATOM     20  C   UNL     1     -45.514  40.263  26.180  1.00  0.00    -0.058 A 
ATOM     21  H   UNL     1     -44.117  41.857  25.880  1.00  0.00     0.063 H 
ATOM     22  H   UNL     1     -46.056  40.505  25.269  1.00  0.00     0.063 H 
BRANCH   8  23
ATOM     23  N   UNL     1     -43.623  38.427  30.641  1.00  0.00    -0.398 N 
ATOM     24  H   UNL     1     -44.605  38.412  30.906  1.00  0.00     0.156 HD
ATOM     25  H   UNL     1     -43.051  38.462  31.479  1.00  0.00     0.156 HD
ENDBRANCH   8  23
ENDBRANCH   4   7
ENDBRANCH   1   4
BRANCH   1  26
ATOM     26  C   UNL     1     -47.388  35.995  27.836  1.00  0.00    -0.010 C 
ATOM     27  C   UNL     1     -47.844  35.166  26.636  1.00  0.00    -0.024 C 
ATOM     28  C   UNL     1     -45.920  35.584  27.957  1.00  0.00     0.085 C 
ATOM     29  H   UNL     1     -47.928  35.622  28.721  1.00  0.00     0.033 H 
ATOM     30  C   UNL     1     -47.215  33.788  26.910  1.00  0.00     0.064 C 
ATOM     31  H   UNL     1     -48.936  35.100  26.576  1.00  0.00     0.029 H 
ATOM     32  H   UNL     1     -47.488  35.592  25.696  1.00  0.00     0.029 H 
ATOM     33  C   UNL     1     -45.942  34.056  27.747  1.00  0.00     0.101 C 
ATOM     34  H   UNL     1     -45.309  36.044  27.177  1.00  0.00     0.063 H 
ATOM     35  H   UNL     1     -47.921  33.216  27.531  1.00  0.00     0.056 H 
ATOM     36  H   UNL     1     -45.008  33.709  27.296  1.00  0.00     0.065 H 
BRANCH  28  37
ATOM     37  O   UNL     1     -45.388  35.938  29.226  1.00  0.00    -0.390 OA
ATOM     38  H   UNL     1     -46.110  35.752  29.863  1.00  0.00     0.211 HD
ENDBRANCH  28  37
BRANCH  30  39
ATOM     39  N   UNL     1     -47.003  32.991  25.716  1.00  0.00    -0.327 N 
ATOM     40  C   UNL     1     -46.167  33.343  24.681  1.00  0.00     0.007 A 
ATOM     41  C   UNL     1     -47.576  31.773  25.445  1.00  0.00     0.145 A 
ATOM     42  C   UNL     1     -46.200  32.330  23.746  1.00  0.00    -0.031 A 
ATOM     43  H   UNL     1     -45.609  34.270  24.698  1.00  0.00     0.082 H 
ATOM     44  C   UNL     1     -47.088  31.329  24.224  1.00  0.00     0.061 A 
ATOM     45  N   UNL     1     -48.452  31.129  26.235  1.00  0.00    -0.218 NA
ATOM     46  H   UNL     1     -45.635  32.305  22.824  1.00  0.00     0.065 H 
ATOM     47  C   UNL     1     -47.548  30.083  23.778  1.00  0.00     0.136 A 
ATOM     48  C   UNL     1     -48.804  29.940  25.712  1.00  0.00     0.120 A 
ATOM     49  N   UNL     1     -48.417  29.396  24.541  1.00  0.00    -0.219 NA
ATOM     50  H   UNL     1     -49.493  29.345  26.303  1.00  0.00     0.106 H 
BRANCH  47  51
ATOM     51  N   UNL     1     -47.167  29.509  22.572  1.00  0.00    -0.383 N 
ATOM     52  H   UNL     1     -47.362  28.515  22.577  1.00  0.00     0.158 HD
ATOM     53  H   UNL     1     -47.453  30.021  21.750  1.00  0.00     0.158 HD
ENDBRANCH  47  51
ENDBRANCH  30  39
BRANCH  33  54
ATOM     54  O   UNL     1     -46.052  33.417  29.034  1.00  0.00    -0.388 OA
ATOM     55  H   UNL     1     -45.750  32.497  28.916  1.00  0.00     0.211 HD
ENDBRANCH  33  54
ENDBRANCH   1  26
TORSDOF 8
ENDMDL
MODEL 4
REMARK VINA RESULT:      -9.6      2.785     10.435
REMARK SMILES Nc1cccc2ccc(CC[C@H]3C[C@@H](n4ccc5c(N)ncnc54)[C@H](O)[C@@H]3O)cc12
REMARK SMILES IDX 11 1 10 4 9 7 2 8 3 9 30 10 4 11 6 13 29 14 5 15 7 17 8 20
REMARK SMILES IDX 1 23 12 26 13 27 27 28 14 30 25 33 28 37 15 39 16 40 24 41
REMARK SMILES IDX 17 42 18 44 23 45 19 47 22 48 21 49 20 51 26 54
REMARK H PARENT 11 2 11 3 10 5 10 6 3 12 4 16 29 18 5 19 7 21 8 22 1 24 1 25
REMARK H PARENT 12 29 13 31 13 32 27 34 14 35 25 36 28 38 16 43 17 46 22 50
REMARK H PARENT 20 52 20 53 26 55
REMARK Flexibility Score: inf
ROOT
ATOM      1  C   UNL     1     -48.272  35.813  26.654  1.00  0.00    -0.044 C 
ATOM      2  H   UNL     1     -49.338  35.905  26.400  1.00  0.00     0.027 H 
ATOM      3  H   UNL     1     -47.736  36.225  25.791  1.00  0.00     0.027 H 
ENDROOT
BRANCH   1   4
ATOM      4  C   UNL     1     -48.064  36.700  27.888  1.00  0.00    -0.028 C 
ATOM      5  H   UNL     1     -48.997  37.250  28.075  1.00  0.00     0.032 H 
ATOM      6  H   UNL     1     -47.928  36.057  28.766  1.00  0.00     0.032 H 
BRANCH   4   7
ATOM      7  C   UNL     1     -46.960  37.727  27.821  1.00  0.00    -0.047 A 
ATOM      8  C   UNL     1     -44.064  38.918  29.962  1.00  0.00     0.039 A 
ATOM      9  C   UNL     1     -42.996  39.815  29.838  1.00  0.00    -0.039 A 
ATOM     10  C   UNL     1     -45.000  38.784  28.898  1.00  0.00     0.005 A 
ATOM     11  C   UNL     1     -42.893  40.655  28.733  1.00  0.00    -0.060 A 
ATOM     12  H   UNL     1     -42.248  39.873  30.625  1.00  0.00     0.064 H 
ATOM     13  C   UNL     1     -44.892  39.652  27.783  1.00  0.00    -0.016 A 
ATOM     14  C   UNL     1     -46.042  37.826  28.882  1.00  0.00    -0.049 A 
ATOM     15  C   UNL     1     -43.843  40.581  27.720  1.00  0.00    -0.054 A 
ATOM     16  H   UNL     1     -42.072  41.363  28.662  1.00  0.00     0.062 H 
ATOM     17  C   UNL     1     -45.828  39.571  26.740  1.00  0.00    -0.054 A 
ATOM     18  H   UNL     1     -46.147  37.131  29.711  1.00  0.00     0.063 H 
ATOM     19  H   UNL     1     -43.747  41.246  26.864  1.00  0.00     0.063 H 
ATOM     20  C   UNL     1     -46.859  38.631  26.766  1.00  0.00    -0.058 A 
ATOM     21  H   UNL     1     -45.760  40.246  25.889  1.00  0.00     0.063 H 
ATOM     22  H   UNL     1     -47.572  38.611  25.945  1.00  0.00     0.063 H 
BRANCH   8  23
ATOM     23  N   UNL     1     -44.024  38.027  31.060  1.00  0.00    -0.398 N 
ATOM     24  H   UNL     1     -44.885  38.093  31.599  1.00  0.00     0.156 HD
ATOM     25  H   UNL     1     -43.232  38.210  31.670  1.00  0.00     0.156 HD
ENDBRANCH   8  23
ENDBRANCH   4   7
ENDBRANCH   1   4
BRANCH   1  26
ATOM     26  C   UNL     1     -47.974  34.310  26.767  1.00  0.00    -0.010 C 
ATOM     27  C   UNL     1     -48.927  33.394  26.000  1.00  0.00    -0.024 C 
ATOM     28  C   UNL     1     -46.611  33.813  26.284  1.00  0.00     0.085 C 
ATOM     29  H   UNL     1     -48.074  34.069  27.837  1.00  0.00     0.033 H 
ATOM     30  C   UNL     1     -48.265  32.012  26.140  1.00  0.00     0.064 C 
ATOM     31  H   UNL     1     -49.934  33.398  26.432  1.00  0.00     0.029 H 
ATOM     32  H   UNL     1     -49.017  33.694  24.954  1.00  0.00     0.029 H 
ATOM     33  C   UNL     1     -46.748  32.277  26.296  1.00  0.00     0.101 C 
ATOM     34  H   UNL     1     -46.400  34.146  25.265  1.00  0.00     0.063 H 
ATOM     35  H   UNL     1     -48.632  31.558  27.073  1.00  0.00     0.056 H 
ATOM     36  H   UNL     1     -46.115  31.822  25.529  1.00  0.00     0.065 H 
BRANCH  28  37
ATOM     37  O   UNL     1     -45.567  34.260  27.139  1.00  0.00    -0.390 OA
ATOM     38  H   UNL     1     -46.023  34.604  27.935  1.00  0.00     0.211 HD
ENDBRANCH  28  37
BRANCH  30  39
ATOM     39  N   UNL     1     -48.615  31.082  25.083  1.00  0.00    -0.327 N 
ATOM     40  C   UNL     1     -48.906  31.446  23.788  1.00  0.00     0.007 A 
ATOM     41  C   UNL     1     -48.689  29.716  25.200  1.00  0.00     0.145 A 
ATOM     42  C   UNL     1     -49.157  30.296  23.070  1.00  0.00    -0.031 A 
ATOM     43  H   UNL     1     -48.898  32.484  23.479  1.00  0.00     0.082 H 
ATOM     44  C   UNL     1     -49.019  29.195  23.956  1.00  0.00     0.061 A 
ATOM     45  N   UNL     1     -48.474  29.015  26.325  1.00  0.00    -0.218 NA
ATOM     46  H   UNL     1     -49.400  30.251  22.016  1.00  0.00     0.065 H 
ATOM     47  C   UNL     1     -49.126  27.800  23.867  1.00  0.00     0.136 A 
ATOM     48  C   UNL     1     -48.585  27.692  26.111  1.00  0.00     0.120 A 
ATOM     49  N   UNL     1     -48.907  27.057  24.966  1.00  0.00    -0.219 NA
ATOM     50  H   UNL     1     -48.402  27.053  26.968  1.00  0.00     0.106 H 
BRANCH  47  51
ATOM     51  N   UNL     1     -49.464  27.128  22.699  1.00  0.00    -0.383 N 
ATOM     52  H   UNL     1     -48.641  26.704  22.286  1.00  0.00     0.158 HD
ATOM     53  H   UNL     1     -50.286  26.546  22.767  1.00  0.00     0.158 HD
ENDBRANCH  47  51
ENDBRANCH  30  39
BRANCH  33  54
ATOM     54  O   UNL     1     -46.288  31.785  27.570  1.00  0.00    -0.388 OA
ATOM     55  H   UNL     1     -46.598  32.420  28.243  1.00  0.00     0.211 HD
ENDBRANCH  33  54
ENDBRANCH   1  26
TORSDOF 8
ENDMDL
MODEL 5
REMARK VINA RESULT:      -9.6      2.117      2.789
REMARK SMILES Nc1cccc2ccc(CC[C@H]3C[C@@H](n4ccc5c(N)ncnc54)[C@H](O)[C@@H]3O)cc12
REMARK SMILES IDX 11 1 10 4 9 7 2 8 3 9 30 10 4 11 6 13 29 14 5 15 7 17 8 20
REMARK SMILES IDX 1 23 12 26 13 27 27 28 14 30 25 33 28 37 15 39 16 40 24 41
REMARK SMILES IDX 17 42 18 44 23 45 19 47 22 48 21 49 20 51 26 54
REMARK H PARENT 11 2 11 3 10 5 10 6 3 12 4 16 29 18 5 19 7 21 8 22 1 24 1 25
REMARK H PARENT 12 29 13 31 13 32 27 34 14 35 25 36 28 38 16 43 17 46 22 50
REMARK H PARENT 20 52 20 53 26 55
REMARK Flexibility Score: inf
ROOT
ATOM      1  C   UNL     1     -45.905  34.686  27.676  1.00  0.00    -0.044 C 
ATOM      2  H   UNL     1     -46.828  34.309  28.140  1.00  0.00     0.027 H 
ATOM      3  H   UNL     1     -45.114  34.012  28.025  1.00  0.00     0.027 H 
ENDROOT
BRANCH   1   4
ATOM      4  C   UNL     1     -46.110  34.533  26.163  1.00  0.00    -0.028 C 
ATOM      5  H   UNL     1     -46.599  35.444  25.791  1.00  0.00     0.032 H 
ATOM      6  H   UNL     1     -45.128  34.514  25.675  1.00  0.00     0.032 H 
BRANCH   4   7
ATOM      7  C   UNL     1     -46.946  33.368  25.695  1.00  0.00    -0.047 A 
ATOM      8  C   UNL     1     -46.621  30.413  23.340  1.00  0.00     0.039 A 
ATOM      9  C   UNL     1     -47.382  29.290  22.988  1.00  0.00    -0.039 A 
ATOM     10  C   UNL     1     -47.139  31.351  24.276  1.00  0.00     0.005 A 
ATOM     11  C   UNL     1     -48.680  29.131  23.461  1.00  0.00    -0.060 A 
ATOM     12  H   UNL     1     -46.961  28.543  22.319  1.00  0.00     0.064 H 
ATOM     13  C   UNL     1     -48.466  31.185  24.742  1.00  0.00    -0.016 A 
ATOM     14  C   UNL     1     -46.402  32.449  24.779  1.00  0.00    -0.049 A 
ATOM     15  C   UNL     1     -49.222  30.081  24.322  1.00  0.00    -0.054 A 
ATOM     16  H   UNL     1     -49.267  28.268  23.160  1.00  0.00     0.062 H 
ATOM     17  C   UNL     1     -49.017  32.121  25.632  1.00  0.00    -0.054 A 
ATOM     18  H   UNL     1     -45.374  32.600  24.460  1.00  0.00     0.063 H 
ATOM     19  H   UNL     1     -50.240  29.941  24.680  1.00  0.00     0.063 H 
ATOM     20  C   UNL     1     -48.273  33.207  26.091  1.00  0.00    -0.058 A 
ATOM     21  H   UNL     1     -50.042  32.008  25.980  1.00  0.00     0.063 H 
ATOM     22  H   UNL     1     -48.741  33.917  26.768  1.00  0.00     0.063 H 
BRANCH   8  23
ATOM     23  N   UNL     1     -45.274  30.431  22.905  1.00  0.00    -0.398 N 
ATOM     24  H   UNL     1     -45.227  30.282  21.900  1.00  0.00     0.156 HD
ATOM     25  H   UNL     1     -44.713  29.727  23.375  1.00  0.00     0.156 HD
ENDBRANCH   8  23
ENDBRANCH   4   7
ENDBRANCH   1   4
BRANCH   1  26
ATOM     26  C   UNL     1     -45.666  36.090  28.251  1.00  0.00    -0.010 C 
ATOM     27  C   UNL     1     -45.918  37.246  27.284  1.00  0.00    -0.024 C 
ATOM     28  C   UNL     1     -46.493  36.516  29.466  1.00  0.00     0.085 C 
ATOM     29  H   UNL     1     -44.601  36.118  28.528  1.00  0.00     0.033 H 
ATOM     30  C   UNL     1     -45.795  38.486  28.188  1.00  0.00     0.064 C 
ATOM     31  H   UNL     1     -45.182  37.269  26.473  1.00  0.00     0.029 H 
ATOM     32  H   UNL     1     -46.908  37.178  26.827  1.00  0.00     0.029 H 
ATOM     33  C   UNL     1     -46.196  38.023  29.608  1.00  0.00     0.101 C 
ATOM     34  H   UNL     1     -47.563  36.376  29.292  1.00  0.00     0.063 H 
ATOM     35  H   UNL     1     -44.735  38.779  28.209  1.00  0.00     0.056 H 
ATOM     36  H   UNL     1     -47.050  38.550  30.045  1.00  0.00     0.065 H 
BRANCH  28  37
ATOM     37  O   UNL     1     -46.116  35.788  30.626  1.00  0.00    -0.390 OA
ATOM     38  H   UNL     1     -46.918  35.287  30.882  1.00  0.00     0.211 HD
ENDBRANCH  28  37
BRANCH  30  39
ATOM     39  N   UNL     1     -46.517  39.645  27.697  1.00  0.00    -0.327 N 
ATOM     40  C   UNL     1     -47.829  39.932  27.996  1.00  0.00     0.007 A 
ATOM     41  C   UNL     1     -46.007  40.632  26.890  1.00  0.00     0.145 A 
ATOM     42  C   UNL     1     -48.154  41.122  27.381  1.00  0.00    -0.031 A 
ATOM     43  H   UNL     1     -48.418  39.280  28.629  1.00  0.00     0.082 H 
ATOM     44  C   UNL     1     -47.004  41.575  26.680  1.00  0.00     0.061 A 
ATOM     45  N   UNL     1     -44.757  40.672  26.398  1.00  0.00    -0.218 NA
ATOM     46  H   UNL     1     -49.112  41.621  27.441  1.00  0.00     0.065 H 
ATOM     47  C   UNL     1     -46.669  42.680  25.886  1.00  0.00     0.136 A 
ATOM     48  C   UNL     1     -44.549  41.784  25.671  1.00  0.00     0.120 A 
ATOM     49  N   UNL     1     -45.425  42.767  25.382  1.00  0.00    -0.219 NA
ATOM     50  H   UNL     1     -43.553  41.904  25.257  1.00  0.00     0.106 H 
BRANCH  47  51
ATOM     51  N   UNL     1     -47.558  43.698  25.571  1.00  0.00    -0.383 N 
ATOM     52  H   UNL     1     -48.414  43.313  25.188  1.00  0.00     0.158 HD
ATOM     53  H   UNL     1     -47.660  44.408  26.281  1.00  0.00     0.158 HD
ENDBRANCH  47  51
ENDBRANCH  30  39
BRANCH  33  54
ATOM     54  O   UNL     1     -45.089  38.189  30.515  1.00  0.00    -0.388 OA
ATOM     55  H   UNL     1     -44.477  37.448  30.347  1.00  0.00     0.211 HD
ENDBRANCH  33  54
ENDBRANCH   1  26
TORSDOF 8
ENDMDL
MODEL 6
REMARK VINA RESULT:      -9.6      2.215     10.032
REMARK SMILES Nc1cccc2ccc(CC[C@H]3C[C@@H](n4ccc5c(N)ncnc54)[C@H](O)[C@@H]3O)cc12
REMARK SMILES IDX 11 1 10 4 9 7 2 8 3 9 30 10 4 11 6 13 29 14 5 15 7 17 8 20
REMARK SMILES IDX 1 23 12 26 13 27 27 28 14 30 25 33 28 37 15 39 16 40 24 41
REMARK SMILES IDX 17 42 18 44 23 45 19 47 22 48 21 49 20 51 26 54
REMARK H PARENT 11 2 11 3 10 5 10 6 3 12 4 16 29 18 5 19 7 21 8 22 1 24 1 25
REMARK H PARENT 12 29 13 31 13 32 27 34 14 35 25 36 28 38 16 43 17 46 22 50
REMARK H PARENT 20 52 20 53 26 55
REMARK Flexibility Score: inf
ROOT
ATOM      1  C   UNL     1     -47.285  36.500  26.739  1.00  0.00    -0.044 C 
ATOM      2  H   UNL     1     -48.327  36.826  26.608  1.00  0.00     0.027 H 
ATOM      3  H   UNL     1     -46.775  36.795  25.815  1.00  0.00     0.027 H 
ENDROOT
BRANCH   1   4
ATOM      4  C   UNL     1     -46.747  37.304  27.930  1.00  0.00    -0.028 C 
ATOM      5  H   UNL     1     -47.601  37.619  28.544  1.00  0.00     0.032 H 
ATOM      6  H   UNL     1     -46.162  36.634  28.572  1.00  0.00     0.032 H 
BRANCH   4   7
ATOM      7  C   UNL     1     -45.952  38.548  27.618  1.00  0.00    -0.047 A 
ATOM      8  C   UNL     1     -43.023  40.476  29.064  1.00  0.00     0.039 A 
ATOM      9  C   UNL     1     -42.244  41.583  28.705  1.00  0.00    -0.039 A 
ATOM     10  C   UNL     1     -44.107  40.077  28.233  1.00  0.00     0.005 A 
ATOM     11  C   UNL     1     -42.578  42.364  27.603  1.00  0.00    -0.060 A 
ATOM     12  H   UNL     1     -41.379  41.851  29.308  1.00  0.00     0.064 H 
ATOM     13  C   UNL     1     -44.445  40.886  27.120  1.00  0.00    -0.016 A 
ATOM     14  C   UNL     1     -44.877  38.909  28.450  1.00  0.00    -0.049 A 
ATOM     15  C   UNL     1     -43.680  42.024  26.825  1.00  0.00    -0.054 A 
ATOM     16  H   UNL     1     -41.979  43.235  27.351  1.00  0.00     0.062 H 
ATOM     17  C   UNL     1     -45.538  40.540  26.310  1.00  0.00    -0.054 A 
ATOM     18  H   UNL     1     -44.637  38.253  29.283  1.00  0.00     0.063 H 
ATOM     19  H   UNL     1     -43.927  42.647  25.968  1.00  0.00     0.063 H 
ATOM     20  C   UNL     1     -46.293  39.395  26.565  1.00  0.00    -0.058 A 
ATOM     21  H   UNL     1     -45.813  41.167  25.464  1.00  0.00     0.063 H 
ATOM     22  H   UNL     1     -47.140  39.171  25.922  1.00  0.00     0.063 H 
BRANCH   8  23
ATOM     23  N   UNL     1     -42.541  39.677  30.128  1.00  0.00    -0.398 N 
ATOM     24  H   UNL     1     -42.927  38.737  30.064  1.00  0.00     0.156 HD
ATOM     25  H   UNL     1     -42.770  40.072  31.035  1.00  0.00     0.156 HD
ENDBRANCH   8  23
ENDBRANCH   4   7
ENDBRANCH   1   4
BRANCH   1  26
ATOM     26  C   UNL     1     -47.313  34.967  26.836  1.00  0.00    -0.010 C 
ATOM     27  C   UNL     1     -48.364  34.275  25.969  1.00  0.00    -0.024 C 
ATOM     28  C   UNL     1     -46.044  34.203  26.455  1.00  0.00     0.085 C 
ATOM     29  H   UNL     1     -47.552  34.742  27.888  1.00  0.00     0.033 H 
ATOM     30  C   UNL     1     -48.014  32.784  26.126  1.00  0.00     0.064 C 
ATOM     31  H   UNL     1     -49.382  34.483  26.315  1.00  0.00     0.029 H 
ATOM     32  H   UNL     1     -48.299  34.596  24.927  1.00  0.00     0.029 H 
ATOM     33  C   UNL     1     -46.495  32.729  26.415  1.00  0.00     0.101 C 
ATOM     34  H   UNL     1     -45.682  34.494  25.466  1.00  0.00     0.063 H 
ATOM     35  H   UNL     1     -48.546  32.408  27.013  1.00  0.00     0.056 H 
ATOM     36  H   UNL     1     -45.905  32.159  25.691  1.00  0.00     0.065 H 
BRANCH  28  37
ATOM     37  O   UNL     1     -45.009  34.416  27.405  1.00  0.00    -0.390 OA
ATOM     38  H   UNL     1     -44.597  35.267  27.143  1.00  0.00     0.211 HD
ENDBRANCH  28  37
BRANCH  30  39
ATOM     39  N   UNL     1     -48.455  31.957  25.019  1.00  0.00    -0.327 N 
ATOM     40  C   UNL     1     -49.762  31.596  24.787  1.00  0.00     0.007 A 
ATOM     41  C   UNL     1     -47.655  31.431  24.034  1.00  0.00     0.145 A 
ATOM     42  C   UNL     1     -49.796  30.841  23.633  1.00  0.00    -0.031 A 
ATOM     43  H   UNL     1     -50.560  31.914  25.446  1.00  0.00     0.082 H 
ATOM     44  C   UNL     1     -48.465  30.734  23.148  1.00  0.00     0.061 A 
ATOM     45  N   UNL     1     -46.322  31.576  23.950  1.00  0.00    -0.218 NA
ATOM     46  H   UNL     1     -50.684  30.422  23.180  1.00  0.00     0.065 H 
ATOM     47  C   UNL     1     -47.829  30.133  22.054  1.00  0.00     0.136 A 
ATOM     48  C   UNL     1     -45.830  30.974  22.852  1.00  0.00     0.120 A 
ATOM     49  N   UNL     1     -46.496  30.262  21.922  1.00  0.00    -0.219 NA
ATOM     50  H   UNL     1     -44.760  31.066  22.698  1.00  0.00     0.106 H 
BRANCH  47  51
ATOM     51  N   UNL     1     -48.496  29.389  21.090  1.00  0.00    -0.383 N 
ATOM     52  H   UNL     1     -48.287  28.403  21.198  1.00  0.00     0.158 HD
ATOM     53  H   UNL     1     -49.467  29.633  20.962  1.00  0.00     0.158 HD
ENDBRANCH  47  51
ENDBRANCH  30  39
BRANCH  33  54
ATOM     54  O   UNL     1     -46.258  32.141  27.709  1.00  0.00    -0.388 OA
ATOM     55  H   UNL     1     -46.309  31.174  27.590  1.00  0.00     0.211 HD
ENDBRANCH  33  54
ENDBRANCH   1  26
TORSDOF 8
ENDMDL
MODEL 7
REMARK VINA RESULT:      -9.6      2.630     10.172
REMARK SMILES Nc1cccc2ccc(CC[C@H]3C[C@@H](n4ccc5c(N)ncnc54)[C@H](O)[C@@H]3O)cc12
REMARK SMILES IDX 11 1 10 4 9 7 2 8 3 9 30 10 4 11 6 13 29 14 5 15 7 17 8 20
REMARK SMILES IDX 1 23 12 26 13 27 27 28 14 30 25 33 28 37 15 39 16 40 24 41
REMARK SMILES IDX 17 42 18 44 23 45 19 47 22 48 21 49 20 51 26 54
REMARK H PARENT 11 2 11 3 10 5 10 6 3 12 4 16 29 18 5 19 7 21 8 22 1 24 1 25
REMARK H PARENT 12 29 13 31 13 32 27 34 14 35 25 36 28 38 16 43 17 46 22 50
REMARK H PARENT 20 52 20 53 26 55
REMARK Flexibility Score: inf
ROOT
ATOM      1  C   UNL     1     -47.344  35.072  26.443  1.00  0.00    -0.044 C 
ATOM      2  H   UNL     1     -47.778  35.549  25.553  1.00  0.00     0.027 H 
ATOM      3  H   UNL     1     -46.260  35.097  26.280  1.00  0.00     0.027 H 
ENDROOT
BRANCH   1   4
ATOM      4  C   UNL     1     -47.729  35.971  27.625  1.00  0.00    -0.028 C 
ATOM      5  H   UNL     1     -48.538  36.638  27.297  1.00  0.00     0.032 H 
ATOM      6  H   UNL     1     -48.170  35.349  28.412  1.00  0.00     0.032 H 
BRANCH   4   7
ATOM      7  C   UNL     1     -46.648  36.851  28.203  1.00  0.00    -0.047 A 
ATOM      8  C   UNL     1     -44.604  39.876  27.174  1.00  0.00     0.039 A 
ATOM      9  C   UNL     1     -43.666  40.731  27.765  1.00  0.00    -0.039 A 
ATOM     10  C   UNL     1     -45.128  38.781  27.918  1.00  0.00     0.005 A 
ATOM     11  C   UNL     1     -43.158  40.467  29.033  1.00  0.00    -0.060 A 
ATOM     12  H   UNL     1     -43.312  41.602  27.218  1.00  0.00     0.064 H 
ATOM     13  C   UNL     1     -44.595  38.515  29.203  1.00  0.00    -0.016 A 
ATOM     14  C   UNL     1     -46.160  37.934  27.449  1.00  0.00    -0.049 A 
ATOM     15  C   UNL     1     -43.612  39.358  29.740  1.00  0.00    -0.054 A 
ATOM     16  H   UNL     1     -42.413  41.126  29.469  1.00  0.00     0.062 H 
ATOM     17  C   UNL     1     -45.062  37.415  29.940  1.00  0.00    -0.054 A 
ATOM     18  H   UNL     1     -46.606  38.116  26.475  1.00  0.00     0.063 H 
ATOM     19  H   UNL     1     -43.202  39.167  30.731  1.00  0.00     0.063 H 
ATOM     20  C   UNL     1     -46.064  36.584  29.440  1.00  0.00    -0.058 A 
ATOM     21  H   UNL     1     -44.645  37.196  30.921  1.00  0.00     0.063 H 
ATOM     22  H   UNL     1     -46.388  35.734  30.036  1.00  0.00     0.063 H 
BRANCH   8  23
ATOM     23  N   UNL     1     -45.147  40.286  25.933  1.00  0.00    -0.398 N 
ATOM     24  H   UNL     1     -46.027  39.805  25.758  1.00  0.00     0.156 HD
ATOM     25  H   UNL     1     -44.511  40.111  25.162  1.00  0.00     0.156 HD
ENDBRANCH   8  23
ENDBRANCH   4   7
ENDBRANCH   1   4
BRANCH   1  26
ATOM     26  C   UNL     1     -47.825  33.613  26.438  1.00  0.00    -0.010 C 
ATOM     27  C   UNL     1     -48.788  33.244  25.311  1.00  0.00    -0.024 C 
ATOM     28  C   UNL     1     -46.769  32.512  26.318  1.00  0.00     0.085 C 
ATOM     29  H   UNL     1     -48.362  33.476  27.390  1.00  0.00     0.033 H 
ATOM     30  C   UNL     1     -48.919  31.717  25.455  1.00  0.00     0.064 C 
ATOM     31  H   UNL     1     -49.758  33.740  25.422  1.00  0.00     0.029 H 
ATOM     32  H   UNL     1     -48.386  33.523  24.334  1.00  0.00     0.029 H 
ATOM     33  C   UNL     1     -47.593  31.230  26.085  1.00  0.00     0.101 C 
ATOM     34  H   UNL     1     -46.113  32.678  25.459  1.00  0.00     0.063 H 
ATOM     35  H   UNL     1     -49.732  31.519  26.169  1.00  0.00     0.056 H 
ATOM     36  H   UNL     1     -47.031  30.507  25.485  1.00  0.00     0.065 H 
BRANCH  28  37
ATOM     37  O   UNL     1     -45.975  32.428  27.493  1.00  0.00    -0.390 OA
ATOM     38  H   UNL     1     -46.587  32.647  28.227  1.00  0.00     0.211 HD
ENDBRANCH  28  37
BRANCH  30  39
ATOM     39  N   UNL     1     -49.296  31.041  24.228  1.00  0.00    -0.327 N 
ATOM     40  C   UNL     1     -50.532  30.484  23.992  1.00  0.00     0.007 A 
ATOM     41  C   UNL     1     -48.502  30.873  23.121  1.00  0.00     0.145 A 
ATOM     42  C   UNL     1     -50.527  29.965  22.714  1.00  0.00    -0.031 A 
ATOM     43  H   UNL     1     -51.315  30.513  24.739  1.00  0.00     0.082 H 
ATOM     44  C   UNL     1     -49.245  30.210  22.154  1.00  0.00     0.061 A 
ATOM     45  N   UNL     1     -47.229  31.286  23.003  1.00  0.00    -0.218 NA
ATOM     46  H   UNL     1     -51.361  29.474  22.230  1.00  0.00     0.065 H 
ATOM     47  C   UNL     1     -48.606  29.958  20.932  1.00  0.00     0.136 A 
ATOM     48  C   UNL     1     -46.731  31.006  21.785  1.00  0.00     0.120 A 
ATOM     49  N   UNL     1     -47.335  30.364  20.764  1.00  0.00    -0.219 NA
ATOM     50  H   UNL     1     -45.712  31.330  21.600  1.00  0.00     0.106 H 
BRANCH  47  51
ATOM     51  N   UNL     1     -49.207  29.291  19.873  1.00  0.00    -0.383 N 
ATOM     52  H   UNL     1     -48.963  29.733  18.994  1.00  0.00     0.158 HD
ATOM     53  H   UNL     1     -49.135  28.285  19.908  1.00  0.00     0.158 HD
ENDBRANCH  47  51
ENDBRANCH  30  39
BRANCH  33  54
ATOM     54  O   UNL     1     -47.849  30.611  27.361  1.00  0.00    -0.388 OA
ATOM     55  H   UNL     1     -48.419  29.839  27.187  1.00  0.00     0.211 HD
ENDBRANCH  33  54
ENDBRANCH   1  26
TORSDOF 8
ENDMDL
