MODEL 1
REMARK VINA RESULT:     -11.3      0.000      0.000
REMARK SMILES Cn1ccc(-c2cn(-c3cncc(CCc4ccc5ccc(N)nc5c4)c3)c3ncnc(N)c23)n1
REMARK SMILES IDX 9 1 10 2 11 3 12 4 13 5 27 6 8 10 6 11 7 12 34 13 28 15
REMARK SMILES IDX 32 16 29 17 31 18 30 19 5 21 2 22 3 23 35 24 4 25 1 28 33 32
REMARK SMILES IDX 14 35 15 38 16 41 17 42 26 43 18 44 25 46 19 48 24 50 20 51
REMARK SMILES IDX 22 52 21 53 23 56
REMARK H PARENT 10 7 12 8 27 9 7 14 30 20 3 26 4 27 1 29 1 30 1 31 33 33 33 34
REMARK H PARENT 14 36 14 37 15 39 15 40 17 45 26 47 18 49 20 54 21 55 23 57
REMARK H PARENT 23 58
REMARK Flexibility Score: inf
ROOT
ATOM      1  C   UNL     1     -45.370  38.252  28.530  1.00  0.00     0.066 A 
ATOM      2  C   UNL     1     -45.325  37.960  29.888  1.00  0.00     0.051 A 
ATOM      3  N   UNL     1     -45.911  36.871  30.451  1.00  0.00    -0.262 NA
ATOM      4  C   UNL     1     -46.584  36.039  29.629  1.00  0.00     0.030 A 
ATOM      5  C   UNL     1     -46.684  36.221  28.257  1.00  0.00    -0.027 A 
ATOM      6  C   UNL     1     -46.041  37.337  27.707  1.00  0.00    -0.032 A 
ATOM      7  H   UNL     1     -44.849  38.602  30.619  1.00  0.00     0.086 H 
ATOM      8  H   UNL     1     -47.057  35.197  30.128  1.00  0.00     0.084 H 
ATOM      9  H   UNL     1     -46.087  37.474  26.631  1.00  0.00     0.065 H 
ENDROOT
BRANCH   1  10
ATOM     10  N   UNL     1     -44.812  39.453  27.993  1.00  0.00    -0.299 N 
ATOM     11  C   UNL     1     -44.573  41.272  26.684  1.00  0.00     0.033 A 
ATOM     12  C   UNL     1     -45.254  40.086  26.846  1.00  0.00     0.021 A 
ATOM     13  C   UNL     1     -43.587  41.346  27.700  1.00  0.00     0.071 A 
ATOM     14  H   UNL     1     -46.074  39.701  26.256  1.00  0.00     0.083 H 
ATOM     15  C   UNL     1     -43.771  40.225  28.512  1.00  0.00     0.150 A 
ATOM     16  C   UNL     1     -42.538  42.214  28.053  1.00  0.00     0.137 A 
ATOM     17  N   UNL     1     -43.034  39.932  29.603  1.00  0.00    -0.218 NA
ATOM     18  N   UNL     1     -41.802  41.947  29.146  1.00  0.00    -0.219 NA
ATOM     19  C   UNL     1     -42.087  40.844  29.852  1.00  0.00     0.120 A 
ATOM     20  H   UNL     1     -41.470  40.665  30.729  1.00  0.00     0.106 H 
BRANCH  11  21
ATOM     21  C   UNL     1     -44.849  42.257  25.642  1.00  0.00     0.095 A 
ATOM     22  N   UNL     1     -45.711  43.891  24.619  1.00  0.00    -0.275 N 
ATOM     23  C   UNL     1     -44.687  43.487  23.814  1.00  0.00     0.025 A 
ATOM     24  N   UNL     1     -45.823  43.168  25.746  1.00  0.00    -0.173 NA
ATOM     25  C   UNL     1     -44.099  42.422  24.458  1.00  0.00    -0.016 A 
ATOM     26  H   UNL     1     -44.464  43.976  22.876  1.00  0.00     0.084 H 
ATOM     27  H   UNL     1     -43.246  41.849  24.122  1.00  0.00     0.066 H 
BRANCH  22  28
ATOM     28  C   UNL     1     -46.628  44.979  24.381  1.00  0.00     0.030 C 
ATOM     29  H   UNL     1     -46.939  45.407  25.337  1.00  0.00     0.048 H 
ATOM     30  H   UNL     1     -47.497  44.587  23.847  1.00  0.00     0.048 H 
ATOM     31  H   UNL     1     -46.116  45.735  23.782  1.00  0.00     0.048 H 
ENDBRANCH  22  28
ENDBRANCH  11  21
BRANCH  16  32
ATOM     32  N   UNL     1     -42.157  43.333  27.322  1.00  0.00    -0.383 N 
ATOM     33  H   UNL     1     -42.886  43.686  26.713  1.00  0.00     0.158 HD
ATOM     34  H   UNL     1     -41.270  43.151  26.866  1.00  0.00     0.158 HD
ENDBRANCH  16  32
ENDBRANCH   1  10
BRANCH   5  35
ATOM     35  C   UNL     1     -47.488  35.274  27.401  1.00  0.00    -0.022 C 
ATOM     36  H   UNL     1     -48.460  35.735  27.187  1.00  0.00     0.032 H 
ATOM     37  H   UNL     1     -47.710  34.367  27.977  1.00  0.00     0.032 H 
BRANCH  35  38
ATOM     38  C   UNL     1     -46.811  34.925  26.063  1.00  0.00    -0.024 C 
ATOM     39  H   UNL     1     -47.076  35.688  25.320  1.00  0.00     0.032 H 
ATOM     40  H   UNL     1     -45.718  34.968  26.161  1.00  0.00     0.032 H 
BRANCH  38  41
ATOM     41  C   UNL     1     -47.228  33.577  25.519  1.00  0.00    -0.046 A 
ATOM     42  C   UNL     1     -48.351  32.922  26.031  1.00  0.00    -0.058 A 
ATOM     43  C   UNL     1     -46.447  32.929  24.546  1.00  0.00    -0.032 A 
ATOM     44  C   UNL     1     -48.664  31.635  25.598  1.00  0.00    -0.053 A 
ATOM     45  H   UNL     1     -48.975  33.399  26.782  1.00  0.00     0.063 H 
ATOM     46  C   UNL     1     -46.720  31.636  24.120  1.00  0.00     0.073 A 
ATOM     47  H   UNL     1     -45.566  33.424  24.142  1.00  0.00     0.065 H 
ATOM     48  C   UNL     1     -47.846  30.983  24.661  1.00  0.00     0.000 A 
ATOM     49  H   UNL     1     -49.534  31.132  26.015  1.00  0.00     0.063 H 
ATOM     50  N   UNL     1     -45.891  31.041  23.244  1.00  0.00    -0.231 NA
ATOM     51  C   UNL     1     -48.100  29.671  24.248  1.00  0.00    -0.049 A 
ATOM     52  C   UNL     1     -46.141  29.771  22.890  1.00  0.00     0.124 A 
ATOM     53  C   UNL     1     -47.233  29.057  23.352  1.00  0.00    -0.019 A 
ATOM     54  H   UNL     1     -48.955  29.121  24.627  1.00  0.00     0.063 H 
ATOM     55  H   UNL     1     -47.408  28.041  23.021  1.00  0.00     0.066 H 
BRANCH  52  56
ATOM     56  N   UNL     1     -45.239  29.182  22.005  1.00  0.00    -0.384 N 
ATOM     57  H   UNL     1     -44.311  29.383  22.373  1.00  0.00     0.158 HD
ATOM     58  H   UNL     1     -45.401  28.182  21.951  1.00  0.00     0.158 HD
ENDBRANCH  52  56
ENDBRANCH  38  41
ENDBRANCH  35  38
ENDBRANCH   5  35
TORSDOF 8
ENDMDL
MODEL 2
REMARK VINA RESULT:     -10.9      2.272     11.384
REMARK SMILES Cn1ccc(-c2cn(-c3cncc(CCc4ccc5ccc(N)nc5c4)c3)c3ncnc(N)c23)n1
REMARK SMILES IDX 9 1 10 2 11 3 12 4 13 5 27 6 8 10 6 11 7 12 34 13 28 15
REMARK SMILES IDX 32 16 29 17 31 18 30 19 5 21 2 22 3 23 35 24 4 25 1 28 33 32
REMARK SMILES IDX 14 35 15 38 16 41 17 42 26 43 18 44 25 46 19 48 24 50 20 51
REMARK SMILES IDX 22 52 21 53 23 56
REMARK H PARENT 10 7 12 8 27 9 7 14 30 20 3 26 4 27 1 29 1 30 1 31 33 33 33 34
REMARK H PARENT 14 36 14 37 15 39 15 40 17 45 26 47 18 49 20 54 21 55 23 57
REMARK H PARENT 23 58
REMARK Flexibility Score: inf
ROOT
ATOM      1  C   UNL     1     -47.006  32.959  26.372  1.00  0.00     0.066 A 
ATOM      2  C   UNL     1     -46.387  32.659  27.579  1.00  0.00     0.051 A 
ATOM      3  N   UNL     1     -45.902  33.593  28.438  1.00  0.00    -0.262 NA
ATOM      4  C   UNL     1     -46.026  34.887  28.075  1.00  0.00     0.030 A 
ATOM      5  C   UNL     1     -46.637  35.306  26.902  1.00  0.00    -0.027 A 
ATOM      6  C   UNL     1     -47.155  34.316  26.056  1.00  0.00    -0.032 A 
ATOM      7  H   UNL     1     -46.205  31.646  27.919  1.00  0.00     0.086 H 
ATOM      8  H   UNL     1     -45.600  35.597  28.780  1.00  0.00     0.084 H 
ATOM      9  H   UNL     1     -47.662  34.633  25.150  1.00  0.00     0.065 H 
ENDROOT
BRANCH   1  10
ATOM     10  N   UNL     1     -47.426  31.941  25.460  1.00  0.00    -0.299 N 
ATOM     11  C   UNL     1     -48.597  30.210  24.618  1.00  0.00     0.033 A 
ATOM     12  C   UNL     1     -48.338  30.945  25.754  1.00  0.00     0.021 A 
ATOM     13  C   UNL     1     -47.740  30.683  23.593  1.00  0.00     0.071 A 
ATOM     14  H   UNL     1     -48.809  30.863  26.724  1.00  0.00     0.083 H 
ATOM     15  C   UNL     1     -47.044  31.769  24.129  1.00  0.00     0.150 A 
ATOM     16  C   UNL     1     -47.439  30.336  22.264  1.00  0.00     0.137 A 
ATOM     17  N   UNL     1     -46.131  32.505  23.463  1.00  0.00    -0.218 NA
ATOM     18  N   UNL     1     -46.542  31.067  21.579  1.00  0.00    -0.219 NA
ATOM     19  C   UNL     1     -45.951  32.097  22.202  1.00  0.00     0.120 A 
ATOM     20  H   UNL     1     -45.235  32.663  21.613  1.00  0.00     0.106 H 
BRANCH  11  21
ATOM     21  C   UNL     1     -49.591  29.145  24.523  1.00  0.00     0.095 A 
ATOM     22  N   UNL     1     -51.245  28.013  23.859  1.00  0.00    -0.275 N 
ATOM     23  C   UNL     1     -50.657  27.230  24.807  1.00  0.00     0.025 A 
ATOM     24  N   UNL     1     -50.609  29.179  23.655  1.00  0.00    -0.173 NA
ATOM     25  C   UNL     1     -49.568  27.940  25.259  1.00  0.00    -0.016 A 
ATOM     26  H   UNL     1     -51.047  26.259  25.077  1.00  0.00     0.084 H 
ATOM     27  H   UNL     1     -48.854  27.630  26.010  1.00  0.00     0.066 H 
BRANCH  22  28
ATOM     28  C   UNL     1     -52.425  27.706  23.086  1.00  0.00     0.030 C 
ATOM     29  H   UNL     1     -52.217  27.868  22.026  1.00  0.00     0.048 H 
ATOM     30  H   UNL     1     -53.232  28.366  23.413  1.00  0.00     0.048 H 
ATOM     31  H   UNL     1     -52.688  26.660  23.261  1.00  0.00     0.048 H 
ENDBRANCH  22  28
ENDBRANCH  11  21
BRANCH  16  32
ATOM     32  N   UNL     1     -47.971  29.241  21.592  1.00  0.00    -0.383 N 
ATOM     33  H   UNL     1     -47.268  28.615  21.218  1.00  0.00     0.158 HD
ATOM     34  H   UNL     1     -48.659  29.562  20.919  1.00  0.00     0.158 HD
ENDBRANCH  16  32
ENDBRANCH   1  10
BRANCH   5  35
ATOM     35  C   UNL     1     -46.705  36.769  26.537  1.00  0.00    -0.022 C 
ATOM     36  H   UNL     1     -47.529  36.913  25.825  1.00  0.00     0.032 H 
ATOM     37  H   UNL     1     -45.793  37.047  25.995  1.00  0.00     0.032 H 
BRANCH  35  38
ATOM     38  C   UNL     1     -46.936  37.697  27.743  1.00  0.00    -0.024 C 
ATOM     39  H   UNL     1     -47.658  38.474  27.461  1.00  0.00     0.032 H 
ATOM     40  H   UNL     1     -47.397  37.145  28.572  1.00  0.00     0.032 H 
BRANCH  38  41
ATOM     41  C   UNL     1     -45.673  38.380  28.217  1.00  0.00    -0.046 A 
ATOM     42  C   UNL     1     -45.096  38.034  29.441  1.00  0.00    -0.058 A 
ATOM     43  C   UNL     1     -45.106  39.428  27.470  1.00  0.00    -0.032 A 
ATOM     44  C   UNL     1     -43.994  38.742  29.918  1.00  0.00    -0.053 A 
ATOM     45  H   UNL     1     -45.510  37.226  30.040  1.00  0.00     0.063 H 
ATOM     46  C   UNL     1     -44.029  40.168  27.936  1.00  0.00     0.073 A 
ATOM     47  H   UNL     1     -45.548  39.714  26.517  1.00  0.00     0.065 H 
ATOM     48  C   UNL     1     -43.470  39.817  29.181  1.00  0.00     0.000 A 
ATOM     49  H   UNL     1     -43.564  38.469  30.878  1.00  0.00     0.063 H 
ATOM     50  N   UNL     1     -43.580  41.209  27.211  1.00  0.00    -0.231 NA
ATOM     51  C   UNL     1     -42.402  40.584  29.657  1.00  0.00    -0.049 A 
ATOM     52  C   UNL     1     -42.575  41.946  27.707  1.00  0.00     0.124 A 
ATOM     53  C   UNL     1     -41.951  41.665  28.909  1.00  0.00    -0.019 A 
ATOM     54  H   UNL     1     -41.930  40.356  30.608  1.00  0.00     0.063 H 
ATOM     55  H   UNL     1     -41.127  42.275  29.260  1.00  0.00     0.066 H 
BRANCH  52  56
ATOM     56  N   UNL     1     -42.163  43.034  26.938  1.00  0.00    -0.384 N 
ATOM     57  H   UNL     1     -42.496  42.855  25.993  1.00  0.00     0.158 HD
ATOM     58  H   UNL     1     -42.554  43.894  27.306  1.00  0.00     0.158 HD
ENDBRANCH  52  56
ENDBRANCH  38  41
ENDBRANCH  35  38
ENDBRANCH   5  35
TORSDOF 8
ENDMDL
MODEL 3
REMARK VINA RESULT:     -10.6      1.623      2.719
REMARK SMILES Cn1ccc(-c2cn(-c3cncc(CCc4ccc5ccc(N)nc5c4)c3)c3ncnc(N)c23)n1
REMARK SMILES IDX 9 1 10 2 11 3 12 4 13 5 27 6 8 10 6 11 7 12 34 13 28 15
REMARK SMILES IDX 32 16 29 17 31 18 30 19 5 21 2 22 3 23 35 24 4 25 1 28 33 32
REMARK SMILES IDX 14 35 15 38 16 41 17 42 26 43 18 44 25 46 19 48 24 50 20 51
REMARK SMILES IDX 22 52 21 53 23 56
REMARK H PARENT 10 7 12 8 27 9 7 14 30 20 3 26 4 27 1 29 1 30 1 31 33 33 33 34
REMARK H PARENT 14 36 14 37 15 39 15 40 17 45 26 47 18 49 20 54 21 55 23 57
REMARK H PARENT 23 58
REMARK Flexibility Score: inf
ROOT
ATOM      1  C   UNL     1     -45.747  38.458  28.148  1.00  0.00     0.066 A 
ATOM      2  C   UNL     1     -45.912  38.357  29.524  1.00  0.00     0.051 A 
ATOM      3  N   UNL     1     -46.090  37.183  30.184  1.00  0.00    -0.262 NA
ATOM      4  C   UNL     1     -46.117  36.056  29.441  1.00  0.00     0.030 A 
ATOM      5  C   UNL     1     -45.949  36.034  28.064  1.00  0.00    -0.027 A 
ATOM      6  C   UNL     1     -45.736  37.260  27.421  1.00  0.00    -0.032 A 
ATOM      7  H   UNL     1     -45.952  39.216  30.184  1.00  0.00     0.086 H 
ATOM      8  H   UNL     1     -46.288  35.145  30.009  1.00  0.00     0.084 H 
ATOM      9  H   UNL     1     -45.573  37.253  26.348  1.00  0.00     0.065 H 
ENDROOT
BRANCH   1  10
ATOM     10  N   UNL     1     -45.647  39.722  27.487  1.00  0.00    -0.299 N 
ATOM     11  C   UNL     1     -44.744  41.455  26.365  1.00  0.00     0.033 A 
ATOM     12  C   UNL     1     -44.466  40.301  27.063  1.00  0.00     0.021 A 
ATOM     13  C   UNL     1     -46.142  41.678  26.439  1.00  0.00     0.071 A 
ATOM     14  H   UNL     1     -43.506  39.825  27.211  1.00  0.00     0.083 H 
ATOM     15  C   UNL     1     -46.682  40.581  27.114  1.00  0.00     0.150 A 
ATOM     16  C   UNL     1     -47.047  42.674  26.032  1.00  0.00     0.137 A 
ATOM     17  N   UNL     1     -47.993  40.408  27.382  1.00  0.00    -0.218 NA
ATOM     18  N   UNL     1     -48.359  42.513  26.278  1.00  0.00    -0.219 NA
ATOM     19  C   UNL     1     -48.755  41.407  26.923  1.00  0.00     0.120 A 
ATOM     20  H   UNL     1     -49.823  41.313  27.099  1.00  0.00     0.106 H 
BRANCH  11  21
ATOM     21  C   UNL     1     -43.750  42.274  25.677  1.00  0.00     0.095 A 
ATOM     22  N   UNL     1     -42.815  43.450  24.194  1.00  0.00    -0.275 N 
ATOM     23  C   UNL     1     -41.970  43.515  25.261  1.00  0.00     0.025 A 
ATOM     24  N   UNL     1     -43.915  42.713  24.424  1.00  0.00    -0.173 NA
ATOM     25  C   UNL     1     -42.556  42.760  26.252  1.00  0.00    -0.016 A 
ATOM     26  H   UNL     1     -41.048  44.078  25.233  1.00  0.00     0.084 H 
ATOM     27  H   UNL     1     -42.176  42.587  27.250  1.00  0.00     0.066 H 
BRANCH  22  28
ATOM     28  C   UNL     1     -42.645  44.084  22.909  1.00  0.00     0.030 C 
ATOM     29  H   UNL     1     -41.908  43.527  22.324  1.00  0.00     0.048 H 
ATOM     30  H   UNL     1     -42.295  45.106  23.072  1.00  0.00     0.048 H 
ATOM     31  H   UNL     1     -43.608  44.084  22.395  1.00  0.00     0.048 H 
ENDBRANCH  22  28
ENDBRANCH  11  21
BRANCH  16  32
ATOM     32  N   UNL     1     -46.685  43.869  25.420  1.00  0.00    -0.383 N 
ATOM     33  H   UNL     1     -46.052  43.747  24.638  1.00  0.00     0.158 HD
ATOM     34  H   UNL     1     -46.372  44.527  26.125  1.00  0.00     0.158 HD
ENDBRANCH  16  32
ENDBRANCH   1  10
BRANCH   5  35
ATOM     35  C   UNL     1     -46.033  34.742  27.289  1.00  0.00    -0.022 C 
ATOM     36  H   UNL     1     -46.436  33.963  27.948  1.00  0.00     0.032 H 
ATOM     37  H   UNL     1     -45.019  34.414  27.026  1.00  0.00     0.032 H 
BRANCH  35  38
ATOM     38  C   UNL     1     -46.925  34.830  26.037  1.00  0.00    -0.024 C 
ATOM     39  H   UNL     1     -47.850  35.361  26.296  1.00  0.00     0.032 H 
ATOM     40  H   UNL     1     -46.439  35.434  25.259  1.00  0.00     0.032 H 
BRANCH  38  41
ATOM     41  C   UNL     1     -47.301  33.477  25.479  1.00  0.00    -0.046 A 
ATOM     42  C   UNL     1     -48.420  32.795  25.965  1.00  0.00    -0.058 A 
ATOM     43  C   UNL     1     -46.488  32.850  24.519  1.00  0.00    -0.032 A 
ATOM     44  C   UNL     1     -48.697  31.503  25.520  1.00  0.00    -0.053 A 
ATOM     45  H   UNL     1     -49.070  33.255  26.706  1.00  0.00     0.063 H 
ATOM     46  C   UNL     1     -46.724  31.554  24.081  1.00  0.00     0.073 A 
ATOM     47  H   UNL     1     -45.609  33.366  24.135  1.00  0.00     0.065 H 
ATOM     48  C   UNL     1     -47.846  30.874  24.596  1.00  0.00     0.000 A 
ATOM     49  H   UNL     1     -49.564  30.980  25.916  1.00  0.00     0.063 H 
ATOM     50  N   UNL     1     -45.865  30.982  23.220  1.00  0.00    -0.231 NA
ATOM     51  C   UNL     1     -48.064  29.560  24.172  1.00  0.00    -0.049 A 
ATOM     52  C   UNL     1     -46.081  29.708  22.854  1.00  0.00     0.124 A 
ATOM     53  C   UNL     1     -47.166  28.969  23.291  1.00  0.00    -0.019 A 
ATOM     54  H   UNL     1     -48.914  28.990  24.532  1.00  0.00     0.063 H 
ATOM     55  H   UNL     1     -47.312  27.950  22.952  1.00  0.00     0.066 H 
BRANCH  52  56
ATOM     56  N   UNL     1     -45.148  29.143  21.985  1.00  0.00    -0.384 N 
ATOM     57  H   UNL     1     -44.502  28.615  22.569  1.00  0.00     0.158 HD
ATOM     58  H   UNL     1     -45.612  28.539  21.315  1.00  0.00     0.158 HD
ENDBRANCH  52  56
ENDBRANCH  38  41
ENDBRANCH  35  38
ENDBRANCH   5  35
TORSDOF 8
ENDMDL
MODEL 4
REMARK VINA RESULT:     -10.5      1.825      2.636
REMARK SMILES Cn1ccc(-c2cn(-c3cncc(CCc4ccc5ccc(N)nc5c4)c3)c3ncnc(N)c23)n1
REMARK SMILES IDX 9 1 10 2 11 3 12 4 13 5 27 6 8 10 6 11 7 12 34 13 28 15
REMARK SMILES IDX 32 16 29 17 31 18 30 19 5 21 2 22 3 23 35 24 4 25 1 28 33 32
REMARK SMILES IDX 14 35 15 38 16 41 17 42 26 43 18 44 25 46 19 48 24 50 20 51
REMARK SMILES IDX 22 52 21 53 23 56
REMARK H PARENT 10 7 12 8 27 9 7 14 30 20 3 26 4 27 1 29 1 30 1 31 33 33 33 34
REMARK H PARENT 14 36 14 37 15 39 15 40 17 45 26 47 18 49 20 54 21 55 23 57
REMARK H PARENT 23 58
REMARK Flexibility Score: inf
ROOT
ATOM      1  C   UNL     1     -46.961  37.072  27.344  1.00  0.00     0.066 A 
ATOM      2  C   UNL     1     -48.257  37.118  27.844  1.00  0.00     0.051 A 
ATOM      3  N   UNL     1     -49.169  36.124  27.684  1.00  0.00    -0.262 NA
ATOM      4  C   UNL     1     -48.781  35.039  26.983  1.00  0.00     0.030 A 
ATOM      5  C   UNL     1     -47.511  34.876  26.450  1.00  0.00    -0.027 A 
ATOM      6  C   UNL     1     -46.586  35.907  26.662  1.00  0.00    -0.032 A 
ATOM      7  H   UNL     1     -48.660  37.973  28.374  1.00  0.00     0.086 H 
ATOM      8  H   UNL     1     -49.552  34.282  26.858  1.00  0.00     0.084 H 
ATOM      9  H   UNL     1     -45.580  35.778  26.275  1.00  0.00     0.065 H 
ENDROOT
BRANCH   1  10
ATOM     10  N   UNL     1     -46.061  38.176  27.465  1.00  0.00    -0.299 N 
ATOM     11  C   UNL     1     -45.077  40.157  27.034  1.00  0.00     0.033 A 
ATOM     12  C   UNL     1     -45.952  39.209  26.552  1.00  0.00     0.021 A 
ATOM     13  C   UNL     1     -44.527  39.662  28.243  1.00  0.00     0.071 A 
ATOM     14  H   UNL     1     -46.555  39.251  25.655  1.00  0.00     0.083 H 
ATOM     15  C   UNL     1     -45.169  38.450  28.502  1.00  0.00     0.150 A 
ATOM     16  C   UNL     1     -43.552  40.070  29.170  1.00  0.00     0.137 A 
ATOM     17  N   UNL     1     -44.932  37.665  29.573  1.00  0.00    -0.218 NA
ATOM     18  N   UNL     1     -43.312  39.308  30.252  1.00  0.00    -0.219 NA
ATOM     19  C   UNL     1     -44.006  38.170  30.396  1.00  0.00     0.120 A 
ATOM     20  H   UNL     1     -43.784  37.584  31.284  1.00  0.00     0.106 H 
BRANCH  11  21
ATOM     21  C   UNL     1     -44.797  41.437  26.390  1.00  0.00     0.095 A 
ATOM     22  N   UNL     1     -44.535  43.513  26.106  1.00  0.00    -0.275 N 
ATOM     23  C   UNL     1     -44.142  42.957  24.925  1.00  0.00     0.025 A 
ATOM     24  N   UNL     1     -44.925  42.610  27.021  1.00  0.00    -0.173 NA
ATOM     25  C   UNL     1     -44.297  41.598  25.080  1.00  0.00    -0.016 A 
ATOM     26  H   UNL     1     -43.793  43.554  24.095  1.00  0.00     0.084 H 
ATOM     27  H   UNL     1     -44.075  40.831  24.350  1.00  0.00     0.066 H 
BRANCH  22  28
ATOM     28  C   UNL     1     -44.555  44.916  26.444  1.00  0.00     0.030 C 
ATOM     29  H   UNL     1     -43.884  45.460  25.775  1.00  0.00     0.048 H 
ATOM     30  H   UNL     1     -44.219  45.026  27.478  1.00  0.00     0.048 H 
ATOM     31  H   UNL     1     -45.577  45.283  26.329  1.00  0.00     0.048 H 
ENDBRANCH  22  28
ENDBRANCH  11  21
BRANCH  16  32
ATOM     32  N   UNL     1     -42.758  41.204  29.038  1.00  0.00    -0.383 N 
ATOM     33  H   UNL     1     -43.164  42.032  29.456  1.00  0.00     0.158 HD
ATOM     34  H   UNL     1     -42.480  41.308  28.068  1.00  0.00     0.158 HD
ENDBRANCH  16  32
ENDBRANCH   1  10
BRANCH   5  35
ATOM     35  C   UNL     1     -47.155  33.654  25.639  1.00  0.00    -0.022 C 
ATOM     36  H   UNL     1     -46.069  33.645  25.477  1.00  0.00     0.032 H 
ATOM     37  H   UNL     1     -47.603  33.740  24.642  1.00  0.00     0.032 H 
BRANCH  35  38
ATOM     38  C   UNL     1     -47.557  32.328  26.311  1.00  0.00    -0.024 C 
ATOM     39  H   UNL     1     -46.672  31.890  26.791  1.00  0.00     0.032 H 
ATOM     40  H   UNL     1     -48.279  32.508  27.118  1.00  0.00     0.032 H 
BRANCH  38  41
ATOM     41  C   UNL     1     -48.113  31.313  25.338  1.00  0.00    -0.046 A 
ATOM     42  C   UNL     1     -48.538  30.060  25.786  1.00  0.00    -0.058 A 
ATOM     43  C   UNL     1     -48.138  31.587  23.960  1.00  0.00    -0.032 A 
ATOM     44  C   UNL     1     -48.949  29.094  24.869  1.00  0.00    -0.053 A 
ATOM     45  H   UNL     1     -48.533  29.820  26.847  1.00  0.00     0.063 H 
ATOM     46  C   UNL     1     -48.514  30.633  23.023  1.00  0.00     0.073 A 
ATOM     47  H   UNL     1     -47.804  32.557  23.594  1.00  0.00     0.065 H 
ATOM     48  C   UNL     1     -48.923  29.368  23.491  1.00  0.00     0.000 A 
ATOM     49  H   UNL     1     -49.265  28.119  25.231  1.00  0.00     0.063 H 
ATOM     50  N   UNL     1     -48.443  30.931  21.714  1.00  0.00    -0.231 NA
ATOM     51  C   UNL     1     -49.275  28.404  22.542  1.00  0.00    -0.049 A 
ATOM     52  C   UNL     1     -48.756  29.976  20.824  1.00  0.00     0.124 A 
ATOM     53  C   UNL     1     -49.187  28.713  21.190  1.00  0.00    -0.019 A 
ATOM     54  H   UNL     1     -49.601  27.414  22.845  1.00  0.00     0.063 H 
ATOM     55  H   UNL     1     -49.451  27.980  20.437  1.00  0.00     0.066 H 
BRANCH  52  56
ATOM     56  N   UNL     1     -48.637  30.316  19.477  1.00  0.00    -0.384 N 
ATOM     57  H   UNL     1     -48.338  29.469  18.998  1.00  0.00     0.158 HD
ATOM     58  H   UNL     1     -49.527  30.644  19.117  1.00  0.00     0.158 HD
ENDBRANCH  52  56
ENDBRANCH  38  41
ENDBRANCH  35  38
ENDBRANCH   5  35
TORSDOF 8
ENDMDL
MODEL 5
REMARK VINA RESULT:     -10.4      2.114      2.889
REMARK SMILES Cn1ccc(-c2cn(-c3cncc(CCc4ccc5ccc(N)nc5c4)c3)c3ncnc(N)c23)n1
REMARK SMILES IDX 9 1 10 2 11 3 12 4 13 5 27 6 8 10 6 11 7 12 34 13 28 15
REMARK SMILES IDX 32 16 29 17 31 18 30 19 5 21 2 22 3 23 35 24 4 25 1 28 33 32
REMARK SMILES IDX 14 35 15 38 16 41 17 42 26 43 18 44 25 46 19 48 24 50 20 51
REMARK SMILES IDX 22 52 21 53 23 56
REMARK H PARENT 10 7 12 8 27 9 7 14 30 20 3 26 4 27 1 29 1 30 1 31 33 33 33 34
REMARK H PARENT 14 36 14 37 15 39 15 40 17 45 26 47 18 49 20 54 21 55 23 57
REMARK H PARENT 23 58
REMARK Flexibility Score: inf
ROOT
ATOM      1  C   UNL     1     -46.999  37.541  27.410  1.00  0.00     0.066 A 
ATOM      2  C   UNL     1     -48.283  37.702  27.916  1.00  0.00     0.051 A 
ATOM      3  N   UNL     1     -49.255  36.756  27.840  1.00  0.00    -0.262 NA
ATOM      4  C   UNL     1     -48.941  35.598  27.220  1.00  0.00     0.030 A 
ATOM      5  C   UNL     1     -47.690  35.320  26.690  1.00  0.00    -0.027 A 
ATOM      6  C   UNL     1     -46.703  36.307  26.815  1.00  0.00    -0.032 A 
ATOM      7  H   UNL     1     -48.629  38.617  28.382  1.00  0.00     0.086 H 
ATOM      8  H   UNL     1     -49.757  34.882  27.160  1.00  0.00     0.084 H 
ATOM      9  H   UNL     1     -45.711  36.089  26.431  1.00  0.00     0.065 H 
ENDROOT
BRANCH   1  10
ATOM     10  N   UNL     1     -46.035  38.595  27.437  1.00  0.00    -0.299 N 
ATOM     11  C   UNL     1     -44.962  40.494  26.870  1.00  0.00     0.033 A 
ATOM     12  C   UNL     1     -45.910  39.577  26.472  1.00  0.00     0.021 A 
ATOM     13  C   UNL     1     -44.385  40.023  28.076  1.00  0.00     0.071 A 
ATOM     14  H   UNL     1     -46.551  39.614  25.602  1.00  0.00     0.083 H 
ATOM     15  C   UNL     1     -45.080  38.863  28.420  1.00  0.00     0.150 A 
ATOM     16  C   UNL     1     -43.346  40.414  28.938  1.00  0.00     0.137 A 
ATOM     17  N   UNL     1     -44.838  38.114  29.516  1.00  0.00    -0.218 NA
ATOM     18  N   UNL     1     -43.099  39.689  30.043  1.00  0.00    -0.219 NA
ATOM     19  C   UNL     1     -43.848  38.601  30.272  1.00  0.00     0.120 A 
ATOM     20  H   UNL     1     -43.618  38.044  31.176  1.00  0.00     0.106 H 
BRANCH  11  21
ATOM     21  C   UNL     1     -44.641  41.726  26.154  1.00  0.00     0.095 A 
ATOM     22  N   UNL     1     -43.540  43.218  25.145  1.00  0.00    -0.275 N 
ATOM     23  C   UNL     1     -44.838  43.618  25.031  1.00  0.00     0.025 A 
ATOM     24  N   UNL     1     -43.392  42.061  25.812  1.00  0.00    -0.173 NA
ATOM     25  C   UNL     1     -45.585  42.660  25.677  1.00  0.00    -0.016 A 
ATOM     26  H   UNL     1     -45.118  44.525  24.514  1.00  0.00     0.084 H 
ATOM     27  H   UNL     1     -46.661  42.637  25.784  1.00  0.00     0.066 H 
BRANCH  22  28
ATOM     28  C   UNL     1     -42.373  43.889  24.626  1.00  0.00     0.030 C 
ATOM     29  H   UNL     1     -41.776  43.183  24.044  1.00  0.00     0.048 H 
ATOM     30  H   UNL     1     -41.788  44.266  25.469  1.00  0.00     0.048 H 
ATOM     31  H   UNL     1     -42.705  44.713  23.990  1.00  0.00     0.048 H 
ENDBRANCH  22  28
ENDBRANCH  11  21
BRANCH  16  32
ATOM     32  N   UNL     1     -42.497  41.493  28.717  1.00  0.00    -0.383 N 
ATOM     33  H   UNL     1     -42.363  41.708  27.736  1.00  0.00     0.158 HD
ATOM     34  H   UNL     1     -41.642  41.362  29.247  1.00  0.00     0.158 HD
ENDBRANCH  16  32
ENDBRANCH   1  10
BRANCH   5  35
ATOM     35  C   UNL     1     -47.417  34.021  25.973  1.00  0.00    -0.022 C 
ATOM     36  H   UNL     1     -46.723  33.425  26.579  1.00  0.00     0.032 H 
ATOM     37  H   UNL     1     -46.887  34.232  25.035  1.00  0.00     0.032 H 
BRANCH  35  38
ATOM     38  C   UNL     1     -48.681  33.180  25.714  1.00  0.00    -0.024 C 
ATOM     39  H   UNL     1     -49.239  33.079  26.654  1.00  0.00     0.032 H 
ATOM     40  H   UNL     1     -49.354  33.700  25.019  1.00  0.00     0.032 H 
BRANCH  38  41
ATOM     41  C   UNL     1     -48.377  31.793  25.198  1.00  0.00    -0.046 A 
ATOM     42  C   UNL     1     -47.962  31.602  23.877  1.00  0.00    -0.058 A 
ATOM     43  C   UNL     1     -48.582  30.667  26.015  1.00  0.00    -0.032 A 
ATOM     44  C   UNL     1     -47.787  30.311  23.381  1.00  0.00    -0.053 A 
ATOM     45  H   UNL     1     -47.792  32.453  23.222  1.00  0.00     0.063 H 
ATOM     46  C   UNL     1     -48.444  29.371  25.537  1.00  0.00     0.073 A 
ATOM     47  H   UNL     1     -48.911  30.799  27.045  1.00  0.00     0.065 H 
ATOM     48  C   UNL     1     -48.043  29.197  24.197  1.00  0.00     0.000 A 
ATOM     49  H   UNL     1     -47.476  30.178  22.348  1.00  0.00     0.063 H 
ATOM     50  N   UNL     1     -48.730  28.336  26.346  1.00  0.00    -0.231 NA
ATOM     51  C   UNL     1     -47.931  27.890  23.714  1.00  0.00    -0.049 A 
ATOM     52  C   UNL     1     -48.645  27.093  25.846  1.00  0.00     0.124 A 
ATOM     53  C   UNL     1     -48.239  26.824  24.551  1.00  0.00    -0.019 A 
ATOM     54  H   UNL     1     -47.622  27.696  22.692  1.00  0.00     0.063 H 
ATOM     55  H   UNL     1     -48.165  25.803  24.197  1.00  0.00     0.066 H 
BRANCH  52  56
ATOM     56  N   UNL     1     -48.981  26.050  26.709  1.00  0.00    -0.384 N 
ATOM     57  H   UNL     1     -48.144  25.477  26.798  1.00  0.00     0.158 HD
ATOM     58  H   UNL     1     -49.269  26.417  27.610  1.00  0.00     0.158 HD
ENDBRANCH  52  56
ENDBRANCH  38  41
ENDBRANCH  35  38
ENDBRANCH   5  35
TORSDOF 8
ENDMDL
MODEL 6
REMARK VINA RESULT:     -10.4      3.204     12.251
REMARK SMILES Cn1ccc(-c2cn(-c3cncc(CCc4ccc5ccc(N)nc5c4)c3)c3ncnc(N)c23)n1
REMARK SMILES IDX 9 1 10 2 11 3 12 4 13 5 27 6 8 10 6 11 7 12 34 13 28 15
REMARK SMILES IDX 32 16 29 17 31 18 30 19 5 21 2 22 3 23 35 24 4 25 1 28 33 32
REMARK SMILES IDX 14 35 15 38 16 41 17 42 26 43 18 44 25 46 19 48 24 50 20 51
REMARK SMILES IDX 22 52 21 53 23 56
REMARK H PARENT 10 7 12 8 27 9 7 14 30 20 3 26 4 27 1 29 1 30 1 31 33 33 33 34
REMARK H PARENT 14 36 14 37 15 39 15 40 17 45 26 47 18 49 20 54 21 55 23 57
REMARK H PARENT 23 58
REMARK Flexibility Score: inf
ROOT
ATOM      1  C   UNL     1     -47.898  32.091  25.248  1.00  0.00     0.066 A 
ATOM      2  C   UNL     1     -46.590  32.314  24.836  1.00  0.00     0.051 A 
ATOM      3  N   UNL     1     -45.883  33.438  25.123  1.00  0.00    -0.262 NA
ATOM      4  C   UNL     1     -46.510  34.393  25.843  1.00  0.00     0.030 A 
ATOM      5  C   UNL     1     -47.808  34.275  26.319  1.00  0.00    -0.027 A 
ATOM      6  C   UNL     1     -48.495  33.088  26.031  1.00  0.00    -0.032 A 
ATOM      7  H   UNL     1     -46.034  31.620  24.215  1.00  0.00     0.086 H 
ATOM      8  H   UNL     1     -45.916  35.284  26.025  1.00  0.00     0.084 H 
ATOM      9  H   UNL     1     -49.500  32.971  26.424  1.00  0.00     0.065 H 
ENDROOT
BRANCH   1  10
ATOM     10  N   UNL     1     -48.631  30.929  24.851  1.00  0.00    -0.299 N 
ATOM     11  C   UNL     1     -49.559  28.878  24.953  1.00  0.00     0.033 A 
ATOM     12  C   UNL     1     -48.670  29.741  25.555  1.00  0.00     0.021 A 
ATOM     13  C   UNL     1     -50.020  29.496  23.763  1.00  0.00     0.071 A 
ATOM     14  H   UNL     1     -48.129  29.603  26.481  1.00  0.00     0.083 H 
ATOM     15  C   UNL     1     -49.454  30.772  23.734  1.00  0.00     0.150 A 
ATOM     16  C   UNL     1     -50.845  29.148  22.679  1.00  0.00     0.137 A 
ATOM     17  N   UNL     1     -49.656  31.684  22.762  1.00  0.00    -0.218 NA
ATOM     18  N   UNL     1     -51.070  30.050  21.707  1.00  0.00    -0.219 NA
ATOM     19  C   UNL     1     -50.478  31.249  21.801  1.00  0.00     0.120 A 
ATOM     20  H   UNL     1     -50.687  31.949  20.997  1.00  0.00     0.106 H 
BRANCH  11  21
ATOM     21  C   UNL     1     -49.940  27.571  25.480  1.00  0.00     0.095 A 
ATOM     22  N   UNL     1     -51.108  26.007  26.284  1.00  0.00    -0.275 N 
ATOM     23  C   UNL     1     -49.900  25.430  26.027  1.00  0.00     0.025 A 
ATOM     24  N   UNL     1     -51.165  27.307  25.947  1.00  0.00    -0.173 NA
ATOM     25  C   UNL     1     -49.113  26.427  25.495  1.00  0.00    -0.016 A 
ATOM     26  H   UNL     1     -49.702  24.389  26.236  1.00  0.00     0.084 H 
ATOM     27  H   UNL     1     -48.088  26.338  25.161  1.00  0.00     0.066 H 
BRANCH  22  28
ATOM     28  C   UNL     1     -52.275  25.370  26.846  1.00  0.00     0.030 C 
ATOM     29  H   UNL     1     -52.106  25.175  27.908  1.00  0.00     0.048 H 
ATOM     30  H   UNL     1     -52.443  24.430  26.316  1.00  0.00     0.048 H 
ATOM     31  H   UNL     1     -53.127  26.041  26.719  1.00  0.00     0.048 H 
ENDBRANCH  22  28
ENDBRANCH  11  21
BRANCH  16  32
ATOM     32  N   UNL     1     -51.430  27.900  22.497  1.00  0.00    -0.383 N 
ATOM     33  H   UNL     1     -52.108  27.877  21.745  1.00  0.00     0.158 HD
ATOM     34  H   UNL     1     -51.770  27.555  23.389  1.00  0.00     0.158 HD
ENDBRANCH  16  32
ENDBRANCH   1  10
BRANCH   5  35
ATOM     35  C   UNL     1     -48.465  35.398  27.083  1.00  0.00    -0.022 C 
ATOM     36  H   UNL     1     -49.438  35.049  27.450  1.00  0.00     0.032 H 
ATOM     37  H   UNL     1     -48.686  36.222  26.392  1.00  0.00     0.032 H 
BRANCH  35  38
ATOM     38  C   UNL     1     -47.640  35.893  28.285  1.00  0.00    -0.024 C 
ATOM     39  H   UNL     1     -48.315  36.067  29.132  1.00  0.00     0.032 H 
ATOM     40  H   UNL     1     -46.936  35.118  28.616  1.00  0.00     0.032 H 
BRANCH  38  41
ATOM     41  C   UNL     1     -46.896  37.179  28.007  1.00  0.00    -0.046 A 
ATOM     42  C   UNL     1     -47.141  37.902  26.836  1.00  0.00    -0.058 A 
ATOM     43  C   UNL     1     -45.892  37.626  28.883  1.00  0.00    -0.032 A 
ATOM     44  C   UNL     1     -46.375  39.028  26.538  1.00  0.00    -0.053 A 
ATOM     45  H   UNL     1     -47.913  37.583  26.140  1.00  0.00     0.063 H 
ATOM     46  C   UNL     1     -45.095  38.726  28.596  1.00  0.00     0.073 A 
ATOM     47  H   UNL     1     -45.685  37.071  29.797  1.00  0.00     0.065 H 
ATOM     48  C   UNL     1     -45.344  39.432  27.402  1.00  0.00     0.000 A 
ATOM     49  H   UNL     1     -46.568  39.572  25.617  1.00  0.00     0.063 H 
ATOM     50  N   UNL     1     -44.099  39.057  29.437  1.00  0.00    -0.231 NA
ATOM     51  C   UNL     1     -44.520  40.523  27.105  1.00  0.00    -0.049 A 
ATOM     52  C   UNL     1     -43.305  40.089  29.112  1.00  0.00     0.124 A 
ATOM     53  C   UNL     1     -43.486  40.853  27.972  1.00  0.00    -0.019 A 
ATOM     54  H   UNL     1     -44.668  41.106  26.202  1.00  0.00     0.063 H 
ATOM     55  H   UNL     1     -42.833  41.692  27.760  1.00  0.00     0.066 H 
BRANCH  52  56
ATOM     56  N   UNL     1     -42.266  40.378  29.995  1.00  0.00    -0.384 N 
ATOM     57  H   UNL     1     -42.053  39.506  30.476  1.00  0.00     0.158 HD
ATOM     58  H   UNL     1     -41.458  40.721  29.488  1.00  0.00     0.158 HD
ENDBRANCH  52  56
ENDBRANCH  38  41
ENDBRANCH  35  38
ENDBRANCH   5  35
TORSDOF 8
ENDMDL
MODEL 7
REMARK VINA RESULT:     -10.1      2.745     12.094
REMARK SMILES Cn1ccc(-c2cn(-c3cncc(CCc4ccc5ccc(N)nc5c4)c3)c3ncnc(N)c23)n1
REMARK SMILES IDX 9 1 10 2 11 3 12 4 13 5 27 6 8 10 6 11 7 12 34 13 28 15
REMARK SMILES IDX 32 16 29 17 31 18 30 19 5 21 2 22 3 23 35 24 4 25 1 28 33 32
REMARK SMILES IDX 14 35 15 38 16 41 17 42 26 43 18 44 25 46 19 48 24 50 20 51
REMARK SMILES IDX 22 52 21 53 23 56
REMARK H PARENT 10 7 12 8 27 9 7 14 30 20 3 26 4 27 1 29 1 30 1 31 33 33 33 34
REMARK H PARENT 14 36 14 37 15 39 15 40 17 45 26 47 18 49 20 54 21 55 23 57
REMARK H PARENT 23 58
REMARK Flexibility Score: inf
ROOT
ATOM      1  C   UNL     1     -48.876  32.846  25.677  1.00  0.00     0.066 A 
ATOM      2  C   UNL     1     -50.052  33.411  26.156  1.00  0.00     0.051 A 
ATOM      3  N   UNL     1     -50.113  34.601  26.808  1.00  0.00    -0.262 NA
ATOM      4  C   UNL     1     -48.950  35.256  27.005  1.00  0.00     0.030 A 
ATOM      5  C   UNL     1     -47.719  34.797  26.560  1.00  0.00    -0.027 A 
ATOM      6  C   UNL     1     -47.698  33.582  25.863  1.00  0.00    -0.032 A 
ATOM      7  H   UNL     1     -51.018  32.926  26.082  1.00  0.00     0.086 H 
ATOM      8  H   UNL     1     -49.045  36.190  27.553  1.00  0.00     0.084 H 
ATOM      9  H   UNL     1     -46.745  33.227  25.484  1.00  0.00     0.065 H 
ENDROOT
BRANCH   1  10
ATOM     10  N   UNL     1     -48.847  31.551  25.072  1.00  0.00    -0.299 N 
ATOM     11  C   UNL     1     -48.313  29.389  24.731  1.00  0.00     0.033 A 
ATOM     12  C   UNL     1     -47.993  30.527  25.436  1.00  0.00     0.021 A 
ATOM     13  C   UNL     1     -49.333  29.726  23.806  1.00  0.00     0.071 A 
ATOM     14  H   UNL     1     -47.263  30.641  26.226  1.00  0.00     0.083 H 
ATOM     15  C   UNL     1     -49.665  31.060  24.053  1.00  0.00     0.150 A 
ATOM     16  C   UNL     1     -50.032  29.085  22.768  1.00  0.00     0.137 A 
ATOM     17  N   UNL     1     -50.607  31.757  23.385  1.00  0.00    -0.218 NA
ATOM     18  N   UNL     1     -50.985  29.759  22.101  1.00  0.00    -0.219 NA
ATOM     19  C   UNL     1     -51.221  31.034  22.442  1.00  0.00     0.120 A 
ATOM     20  H   UNL     1     -52.000  31.542  21.881  1.00  0.00     0.106 H 
BRANCH  11  21
ATOM     21  C   UNL     1     -47.694  28.081  24.932  1.00  0.00     0.095 A 
ATOM     22  N   UNL     1     -47.331  26.139  25.676  1.00  0.00    -0.275 N 
ATOM     23  C   UNL     1     -46.423  26.293  24.671  1.00  0.00     0.025 A 
ATOM     24  N   UNL     1     -48.128  27.208  25.847  1.00  0.00    -0.173 NA
ATOM     25  C   UNL     1     -46.637  27.553  24.160  1.00  0.00    -0.016 A 
ATOM     26  H   UNL     1     -45.718  25.518  24.407  1.00  0.00     0.084 H 
ATOM     27  H   UNL     1     -46.108  28.022  23.341  1.00  0.00     0.066 H 
BRANCH  22  28
ATOM     28  C   UNL     1     -47.509  24.981  26.519  1.00  0.00     0.030 C 
ATOM     29  H   UNL     1     -47.060  25.172  27.497  1.00  0.00     0.048 H 
ATOM     30  H   UNL     1     -47.017  24.130  26.043  1.00  0.00     0.048 H 
ATOM     31  H   UNL     1     -48.580  24.797  26.628  1.00  0.00     0.048 H 
ENDBRANCH  22  28
ENDBRANCH  11  21
BRANCH  16  32
ATOM     32  N   UNL     1     -49.784  27.789  22.330  1.00  0.00    -0.383 N 
ATOM     33  H   UNL     1     -49.792  27.695  21.321  1.00  0.00     0.158 HD
ATOM     34  H   UNL     1     -50.393  27.145  22.823  1.00  0.00     0.158 HD
ENDBRANCH  16  32
ENDBRANCH   1  10
BRANCH   5  35
ATOM     35  C   UNL     1     -46.450  35.560  26.851  1.00  0.00    -0.022 C 
ATOM     36  H   UNL     1     -46.227  36.209  25.994  1.00  0.00     0.032 H 
ATOM     37  H   UNL     1     -45.612  34.854  26.913  1.00  0.00     0.032 H 
BRANCH  35  38
ATOM     38  C   UNL     1     -46.530  36.434  28.116  1.00  0.00    -0.024 C 
ATOM     39  H   UNL     1     -47.585  36.592  28.372  1.00  0.00     0.032 H 
ATOM     40  H   UNL     1     -46.087  35.912  28.974  1.00  0.00     0.032 H 
BRANCH  38  41
ATOM     41  C   UNL     1     -45.880  37.788  27.945  1.00  0.00    -0.046 A 
ATOM     42  C   UNL     1     -46.147  38.566  26.815  1.00  0.00    -0.058 A 
ATOM     43  C   UNL     1     -44.939  38.250  28.881  1.00  0.00    -0.032 A 
ATOM     44  C   UNL     1     -45.463  39.764  26.615  1.00  0.00    -0.053 A 
ATOM     45  H   UNL     1     -46.872  38.236  26.074  1.00  0.00     0.063 H 
ATOM     46  C   UNL     1     -44.223  39.424  28.692  1.00  0.00     0.073 A 
ATOM     47  H   UNL     1     -44.716  37.653  29.764  1.00  0.00     0.065 H 
ATOM     48  C   UNL     1     -44.491  40.187  27.537  1.00  0.00     0.000 A 
ATOM     49  H   UNL     1     -45.671  40.352  25.725  1.00  0.00     0.063 H 
ATOM     50  N   UNL     1     -43.280  39.773  29.585  1.00  0.00    -0.231 NA
ATOM     51  C   UNL     1     -43.747  41.354  27.339  1.00  0.00    -0.049 A 
ATOM     52  C   UNL     1     -42.559  40.881  29.353  1.00  0.00     0.124 A 
ATOM     53  C   UNL     1     -42.766  41.703  28.259  1.00  0.00    -0.019 A 
ATOM     54  H   UNL     1     -43.914  41.982  26.470  1.00  0.00     0.063 H 
ATOM     55  H   UNL     1     -42.174  42.601  28.123  1.00  0.00     0.066 H 
BRANCH  52  56
ATOM     56  N   UNL     1     -41.571  41.189  30.287  1.00  0.00    -0.384 N 
ATOM     57  H   UNL     1     -41.969  41.903  30.894  1.00  0.00     0.158 HD
ATOM     58  H   UNL     1     -41.316  40.362  30.816  1.00  0.00     0.158 HD
ENDBRANCH  52  56
ENDBRANCH  38  41
ENDBRANCH  35  38
ENDBRANCH   5  35
TORSDOF 8
ENDMDL
