MODEL 1
REMARK VINA RESULT:     -10.7      0.000      0.000
REMARK SMILES Nc1ncnc2c1ccn2-c1cncc(COc2ccc3ccc(N4CCCC4)nc3c2)c1
REMARK SMILES IDX 16 1 15 4 11 5 12 6 33 7 13 8 14 11 10 13 2 14 3 15 7 16
REMARK SMILES IDX 4 17 6 18 8 19 5 20 9 22 1 25 17 28 18 29 19 30 32 31 20 32
REMARK SMILES IDX 31 34 21 36 30 38 22 39 24 40 23 41 25 44 26 45 29 46 27 47
REMARK SMILES IDX 28 50
REMARK H PARENT 16 2 16 3 12 9 33 10 14 12 4 21 8 23 9 24 1 26 1 27 19 33
REMARK H PARENT 32 35 20 37 22 42 23 43 26 48 26 49 29 51 29 52 27 53 27 54
REMARK H PARENT 28 55 28 56
REMARK Flexibility Score: inf
ROOT
ATOM      1  C   UNL     1     -48.341  36.082  27.281  1.00  0.00     0.115 C 
ATOM      2  H   UNL     1     -49.292  36.429  27.702  1.00  0.00     0.076 H 
ATOM      3  H   UNL     1     -48.381  36.307  26.207  1.00  0.00     0.076 H 
ENDROOT
BRANCH   1   4
ATOM      4  C   UNL     1     -47.238  36.837  27.977  1.00  0.00     0.010 A 
ATOM      5  C   UNL     1     -45.523  38.567  28.061  1.00  0.00     0.066 A 
ATOM      6  C   UNL     1     -45.205  38.090  29.328  1.00  0.00     0.051 A 
ATOM      7  C   UNL     1     -46.559  37.910  27.381  1.00  0.00    -0.028 A 
ATOM      8  N   UNL     1     -45.829  37.042  29.927  1.00  0.00    -0.262 NA
ATOM      9  H   UNL     1     -44.437  38.526  29.955  1.00  0.00     0.086 H 
ATOM     10  H   UNL     1     -46.859  38.199  26.379  1.00  0.00     0.065 H 
ATOM     11  C   UNL     1     -46.820  36.440  29.240  1.00  0.00     0.034 A 
ATOM     12  H   UNL     1     -47.282  35.603  29.757  1.00  0.00     0.084 H 
BRANCH   5  13
ATOM     13  N   UNL     1     -44.839  39.679  27.473  1.00  0.00    -0.300 N 
ATOM     14  C   UNL     1     -42.381  42.274  27.459  1.00  0.00     0.136 A 
ATOM     15  N   UNL     1     -41.769  42.103  28.643  1.00  0.00    -0.219 NA
ATOM     16  C   UNL     1     -43.429  41.415  27.100  1.00  0.00     0.061 A 
ATOM     17  C   UNL     1     -42.200  41.111  29.439  1.00  0.00     0.120 A 
ATOM     18  C   UNL     1     -43.786  40.426  28.013  1.00  0.00     0.150 A 
ATOM     19  C   UNL     1     -44.280  41.280  25.980  1.00  0.00    -0.031 A 
ATOM     20  N   UNL     1     -43.185  40.232  29.204  1.00  0.00    -0.218 NA
ATOM     21  H   UNL     1     -41.685  41.007  30.388  1.00  0.00     0.106 H 
ATOM     22  C   UNL     1     -45.122  40.220  26.226  1.00  0.00     0.012 A 
ATOM     23  H   UNL     1     -44.287  41.898  25.090  1.00  0.00     0.065 H 
ATOM     24  H   UNL     1     -45.918  39.837  25.604  1.00  0.00     0.082 H 
BRANCH  14  25
ATOM     25  N   UNL     1     -41.914  43.297  26.646  1.00  0.00    -0.383 N 
ATOM     26  H   UNL     1     -42.293  43.210  25.710  1.00  0.00     0.158 HD
ATOM     27  H   UNL     1     -41.943  44.219  27.057  1.00  0.00     0.158 HD
ENDBRANCH  14  25
ENDBRANCH   5  13
ENDBRANCH   1   4
BRANCH   1  28
ATOM     28  O   UNL     1     -48.295  34.670  27.502  1.00  0.00    -0.489 OA
BRANCH  28  29
ATOM     29  C   UNL     1     -47.826  33.862  26.502  1.00  0.00     0.122 A 
ATOM     30  C   UNL     1     -46.640  34.029  25.798  1.00  0.00    -0.019 A 
ATOM     31  C   UNL     1     -48.642  32.760  26.217  1.00  0.00     0.007 A 
ATOM     32  C   UNL     1     -46.284  33.106  24.813  1.00  0.00    -0.049 A 
ATOM     33  H   UNL     1     -45.959  34.851  25.993  1.00  0.00     0.066 H 
ATOM     34  C   UNL     1     -48.314  31.828  25.242  1.00  0.00     0.076 A 
ATOM     35  H   UNL     1     -49.567  32.623  26.773  1.00  0.00     0.069 H 
ATOM     36  C   UNL     1     -47.116  32.009  24.533  1.00  0.00     0.001 A 
ATOM     37  H   UNL     1     -45.351  33.243  24.270  1.00  0.00     0.063 H 
ATOM     38  N   UNL     1     -49.140  30.791  25.011  1.00  0.00    -0.231 NA
ATOM     39  C   UNL     1     -46.792  31.062  23.561  1.00  0.00    -0.049 A 
ATOM     40  C   UNL     1     -48.835  29.879  24.059  1.00  0.00     0.129 A 
ATOM     41  C   UNL     1     -47.655  29.993  23.330  1.00  0.00    -0.019 A 
ATOM     42  H   UNL     1     -45.873  31.141  22.988  1.00  0.00     0.063 H 
ATOM     43  H   UNL     1     -47.385  29.250  22.590  1.00  0.00     0.066 H 
BRANCH  40  44
ATOM     44  N   UNL     1     -49.699  28.825  23.865  1.00  0.00    -0.357 N 
ATOM     45  C   UNL     1     -49.841  28.266  22.526  1.00  0.00     0.019 C 
ATOM     46  C   UNL     1     -49.981  27.829  24.892  1.00  0.00     0.019 C 
ATOM     47  C   UNL     1     -50.750  27.062  22.753  1.00  0.00    -0.034 C 
ATOM     48  H   UNL     1     -48.872  27.932  22.133  1.00  0.00     0.049 H 
ATOM     49  H   UNL     1     -50.293  28.974  21.824  1.00  0.00     0.049 H 
ATOM     50  C   UNL     1     -50.286  26.551  24.108  1.00  0.00    -0.034 C 
ATOM     51  H   UNL     1     -49.137  27.655  25.570  1.00  0.00     0.049 H 
ATOM     52  H   UNL     1     -50.852  28.140  25.478  1.00  0.00     0.049 H 
ATOM     53  H   UNL     1     -50.662  26.314  21.962  1.00  0.00     0.029 H 
ATOM     54  H   UNL     1     -51.797  27.384  22.813  1.00  0.00     0.029 H 
ATOM     55  H   UNL     1     -49.369  25.961  23.987  1.00  0.00     0.029 H 
ATOM     56  H   UNL     1     -51.031  25.924  24.605  1.00  0.00     0.029 H 
ENDBRANCH  40  44
ENDBRANCH  28  29
ENDBRANCH   1  28
TORSDOF 6
ENDMDL
MODEL 2
REMARK VINA RESULT:     -10.6      2.137     11.203
REMARK SMILES Nc1ncnc2c1ccn2-c1cncc(COc2ccc3ccc(N4CCCC4)nc3c2)c1
REMARK SMILES IDX 16 1 15 4 11 5 12 6 33 7 13 8 14 11 10 13 2 14 3 15 7 16
REMARK SMILES IDX 4 17 6 18 8 19 5 20 9 22 1 25 17 28 18 29 19 30 32 31 20 32
REMARK SMILES IDX 31 34 21 36 30 38 22 39 24 40 23 41 25 44 26 45 29 46 27 47
REMARK SMILES IDX 28 50
REMARK H PARENT 16 2 16 3 12 9 33 10 14 12 4 21 8 23 9 24 1 26 1 27 19 33
REMARK H PARENT 32 35 20 37 22 42 23 43 26 48 26 49 29 51 29 52 27 53 27 54
REMARK H PARENT 28 55 28 56
REMARK Flexibility Score: inf
ROOT
ATOM      1  C   UNL     1     -46.966  36.549  26.794  1.00  0.00     0.115 C 
ATOM      2  H   UNL     1     -46.091  36.918  26.247  1.00  0.00     0.076 H 
ATOM      3  H   UNL     1     -47.846  36.922  26.252  1.00  0.00     0.076 H 
ENDROOT
BRANCH   1   4
ATOM      4  C   UNL     1     -46.897  35.044  26.795  1.00  0.00     0.010 A 
ATOM      5  C   UNL     1     -47.419  32.857  25.855  1.00  0.00     0.066 A 
ATOM      6  C   UNL     1     -46.751  32.308  26.943  1.00  0.00     0.051 A 
ATOM      7  C   UNL     1     -47.492  34.256  25.798  1.00  0.00    -0.028 A 
ATOM      8  N   UNL     1     -46.179  33.041  27.936  1.00  0.00    -0.262 NA
ATOM      9  H   UNL     1     -46.614  31.244  27.087  1.00  0.00     0.086 H 
ATOM     10  H   UNL     1     -48.014  34.770  24.997  1.00  0.00     0.065 H 
ATOM     11  C   UNL     1     -46.270  34.382  27.841  1.00  0.00     0.034 A 
ATOM     12  H   UNL     1     -45.806  34.924  28.662  1.00  0.00     0.084 H 
BRANCH   5  13
ATOM     13  N   UNL     1     -48.001  32.043  24.830  1.00  0.00    -0.300 N 
ATOM     14  C   UNL     1     -47.900  30.207  21.765  1.00  0.00     0.136 A 
ATOM     15  N   UNL     1     -46.626  30.367  21.371  1.00  0.00    -0.219 NA
ATOM     16  C   UNL     1     -48.326  30.800  22.962  1.00  0.00     0.061 A 
ATOM     17  C   UNL     1     -45.812  31.101  22.147  1.00  0.00     0.120 A 
ATOM     18  C   UNL     1     -47.388  31.540  23.677  1.00  0.00     0.150 A 
ATOM     19  C   UNL     1     -49.540  30.851  23.682  1.00  0.00    -0.031 A 
ATOM     20  N   UNL     1     -46.103  31.711  23.305  1.00  0.00    -0.218 NA
ATOM     21  H   UNL     1     -44.791  31.211  21.794  1.00  0.00     0.106 H 
ATOM     22  C   UNL     1     -49.318  31.604  24.812  1.00  0.00     0.012 A 
ATOM     23  H   UNL     1     -50.482  30.396  23.403  1.00  0.00     0.065 H 
ATOM     24  H   UNL     1     -50.021  31.875  25.587  1.00  0.00     0.082 H 
BRANCH  14  25
ATOM     25  N   UNL     1     -48.722  29.436  20.955  1.00  0.00    -0.383 N 
ATOM     26  H   UNL     1     -48.502  28.452  21.058  1.00  0.00     0.158 HD
ATOM     27  H   UNL     1     -49.701  29.682  20.981  1.00  0.00     0.158 HD
ENDBRANCH  14  25
ENDBRANCH   5  13
ENDBRANCH   1   4
BRANCH   1  28
ATOM     28  O   UNL     1     -46.894  37.125  28.101  1.00  0.00    -0.489 OA
BRANCH  28  29
ATOM     29  C   UNL     1     -45.883  38.003  28.379  1.00  0.00     0.122 A 
ATOM     30  C   UNL     1     -45.087  38.008  29.519  1.00  0.00    -0.019 A 
ATOM     31  C   UNL     1     -45.648  38.953  27.376  1.00  0.00     0.007 A 
ATOM     32  C   UNL     1     -44.076  38.960  29.652  1.00  0.00    -0.049 A 
ATOM     33  H   UNL     1     -45.210  37.282  30.316  1.00  0.00     0.066 H 
ATOM     34  C   UNL     1     -44.650  39.911  27.484  1.00  0.00     0.076 A 
ATOM     35  H   UNL     1     -46.264  38.946  26.480  1.00  0.00     0.069 H 
ATOM     36  C   UNL     1     -43.855  39.910  28.642  1.00  0.00     0.001 A 
ATOM     37  H   UNL     1     -43.455  38.953  30.546  1.00  0.00     0.063 H 
ATOM     38  N   UNL     1     -44.473  40.800  26.489  1.00  0.00    -0.231 NA
ATOM     39  C   UNL     1     -42.851  40.873  28.736  1.00  0.00    -0.049 A 
ATOM     40  C   UNL     1     -43.508  41.744  26.585  1.00  0.00     0.129 A 
ATOM     41  C   UNL     1     -42.678  41.788  27.700  1.00  0.00    -0.019 A 
ATOM     42  H   UNL     1     -42.196  40.916  29.602  1.00  0.00     0.063 H 
ATOM     43  H   UNL     1     -41.880  42.518  27.770  1.00  0.00     0.066 H 
BRANCH  40  44
ATOM     44  N   UNL     1     -43.351  42.623  25.536  1.00  0.00    -0.357 N 
ATOM     45  C   UNL     1     -44.230  42.505  24.378  1.00  0.00     0.019 C 
ATOM     46  C   UNL     1     -42.879  43.992  25.711  1.00  0.00     0.019 C 
ATOM     47  C   UNL     1     -43.843  43.713  23.532  1.00  0.00    -0.034 C 
ATOM     48  H   UNL     1     -45.284  42.580  24.675  1.00  0.00     0.049 H 
ATOM     49  H   UNL     1     -44.072  41.572  23.829  1.00  0.00     0.049 H 
ATOM     50  C   UNL     1     -43.557  44.773  24.583  1.00  0.00    -0.034 C 
ATOM     51  H   UNL     1     -43.155  44.425  26.679  1.00  0.00     0.049 H 
ATOM     52  H   UNL     1     -41.790  44.023  25.602  1.00  0.00     0.049 H 
ATOM     53  H   UNL     1     -44.631  44.007  22.833  1.00  0.00     0.029 H 
ATOM     54  H   UNL     1     -42.933  43.498  22.959  1.00  0.00     0.029 H 
ATOM     55  H   UNL     1     -44.500  45.203  24.943  1.00  0.00     0.029 H 
ATOM     56  H   UNL     1     -42.933  45.589  24.207  1.00  0.00     0.029 H 
ENDBRANCH  40  44
ENDBRANCH  28  29
ENDBRANCH   1  28
TORSDOF 6
ENDMDL
MODEL 3
REMARK VINA RESULT:     -10.4      2.008      3.415
REMARK SMILES Nc1ncnc2c1ccn2-c1cncc(COc2ccc3ccc(N4CCCC4)nc3c2)c1
REMARK SMILES IDX 16 1 15 4 11 5 12 6 33 7 13 8 14 11 10 13 2 14 3 15 7 16
REMARK SMILES IDX 4 17 6 18 8 19 5 20 9 22 1 25 17 28 18 29 19 30 32 31 20 32
REMARK SMILES IDX 31 34 21 36 30 38 22 39 24 40 23 41 25 44 26 45 29 46 27 47
REMARK SMILES IDX 28 50
REMARK H PARENT 16 2 16 3 12 9 33 10 14 12 4 21 8 23 9 24 1 26 1 27 19 33
REMARK H PARENT 32 35 20 37 22 42 23 43 26 48 26 49 29 51 29 52 27 53 27 54
REMARK H PARENT 28 55 28 56
REMARK Flexibility Score: inf
ROOT
ATOM      1  C   UNL     1     -45.282  37.107  29.019  1.00  0.00     0.115 C 
ATOM      2  H   UNL     1     -44.764  36.496  29.766  1.00  0.00     0.076 H 
ATOM      3  H   UNL     1     -46.319  37.206  29.369  1.00  0.00     0.076 H 
ENDROOT
BRANCH   1   4
ATOM      4  C   UNL     1     -44.576  38.437  28.955  1.00  0.00     0.010 A 
ATOM      5  C   UNL     1     -44.050  40.554  27.868  1.00  0.00     0.066 A 
ATOM      6  C   UNL     1     -43.185  40.801  28.928  1.00  0.00     0.051 A 
ATOM      7  C   UNL     1     -44.747  39.337  27.893  1.00  0.00    -0.028 A 
ATOM      8  N   UNL     1     -42.982  39.944  29.963  1.00  0.00    -0.262 NA
ATOM      9  H   UNL     1     -42.607  41.712  29.028  1.00  0.00     0.086 H 
ATOM     10  H   UNL     1     -45.425  39.050  27.096  1.00  0.00     0.065 H 
ATOM     11  C   UNL     1     -43.673  38.787  29.949  1.00  0.00     0.034 A 
ATOM     12  H   UNL     1     -43.471  38.131  30.792  1.00  0.00     0.084 H 
BRANCH   5  13
ATOM     13  N   UNL     1     -44.235  41.492  26.802  1.00  0.00    -0.300 N 
ATOM     14  C   UNL     1     -43.068  43.857  24.389  1.00  0.00     0.136 A 
ATOM     15  N   UNL     1     -41.741  43.854  24.595  1.00  0.00    -0.219 NA
ATOM     16  C   UNL     1     -43.885  43.027  25.171  1.00  0.00     0.061 A 
ATOM     17  C   UNL     1     -41.253  43.052  25.556  1.00  0.00     0.120 A 
ATOM     18  C   UNL     1     -43.260  42.243  26.137  1.00  0.00     0.150 A 
ATOM     19  C   UNL     1     -45.270  42.759  25.243  1.00  0.00    -0.031 A 
ATOM     20  N   UNL     1     -41.930  42.220  26.360  1.00  0.00    -0.218 NA
ATOM     21  H   UNL     1     -40.177  43.080  25.695  1.00  0.00     0.106 H 
ATOM     22  C   UNL     1     -45.458  41.824  26.234  1.00  0.00     0.012 A 
ATOM     23  H   UNL     1     -46.052  43.208  24.644  1.00  0.00     0.065 H 
ATOM     24  H   UNL     1     -46.385  41.395  26.586  1.00  0.00     0.082 H 
BRANCH  14  25
ATOM     25  N   UNL     1     -43.552  44.683  23.384  1.00  0.00    -0.383 N 
ATOM     26  H   UNL     1     -43.214  45.630  23.508  1.00  0.00     0.158 HD
ATOM     27  H   UNL     1     -43.490  44.303  22.451  1.00  0.00     0.158 HD
ENDBRANCH  14  25
ENDBRANCH   5  13
ENDBRANCH   1   4
BRANCH   1  28
ATOM     28  O   UNL     1     -45.229  36.373  27.792  1.00  0.00    -0.489 OA
BRANCH  28  29
ATOM     29  C   UNL     1     -46.332  35.665  27.401  1.00  0.00     0.122 A 
ATOM     30  C   UNL     1     -47.649  35.929  27.759  1.00  0.00    -0.019 A 
ATOM     31  C   UNL     1     -46.058  34.598  26.535  1.00  0.00     0.007 A 
ATOM     32  C   UNL     1     -48.675  35.124  27.261  1.00  0.00    -0.049 A 
ATOM     33  H   UNL     1     -47.920  36.755  28.407  1.00  0.00     0.066 H 
ATOM     34  C   UNL     1     -47.059  33.781  26.027  1.00  0.00     0.076 A 
ATOM     35  H   UNL     1     -45.030  34.394  26.248  1.00  0.00     0.069 H 
ATOM     36  C   UNL     1     -48.386  34.053  26.399  1.00  0.00     0.001 A 
ATOM     37  H   UNL     1     -49.704  35.341  27.543  1.00  0.00     0.063 H 
ATOM     38  N   UNL     1     -46.735  32.769  25.202  1.00  0.00    -0.231 NA
ATOM     39  C   UNL     1     -49.384  33.231  25.876  1.00  0.00    -0.049 A 
ATOM     40  C   UNL     1     -47.700  31.961  24.705  1.00  0.00     0.129 A 
ATOM     41  C   UNL     1     -49.036  32.186  25.024  1.00  0.00    -0.019 A 
ATOM     42  H   UNL     1     -50.430  33.399  26.117  1.00  0.00     0.063 H 
ATOM     43  H   UNL     1     -49.819  31.567  24.604  1.00  0.00     0.066 H 
BRANCH  40  44
ATOM     44  N   UNL     1     -47.326  30.947  23.852  1.00  0.00    -0.357 N 
ATOM     45  C   UNL     1     -46.014  31.008  23.217  1.00  0.00     0.019 C 
ATOM     46  C   UNL     1     -47.782  29.571  24.004  1.00  0.00     0.019 C 
ATOM     47  C   UNL     1     -45.927  29.671  22.487  1.00  0.00    -0.034 C 
ATOM     48  H   UNL     1     -45.216  31.075  23.968  1.00  0.00     0.049 H 
ATOM     49  H   UNL     1     -45.927  31.845  22.518  1.00  0.00     0.049 H 
ATOM     50  C   UNL     1     -46.635  28.727  23.445  1.00  0.00    -0.034 C 
ATOM     51  H   UNL     1     -47.975  29.291  25.047  1.00  0.00     0.049 H 
ATOM     52  H   UNL     1     -48.695  29.419  23.419  1.00  0.00     0.049 H 
ATOM     53  H   UNL     1     -44.896  29.373  22.279  1.00  0.00     0.029 H 
ATOM     54  H   UNL     1     -46.473  29.722  21.538  1.00  0.00     0.029 H 
ATOM     55  H   UNL     1     -45.954  28.441  24.256  1.00  0.00     0.029 H 
ATOM     56  H   UNL     1     -46.988  27.812  22.959  1.00  0.00     0.029 H 
ENDBRANCH  40  44
ENDBRANCH  28  29
ENDBRANCH   1  28
TORSDOF 6
ENDMDL
MODEL 4
REMARK VINA RESULT:     -10.4      1.356     11.783
REMARK SMILES Nc1ncnc2c1ccn2-c1cncc(COc2ccc3ccc(N4CCCC4)nc3c2)c1
REMARK SMILES IDX 16 1 15 4 11 5 12 6 33 7 13 8 14 11 10 13 2 14 3 15 7 16
REMARK SMILES IDX 4 17 6 18 8 19 5 20 9 22 1 25 17 28 18 29 19 30 32 31 20 32
REMARK SMILES IDX 31 34 21 36 30 38 22 39 24 40 23 41 25 44 26 45 29 46 27 47
REMARK SMILES IDX 28 50
REMARK H PARENT 16 2 16 3 12 9 33 10 14 12 4 21 8 23 9 24 1 26 1 27 19 33
REMARK H PARENT 32 35 20 37 22 42 23 43 26 48 26 49 29 51 29 52 27 53 27 54
REMARK H PARENT 28 55 28 56
REMARK Flexibility Score: inf
ROOT
ATOM      1  C   UNL     1     -48.556  34.447  26.718  1.00  0.00     0.115 C 
ATOM      2  H   UNL     1     -49.608  34.555  26.430  1.00  0.00     0.076 H 
ATOM      3  H   UNL     1     -48.557  34.130  27.769  1.00  0.00     0.076 H 
ENDROOT
BRANCH   1   4
ATOM      4  C   UNL     1     -47.945  33.409  25.813  1.00  0.00     0.010 A 
ATOM      5  C   UNL     1     -48.087  31.461  24.354  1.00  0.00     0.066 A 
ATOM      6  C   UNL     1     -46.704  31.537  24.237  1.00  0.00     0.051 A 
ATOM      7  C   UNL     1     -48.705  32.420  25.170  1.00  0.00    -0.028 A 
ATOM      8  N   UNL     1     -45.935  32.469  24.860  1.00  0.00    -0.262 NA
ATOM      9  H   UNL     1     -46.118  30.864  23.622  1.00  0.00     0.086 H 
ATOM     10  H   UNL     1     -49.778  32.423  25.337  1.00  0.00     0.065 H 
ATOM     11  C   UNL     1     -46.569  33.374  25.632  1.00  0.00     0.034 A 
ATOM     12  H   UNL     1     -45.912  34.092  26.116  1.00  0.00     0.084 H 
BRANCH   5  13
ATOM     13  N   UNL     1     -48.855  30.463  23.673  1.00  0.00    -0.300 N 
ATOM     14  C   UNL     1     -50.329  27.220  23.368  1.00  0.00     0.136 A 
ATOM     15  N   UNL     1     -49.970  26.628  24.519  1.00  0.00    -0.219 NA
ATOM     16  C   UNL     1     -49.924  28.540  23.123  1.00  0.00     0.061 A 
ATOM     17  C   UNL     1     -49.226  27.333  25.388  1.00  0.00     0.120 A 
ATOM     18  C   UNL     1     -49.152  29.164  24.100  1.00  0.00     0.150 A 
ATOM     19  C   UNL     1     -50.102  29.468  22.072  1.00  0.00    -0.031 A 
ATOM     20  N   UNL     1     -48.783  28.592  25.263  1.00  0.00    -0.218 NA
ATOM     21  H   UNL     1     -48.952  26.819  26.304  1.00  0.00     0.106 H 
ATOM     22  C   UNL     1     -49.451  30.626  22.429  1.00  0.00     0.012 A 
ATOM     23  H   UNL     1     -50.639  29.306  21.146  1.00  0.00     0.065 H 
ATOM     24  H   UNL     1     -49.353  31.542  21.865  1.00  0.00     0.082 H 
BRANCH  14  25
ATOM     25  N   UNL     1     -51.107  26.480  22.490  1.00  0.00    -0.383 N 
ATOM     26  H   UNL     1     -51.990  26.231  22.919  1.00  0.00     0.158 HD
ATOM     27  H   UNL     1     -51.152  26.843  21.548  1.00  0.00     0.158 HD
ENDBRANCH  14  25
ENDBRANCH   5  13
ENDBRANCH   1   4
BRANCH   1  28
ATOM     28  O   UNL     1     -47.967  35.743  26.580  1.00  0.00    -0.489 OA
BRANCH  28  29
ATOM     29  C   UNL     1     -47.158  36.208  27.581  1.00  0.00     0.122 A 
ATOM     30  C   UNL     1     -47.005  35.646  28.843  1.00  0.00    -0.019 A 
ATOM     31  C   UNL     1     -46.414  37.346  27.243  1.00  0.00     0.007 A 
ATOM     32  C   UNL     1     -46.123  36.226  29.756  1.00  0.00    -0.049 A 
ATOM     33  H   UNL     1     -47.538  34.752  29.149  1.00  0.00     0.066 H 
ATOM     34  C   UNL     1     -45.532  37.944  28.132  1.00  0.00     0.076 A 
ATOM     35  H   UNL     1     -46.527  37.783  26.254  1.00  0.00     0.069 H 
ATOM     36  C   UNL     1     -45.388  37.372  29.406  1.00  0.00     0.001 A 
ATOM     37  H   UNL     1     -46.006  35.776  30.739  1.00  0.00     0.063 H 
ATOM     38  N   UNL     1     -44.847  39.039  27.752  1.00  0.00    -0.231 NA
ATOM     39  C   UNL     1     -44.493  37.977  30.288  1.00  0.00    -0.049 A 
ATOM     40  C   UNL     1     -43.989  39.635  28.611  1.00  0.00     0.129 A 
ATOM     41  C   UNL     1     -43.790  39.109  29.884  1.00  0.00    -0.019 A 
ATOM     42  H   UNL     1     -44.330  37.573  31.283  1.00  0.00     0.063 H 
ATOM     43  H   UNL     1     -43.080  39.559  30.566  1.00  0.00     0.066 H 
BRANCH  40  44
ATOM     44  N   UNL     1     -43.296  40.743  28.176  1.00  0.00    -0.357 N 
ATOM     45  C   UNL     1     -43.860  41.549  27.098  1.00  0.00     0.019 C 
ATOM     46  C   UNL     1     -42.443  41.541  29.048  1.00  0.00     0.019 C 
ATOM     47  C   UNL     1     -42.894  42.727  27.012  1.00  0.00    -0.034 C 
ATOM     48  H   UNL     1     -44.864  41.908  27.359  1.00  0.00     0.049 H 
ATOM     49  H   UNL     1     -43.903  41.005  26.149  1.00  0.00     0.049 H 
ATOM     50  C   UNL     1     -42.523  42.954  28.469  1.00  0.00    -0.034 C 
ATOM     51  H   UNL     1     -42.776  41.548  30.092  1.00  0.00     0.049 H 
ATOM     52  H   UNL     1     -41.415  41.163  29.004  1.00  0.00     0.049 H 
ATOM     53  H   UNL     1     -43.344  43.606  26.544  1.00  0.00     0.029 H 
ATOM     54  H   UNL     1     -42.003  42.445  26.439  1.00  0.00     0.029 H 
ATOM     55  H   UNL     1     -43.320  43.517  28.971  1.00  0.00     0.029 H 
ATOM     56  H   UNL     1     -41.589  43.509  28.589  1.00  0.00     0.029 H 
ENDBRANCH  40  44
ENDBRANCH  28  29
ENDBRANCH   1  28
TORSDOF 6
ENDMDL
MODEL 5
REMARK VINA RESULT:     -10.3      1.888      2.726
REMARK SMILES Nc1ncnc2c1ccn2-c1cncc(COc2ccc3ccc(N4CCCC4)nc3c2)c1
REMARK SMILES IDX 16 1 15 4 11 5 12 6 33 7 13 8 14 11 10 13 2 14 3 15 7 16
REMARK SMILES IDX 4 17 6 18 8 19 5 20 9 22 1 25 17 28 18 29 19 30 32 31 20 32
REMARK SMILES IDX 31 34 21 36 30 38 22 39 24 40 23 41 25 44 26 45 29 46 27 47
REMARK SMILES IDX 28 50
REMARK H PARENT 16 2 16 3 12 9 33 10 14 12 4 21 8 23 9 24 1 26 1 27 19 33
REMARK H PARENT 32 35 20 37 22 42 23 43 26 48 26 49 29 51 29 52 27 53 27 54
REMARK H PARENT 28 55 28 56
REMARK Flexibility Score: inf
ROOT
ATOM      1  C   UNL     1     -47.394  34.563  26.000  1.00  0.00     0.115 C 
ATOM      2  H   UNL     1     -47.831  34.652  24.999  1.00  0.00     0.076 H 
ATOM      3  H   UNL     1     -46.334  34.317  25.850  1.00  0.00     0.076 H 
ENDROOT
BRANCH   1   4
ATOM      4  C   UNL     1     -47.576  35.889  26.692  1.00  0.00     0.010 A 
ATOM      5  C   UNL     1     -46.773  38.070  27.427  1.00  0.00     0.066 A 
ATOM      6  C   UNL     1     -48.012  38.242  28.034  1.00  0.00     0.051 A 
ATOM      7  C   UNL     1     -46.563  36.859  26.752  1.00  0.00    -0.028 A 
ATOM      8  N   UNL     1     -49.007  37.316  28.011  1.00  0.00    -0.262 NA
ATOM      9  H   UNL     1     -48.297  39.140  28.569  1.00  0.00     0.086 H 
ATOM     10  H   UNL     1     -45.619  36.630  26.269  1.00  0.00     0.065 H 
ATOM     11  C   UNL     1     -48.765  36.168  27.350  1.00  0.00     0.034 A 
ATOM     12  H   UNL     1     -49.587  35.456  27.367  1.00  0.00     0.084 H 
BRANCH   5  13
ATOM     13  N   UNL     1     -45.757  39.078  27.475  1.00  0.00    -0.300 N 
ATOM     14  C   UNL     1     -42.935  40.703  28.948  1.00  0.00     0.136 A 
ATOM     15  N   UNL     1     -42.708  39.959  30.043  1.00  0.00    -0.219 NA
ATOM     16  C   UNL     1     -43.993  40.360  28.094  1.00  0.00     0.061 A 
ATOM     17  C   UNL     1     -43.519  38.913  30.275  1.00  0.00     0.120 A 
ATOM     18  C   UNL     1     -44.764  39.255  28.445  1.00  0.00     0.150 A 
ATOM     19  C   UNL     1     -44.521  40.877  26.890  1.00  0.00    -0.031 A 
ATOM     20  N   UNL     1     -44.554  38.491  29.535  1.00  0.00    -0.218 NA
ATOM     21  H   UNL     1     -43.307  38.338  31.171  1.00  0.00     0.106 H 
ATOM     22  C   UNL     1     -45.585  40.082  26.531  1.00  0.00     0.012 A 
ATOM     23  H   UNL     1     -44.171  41.745  26.346  1.00  0.00     0.065 H 
ATOM     24  H   UNL     1     -46.243  40.185  25.680  1.00  0.00     0.082 H 
BRANCH  14  25
ATOM     25  N   UNL     1     -42.080  41.772  28.720  1.00  0.00    -0.383 N 
ATOM     26  H   UNL     1     -41.281  41.729  29.343  1.00  0.00     0.158 HD
ATOM     27  H   UNL     1     -41.881  41.961  27.748  1.00  0.00     0.158 HD
ENDBRANCH  14  25
ENDBRANCH   5  13
ENDBRANCH   1   4
BRANCH   1  28
ATOM     28  O   UNL     1     -48.079  33.485  26.643  1.00  0.00    -0.489 OA
BRANCH  28  29
ATOM     29  C   UNL     1     -48.703  32.546  25.868  1.00  0.00     0.122 A 
ATOM     30  C   UNL     1     -49.648  32.792  24.879  1.00  0.00    -0.019 A 
ATOM     31  C   UNL     1     -48.296  31.228  26.113  1.00  0.00     0.007 A 
ATOM     32  C   UNL     1     -50.184  31.726  24.154  1.00  0.00    -0.049 A 
ATOM     33  H   UNL     1     -49.982  33.794  24.631  1.00  0.00     0.066 H 
ATOM     34  C   UNL     1     -48.813  30.150  25.409  1.00  0.00     0.076 A 
ATOM     35  H   UNL     1     -47.550  31.034  26.881  1.00  0.00     0.069 H 
ATOM     36  C   UNL     1     -49.771  30.409  24.416  1.00  0.00     0.001 A 
ATOM     37  H   UNL     1     -50.920  31.929  23.379  1.00  0.00     0.063 H 
ATOM     38  N   UNL     1     -48.385  28.906  25.692  1.00  0.00    -0.231 NA
ATOM     39  C   UNL     1     -50.278  29.319  23.709  1.00  0.00    -0.049 A 
ATOM     40  C   UNL     1     -48.887  27.845  25.017  1.00  0.00     0.129 A 
ATOM     41  C   UNL     1     -49.829  28.035  24.011  1.00  0.00    -0.019 A 
ATOM     42  H   UNL     1     -51.013  29.456  22.921  1.00  0.00     0.063 H 
ATOM     43  H   UNL     1     -50.210  27.196  23.442  1.00  0.00     0.066 H 
BRANCH  40  44
ATOM     44  N   UNL     1     -48.410  26.591  25.327  1.00  0.00    -0.357 N 
ATOM     45  C   UNL     1     -46.968  26.379  25.386  1.00  0.00     0.019 C 
ATOM     46  C   UNL     1     -49.122  25.663  26.198  1.00  0.00     0.019 C 
ATOM     47  C   UNL     1     -46.854  24.943  25.887  1.00  0.00    -0.034 C 
ATOM     48  H   UNL     1     -46.498  27.063  26.105  1.00  0.00     0.049 H 
ATOM     49  H   UNL     1     -46.489  26.495  24.408  1.00  0.00     0.049 H 
ATOM     50  C   UNL     1     -48.015  24.843  26.864  1.00  0.00    -0.034 C 
ATOM     51  H   UNL     1     -49.725  26.163  26.964  1.00  0.00     0.049 H 
ATOM     52  H   UNL     1     -49.771  25.018  25.597  1.00  0.00     0.049 H 
ATOM     53  H   UNL     1     -45.887  24.735  26.351  1.00  0.00     0.029 H 
ATOM     54  H   UNL     1     -47.001  24.240  25.058  1.00  0.00     0.029 H 
ATOM     55  H   UNL     1     -47.735  25.303  27.820  1.00  0.00     0.029 H 
ATOM     56  H   UNL     1     -48.319  23.811  27.060  1.00  0.00     0.029 H 
ENDBRANCH  40  44
ENDBRANCH  28  29
ENDBRANCH   1  28
TORSDOF 6
ENDMDL
MODEL 6
REMARK VINA RESULT:     -10.3      1.914     11.721
REMARK SMILES Nc1ncnc2c1ccn2-c1cncc(COc2ccc3ccc(N4CCCC4)nc3c2)c1
REMARK SMILES IDX 16 1 15 4 11 5 12 6 33 7 13 8 14 11 10 13 2 14 3 15 7 16
REMARK SMILES IDX 4 17 6 18 8 19 5 20 9 22 1 25 17 28 18 29 19 30 32 31 20 32
REMARK SMILES IDX 31 34 21 36 30 38 22 39 24 40 23 41 25 44 26 45 29 46 27 47
REMARK SMILES IDX 28 50
REMARK H PARENT 16 2 16 3 12 9 33 10 14 12 4 21 8 23 9 24 1 26 1 27 19 33
REMARK H PARENT 32 35 20 37 22 42 23 43 26 48 26 49 29 51 29 52 27 53 27 54
REMARK H PARENT 28 55 28 56
REMARK Flexibility Score: inf
ROOT
ATOM      1  C   UNL     1     -46.102  32.804  24.497  1.00  0.00     0.115 C 
ATOM      2  H   UNL     1     -45.009  32.731  24.489  1.00  0.00     0.076 H 
ATOM      3  H   UNL     1     -46.350  33.739  23.977  1.00  0.00     0.076 H 
ENDROOT
BRANCH   1   4
ATOM      4  C   UNL     1     -46.641  31.596  23.776  1.00  0.00     0.010 A 
ATOM      5  C   UNL     1     -48.080  29.634  23.623  1.00  0.00     0.066 A 
ATOM      6  C   UNL     1     -47.495  29.389  22.386  1.00  0.00     0.051 A 
ATOM      7  C   UNL     1     -47.626  30.761  24.324  1.00  0.00    -0.028 A 
ATOM      8  N   UNL     1     -46.525  30.166  21.834  1.00  0.00    -0.262 NA
ATOM      9  H   UNL     1     -47.774  28.562  21.746  1.00  0.00     0.086 H 
ATOM     10  H   UNL     1     -48.010  31.016  25.307  1.00  0.00     0.065 H 
ATOM     11  C   UNL     1     -46.120  31.240  22.539  1.00  0.00     0.034 A 
ATOM     12  H   UNL     1     -45.338  31.824  22.061  1.00  0.00     0.084 H 
BRANCH   5  13
ATOM     13  N   UNL     1     -49.103  28.789  24.161  1.00  0.00    -0.300 N 
ATOM     14  C   UNL     1     -50.282  26.101  26.202  1.00  0.00     0.136 A 
ATOM     15  N   UNL     1     -49.152  25.650  26.771  1.00  0.00    -0.219 NA
ATOM     16  C   UNL     1     -50.216  27.184  25.313  1.00  0.00     0.061 A 
ATOM     17  C   UNL     1     -47.998  26.260  26.454  1.00  0.00     0.120 A 
ATOM     18  C   UNL     1     -48.959  27.729  25.062  1.00  0.00     0.150 A 
ATOM     19  C   UNL     1     -51.151  27.917  24.549  1.00  0.00    -0.031 A 
ATOM     20  N   UNL     1     -47.812  27.296  25.625  1.00  0.00    -0.218 NA
ATOM     21  H   UNL     1     -47.107  25.864  26.931  1.00  0.00     0.106 H 
ATOM     22  C   UNL     1     -50.456  28.886  23.864  1.00  0.00     0.012 A 
ATOM     23  H   UNL     1     -52.220  27.750  24.494  1.00  0.00     0.065 H 
ATOM     24  H   UNL     1     -50.836  29.619  23.167  1.00  0.00     0.082 H 
BRANCH  14  25
ATOM     25  N   UNL     1     -51.466  25.466  26.551  1.00  0.00    -0.383 N 
ATOM     26  H   UNL     1     -51.767  25.756  27.474  1.00  0.00     0.158 HD
ATOM     27  H   UNL     1     -52.174  25.455  25.831  1.00  0.00     0.158 HD
ENDBRANCH  14  25
ENDBRANCH   5  13
ENDBRANCH   1   4
BRANCH   1  28
ATOM     28  O   UNL     1     -46.490  32.869  25.871  1.00  0.00    -0.489 OA
BRANCH  28  29
ATOM     29  C   UNL     1     -47.118  33.996  26.326  1.00  0.00     0.122 A 
ATOM     30  C   UNL     1     -48.478  34.134  26.583  1.00  0.00    -0.019 A 
ATOM     31  C   UNL     1     -46.263  35.080  26.565  1.00  0.00     0.007 A 
ATOM     32  C   UNL     1     -48.971  35.347  27.066  1.00  0.00    -0.049 A 
ATOM     33  H   UNL     1     -49.181  33.321  26.438  1.00  0.00     0.066 H 
ATOM     34  C   UNL     1     -46.727  36.298  27.042  1.00  0.00     0.076 A 
ATOM     35  H   UNL     1     -45.199  34.972  26.372  1.00  0.00     0.069 H 
ATOM     36  C   UNL     1     -48.102  36.428  27.295  1.00  0.00     0.001 A 
ATOM     37  H   UNL     1     -50.035  35.444  27.268  1.00  0.00     0.063 H 
ATOM     38  N   UNL     1     -45.857  37.304  27.250  1.00  0.00    -0.231 NA
ATOM     39  C   UNL     1     -48.556  37.653  27.781  1.00  0.00    -0.049 A 
ATOM     40  C   UNL     1     -46.298  38.498  27.709  1.00  0.00     0.129 A 
ATOM     41  C   UNL     1     -47.647  38.688  27.992  1.00  0.00    -0.019 A 
ATOM     42  H   UNL     1     -49.607  37.811  28.007  1.00  0.00     0.063 H 
ATOM     43  H   UNL     1     -48.004  39.629  28.392  1.00  0.00     0.066 H 
BRANCH  40  44
ATOM     44  N   UNL     1     -45.372  39.495  27.922  1.00  0.00    -0.357 N 
ATOM     45  C   UNL     1     -44.257  39.240  28.827  1.00  0.00     0.019 C 
ATOM     46  C   UNL     1     -45.024  40.486  26.911  1.00  0.00     0.019 C 
ATOM     47  C   UNL     1     -43.407  40.499  28.684  1.00  0.00    -0.034 C 
ATOM     48  H   UNL     1     -43.681  38.363  28.505  1.00  0.00     0.049 H 
ATOM     49  H   UNL     1     -44.584  39.101  29.863  1.00  0.00     0.049 H 
ATOM     50  C   UNL     1     -43.564  40.835  27.209  1.00  0.00    -0.034 C 
ATOM     51  H   UNL     1     -45.113  40.109  25.886  1.00  0.00     0.049 H 
ATOM     52  H   UNL     1     -45.663  41.368  27.024  1.00  0.00     0.049 H 
ATOM     53  H   UNL     1     -42.366  40.339  28.976  1.00  0.00     0.029 H 
ATOM     54  H   UNL     1     -43.821  41.307  29.299  1.00  0.00     0.029 H 
ATOM     55  H   UNL     1     -42.900  40.199  26.611  1.00  0.00     0.029 H 
ATOM     56  H   UNL     1     -43.329  41.879  26.983  1.00  0.00     0.029 H 
ENDBRANCH  40  44
ENDBRANCH  28  29
ENDBRANCH   1  28
TORSDOF 6
ENDMDL
MODEL 7
REMARK VINA RESULT:     -10.1      1.625     11.458
REMARK SMILES Nc1ncnc2c1ccn2-c1cncc(COc2ccc3ccc(N4CCCC4)nc3c2)c1
REMARK SMILES IDX 16 1 15 4 11 5 12 6 33 7 13 8 14 11 10 13 2 14 3 15 7 16
REMARK SMILES IDX 4 17 6 18 8 19 5 20 9 22 1 25 17 28 18 29 19 30 32 31 20 32
REMARK SMILES IDX 31 34 21 36 30 38 22 39 24 40 23 41 25 44 26 45 29 46 27 47
REMARK SMILES IDX 28 50
REMARK H PARENT 16 2 16 3 12 9 33 10 14 12 4 21 8 23 9 24 1 26 1 27 19 33
REMARK H PARENT 32 35 20 37 22 42 23 43 26 48 26 49 29 51 29 52 27 53 27 54
REMARK H PARENT 28 55 28 56
REMARK Flexibility Score: inf
ROOT
ATOM      1  C   UNL     1     -48.582  35.072  27.251  1.00  0.00     0.115 C 
ATOM      2  H   UNL     1     -49.655  34.927  27.083  1.00  0.00     0.076 H 
ATOM      3  H   UNL     1     -48.405  34.846  28.311  1.00  0.00     0.076 H 
ENDROOT
BRANCH   1   4
ATOM      4  C   UNL     1     -47.850  34.122  26.339  1.00  0.00     0.010 A 
ATOM      5  C   UNL     1     -47.662  32.035  25.094  1.00  0.00     0.066 A 
ATOM      6  C   UNL     1     -46.389  32.453  24.724  1.00  0.00     0.051 A 
ATOM      7  C   UNL     1     -48.392  32.896  25.926  1.00  0.00    -0.028 A 
ATOM      8  N   UNL     1     -45.826  33.625  25.120  1.00  0.00    -0.262 NA
ATOM      9  H   UNL     1     -45.739  31.883  24.072  1.00  0.00     0.086 H 
ATOM     10  H   UNL     1     -49.385  32.641  26.283  1.00  0.00     0.065 H 
ATOM     11  C   UNL     1     -46.562  34.424  25.918  1.00  0.00     0.034 A 
ATOM     12  H   UNL     1     -46.066  35.344  26.215  1.00  0.00     0.084 H 
BRANCH   5  13
ATOM     13  N   UNL     1     -48.215  30.793  24.646  1.00  0.00    -0.300 N 
ATOM     14  C   UNL     1     -49.199  28.457  22.125  1.00  0.00     0.136 A 
ATOM     15  N   UNL     1     -48.857  29.091  20.991  1.00  0.00    -0.219 NA
ATOM     16  C   UNL     1     -48.957  29.081  23.357  1.00  0.00     0.061 A 
ATOM     17  C   UNL     1     -48.300  30.309  21.091  1.00  0.00     0.120 A 
ATOM     18  C   UNL     1     -48.376  30.346  23.330  1.00  0.00     0.150 A 
ATOM     19  C   UNL     1     -49.164  28.742  24.713  1.00  0.00    -0.031 A 
ATOM     20  N   UNL     1     -48.021  31.000  22.205  1.00  0.00    -0.218 NA
ATOM     21  H   UNL     1     -48.041  30.790  20.153  1.00  0.00     0.106 H 
ATOM     22  C   UNL     1     -48.703  29.791  25.475  1.00  0.00     0.012 A 
ATOM     23  H   UNL     1     -49.612  27.834  25.096  1.00  0.00     0.065 H 
ATOM     24  H   UNL     1     -48.716  29.897  26.551  1.00  0.00     0.082 H 
BRANCH  14  25
ATOM     25  N   UNL     1     -49.763  27.195  22.001  1.00  0.00    -0.383 N 
ATOM     26  H   UNL     1     -49.242  26.636  21.336  1.00  0.00     0.158 HD
ATOM     27  H   UNL     1     -50.004  26.747  22.873  1.00  0.00     0.158 HD
ENDBRANCH  14  25
ENDBRANCH   5  13
ENDBRANCH   1   4
BRANCH   1  28
ATOM     28  O   UNL     1     -48.314  36.450  26.975  1.00  0.00    -0.489 OA
BRANCH  28  29
ATOM     29  C   UNL     1     -47.273  37.060  27.619  1.00  0.00     0.122 A 
ATOM     30  C   UNL     1     -46.672  36.634  28.798  1.00  0.00    -0.019 A 
ATOM     31  C   UNL     1     -46.783  38.204  26.975  1.00  0.00     0.007 A 
ATOM     32  C   UNL     1     -45.599  37.354  29.327  1.00  0.00    -0.049 A 
ATOM     33  H   UNL     1     -46.995  35.743  29.325  1.00  0.00     0.066 H 
ATOM     34  C   UNL     1     -45.720  38.939  27.480  1.00  0.00     0.076 A 
ATOM     35  H   UNL     1     -47.247  38.534  26.049  1.00  0.00     0.069 H 
ATOM     36  C   UNL     1     -45.123  38.503  28.674  1.00  0.00     0.001 A 
ATOM     37  H   UNL     1     -45.133  37.010  30.248  1.00  0.00     0.063 H 
ATOM     38  N   UNL     1     -45.295  40.032  26.818  1.00  0.00    -0.231 NA
ATOM     39  C   UNL     1     -44.051  39.246  29.168  1.00  0.00    -0.049 A 
ATOM     40  C   UNL     1     -44.265  40.761  27.304  1.00  0.00     0.129 A 
ATOM     41  C   UNL     1     -43.621  40.375  28.475  1.00  0.00    -0.019 A 
ATOM     42  H   UNL     1     -43.540  38.952  30.081  1.00  0.00     0.063 H 
ATOM     43  H   UNL     1     -42.773  40.933  28.853  1.00  0.00     0.066 H 
BRANCH  40  44
ATOM     44  N   UNL     1     -43.852  41.863  26.587  1.00  0.00    -0.357 N 
ATOM     45  C   UNL     1     -42.439  42.224  26.600  1.00  0.00     0.019 C 
ATOM     46  C   UNL     1     -44.504  42.302  25.359  1.00  0.00     0.019 C 
ATOM     47  C   UNL     1     -42.372  43.375  25.601  1.00  0.00    -0.034 C 
ATOM     48  H   UNL     1     -41.816  41.391  26.251  1.00  0.00     0.049 H 
ATOM     49  H   UNL     1     -42.099  42.542  27.591  1.00  0.00     0.049 H 
ATOM     50  C   UNL     1     -43.383  42.954  24.547  1.00  0.00    -0.034 C 
ATOM     51  H   UNL     1     -44.947  41.479  24.785  1.00  0.00     0.049 H 
ATOM     52  H   UNL     1     -45.284  43.032  25.596  1.00  0.00     0.049 H 
ATOM     53  H   UNL     1     -41.368  43.521  25.195  1.00  0.00     0.029 H 
ATOM     54  H   UNL     1     -42.694  44.309  26.077  1.00  0.00     0.029 H 
ATOM     55  H   UNL     1     -42.931  42.214  23.875  1.00  0.00     0.029 H 
ATOM     56  H   UNL     1     -43.740  43.791  23.940  1.00  0.00     0.029 H 
ENDBRANCH  40  44
ENDBRANCH  28  29
ENDBRANCH   1  28
TORSDOF 6
ENDMDL
