MODEL 1
REMARK VINA RESULT:      -8.1      0.000      0.000
REMARK SMILES CNc1cc(N2CCC3(CC2)CN(c2ccc(CN4CCC(C)(C)CC4)cc2)CC(=O)N3)ncn1
REMARK SMILES IDX 6 1 7 2 8 3 9 4 10 5 11 6 12 7 13 8 29 9 30 10 31 11 32 12
REMARK SMILES IDX 5 26 3 27 4 28 35 29 34 31 33 32 2 34 1 36 14 40 15 41 28 42
REMARK SMILES IDX 16 43 27 45 17 47 18 50 19 53 20 54 26 55 21 56 25 59 22 62
REMARK SMILES IDX 23 67 24 71
REMARK H PARENT 7 13 7 14 8 15 8 16 10 17 10 18 11 19 11 20 12 21 12 22 29 23
REMARK H PARENT 29 24 32 25 4 30 34 33 2 35 1 37 1 38 1 39 15 44 28 46 16 48
REMARK H PARENT 27 49 18 51 18 52 20 57 20 58 26 60 26 61 21 63 21 64 25 65
REMARK H PARENT 25 66 23 68 23 69 23 70 24 72 24 73 24 74
REMARK Flexibility Score: inf
ROOT
ATOM      1  N   UNL     1     -44.134  44.744  25.386  1.00  0.00    -0.356 N 
ATOM      2  C   UNL     1     -43.785  45.088  26.766  1.00  0.00     0.021 C 
ATOM      3  C   UNL     1     -43.642  43.828  27.616  1.00  0.00    -0.010 C 
ATOM      4  C   UNL     1     -42.787  42.732  26.918  1.00  0.00     0.061 C 
ATOM      5  C   UNL     1     -42.168  43.267  25.605  1.00  0.00    -0.010 C 
ATOM      6  C   UNL     1     -43.221  43.858  24.667  1.00  0.00     0.021 C 
ATOM      7  C   UNL     1     -43.671  41.484  26.608  1.00  0.00     0.042 C 
ATOM      8  N   UNL     1     -44.106  40.851  27.864  1.00  0.00    -0.360 N 
ATOM      9  C   UNL     1     -43.002  40.435  28.763  1.00  0.00     0.097 C 
ATOM     10  C   UNL     1     -41.834  41.431  28.827  1.00  0.00     0.240 C 
ATOM     11  O   UNL     1     -40.987  41.393  29.721  1.00  0.00    -0.273 OA
ATOM     12  N   UNL     1     -41.678  42.332  27.805  1.00  0.00    -0.347 N 
ATOM     13  H   UNL     1     -42.831  45.631  26.757  1.00  0.00     0.049 H 
ATOM     14  H   UNL     1     -44.496  45.786  27.224  1.00  0.00     0.049 H 
ATOM     15  H   UNL     1     -44.643  43.448  27.851  1.00  0.00     0.031 H 
ATOM     16  H   UNL     1     -43.203  44.114  28.580  1.00  0.00     0.031 H 
ATOM     17  H   UNL     1     -41.417  44.036  25.836  1.00  0.00     0.031 H 
ATOM     18  H   UNL     1     -41.618  42.472  25.084  1.00  0.00     0.031 H 
ATOM     19  H   UNL     1     -42.722  44.423  23.869  1.00  0.00     0.049 H 
ATOM     20  H   UNL     1     -43.751  43.027  24.186  1.00  0.00     0.049 H 
ATOM     21  H   UNL     1     -43.092  40.762  26.016  1.00  0.00     0.052 H 
ATOM     22  H   UNL     1     -44.544  41.788  26.018  1.00  0.00     0.052 H 
ATOM     23  H   UNL     1     -42.587  39.476  28.429  1.00  0.00     0.060 H 
ATOM     24  H   UNL     1     -43.370  40.327  29.790  1.00  0.00     0.060 H 
ATOM     25  H   UNL     1     -40.927  42.989  27.978  1.00  0.00     0.164 HD
ENDROOT
BRANCH   1  26
ATOM     26  C   UNL     1     -45.494  44.693  25.069  1.00  0.00     0.134 A 
ATOM     27  C   UNL     1     -47.724  43.957  25.490  1.00  0.00     0.131 A 
ATOM     28  C   UNL     1     -46.384  43.961  25.841  1.00  0.00     0.023 A 
ATOM     29  N   UNL     1     -48.164  44.614  24.411  1.00  0.00    -0.219 NA
ATOM     30  H   UNL     1     -46.045  43.375  26.685  1.00  0.00     0.070 H 
ATOM     31  C   UNL     1     -47.239  45.277  23.709  1.00  0.00     0.120 A 
ATOM     32  N   UNL     1     -45.932  45.349  23.985  1.00  0.00    -0.219 NA
ATOM     33  H   UNL     1     -47.582  45.811  22.829  1.00  0.00     0.106 H 
BRANCH  27  34
ATOM     34  N   UNL     1     -48.613  43.197  26.275  1.00  0.00    -0.373 N 
ATOM     35  H   UNL     1     -48.207  42.283  26.449  1.00  0.00     0.161 HD
BRANCH  34  36
ATOM     36  C   UNL     1     -49.028  43.846  27.508  1.00  0.00     0.005 C 
ATOM     37  H   UNL     1     -48.204  44.402  27.969  1.00  0.00     0.045 H 
ATOM     38  H   UNL     1     -49.820  44.566  27.280  1.00  0.00     0.045 H 
ATOM     39  H   UNL     1     -49.434  43.124  28.227  1.00  0.00     0.045 H 
ENDBRANCH  34  36
ENDBRANCH  27  34
ENDBRANCH   1  26
BRANCH   8  40
ATOM     40  C   UNL     1     -45.148  39.914  27.798  1.00  0.00     0.037 A 
ATOM     41  C   UNL     1     -45.905  39.806  26.621  1.00  0.00    -0.038 A 
ATOM     42  C   UNL     1     -45.474  39.045  28.848  1.00  0.00    -0.038 A 
ATOM     43  C   UNL     1     -46.936  38.869  26.493  1.00  0.00    -0.056 A 
ATOM     44  H   UNL     1     -45.670  40.438  25.768  1.00  0.00     0.064 H 
ATOM     45  C   UNL     1     -46.512  38.111  28.729  1.00  0.00    -0.056 A 
ATOM     46  H   UNL     1     -44.939  39.082  29.791  1.00  0.00     0.064 H 
ATOM     47  C   UNL     1     -47.244  37.999  27.545  1.00  0.00    -0.034 A 
ATOM     48  H   UNL     1     -47.485  38.813  25.557  1.00  0.00     0.063 H 
ATOM     49  H   UNL     1     -46.735  37.460  29.572  1.00  0.00     0.063 H 
BRANCH  47  50
ATOM     50  C   UNL     1     -48.350  36.980  27.407  1.00  0.00     0.023 C 
ATOM     51  H   UNL     1     -49.212  37.317  27.999  1.00  0.00     0.048 H 
ATOM     52  H   UNL     1     -48.726  37.010  26.375  1.00  0.00     0.048 H 
BRANCH  50  53
ATOM     53  N   UNL     1     -48.043  35.594  27.752  1.00  0.00    -0.299 NA
ATOM     54  C   UNL     1     -48.871  34.566  27.131  1.00  0.00    -0.001 C 
ATOM     55  C   UNL     1     -46.634  35.245  27.884  1.00  0.00    -0.001 C 
ATOM     56  C   UNL     1     -48.279  33.937  25.866  1.00  0.00    -0.035 C 
ATOM     57  H   UNL     1     -49.029  33.774  27.874  1.00  0.00     0.043 H 
ATOM     58  H   UNL     1     -49.877  34.947  26.917  1.00  0.00     0.043 H 
ATOM     59  C   UNL     1     -45.997  34.620  26.640  1.00  0.00    -0.035 C 
ATOM     60  H   UNL     1     -46.041  36.112  28.202  1.00  0.00     0.043 H 
ATOM     61  H   UNL     1     -46.546  34.532  28.714  1.00  0.00     0.043 H 
ATOM     62  C   UNL     1     -46.824  33.462  26.046  1.00  0.00    -0.033 C 
ATOM     63  H   UNL     1     -48.325  34.663  25.046  1.00  0.00     0.029 H 
ATOM     64  H   UNL     1     -48.913  33.096  25.558  1.00  0.00     0.029 H 
ATOM     65  H   UNL     1     -44.988  34.269  26.895  1.00  0.00     0.029 H 
ATOM     66  H   UNL     1     -45.858  35.394  25.877  1.00  0.00     0.029 H 
BRANCH  62  67
ATOM     67  C   UNL     1     -46.241  33.078  24.674  1.00  0.00    -0.060 C 
ATOM     68  H   UNL     1     -47.035  32.845  23.957  1.00  0.00     0.024 H 
ATOM     69  H   UNL     1     -45.594  32.197  24.751  1.00  0.00     0.024 H 
ATOM     70  H   UNL     1     -45.641  33.895  24.257  1.00  0.00     0.024 H 
ENDBRANCH  62  67
BRANCH  62  71
ATOM     71  C   UNL     1     -46.760  32.221  26.956  1.00  0.00    -0.060 C 
ATOM     72  H   UNL     1     -46.472  31.332  26.385  1.00  0.00     0.024 H 
ATOM     73  H   UNL     1     -47.718  32.004  27.437  1.00  0.00     0.024 H 
ATOM     74  H   UNL     1     -46.019  32.357  27.752  1.00  0.00     0.024 H 
ENDBRANCH  62  71
ENDBRANCH  50  53
ENDBRANCH  47  50
ENDBRANCH   8  40
TORSDOF 8
ENDMDL
MODEL 2
REMARK VINA RESULT:      -7.8      2.456      4.682
REMARK SMILES CNc1cc(N2CCC3(CC2)CN(c2ccc(CN4CCC(C)(C)CC4)cc2)CC(=O)N3)ncn1
REMARK SMILES IDX 6 1 7 2 8 3 9 4 10 5 11 6 12 7 13 8 29 9 30 10 31 11 32 12
REMARK SMILES IDX 5 26 3 27 4 28 35 29 34 31 33 32 2 34 1 36 14 40 15 41 28 42
REMARK SMILES IDX 16 43 27 45 17 47 18 50 19 53 20 54 26 55 21 56 25 59 22 62
REMARK SMILES IDX 23 67 24 71
REMARK H PARENT 7 13 7 14 8 15 8 16 10 17 10 18 11 19 11 20 12 21 12 22 29 23
REMARK H PARENT 29 24 32 25 4 30 34 33 2 35 1 37 1 38 1 39 15 44 28 46 16 48
REMARK H PARENT 27 49 18 51 18 52 20 57 20 58 26 60 26 61 21 63 21 64 25 65
REMARK H PARENT 25 66 23 68 23 69 23 70 24 72 24 73 24 74
REMARK Flexibility Score: inf
ROOT
ATOM      1  N   UNL     1     -45.083  45.902  24.491  1.00  0.00    -0.356 N 
ATOM      2  C   UNL     1     -46.141  45.660  23.508  1.00  0.00     0.021 C 
ATOM      3  C   UNL     1     -47.195  44.711  24.072  1.00  0.00    -0.010 C 
ATOM      4  C   UNL     1     -47.638  45.100  25.511  1.00  0.00     0.061 C 
ATOM      5  C   UNL     1     -47.009  46.447  25.938  1.00  0.00    -0.010 C 
ATOM      6  C   UNL     1     -45.487  46.450  25.785  1.00  0.00     0.021 C 
ATOM      7  C   UNL     1     -47.216  43.984  26.518  1.00  0.00     0.042 C 
ATOM      8  N   UNL     1     -47.961  42.746  26.238  1.00  0.00    -0.360 N 
ATOM      9  C   UNL     1     -49.437  42.887  26.283  1.00  0.00     0.097 C 
ATOM     10  C   UNL     1     -49.963  44.195  25.672  1.00  0.00     0.240 C 
ATOM     11  O   UNL     1     -51.146  44.348  25.365  1.00  0.00    -0.273 OA
ATOM     12  N   UNL     1     -49.104  45.258  25.551  1.00  0.00    -0.347 N 
ATOM     13  H   UNL     1     -46.611  46.620  23.261  1.00  0.00     0.049 H 
ATOM     14  H   UNL     1     -45.756  45.287  22.551  1.00  0.00     0.049 H 
ATOM     15  H   UNL     1     -46.794  43.690  24.053  1.00  0.00     0.031 H 
ATOM     16  H   UNL     1     -48.051  44.704  23.386  1.00  0.00     0.031 H 
ATOM     17  H   UNL     1     -47.435  47.261  25.335  1.00  0.00     0.031 H 
ATOM     18  H   UNL     1     -47.273  46.686  26.977  1.00  0.00     0.031 H 
ATOM     19  H   UNL     1     -45.114  47.478  25.875  1.00  0.00     0.049 H 
ATOM     20  H   UNL     1     -45.061  45.881  26.620  1.00  0.00     0.049 H 
ATOM     21  H   UNL     1     -47.429  44.316  27.544  1.00  0.00     0.052 H 
ATOM     22  H   UNL     1     -46.138  43.802  26.435  1.00  0.00     0.052 H 
ATOM     23  H   UNL     1     -49.786  42.856  27.322  1.00  0.00     0.060 H 
ATOM     24  H   UNL     1     -49.912  42.074  25.722  1.00  0.00     0.060 H 
ATOM     25  H   UNL     1     -49.525  46.044  25.070  1.00  0.00     0.164 HD
ENDROOT
BRANCH   1  26
ATOM     26  C   UNL     1     -43.970  45.060  24.447  1.00  0.00     0.134 A 
ATOM     27  C   UNL     1     -42.391  43.605  25.487  1.00  0.00     0.131 A 
ATOM     28  C   UNL     1     -43.490  44.443  25.592  1.00  0.00     0.023 A 
ATOM     29  N   UNL     1     -41.773  43.409  24.317  1.00  0.00    -0.219 NA
ATOM     30  H   UNL     1     -43.936  44.630  26.560  1.00  0.00     0.070 H 
ATOM     31  C   UNL     1     -42.285  44.057  23.266  1.00  0.00     0.120 A 
ATOM     32  N   UNL     1     -43.350  44.867  23.273  1.00  0.00    -0.219 NA
ATOM     33  H   UNL     1     -41.791  43.910  22.312  1.00  0.00     0.106 H 
BRANCH  27  34
ATOM     34  N   UNL     1     -41.906  42.998  26.662  1.00  0.00    -0.373 N 
ATOM     35  H   UNL     1     -41.210  43.603  27.088  1.00  0.00     0.161 HD
BRANCH  34  36
ATOM     36  C   UNL     1     -42.941  42.616  27.611  1.00  0.00     0.005 C 
ATOM     37  H   UNL     1     -42.606  41.805  28.267  1.00  0.00     0.045 H 
ATOM     38  H   UNL     1     -43.173  43.476  28.247  1.00  0.00     0.045 H 
ATOM     39  H   UNL     1     -43.865  42.322  27.101  1.00  0.00     0.045 H 
ENDBRANCH  34  36
ENDBRANCH  27  34
ENDBRANCH   1  26
BRANCH   8  40
ATOM     40  C   UNL     1     -47.501  41.558  26.828  1.00  0.00     0.037 A 
ATOM     41  C   UNL     1     -48.270  40.944  27.828  1.00  0.00    -0.038 A 
ATOM     42  C   UNL     1     -46.309  40.922  26.457  1.00  0.00    -0.038 A 
ATOM     43  C   UNL     1     -47.871  39.743  28.428  1.00  0.00    -0.056 A 
ATOM     44  H   UNL     1     -49.218  41.383  28.129  1.00  0.00     0.064 H 
ATOM     45  C   UNL     1     -45.900  39.725  27.061  1.00  0.00    -0.056 A 
ATOM     46  H   UNL     1     -45.660  41.348  25.700  1.00  0.00     0.064 H 
ATOM     47  C   UNL     1     -46.684  39.112  28.041  1.00  0.00    -0.034 A 
ATOM     48  H   UNL     1     -48.507  39.298  29.189  1.00  0.00     0.063 H 
ATOM     49  H   UNL     1     -44.964  39.269  26.747  1.00  0.00     0.063 H 
BRANCH  47  50
ATOM     50  C   UNL     1     -46.256  37.813  28.680  1.00  0.00     0.023 C 
ATOM     51  H   UNL     1     -45.245  37.566  28.327  1.00  0.00     0.048 H 
ATOM     52  H   UNL     1     -46.113  37.983  29.756  1.00  0.00     0.048 H 
BRANCH  50  53
ATOM     53  N   UNL     1     -47.124  36.650  28.503  1.00  0.00    -0.299 NA
ATOM     54  C   UNL     1     -47.955  36.631  27.304  1.00  0.00    -0.001 C 
ATOM     55  C   UNL     1     -46.578  35.355  28.888  1.00  0.00    -0.001 C 
ATOM     56  C   UNL     1     -47.371  35.843  26.127  1.00  0.00    -0.035 C 
ATOM     57  H   UNL     1     -48.921  36.187  27.577  1.00  0.00     0.043 H 
ATOM     58  H   UNL     1     -48.202  37.649  26.979  1.00  0.00     0.043 H 
ATOM     59  C   UNL     1     -45.976  34.535  27.743  1.00  0.00    -0.035 C 
ATOM     60  H   UNL     1     -45.837  35.462  29.689  1.00  0.00     0.043 H 
ATOM     61  H   UNL     1     -47.391  34.774  29.340  1.00  0.00     0.043 H 
ATOM     62  C   UNL     1     -46.901  34.427  26.515  1.00  0.00    -0.033 C 
ATOM     63  H   UNL     1     -46.530  36.401  25.701  1.00  0.00     0.029 H 
ATOM     64  H   UNL     1     -48.125  35.783  25.331  1.00  0.00     0.029 H 
ATOM     65  H   UNL     1     -45.728  33.533  28.116  1.00  0.00     0.029 H 
ATOM     66  H   UNL     1     -45.023  34.982  27.440  1.00  0.00     0.029 H 
BRANCH  62  67
ATOM     67  C   UNL     1     -46.114  33.814  25.343  1.00  0.00    -0.060 C 
ATOM     68  H   UNL     1     -45.056  33.693  25.595  1.00  0.00     0.024 H 
ATOM     69  H   UNL     1     -46.172  34.450  24.452  1.00  0.00     0.024 H 
ATOM     70  H   UNL     1     -46.512  32.829  25.073  1.00  0.00     0.024 H 
ENDBRANCH  62  67
BRANCH  62  71
ATOM     71  C   UNL     1     -48.103  33.513  26.814  1.00  0.00    -0.060 C 
ATOM     72  H   UNL     1     -48.407  33.596  27.864  1.00  0.00     0.024 H 
ATOM     73  H   UNL     1     -47.887  32.458  26.620  1.00  0.00     0.024 H 
ATOM     74  H   UNL     1     -48.967  33.787  26.197  1.00  0.00     0.024 H 
ENDBRANCH  62  71
ENDBRANCH  50  53
ENDBRANCH  47  50
ENDBRANCH   8  40
TORSDOF 8
ENDMDL
MODEL 3
REMARK VINA RESULT:      -7.7      6.277     13.568
REMARK SMILES CNc1cc(N2CCC3(CC2)CN(c2ccc(CN4CCC(C)(C)CC4)cc2)CC(=O)N3)ncn1
REMARK SMILES IDX 6 1 7 2 8 3 9 4 10 5 11 6 12 7 13 8 29 9 30 10 31 11 32 12
REMARK SMILES IDX 5 26 3 27 4 28 35 29 34 31 33 32 2 34 1 36 14 40 15 41 28 42
REMARK SMILES IDX 16 43 27 45 17 47 18 50 19 53 20 54 26 55 21 56 25 59 22 62
REMARK SMILES IDX 23 67 24 71
REMARK H PARENT 7 13 7 14 8 15 8 16 10 17 10 18 11 19 11 20 12 21 12 22 29 23
REMARK H PARENT 29 24 32 25 4 30 34 33 2 35 1 37 1 38 1 39 15 44 28 46 16 48
REMARK H PARENT 27 49 18 51 18 52 20 57 20 58 26 60 26 61 21 63 21 64 25 65
REMARK H PARENT 25 66 23 68 23 69 23 70 24 72 24 73 24 74
REMARK Flexibility Score: inf
ROOT
ATOM      1  N   UNL     1     -50.500  26.889  22.920  1.00  0.00    -0.356 N 
ATOM      2  C   UNL     1     -51.838  27.485  22.933  1.00  0.00     0.021 C 
ATOM      3  C   UNL     1     -51.749  29.008  22.993  1.00  0.00    -0.010 C 
ATOM      4  C   UNL     1     -50.723  29.586  21.978  1.00  0.00     0.061 C 
ATOM      5  C   UNL     1     -50.172  28.474  21.055  1.00  0.00    -0.010 C 
ATOM      6  C   UNL     1     -49.597  27.297  21.845  1.00  0.00     0.021 C 
ATOM      7  C   UNL     1     -49.542  30.264  22.741  1.00  0.00     0.042 C 
ATOM      8  N   UNL     1     -50.028  31.446  23.471  1.00  0.00    -0.360 N 
ATOM      9  C   UNL     1     -50.690  32.469  22.623  1.00  0.00     0.097 C 
ATOM     10  C   UNL     1     -51.586  31.887  21.520  1.00  0.00     0.240 C 
ATOM     11  O   UNL     1     -52.422  32.569  20.924  1.00  0.00    -0.273 OA
ATOM     12  N   UNL     1     -51.385  30.589  21.123  1.00  0.00    -0.347 N 
ATOM     13  H   UNL     1     -52.359  27.187  22.013  1.00  0.00     0.049 H 
ATOM     14  H   UNL     1     -52.468  27.101  23.743  1.00  0.00     0.049 H 
ATOM     15  H   UNL     1     -51.491  29.304  24.017  1.00  0.00     0.031 H 
ATOM     16  H   UNL     1     -52.752  29.416  22.813  1.00  0.00     0.031 H 
ATOM     17  H   UNL     1     -50.972  28.110  20.395  1.00  0.00     0.031 H 
ATOM     18  H   UNL     1     -49.401  28.874  20.383  1.00  0.00     0.031 H 
ATOM     19  H   UNL     1     -49.434  26.449  21.168  1.00  0.00     0.049 H 
ATOM     20  H   UNL     1     -48.613  27.594  22.229  1.00  0.00     0.049 H 
ATOM     21  H   UNL     1     -48.768  30.568  22.024  1.00  0.00     0.052 H 
ATOM     22  H   UNL     1     -49.097  29.547  23.442  1.00  0.00     0.052 H 
ATOM     23  H   UNL     1     -49.934  33.091  22.127  1.00  0.00     0.060 H 
ATOM     24  H   UNL     1     -51.334  33.110  23.236  1.00  0.00     0.060 H 
ATOM     25  H   UNL     1     -52.074  30.279  20.447  1.00  0.00     0.164 HD
ENDROOT
BRANCH   1  26
ATOM     26  C   UNL     1     -49.947  26.546  24.156  1.00  0.00     0.134 A 
ATOM     27  C   UNL     1     -48.121  26.451  25.688  1.00  0.00     0.131 A 
ATOM     28  C   UNL     1     -48.614  26.798  24.441  1.00  0.00     0.023 A 
ATOM     29  N   UNL     1     -48.895  25.853  26.601  1.00  0.00    -0.219 NA
ATOM     30  H   UNL     1     -47.953  27.229  23.700  1.00  0.00     0.070 H 
ATOM     31  C   UNL     1     -50.162  25.626  26.240  1.00  0.00     0.120 A 
ATOM     32  N   UNL     1     -50.723  25.944  25.068  1.00  0.00    -0.219 NA
ATOM     33  H   UNL     1     -50.799  25.138  26.970  1.00  0.00     0.106 H 
BRANCH  27  34
ATOM     34  N   UNL     1     -46.761  26.700  25.957  1.00  0.00    -0.373 N 
ATOM     35  H   UNL     1     -46.605  27.703  25.990  1.00  0.00     0.161 HD
BRANCH  34  36
ATOM     36  C   UNL     1     -46.254  26.037  27.149  1.00  0.00     0.005 C 
ATOM     37  H   UNL     1     -45.908  26.760  27.896  1.00  0.00     0.045 H 
ATOM     38  H   UNL     1     -47.064  25.460  27.605  1.00  0.00     0.045 H 
ATOM     39  H   UNL     1     -45.445  25.338  26.907  1.00  0.00     0.045 H 
ENDBRANCH  34  36
ENDBRANCH  27  34
ENDBRANCH   1  26
BRANCH   8  40
ATOM     40  C   UNL     1     -49.191  32.000  24.453  1.00  0.00     0.037 A 
ATOM     41  C   UNL     1     -47.815  31.731  24.415  1.00  0.00    -0.038 A 
ATOM     42  C   UNL     1     -49.651  32.839  25.476  1.00  0.00    -0.038 A 
ATOM     43  C   UNL     1     -46.933  32.281  25.353  1.00  0.00    -0.056 A 
ATOM     44  H   UNL     1     -47.406  31.111  23.622  1.00  0.00     0.064 H 
ATOM     45  C   UNL     1     -48.775  33.384  26.424  1.00  0.00    -0.056 A 
ATOM     46  H   UNL     1     -50.705  33.078  25.573  1.00  0.00     0.064 H 
ATOM     47  C   UNL     1     -47.402  33.126  26.364  1.00  0.00    -0.034 A 
ATOM     48  H   UNL     1     -45.873  32.055  25.275  1.00  0.00     0.063 H 
ATOM     49  H   UNL     1     -49.175  34.026  27.205  1.00  0.00     0.063 H 
BRANCH  47  50
ATOM     50  C   UNL     1     -46.453  33.728  27.372  1.00  0.00     0.023 C 
ATOM     51  H   UNL     1     -46.957  33.768  28.347  1.00  0.00     0.048 H 
ATOM     52  H   UNL     1     -45.630  33.020  27.542  1.00  0.00     0.048 H 
BRANCH  50  53
ATOM     53  N   UNL     1     -45.885  35.041  27.070  1.00  0.00    -0.299 NA
ATOM     54  C   UNL     1     -46.622  35.870  26.123  1.00  0.00    -0.001 C 
ATOM     55  C   UNL     1     -45.284  35.769  28.180  1.00  0.00    -0.001 C 
ATOM     56  C   UNL     1     -47.566  36.895  26.760  1.00  0.00    -0.035 C 
ATOM     57  H   UNL     1     -45.886  36.406  25.510  1.00  0.00     0.043 H 
ATOM     58  H   UNL     1     -47.178  35.253  25.408  1.00  0.00     0.043 H 
ATOM     59  C   UNL     1     -46.195  36.800  28.854  1.00  0.00    -0.035 C 
ATOM     60  H   UNL     1     -44.891  35.080  28.937  1.00  0.00     0.043 H 
ATOM     61  H   UNL     1     -44.399  36.289  27.794  1.00  0.00     0.043 H 
ATOM     62  C   UNL     1     -46.892  37.745  27.855  1.00  0.00    -0.033 C 
ATOM     63  H   UNL     1     -48.430  36.374  27.186  1.00  0.00     0.029 H 
ATOM     64  H   UNL     1     -47.966  37.547  25.972  1.00  0.00     0.029 H 
ATOM     65  H   UNL     1     -45.603  37.383  29.572  1.00  0.00     0.029 H 
ATOM     66  H   UNL     1     -46.953  36.279  29.448  1.00  0.00     0.029 H 
BRANCH  62  67
ATOM     67  C   UNL     1     -47.965  38.561  28.597  1.00  0.00    -0.060 C 
ATOM     68  H   UNL     1     -48.011  39.589  28.223  1.00  0.00     0.024 H 
ATOM     69  H   UNL     1     -47.754  38.608  29.672  1.00  0.00     0.024 H 
ATOM     70  H   UNL     1     -48.958  38.113  28.474  1.00  0.00     0.024 H 
ENDBRANCH  62  67
BRANCH  62  71
ATOM     71  C   UNL     1     -45.882  38.732  27.240  1.00  0.00    -0.060 C 
ATOM     72  H   UNL     1     -45.750  38.540  26.169  1.00  0.00     0.024 H 
ATOM     73  H   UNL     1     -44.895  38.670  27.707  1.00  0.00     0.024 H 
ATOM     74  H   UNL     1     -46.230  39.766  27.349  1.00  0.00     0.024 H 
ENDBRANCH  62  71
ENDBRANCH  50  53
ENDBRANCH  47  50
ENDBRANCH   8  40
TORSDOF 8
ENDMDL
MODEL 4
REMARK VINA RESULT:      -7.5      1.880      3.319
REMARK SMILES CNc1cc(N2CCC3(CC2)CN(c2ccc(CN4CCC(C)(C)CC4)cc2)CC(=O)N3)ncn1
REMARK SMILES IDX 6 1 7 2 8 3 9 4 10 5 11 6 12 7 13 8 29 9 30 10 31 11 32 12
REMARK SMILES IDX 5 26 3 27 4 28 35 29 34 31 33 32 2 34 1 36 14 40 15 41 28 42
REMARK SMILES IDX 16 43 27 45 17 47 18 50 19 53 20 54 26 55 21 56 25 59 22 62
REMARK SMILES IDX 23 67 24 71
REMARK H PARENT 7 13 7 14 8 15 8 16 10 17 10 18 11 19 11 20 12 21 12 22 29 23
REMARK H PARENT 29 24 32 25 4 30 34 33 2 35 1 37 1 38 1 39 15 44 28 46 16 48
REMARK H PARENT 27 49 18 51 18 52 20 57 20 58 26 60 26 61 21 63 21 64 25 65
REMARK H PARENT 25 66 23 68 23 69 23 70 24 72 24 73 24 74
REMARK Flexibility Score: inf
ROOT
ATOM      1  N   UNL     1     -47.498  45.812  26.324  1.00  0.00    -0.356 N 
ATOM      2  C   UNL     1     -46.232  46.377  26.796  1.00  0.00     0.021 C 
ATOM      3  C   UNL     1     -45.124  45.329  26.752  1.00  0.00    -0.010 C 
ATOM      4  C   UNL     1     -45.096  44.546  25.408  1.00  0.00     0.061 C 
ATOM      5  C   UNL     1     -46.103  45.146  24.399  1.00  0.00    -0.010 C 
ATOM      6  C   UNL     1     -47.515  45.243  24.978  1.00  0.00     0.021 C 
ATOM      7  C   UNL     1     -45.440  43.045  25.659  1.00  0.00     0.042 C 
ATOM      8  N   UNL     1     -44.379  42.413  26.462  1.00  0.00    -0.360 N 
ATOM      9  C   UNL     1     -43.021  42.493  25.868  1.00  0.00     0.097 C 
ATOM     10  C   UNL     1     -42.708  43.838  25.194  1.00  0.00     0.240 C 
ATOM     11  O   UNL     1     -41.559  44.179  24.912  1.00  0.00    -0.273 OA
ATOM     12  N   UNL     1     -43.752  44.642  24.809  1.00  0.00    -0.347 N 
ATOM     13  H   UNL     1     -45.964  47.218  26.143  1.00  0.00     0.049 H 
ATOM     14  H   UNL     1     -46.309  46.819  27.797  1.00  0.00     0.049 H 
ATOM     15  H   UNL     1     -45.256  44.643  27.598  1.00  0.00     0.031 H 
ATOM     16  H   UNL     1     -44.167  45.836  26.931  1.00  0.00     0.031 H 
ATOM     17  H   UNL     1     -45.768  46.146  24.092  1.00  0.00     0.031 H 
ATOM     18  H   UNL     1     -46.126  44.552  23.476  1.00  0.00     0.031 H 
ATOM     19  H   UNL     1     -48.133  45.874  24.327  1.00  0.00     0.049 H 
ATOM     20  H   UNL     1     -47.958  44.240  24.964  1.00  0.00     0.049 H 
ATOM     21  H   UNL     1     -45.530  42.523  24.697  1.00  0.00     0.052 H 
ATOM     22  H   UNL     1     -46.401  42.969  26.181  1.00  0.00     0.052 H 
ATOM     23  H   UNL     1     -42.900  41.716  25.104  1.00  0.00     0.060 H 
ATOM     24  H   UNL     1     -42.260  42.355  26.644  1.00  0.00     0.060 H 
ATOM     25  H   UNL     1     -43.440  45.534  24.444  1.00  0.00     0.164 HD
ENDROOT
BRANCH   1  26
ATOM     26  C   UNL     1     -48.344  45.257  27.288  1.00  0.00     0.134 A 
ATOM     27  C   UNL     1     -49.475  43.405  28.278  1.00  0.00     0.131 A 
ATOM     28  C   UNL     1     -48.643  43.904  27.289  1.00  0.00     0.023 A 
ATOM     29  N   UNL     1     -50.015  44.205  29.203  1.00  0.00    -0.219 NA
ATOM     30  H   UNL     1     -48.265  43.245  26.518  1.00  0.00     0.070 H 
ATOM     31  C   UNL     1     -49.694  45.500  29.120  1.00  0.00     0.120 A 
ATOM     32  N   UNL     1     -48.887  46.063  28.214  1.00  0.00    -0.219 NA
ATOM     33  H   UNL     1     -50.128  46.161  29.863  1.00  0.00     0.106 H 
BRANCH  27  34
ATOM     34  N   UNL     1     -49.782  42.030  28.255  1.00  0.00    -0.373 N 
ATOM     35  H   UNL     1     -50.559  41.851  28.884  1.00  0.00     0.161 HD
BRANCH  34  36
ATOM     36  C   UNL     1     -50.028  41.492  26.926  1.00  0.00     0.005 C 
ATOM     37  H   UNL     1     -49.993  40.397  26.922  1.00  0.00     0.045 H 
ATOM     38  H   UNL     1     -51.031  41.788  26.604  1.00  0.00     0.045 H 
ATOM     39  H   UNL     1     -49.314  41.888  26.194  1.00  0.00     0.045 H 
ENDBRANCH  34  36
ENDBRANCH  27  34
ENDBRANCH   1  26
BRANCH   8  40
ATOM     40  C   UNL     1     -44.654  41.167  27.046  1.00  0.00     0.037 A 
ATOM     41  C   UNL     1     -43.762  40.639  27.992  1.00  0.00    -0.038 A 
ATOM     42  C   UNL     1     -45.797  40.412  26.754  1.00  0.00    -0.038 A 
ATOM     43  C   UNL     1     -44.003  39.414  28.625  1.00  0.00    -0.056 A 
ATOM     44  H   UNL     1     -42.876  41.202  28.274  1.00  0.00     0.064 H 
ATOM     45  C   UNL     1     -46.039  39.181  27.378  1.00  0.00    -0.056 A 
ATOM     46  H   UNL     1     -46.523  40.754  26.023  1.00  0.00     0.064 H 
ATOM     47  C   UNL     1     -45.154  38.674  28.334  1.00  0.00    -0.034 A 
ATOM     48  H   UNL     1     -43.291  39.052  29.362  1.00  0.00     0.063 H 
ATOM     49  H   UNL     1     -46.937  38.624  27.117  1.00  0.00     0.063 H 
BRANCH  47  50
ATOM     50  C   UNL     1     -45.422  37.357  29.022  1.00  0.00     0.023 C 
ATOM     51  H   UNL     1     -44.543  36.711  28.894  1.00  0.00     0.048 H 
ATOM     52  H   UNL     1     -45.454  37.530  30.106  1.00  0.00     0.048 H 
BRANCH  50  53
ATOM     53  N   UNL     1     -46.622  36.619  28.631  1.00  0.00    -0.299 NA
ATOM     54  C   UNL     1     -47.202  36.953  27.335  1.00  0.00    -0.001 C 
ATOM     55  C   UNL     1     -46.665  35.203  28.973  1.00  0.00    -0.001 C 
ATOM     56  C   UNL     1     -46.779  36.037  26.183  1.00  0.00    -0.035 C 
ATOM     57  H   UNL     1     -48.294  36.903  27.438  1.00  0.00     0.043 H 
ATOM     58  H   UNL     1     -46.999  37.997  27.069  1.00  0.00     0.043 H 
ATOM     59  C   UNL     1     -46.241  34.249  27.852  1.00  0.00    -0.035 C 
ATOM     60  H   UNL     1     -46.071  34.996  29.872  1.00  0.00     0.043 H 
ATOM     61  H   UNL     1     -47.695  34.963  29.261  1.00  0.00     0.043 H 
ATOM     62  C   UNL     1     -46.936  34.538  26.507  1.00  0.00    -0.033 C 
ATOM     63  H   UNL     1     -45.735  36.244  25.922  1.00  0.00     0.029 H 
ATOM     64  H   UNL     1     -47.367  36.292  25.292  1.00  0.00     0.029 H 
ATOM     65  H   UNL     1     -46.446  33.217  28.167  1.00  0.00     0.029 H 
ATOM     66  H   UNL     1     -45.155  34.308  27.718  1.00  0.00     0.029 H 
BRANCH  62  67
ATOM     67  C   UNL     1     -46.262  33.705  25.402  1.00  0.00    -0.060 C 
ATOM     68  H   UNL     1     -45.318  34.159  25.083  1.00  0.00     0.024 H 
ATOM     69  H   UNL     1     -46.907  33.625  24.518  1.00  0.00     0.024 H 
ATOM     70  H   UNL     1     -46.047  32.688  25.748  1.00  0.00     0.024 H 
ENDBRANCH  62  67
BRANCH  62  71
ATOM     71  C   UNL     1     -48.423  34.142  26.564  1.00  0.00    -0.060 C 
ATOM     72  H   UNL     1     -48.582  33.154  26.119  1.00  0.00     0.024 H 
ATOM     73  H   UNL     1     -49.067  34.848  26.031  1.00  0.00     0.024 H 
ATOM     74  H   UNL     1     -48.777  34.098  27.601  1.00  0.00     0.024 H 
ENDBRANCH  62  71
ENDBRANCH  50  53
ENDBRANCH  47  50
ENDBRANCH   8  40
TORSDOF 8
ENDMDL
MODEL 5
REMARK VINA RESULT:      -7.3      2.834      4.323
REMARK SMILES CNc1cc(N2CCC3(CC2)CN(c2ccc(CN4CCC(C)(C)CC4)cc2)CC(=O)N3)ncn1
REMARK SMILES IDX 6 1 7 2 8 3 9 4 10 5 11 6 12 7 13 8 29 9 30 10 31 11 32 12
REMARK SMILES IDX 5 26 3 27 4 28 35 29 34 31 33 32 2 34 1 36 14 40 15 41 28 42
REMARK SMILES IDX 16 43 27 45 17 47 18 50 19 53 20 54 26 55 21 56 25 59 22 62
REMARK SMILES IDX 23 67 24 71
REMARK H PARENT 7 13 7 14 8 15 8 16 10 17 10 18 11 19 11 20 12 21 12 22 29 23
REMARK H PARENT 29 24 32 25 4 30 34 33 2 35 1 37 1 38 1 39 15 44 28 46 16 48
REMARK H PARENT 27 49 18 51 18 52 20 57 20 58 26 60 26 61 21 63 21 64 25 65
REMARK H PARENT 25 66 23 68 23 69 23 70 24 72 24 73 24 74
REMARK Flexibility Score: inf
ROOT
ATOM      1  N   UNL     1     -47.905  46.159  27.397  1.00  0.00    -0.356 N 
ATOM      2  C   UNL     1     -46.552  46.632  27.094  1.00  0.00     0.021 C 
ATOM      3  C   UNL     1     -45.712  45.511  26.486  1.00  0.00    -0.010 C 
ATOM      4  C   UNL     1     -46.465  44.744  25.362  1.00  0.00     0.061 C 
ATOM      5  C   UNL     1     -47.818  45.422  25.041  1.00  0.00    -0.010 C 
ATOM      6  C   UNL     1     -48.683  45.608  26.289  1.00  0.00     0.021 C 
ATOM      7  C   UNL     1     -46.712  43.266  25.800  1.00  0.00     0.042 C 
ATOM      8  N   UNL     1     -45.428  42.556  25.919  1.00  0.00    -0.360 N 
ATOM      9  C   UNL     1     -44.606  42.550  24.684  1.00  0.00     0.097 C 
ATOM     10  C   UNL     1     -44.623  43.878  23.911  1.00  0.00     0.240 C 
ATOM     11  O   UNL     1     -43.789  44.144  23.044  1.00  0.00    -0.273 OA
ATOM     12  N   UNL     1     -45.655  44.755  24.129  1.00  0.00    -0.347 N 
ATOM     13  H   UNL     1     -46.627  47.460  26.377  1.00  0.00     0.049 H 
ATOM     14  H   UNL     1     -46.047  47.066  27.965  1.00  0.00     0.049 H 
ATOM     15  H   UNL     1     -45.409  44.826  27.288  1.00  0.00     0.031 H 
ATOM     16  H   UNL     1     -44.780  45.950  26.107  1.00  0.00     0.031 H 
ATOM     17  H   UNL     1     -47.639  46.401  24.575  1.00  0.00     0.031 H 
ATOM     18  H   UNL     1     -48.374  44.841  24.293  1.00  0.00     0.031 H 
ATOM     19  H   UNL     1     -49.514  46.287  26.058  1.00  0.00     0.049 H 
ATOM     20  H   UNL     1     -49.125  44.637  26.543  1.00  0.00     0.049 H 
ATOM     21  H   UNL     1     -47.341  42.763  25.053  1.00  0.00     0.052 H 
ATOM     22  H   UNL     1     -47.241  43.250  26.760  1.00  0.00     0.052 H 
ATOM     23  H   UNL     1     -44.966  41.775  23.997  1.00  0.00     0.060 H 
ATOM     24  H   UNL     1     -43.556  42.351  24.929  1.00  0.00     0.060 H 
ATOM     25  H   UNL     1     -45.534  45.628  23.630  1.00  0.00     0.164 HD
ENDROOT
BRANCH   1  26
ATOM     26  C   UNL     1     -48.127  45.652  28.679  1.00  0.00     0.134 A 
ATOM     27  C   UNL     1     -47.613  45.516  31.004  1.00  0.00     0.131 A 
ATOM     28  C   UNL     1     -47.338  46.038  29.751  1.00  0.00     0.023 A 
ATOM     29  N   UNL     1     -48.597  44.629  31.189  1.00  0.00    -0.219 NA
ATOM     30  H   UNL     1     -46.501  46.711  29.619  1.00  0.00     0.070 H 
ATOM     31  C   UNL     1     -49.297  44.292  30.101  1.00  0.00     0.120 A 
ATOM     32  N   UNL     1     -49.112  44.760  28.861  1.00  0.00    -0.219 NA
ATOM     33  H   UNL     1     -50.095  43.570  30.236  1.00  0.00     0.106 H 
BRANCH  27  34
ATOM     34  N   UNL     1     -46.793  45.907  32.081  1.00  0.00    -0.373 N 
ATOM     35  H   UNL     1     -46.224  45.117  32.372  1.00  0.00     0.161 HD
BRANCH  34  36
ATOM     36  C   UNL     1     -45.984  47.087  31.820  1.00  0.00     0.005 C 
ATOM     37  H   UNL     1     -44.961  46.819  31.533  1.00  0.00     0.045 H 
ATOM     38  H   UNL     1     -46.423  47.640  30.984  1.00  0.00     0.045 H 
ATOM     39  H   UNL     1     -45.961  47.759  32.686  1.00  0.00     0.045 H 
ENDBRANCH  34  36
ENDBRANCH  27  34
ENDBRANCH   1  26
BRANCH   8  40
ATOM     40  C   UNL     1     -45.421  41.324  26.593  1.00  0.00     0.037 A 
ATOM     41  C   UNL     1     -46.623  40.814  27.107  1.00  0.00    -0.038 A 
ATOM     42  C   UNL     1     -44.270  40.547  26.769  1.00  0.00    -0.038 A 
ATOM     43  C   UNL     1     -46.676  39.578  27.762  1.00  0.00    -0.056 A 
ATOM     44  H   UNL     1     -47.549  41.366  26.968  1.00  0.00     0.064 H 
ATOM     45  C   UNL     1     -44.315  39.313  27.433  1.00  0.00    -0.056 A 
ATOM     46  H   UNL     1     -43.304  40.886  26.409  1.00  0.00     0.064 H 
ATOM     47  C   UNL     1     -45.521  38.805  27.922  1.00  0.00    -0.034 A 
ATOM     48  H   UNL     1     -47.633  39.218  28.131  1.00  0.00     0.063 H 
ATOM     49  H   UNL     1     -43.395  38.745  27.553  1.00  0.00     0.063 H 
BRANCH  47  50
ATOM     50  C   UNL     1     -45.576  37.468  28.620  1.00  0.00     0.023 C 
ATOM     51  H   UNL     1     -44.647  36.922  28.405  1.00  0.00     0.048 H 
ATOM     52  H   UNL     1     -45.524  37.638  29.704  1.00  0.00     0.048 H 
BRANCH  50  53
ATOM     53  N   UNL     1     -46.719  36.601  28.338  1.00  0.00    -0.299 NA
ATOM     54  C   UNL     1     -47.370  36.778  27.045  1.00  0.00    -0.001 C 
ATOM     55  C   UNL     1     -46.624  35.218  28.789  1.00  0.00    -0.001 C 
ATOM     56  C   UNL     1     -46.907  35.812  25.951  1.00  0.00    -0.035 C 
ATOM     57  H   UNL     1     -48.449  36.644  27.196  1.00  0.00     0.043 H 
ATOM     58  H   UNL     1     -47.269  37.811  26.691  1.00  0.00     0.043 H 
ATOM     59  C   UNL     1     -46.157  34.216  27.730  1.00  0.00    -0.035 C 
ATOM     60  H   UNL     1     -45.984  35.136  29.677  1.00  0.00     0.043 H 
ATOM     61  H   UNL     1     -47.619  34.915  29.137  1.00  0.00     0.043 H 
ATOM     62  C   UNL     1     -46.920  34.336  26.396  1.00  0.00    -0.033 C 
ATOM     63  H   UNL     1     -45.896  36.085  25.631  1.00  0.00     0.029 H 
ATOM     64  H   UNL     1     -47.546  35.943  25.067  1.00  0.00     0.029 H 
ATOM     65  H   UNL     1     -46.259  33.200  28.132  1.00  0.00     0.029 H 
ATOM     66  H   UNL     1     -45.086  34.357  27.546  1.00  0.00     0.029 H 
BRANCH  62  67
ATOM     67  C   UNL     1     -46.215  33.477  25.331  1.00  0.00    -0.060 C 
ATOM     68  H   UNL     1     -45.126  33.548  25.422  1.00  0.00     0.024 H 
ATOM     69  H   UNL     1     -46.485  33.802  24.319  1.00  0.00     0.024 H 
ATOM     70  H   UNL     1     -46.493  32.422  25.426  1.00  0.00     0.024 H 
ENDBRANCH  62  67
BRANCH  62  71
ATOM     71  C   UNL     1     -48.364  33.820  26.545  1.00  0.00    -0.060 C 
ATOM     72  H   UNL     1     -48.910  33.909  25.599  1.00  0.00     0.024 H 
ATOM     73  H   UNL     1     -48.931  34.370  27.302  1.00  0.00     0.024 H 
ATOM     74  H   UNL     1     -48.374  32.763  26.835  1.00  0.00     0.024 H 
ENDBRANCH  62  71
ENDBRANCH  50  53
ENDBRANCH  47  50
ENDBRANCH   8  40
TORSDOF 8
ENDMDL
MODEL 6
REMARK VINA RESULT:      -7.2      1.294      2.205
REMARK SMILES CNc1cc(N2CCC3(CC2)CN(c2ccc(CN4CCC(C)(C)CC4)cc2)CC(=O)N3)ncn1
REMARK SMILES IDX 6 1 7 2 8 3 9 4 10 5 11 6 12 7 13 8 29 9 30 10 31 11 32 12
REMARK SMILES IDX 5 26 3 27 4 28 35 29 34 31 33 32 2 34 1 36 14 40 15 41 28 42
REMARK SMILES IDX 16 43 27 45 17 47 18 50 19 53 20 54 26 55 21 56 25 59 22 62
REMARK SMILES IDX 23 67 24 71
REMARK H PARENT 7 13 7 14 8 15 8 16 10 17 10 18 11 19 11 20 12 21 12 22 29 23
REMARK H PARENT 29 24 32 25 4 30 34 33 2 35 1 37 1 38 1 39 15 44 28 46 16 48
REMARK H PARENT 27 49 18 51 18 52 20 57 20 58 26 60 26 61 21 63 21 64 25 65
REMARK H PARENT 25 66 23 68 23 69 23 70 24 72 24 73 24 74
REMARK Flexibility Score: inf
ROOT
ATOM      1  N   UNL     1     -45.519  44.679  25.505  1.00  0.00    -0.356 N 
ATOM      2  C   UNL     1     -45.066  45.011  26.858  1.00  0.00     0.021 C 
ATOM      3  C   UNL     1     -44.503  43.776  27.556  1.00  0.00    -0.010 C 
ATOM      4  C   UNL     1     -43.521  42.976  26.654  1.00  0.00     0.061 C 
ATOM      5  C   UNL     1     -43.245  43.732  25.332  1.00  0.00    -0.010 C 
ATOM      6  C   UNL     1     -44.534  44.098  24.594  1.00  0.00     0.021 C 
ATOM      7  C   UNL     1     -44.115  41.569  26.336  1.00  0.00     0.042 C 
ATOM      8  N   UNL     1     -44.199  40.768  27.569  1.00  0.00    -0.360 N 
ATOM      9  C   UNL     1     -42.908  40.586  28.279  1.00  0.00     0.097 C 
ATOM     10  C   UNL     1     -42.017  41.837  28.293  1.00  0.00     0.240 C 
ATOM     11  O   UNL     1     -41.065  41.956  29.066  1.00  0.00    -0.273 OA
ATOM     12  N   UNL     1     -42.232  42.812  27.351  1.00  0.00    -0.347 N 
ATOM     13  H   UNL     1     -44.282  45.776  26.782  1.00  0.00     0.049 H 
ATOM     14  H   UNL     1     -45.849  45.478  27.467  1.00  0.00     0.049 H 
ATOM     15  H   UNL     1     -45.339  43.142  27.876  1.00  0.00     0.031 H 
ATOM     16  H   UNL     1     -44.010  44.102  28.481  1.00  0.00     0.031 H 
ATOM     17  H   UNL     1     -42.676  44.648  25.541  1.00  0.00     0.031 H 
ATOM     18  H   UNL     1     -42.603  43.135  24.671  1.00  0.00     0.031 H 
ATOM     19  H   UNL     1     -44.307  44.819  23.800  1.00  0.00     0.049 H 
ATOM     20  H   UNL     1     -44.914  43.193  24.105  1.00  0.00     0.049 H 
ATOM     21  H   UNL     1     -43.472  41.054  25.609  1.00  0.00     0.052 H 
ATOM     22  H   UNL     1     -45.112  41.681  25.893  1.00  0.00     0.052 H 
ATOM     23  H   UNL     1     -42.329  39.785  27.803  1.00  0.00     0.060 H 
ATOM     24  H   UNL     1     -43.087  40.324  29.328  1.00  0.00     0.060 H 
ATOM     25  H   UNL     1     -41.644  43.624  27.493  1.00  0.00     0.164 HD
ENDROOT
BRANCH   1  26
ATOM     26  C   UNL     1     -46.858  44.308  25.358  1.00  0.00     0.134 A 
ATOM     27  C   UNL     1     -48.977  44.468  24.274  1.00  0.00     0.131 A 
ATOM     28  C   UNL     1     -47.660  44.884  24.385  1.00  0.00     0.023 A 
ATOM     29  N   UNL     1     -49.490  43.551  25.101  1.00  0.00    -0.219 NA
ATOM     30  H   UNL     1     -47.286  45.668  23.740  1.00  0.00     0.070 H 
ATOM     31  C   UNL     1     -48.657  43.061  26.025  1.00  0.00     0.120 A 
ATOM     32  N   UNL     1     -47.371  43.391  26.191  1.00  0.00    -0.219 NA
ATOM     33  H   UNL     1     -49.062  42.319  26.705  1.00  0.00     0.106 H 
BRANCH  27  34
ATOM     34  N   UNL     1     -49.783  45.074  23.290  1.00  0.00    -0.373 N 
ATOM     35  H   UNL     1     -49.208  45.681  22.714  1.00  0.00     0.161 HD
BRANCH  34  36
ATOM     36  C   UNL     1     -50.553  44.138  22.487  1.00  0.00     0.005 C 
ATOM     37  H   UNL     1     -51.047  43.383  23.109  1.00  0.00     0.045 H 
ATOM     38  H   UNL     1     -51.338  44.687  21.957  1.00  0.00     0.045 H 
ATOM     39  H   UNL     1     -49.928  43.645  21.733  1.00  0.00     0.045 H 
ENDBRANCH  34  36
ENDBRANCH  27  34
ENDBRANCH   1  26
BRANCH   8  40
ATOM     40  C   UNL     1     -44.984  39.605  27.543  1.00  0.00     0.037 A 
ATOM     41  C   UNL     1     -44.722  38.577  28.461  1.00  0.00    -0.038 A 
ATOM     42  C   UNL     1     -46.049  39.412  26.653  1.00  0.00    -0.038 A 
ATOM     43  C   UNL     1     -45.493  37.409  28.496  1.00  0.00    -0.056 A 
ATOM     44  H   UNL     1     -43.926  38.694  29.192  1.00  0.00     0.064 H 
ATOM     45  C   UNL     1     -46.818  38.240  26.677  1.00  0.00    -0.056 A 
ATOM     46  H   UNL     1     -46.299  40.159  25.908  1.00  0.00     0.064 H 
ATOM     47  C   UNL     1     -46.561  37.232  27.610  1.00  0.00    -0.034 A 
ATOM     48  H   UNL     1     -45.261  36.646  29.235  1.00  0.00     0.063 H 
ATOM     49  H   UNL     1     -47.632  38.129  25.964  1.00  0.00     0.063 H 
BRANCH  47  50
ATOM     50  C   UNL     1     -47.400  35.978  27.651  1.00  0.00     0.023 C 
ATOM     51  H   UNL     1     -46.967  35.291  28.391  1.00  0.00     0.048 H 
ATOM     52  H   UNL     1     -48.380  36.227  28.081  1.00  0.00     0.048 H 
BRANCH  50  53
ATOM     53  N   UNL     1     -47.610  35.260  26.395  1.00  0.00    -0.299 NA
ATOM     54  C   UNL     1     -46.478  34.499  25.879  1.00  0.00    -0.001 C 
ATOM     55  C   UNL     1     -48.908  34.625  26.209  1.00  0.00    -0.001 C 
ATOM     56  C   UNL     1     -46.483  33.010  26.239  1.00  0.00    -0.035 C 
ATOM     57  H   UNL     1     -46.484  34.594  24.786  1.00  0.00     0.043 H 
ATOM     58  H   UNL     1     -45.527  34.949  26.189  1.00  0.00     0.043 H 
ATOM     59  C   UNL     1     -48.963  33.136  26.564  1.00  0.00    -0.035 C 
ATOM     60  H   UNL     1     -49.692  35.160  26.759  1.00  0.00     0.043 H 
ATOM     61  H   UNL     1     -49.184  34.739  25.153  1.00  0.00     0.043 H 
ATOM     62  C   UNL     1     -47.824  32.314  25.931  1.00  0.00    -0.033 C 
ATOM     63  H   UNL     1     -46.251  32.895  27.304  1.00  0.00     0.029 H 
ATOM     64  H   UNL     1     -45.668  32.511  25.699  1.00  0.00     0.029 H 
ATOM     65  H   UNL     1     -49.936  32.732  26.254  1.00  0.00     0.029 H 
ATOM     66  H   UNL     1     -48.929  33.023  27.653  1.00  0.00     0.029 H 
BRANCH  62  67
ATOM     67  C   UNL     1     -47.817  30.903  26.546  1.00  0.00    -0.060 C 
ATOM     68  H   UNL     1     -48.831  30.498  26.623  1.00  0.00     0.024 H 
ATOM     69  H   UNL     1     -47.387  30.913  27.555  1.00  0.00     0.024 H 
ATOM     70  H   UNL     1     -47.222  30.210  25.940  1.00  0.00     0.024 H 
ENDBRANCH  62  67
BRANCH  62  71
ATOM     71  C   UNL     1     -48.031  32.171  24.412  1.00  0.00    -0.060 C 
ATOM     72  H   UNL     1     -47.335  31.438  23.989  1.00  0.00     0.024 H 
ATOM     73  H   UNL     1     -47.878  33.113  23.876  1.00  0.00     0.024 H 
ATOM     74  H   UNL     1     -49.048  31.829  24.186  1.00  0.00     0.024 H 
ENDBRANCH  62  71
ENDBRANCH  50  53
ENDBRANCH  47  50
ENDBRANCH   8  40
TORSDOF 8
ENDMDL
MODEL 7
REMARK VINA RESULT:      -7.0      1.593      2.211
REMARK SMILES CNc1cc(N2CCC3(CC2)CN(c2ccc(CN4CCC(C)(C)CC4)cc2)CC(=O)N3)ncn1
REMARK SMILES IDX 6 1 7 2 8 3 9 4 10 5 11 6 12 7 13 8 29 9 30 10 31 11 32 12
REMARK SMILES IDX 5 26 3 27 4 28 35 29 34 31 33 32 2 34 1 36 14 40 15 41 28 42
REMARK SMILES IDX 16 43 27 45 17 47 18 50 19 53 20 54 26 55 21 56 25 59 22 62
REMARK SMILES IDX 23 67 24 71
REMARK H PARENT 7 13 7 14 8 15 8 16 10 17 10 18 11 19 11 20 12 21 12 22 29 23
REMARK H PARENT 29 24 32 25 4 30 34 33 2 35 1 37 1 38 1 39 15 44 28 46 16 48
REMARK H PARENT 27 49 18 51 18 52 20 57 20 58 26 60 26 61 21 63 21 64 25 65
REMARK H PARENT 25 66 23 68 23 69 23 70 24 72 24 73 24 74
REMARK Flexibility Score: inf
ROOT
ATOM      1  N   UNL     1     -45.116  45.850  27.159  1.00  0.00    -0.356 N 
ATOM      2  C   UNL     1     -44.023  45.613  28.105  1.00  0.00     0.021 C 
ATOM      3  C   UNL     1     -43.572  44.155  28.052  1.00  0.00    -0.010 C 
ATOM      4  C   UNL     1     -43.377  43.643  26.597  1.00  0.00     0.061 C 
ATOM      5  C   UNL     1     -43.538  44.796  25.579  1.00  0.00    -0.010 C 
ATOM      6  C   UNL     1     -44.862  45.543  25.753  1.00  0.00     0.021 C 
ATOM      7  C   UNL     1     -44.417  42.522  26.284  1.00  0.00     0.042 C 
ATOM      8  N   UNL     1     -44.147  41.339  27.117  1.00  0.00    -0.360 N 
ATOM      9  C   UNL     1     -42.784  40.773  26.968  1.00  0.00     0.097 C 
ATOM     10  C   UNL     1     -41.675  41.829  26.839  1.00  0.00     0.240 C 
ATOM     11  O   UNL     1     -40.485  41.554  26.998  1.00  0.00    -0.273 OA
ATOM     12  N   UNL     1     -42.016  43.098  26.444  1.00  0.00    -0.347 N 
ATOM     13  H   UNL     1     -43.182  46.264  27.832  1.00  0.00     0.049 H 
ATOM     14  H   UNL     1     -44.276  45.904  29.131  1.00  0.00     0.049 H 
ATOM     15  H   UNL     1     -44.309  43.541  28.585  1.00  0.00     0.031 H 
ATOM     16  H   UNL     1     -42.643  44.064  28.629  1.00  0.00     0.031 H 
ATOM     17  H   UNL     1     -42.706  45.506  25.690  1.00  0.00     0.031 H 
ATOM     18  H   UNL     1     -43.463  44.419  24.551  1.00  0.00     0.031 H 
ATOM     19  H   UNL     1     -44.832  46.477  25.178  1.00  0.00     0.049 H 
ATOM     20  H   UNL     1     -45.659  44.926  25.319  1.00  0.00     0.049 H 
ATOM     21  H   UNL     1     -44.349  42.245  25.222  1.00  0.00     0.052 H 
ATOM     22  H   UNL     1     -45.430  42.894  26.476  1.00  0.00     0.052 H 
ATOM     23  H   UNL     1     -42.734  40.145  26.070  1.00  0.00     0.060 H 
ATOM     24  H   UNL     1     -42.528  40.165  27.844  1.00  0.00     0.060 H 
ATOM     25  H   UNL     1     -41.228  43.734  26.462  1.00  0.00     0.164 HD
ENDROOT
BRANCH   1  26
ATOM     26  C   UNL     1     -46.418  45.704  27.645  1.00  0.00     0.134 A 
ATOM     27  C   UNL     1     -48.697  45.048  27.386  1.00  0.00     0.131 A 
ATOM     28  C   UNL     1     -47.428  45.185  26.849  1.00  0.00     0.023 A 
ATOM     29  N   UNL     1     -48.969  45.434  28.638  1.00  0.00    -0.219 NA
ATOM     30  H   UNL     1     -47.247  44.918  25.816  1.00  0.00     0.070 H 
ATOM     31  C   UNL     1     -47.946  45.944  29.331  1.00  0.00     0.120 A 
ATOM     32  N   UNL     1     -46.689  46.095  28.899  1.00  0.00    -0.219 NA
ATOM     33  H   UNL     1     -48.155  46.264  30.346  1.00  0.00     0.106 H 
BRANCH  27  34
ATOM     34  N   UNL     1     -49.715  44.533  26.560  1.00  0.00    -0.373 N 
ATOM     35  H   UNL     1     -50.596  44.979  26.799  1.00  0.00     0.161 HD
BRANCH  34  36
ATOM     36  C   UNL     1     -49.434  44.623  25.136  1.00  0.00     0.005 C 
ATOM     37  H   UNL     1     -50.224  45.162  24.602  1.00  0.00     0.045 H 
ATOM     38  H   UNL     1     -48.504  45.182  24.993  1.00  0.00     0.045 H 
ATOM     39  H   UNL     1     -49.296  43.631  24.689  1.00  0.00     0.045 H 
ENDBRANCH  34  36
ENDBRANCH  27  34
ENDBRANCH   1  26
BRANCH   8  40
ATOM     40  C   UNL     1     -45.146  40.357  27.204  1.00  0.00     0.037 A 
ATOM     41  C   UNL     1     -45.156  39.480  28.298  1.00  0.00    -0.038 A 
ATOM     42  C   UNL     1     -46.168  40.209  26.257  1.00  0.00    -0.038 A 
ATOM     43  C   UNL     1     -46.146  38.501  28.448  1.00  0.00    -0.056 A 
ATOM     44  H   UNL     1     -44.402  39.575  29.076  1.00  0.00     0.064 H 
ATOM     45  C   UNL     1     -47.157  39.225  26.396  1.00  0.00    -0.056 A 
ATOM     46  H   UNL     1     -46.214  40.844  25.379  1.00  0.00     0.064 H 
ATOM     47  C   UNL     1     -47.168  38.370  27.501  1.00  0.00    -0.034 A 
ATOM     48  H   UNL     1     -46.121  37.853  29.320  1.00  0.00     0.063 H 
ATOM     49  H   UNL     1     -47.928  39.141  25.634  1.00  0.00     0.063 H 
BRANCH  47  50
ATOM     50  C   UNL     1     -48.243  37.322  27.663  1.00  0.00     0.023 C 
ATOM     51  H   UNL     1     -48.968  37.676  28.409  1.00  0.00     0.048 H 
ATOM     52  H   UNL     1     -48.833  37.282  26.737  1.00  0.00     0.048 H 
BRANCH  50  53
ATOM     53  N   UNL     1     -47.822  35.965  28.008  1.00  0.00    -0.299 NA
ATOM     54  C   UNL     1     -48.670  34.878  27.536  1.00  0.00    -0.001 C 
ATOM     55  C   UNL     1     -46.392  35.688  27.963  1.00  0.00    -0.001 C 
ATOM     56  C   UNL     1     -48.218  34.229  26.224  1.00  0.00    -0.035 C 
ATOM     57  H   UNL     1     -48.689  34.108  28.318  1.00  0.00     0.043 H 
ATOM     58  H   UNL     1     -49.714  35.202  27.445  1.00  0.00     0.043 H 
ATOM     59  C   UNL     1     -45.892  35.046  26.665  1.00  0.00    -0.035 C 
ATOM     60  H   UNL     1     -45.808  36.593  28.171  1.00  0.00     0.043 H 
ATOM     61  H   UNL     1     -46.159  35.013  28.795  1.00  0.00     0.043 H 
ATOM     62  C   UNL     1     -46.729  33.830  26.224  1.00  0.00    -0.033 C 
ATOM     63  H   UNL     1     -48.409  34.919  25.395  1.00  0.00     0.029 H 
ATOM     64  H   UNL     1     -48.844  33.347  26.030  1.00  0.00     0.029 H 
ATOM     65  H   UNL     1     -44.842  34.753  26.795  1.00  0.00     0.029 H 
ATOM     66  H   UNL     1     -45.895  35.796  25.866  1.00  0.00     0.029 H 
BRANCH  62  67
ATOM     67  C   UNL     1     -46.313  33.421  24.799  1.00  0.00    -0.060 C 
ATOM     68  H   UNL     1     -45.363  32.876  24.804  1.00  0.00     0.024 H 
ATOM     69  H   UNL     1     -46.189  34.300  24.156  1.00  0.00     0.024 H 
ATOM     70  H   UNL     1     -47.069  32.776  24.337  1.00  0.00     0.024 H 
ENDBRANCH  62  67
BRANCH  62  71
ATOM     71  C   UNL     1     -46.483  32.629  27.156  1.00  0.00    -0.060 C 
ATOM     72  H   UNL     1     -47.376  31.998  27.226  1.00  0.00     0.024 H 
ATOM     73  H   UNL     1     -46.219  32.933  28.173  1.00  0.00     0.024 H 
ATOM     74  H   UNL     1     -45.665  32.003  26.780  1.00  0.00     0.024 H 
ENDBRANCH  62  71
ENDBRANCH  50  53
ENDBRANCH  47  50
ENDBRANCH   8  40
TORSDOF 8
ENDMDL
