MODEL 1
REMARK VINA RESULT:     -10.7      0.000      0.000
REMARK SMILES Cn1ccc(-c2cn(-c3cncc(COc4ccc(-c5ncco5)c(N)c4)c3)c3ncnc(N)c23)n1
REMARK SMILES IDX 9 1 10 2 11 3 12 4 13 5 28 6 8 10 6 11 7 12 35 13 29 15
REMARK SMILES IDX 33 16 30 17 32 18 31 19 5 21 2 22 3 23 36 24 4 25 1 28 34 32
REMARK SMILES IDX 14 35 15 38 16 39 17 40 27 41 18 42 25 44 19 46 26 48 20 51
REMARK SMILES IDX 21 52 24 53 22 54 23 55
REMARK H PARENT 10 7 12 8 28 9 7 14 31 20 3 26 4 27 1 29 1 30 1 31 34 33 34 34
REMARK H PARENT 14 36 14 37 17 43 27 45 18 47 26 49 26 50 22 56 23 57
REMARK Flexibility Score: inf
ROOT
ATOM      1  C   UNL     1     -45.412  38.427  28.532  1.00  0.00     0.066 A 
ATOM      2  C   UNL     1     -45.156  38.012  29.834  1.00  0.00     0.051 A 
ATOM      3  N   UNL     1     -45.691  36.899  30.399  1.00  0.00    -0.262 NA
ATOM      4  C   UNL     1     -46.523  36.160  29.638  1.00  0.00     0.034 A 
ATOM      5  C   UNL     1     -46.866  36.481  28.333  1.00  0.00     0.010 A 
ATOM      6  C   UNL     1     -46.281  37.627  27.775  1.00  0.00    -0.028 A 
ATOM      7  H   UNL     1     -44.518  38.555  30.521  1.00  0.00     0.086 H 
ATOM      8  H   UNL     1     -46.919  35.275  30.130  1.00  0.00     0.084 H 
ATOM      9  H   UNL     1     -46.518  37.859  26.741  1.00  0.00     0.065 H 
ENDROOT
BRANCH   1  10
ATOM     10  N   UNL     1     -44.830  39.615  27.982  1.00  0.00    -0.299 N 
ATOM     11  C   UNL     1     -44.508  41.380  26.606  1.00  0.00     0.033 A 
ATOM     12  C   UNL     1     -45.284  40.265  26.845  1.00  0.00     0.021 A 
ATOM     13  C   UNL     1     -43.503  41.424  27.613  1.00  0.00     0.071 A 
ATOM     14  H   UNL     1     -46.153  39.918  26.306  1.00  0.00     0.083 H 
ATOM     15  C   UNL     1     -43.736  40.339  28.460  1.00  0.00     0.150 A 
ATOM     16  C   UNL     1     -42.405  42.246  27.931  1.00  0.00     0.137 A 
ATOM     17  N   UNL     1     -42.999  40.037  29.547  1.00  0.00    -0.218 NA
ATOM     18  N   UNL     1     -41.675  41.976  29.028  1.00  0.00    -0.219 NA
ATOM     19  C   UNL     1     -42.001  40.903  29.760  1.00  0.00     0.120 A 
ATOM     20  H   UNL     1     -41.378  40.712  30.628  1.00  0.00     0.106 H 
BRANCH  11  21
ATOM     21  C   UNL     1     -44.707  42.347  25.521  1.00  0.00     0.095 A 
ATOM     22  N   UNL     1     -45.494  43.921  24.347  1.00  0.00    -0.275 N 
ATOM     23  C   UNL     1     -44.468  43.423  23.602  1.00  0.00     0.025 A 
ATOM     24  N   UNL     1     -45.669  43.280  25.519  1.00  0.00    -0.173 NA
ATOM     25  C   UNL     1     -43.934  42.391  24.338  1.00  0.00    -0.016 A 
ATOM     26  H   UNL     1     -44.206  43.830  22.635  1.00  0.00     0.084 H 
ATOM     27  H   UNL     1     -43.100  41.766  24.059  1.00  0.00     0.066 H 
BRANCH  22  28
ATOM     28  C   UNL     1     -46.364  45.020  24.003  1.00  0.00     0.030 C 
ATOM     29  H   UNL     1     -45.747  45.845  23.638  1.00  0.00     0.048 H 
ATOM     30  H   UNL     1     -46.923  45.333  24.888  1.00  0.00     0.048 H 
ATOM     31  H   UNL     1     -47.054  44.681  23.226  1.00  0.00     0.048 H 
ENDBRANCH  22  28
ENDBRANCH  11  21
BRANCH  16  32
ATOM     32  N   UNL     1     -42.008  43.340  27.177  1.00  0.00    -0.383 N 
ATOM     33  H   UNL     1     -42.582  43.452  26.353  1.00  0.00     0.158 HD
ATOM     34  H   UNL     1     -40.994  43.377  27.042  1.00  0.00     0.158 HD
ENDBRANCH  16  32
ENDBRANCH   1  10
BRANCH   5  35
ATOM     35  C   UNL     1     -47.788  35.579  27.553  1.00  0.00     0.115 C 
ATOM     36  H   UNL     1     -47.833  34.620  28.083  1.00  0.00     0.076 H 
ATOM     37  H   UNL     1     -48.816  35.962  27.525  1.00  0.00     0.076 H 
BRANCH  35  38
ATOM     38  O   UNL     1     -47.316  35.289  26.234  1.00  0.00    -0.489 OA
BRANCH  38  39
ATOM     39  C   UNL     1     -47.404  34.004  25.777  1.00  0.00     0.121 A 
ATOM     40  C   UNL     1     -48.569  33.336  26.146  1.00  0.00    -0.019 A 
ATOM     41  C   UNL     1     -46.450  33.328  25.016  1.00  0.00     0.004 A 
ATOM     42  C   UNL     1     -48.789  32.021  25.734  1.00  0.00    -0.044 A 
ATOM     43  H   UNL     1     -49.322  33.846  26.741  1.00  0.00     0.066 H 
ATOM     44  C   UNL     1     -46.630  31.982  24.635  1.00  0.00     0.048 A 
ATOM     45  H   UNL     1     -45.538  33.822  24.700  1.00  0.00     0.068 H 
ATOM     46  C   UNL     1     -47.838  31.326  24.963  1.00  0.00     0.060 A 
ATOM     47  H   UNL     1     -49.721  31.532  26.016  1.00  0.00     0.063 H 
BRANCH  44  48
ATOM     48  N   UNL     1     -45.675  31.431  23.753  1.00  0.00    -0.398 N 
ATOM     49  H   UNL     1     -44.762  31.305  24.190  1.00  0.00     0.156 HD
ATOM     50  H   UNL     1     -45.609  31.909  22.860  1.00  0.00     0.156 HD
ENDBRANCH  44  48
BRANCH  46  51
ATOM     51  C   UNL     1     -48.163  29.950  24.574  1.00  0.00     0.227 A 
ATOM     52  N   UNL     1     -48.688  28.983  25.309  1.00  0.00    -0.218 NA
ATOM     53  O   UNL     1     -47.853  29.558  23.293  1.00  0.00    -0.444 OA
ATOM     54  C   UNL     1     -48.749  27.909  24.460  1.00  0.00     0.066 A 
ATOM     55  C   UNL     1     -48.241  28.255  23.235  1.00  0.00     0.112 A 
ATOM     56  H   UNL     1     -49.148  26.955  24.775  1.00  0.00     0.087 H 
ATOM     57  H   UNL     1     -48.092  27.746  22.295  1.00  0.00     0.106 H 
ENDBRANCH  46  51
ENDBRANCH  38  39
ENDBRANCH  35  38
ENDBRANCH   5  35
TORSDOF 9
ENDMDL
MODEL 2
REMARK VINA RESULT:     -10.3      2.518     12.314
REMARK SMILES Cn1ccc(-c2cn(-c3cncc(COc4ccc(-c5ncco5)c(N)c4)c3)c3ncnc(N)c23)n1
REMARK SMILES IDX 9 1 10 2 11 3 12 4 13 5 28 6 8 10 6 11 7 12 35 13 29 15
REMARK SMILES IDX 33 16 30 17 32 18 31 19 5 21 2 22 3 23 36 24 4 25 1 28 34 32
REMARK SMILES IDX 14 35 15 38 16 39 17 40 27 41 18 42 25 44 19 46 26 48 20 51
REMARK SMILES IDX 21 52 24 53 22 54 23 55
REMARK H PARENT 10 7 12 8 28 9 7 14 31 20 3 26 4 27 1 29 1 30 1 31 34 33 34 34
REMARK H PARENT 14 36 14 37 17 43 27 45 18 47 26 49 26 50 22 56 23 57
REMARK Flexibility Score: inf
ROOT
ATOM      1  C   UNL     1     -47.702  31.974  25.154  1.00  0.00     0.066 A 
ATOM      2  C   UNL     1     -46.379  32.318  24.904  1.00  0.00     0.051 A 
ATOM      3  N   UNL     1     -45.813  33.496  25.276  1.00  0.00    -0.262 NA
ATOM      4  C   UNL     1     -46.597  34.377  25.929  1.00  0.00     0.034 A 
ATOM      5  C   UNL     1     -47.935  34.153  26.221  1.00  0.00     0.010 A 
ATOM      6  C   UNL     1     -48.481  32.920  25.837  1.00  0.00    -0.028 A 
ATOM      7  H   UNL     1     -45.685  31.680  24.369  1.00  0.00     0.086 H 
ATOM      8  H   UNL     1     -46.098  35.300  26.214  1.00  0.00     0.084 H 
ATOM      9  H   UNL     1     -49.517  32.725  26.100  1.00  0.00     0.065 H 
ENDROOT
BRANCH   1  10
ATOM     10  N   UNL     1     -48.257  30.721  24.733  1.00  0.00    -0.299 N 
ATOM     11  C   UNL     1     -49.188  28.664  24.855  1.00  0.00     0.033 A 
ATOM     12  C   UNL     1     -48.699  29.725  25.589  1.00  0.00     0.021 A 
ATOM     13  C   UNL     1     -49.022  28.987  23.479  1.00  0.00     0.071 A 
ATOM     14  H   UNL     1     -48.678  29.851  26.661  1.00  0.00     0.083 H 
ATOM     15  C   UNL     1     -48.468  30.267  23.430  1.00  0.00     0.150 A 
ATOM     16  C   UNL     1     -49.267  28.360  22.242  1.00  0.00     0.137 A 
ATOM     17  N   UNL     1     -48.165  30.935  22.299  1.00  0.00    -0.218 NA
ATOM     18  N   UNL     1     -48.997  29.023  21.102  1.00  0.00    -0.219 NA
ATOM     19  C   UNL     1     -48.465  30.248  21.190  1.00  0.00     0.120 A 
ATOM     20  H   UNL     1     -48.249  30.741  20.248  1.00  0.00     0.106 H 
BRANCH  11  21
ATOM     21  C   UNL     1     -49.786  27.443  25.405  1.00  0.00     0.095 A 
ATOM     22  N   UNL     1     -51.156  26.092  26.282  1.00  0.00    -0.275 N 
ATOM     23  C   UNL     1     -50.021  25.358  26.111  1.00  0.00     0.025 A 
ATOM     24  N   UNL     1     -51.040  27.369  25.869  1.00  0.00    -0.173 NA
ATOM     25  C   UNL     1     -49.104  26.212  25.542  1.00  0.00    -0.016 A 
ATOM     26  H   UNL     1     -49.957  24.318  26.397  1.00  0.00     0.084 H 
ATOM     27  H   UNL     1     -48.090  25.972  25.262  1.00  0.00     0.066 H 
BRANCH  22  28
ATOM     28  C   UNL     1     -52.406  25.639  26.843  1.00  0.00     0.030 C 
ATOM     29  H   UNL     1     -52.963  25.114  26.061  1.00  0.00     0.048 H 
ATOM     30  H   UNL     1     -52.980  26.499  27.197  1.00  0.00     0.048 H 
ATOM     31  H   UNL     1     -52.186  24.967  27.676  1.00  0.00     0.048 H 
ENDBRANCH  22  28
ENDBRANCH  11  21
BRANCH  16  32
ATOM     32  N   UNL     1     -49.776  27.077  22.107  1.00  0.00    -0.383 N 
ATOM     33  H   UNL     1     -50.648  26.969  22.604  1.00  0.00     0.158 HD
ATOM     34  H   UNL     1     -49.066  26.355  22.255  1.00  0.00     0.158 HD
ENDBRANCH  16  32
ENDBRANCH   1  10
BRANCH   5  35
ATOM     35  C   UNL     1     -48.724  35.191  26.976  1.00  0.00     0.115 C 
ATOM     36  H   UNL     1     -48.734  36.103  26.367  1.00  0.00     0.076 H 
ATOM     37  H   UNL     1     -49.775  34.898  27.105  1.00  0.00     0.076 H 
BRANCH  35  38
ATOM     38  O   UNL     1     -48.138  35.550  28.230  1.00  0.00    -0.489 OA
BRANCH  38  39
ATOM     39  C   UNL     1     -47.250  36.589  28.262  1.00  0.00     0.121 A 
ATOM     40  C   UNL     1     -47.288  37.417  27.143  1.00  0.00    -0.019 A 
ATOM     41  C   UNL     1     -46.334  36.865  29.277  1.00  0.00     0.004 A 
ATOM     42  C   UNL     1     -46.441  38.523  27.055  1.00  0.00    -0.044 A 
ATOM     43  H   UNL     1     -47.994  37.216  26.341  1.00  0.00     0.066 H 
ATOM     44  C   UNL     1     -45.433  37.946  29.181  1.00  0.00     0.048 A 
ATOM     45  H   UNL     1     -46.287  36.249  30.167  1.00  0.00     0.068 H 
ATOM     46  C   UNL     1     -45.512  38.818  28.071  1.00  0.00     0.060 A 
ATOM     47  H   UNL     1     -46.510  39.168  26.179  1.00  0.00     0.063 H 
BRANCH  44  48
ATOM     48  N   UNL     1     -44.642  38.224  30.317  1.00  0.00    -0.398 N 
ATOM     49  H   UNL     1     -44.601  39.221  30.535  1.00  0.00     0.156 HD
ATOM     50  H   UNL     1     -43.720  37.801  30.296  1.00  0.00     0.156 HD
ENDBRANCH  44  48
BRANCH  46  51
ATOM     51  C   UNL     1     -44.671  40.005  27.891  1.00  0.00     0.227 A 
ATOM     52  N   UNL     1     -43.521  40.301  28.473  1.00  0.00    -0.218 NA
ATOM     53  O   UNL     1     -45.128  40.989  27.046  1.00  0.00    -0.444 OA
ATOM     54  C   UNL     1     -43.192  41.531  27.965  1.00  0.00     0.066 A 
ATOM     55  C   UNL     1     -44.168  41.952  27.098  1.00  0.00     0.112 A 
ATOM     56  H   UNL     1     -42.284  42.042  28.250  1.00  0.00     0.087 H 
ATOM     57  H   UNL     1     -44.326  42.829  26.489  1.00  0.00     0.106 H 
ENDBRANCH  46  51
ENDBRANCH  38  39
ENDBRANCH  35  38
ENDBRANCH   5  35
TORSDOF 9
ENDMDL
MODEL 3
REMARK VINA RESULT:     -10.1      2.921     12.300
REMARK SMILES Cn1ccc(-c2cn(-c3cncc(COc4ccc(-c5ncco5)c(N)c4)c3)c3ncnc(N)c23)n1
REMARK SMILES IDX 9 1 10 2 11 3 12 4 13 5 28 6 8 10 6 11 7 12 35 13 29 15
REMARK SMILES IDX 33 16 30 17 32 18 31 19 5 21 2 22 3 23 36 24 4 25 1 28 34 32
REMARK SMILES IDX 14 35 15 38 16 39 17 40 27 41 18 42 25 44 19 46 26 48 20 51
REMARK SMILES IDX 21 52 24 53 22 54 23 55
REMARK H PARENT 10 7 12 8 28 9 7 14 31 20 3 26 4 27 1 29 1 30 1 31 34 33 34 34
REMARK H PARENT 14 36 14 37 17 43 27 45 18 47 26 49 26 50 22 56 23 57
REMARK Flexibility Score: inf
ROOT
ATOM      1  C   UNL     1     -47.995  32.424  25.428  1.00  0.00     0.066 A 
ATOM      2  C   UNL     1     -46.729  32.737  24.948  1.00  0.00     0.051 A 
ATOM      3  N   UNL     1     -46.091  33.913  25.186  1.00  0.00    -0.262 NA
ATOM      4  C   UNL     1     -46.741  34.825  25.936  1.00  0.00     0.034 A 
ATOM      5  C   UNL     1     -48.013  34.635  26.456  1.00  0.00     0.010 A 
ATOM      6  C   UNL     1     -48.634  33.402  26.205  1.00  0.00    -0.028 A 
ATOM      7  H   UNL     1     -46.145  32.072  24.323  1.00  0.00     0.086 H 
ATOM      8  H   UNL     1     -46.188  35.745  26.106  1.00  0.00     0.084 H 
ATOM      9  H   UNL     1     -49.613  33.235  26.644  1.00  0.00     0.065 H 
ENDROOT
BRANCH   1  10
ATOM     10  N   UNL     1     -48.632  31.172  25.143  1.00  0.00    -0.299 N 
ATOM     11  C   UNL     1     -49.114  28.966  25.243  1.00  0.00     0.033 A 
ATOM     12  C   UNL     1     -48.295  29.963  25.730  1.00  0.00     0.021 A 
ATOM     13  C   UNL     1     -49.986  29.559  24.287  1.00  0.00     0.071 A 
ATOM     14  H   UNL     1     -47.527  29.897  26.485  1.00  0.00     0.083 H 
ATOM     15  C   UNL     1     -49.683  30.922  24.260  1.00  0.00     0.150 A 
ATOM     16  C   UNL     1     -51.008  29.125  23.422  1.00  0.00     0.137 A 
ATOM     17  N   UNL     1     -50.299  31.834  23.481  1.00  0.00    -0.218 NA
ATOM     18  N   UNL     1     -51.653  30.025  22.658  1.00  0.00    -0.219 NA
ATOM     19  C   UNL     1     -51.267  31.305  22.723  1.00  0.00     0.120 A 
ATOM     20  H   UNL     1     -51.803  31.996  22.080  1.00  0.00     0.106 H 
BRANCH  11  21
ATOM     21  C   UNL     1     -49.095  27.559  25.659  1.00  0.00     0.095 A 
ATOM     22  N   UNL     1     -48.417  25.633  26.211  1.00  0.00    -0.275 N 
ATOM     23  C   UNL     1     -49.775  25.528  26.216  1.00  0.00     0.025 A 
ATOM     24  N   UNL     1     -47.972  26.858  25.867  1.00  0.00    -0.173 NA
ATOM     25  C   UNL     1     -50.250  26.768  25.856  1.00  0.00    -0.016 A 
ATOM     26  H   UNL     1     -50.282  24.607  26.468  1.00  0.00     0.084 H 
ATOM     27  H   UNL     1     -51.285  27.057  25.759  1.00  0.00     0.066 H 
BRANCH  22  28
ATOM     28  C   UNL     1     -47.465  24.595  26.525  1.00  0.00     0.030 C 
ATOM     29  H   UNL     1     -47.030  24.813  27.504  1.00  0.00     0.048 H 
ATOM     30  H   UNL     1     -46.682  24.576  25.764  1.00  0.00     0.048 H 
ATOM     31  H   UNL     1     -47.993  23.638  26.542  1.00  0.00     0.048 H 
ENDBRANCH  22  28
ENDBRANCH  11  21
BRANCH  16  32
ATOM     32  N   UNL     1     -51.408  27.803  23.292  1.00  0.00    -0.383 N 
ATOM     33  H   UNL     1     -51.669  27.586  22.341  1.00  0.00     0.158 HD
ATOM     34  H   UNL     1     -52.059  27.515  24.028  1.00  0.00     0.158 HD
ENDBRANCH  16  32
ENDBRANCH   1  10
BRANCH   5  35
ATOM     35  C   UNL     1     -48.649  35.707  27.302  1.00  0.00     0.115 C 
ATOM     36  H   UNL     1     -48.684  36.622  26.700  1.00  0.00     0.076 H 
ATOM     37  H   UNL     1     -49.689  35.468  27.559  1.00  0.00     0.076 H 
BRANCH  35  38
ATOM     38  O   UNL     1     -47.895  36.025  28.476  1.00  0.00    -0.489 OA
BRANCH  38  39
ATOM     39  C   UNL     1     -46.975  37.034  28.406  1.00  0.00     0.121 A 
ATOM     40  C   UNL     1     -46.041  37.039  29.439  1.00  0.00    -0.019 A 
ATOM     41  C   UNL     1     -46.910  38.030  27.431  1.00  0.00     0.004 A 
ATOM     42  C   UNL     1     -45.039  38.009  29.479  1.00  0.00    -0.044 A 
ATOM     43  H   UNL     1     -46.078  36.272  30.208  1.00  0.00     0.066 H 
ATOM     44  C   UNL     1     -45.937  39.050  27.485  1.00  0.00     0.048 A 
ATOM     45  H   UNL     1     -47.612  38.048  26.606  1.00  0.00     0.068 H 
ATOM     46  C   UNL     1     -44.957  39.019  28.502  1.00  0.00     0.060 A 
ATOM     47  H   UNL     1     -44.307  37.973  30.286  1.00  0.00     0.063 H 
BRANCH  44  48
ATOM     48  N   UNL     1     -45.868  39.928  26.382  1.00  0.00    -0.398 N 
ATOM     49  H   UNL     1     -45.908  39.441  25.486  1.00  0.00     0.156 HD
ATOM     50  H   UNL     1     -45.097  40.588  26.423  1.00  0.00     0.156 HD
ENDBRANCH  44  48
BRANCH  46  51
ATOM     51  C   UNL     1     -43.864  39.989  28.627  1.00  0.00     0.227 A 
ATOM     52  N   UNL     1     -43.433  40.869  27.739  1.00  0.00    -0.218 NA
ATOM     53  O   UNL     1     -43.134  39.982  29.791  1.00  0.00    -0.444 OA
ATOM     54  C   UNL     1     -42.381  41.490  28.361  1.00  0.00     0.066 A 
ATOM     55  C   UNL     1     -42.197  40.952  29.609  1.00  0.00     0.112 A 
ATOM     56  H   UNL     1     -41.819  42.279  27.882  1.00  0.00     0.087 H 
ATOM     57  H   UNL     1     -41.510  41.123  30.424  1.00  0.00     0.106 H 
ENDBRANCH  46  51
ENDBRANCH  38  39
ENDBRANCH  35  38
ENDBRANCH   5  35
TORSDOF 9
ENDMDL
MODEL 4
REMARK VINA RESULT:     -10.0      2.055      2.960
REMARK SMILES Cn1ccc(-c2cn(-c3cncc(COc4ccc(-c5ncco5)c(N)c4)c3)c3ncnc(N)c23)n1
REMARK SMILES IDX 9 1 10 2 11 3 12 4 13 5 28 6 8 10 6 11 7 12 35 13 29 15
REMARK SMILES IDX 33 16 30 17 32 18 31 19 5 21 2 22 3 23 36 24 4 25 1 28 34 32
REMARK SMILES IDX 14 35 15 38 16 39 17 40 27 41 18 42 25 44 19 46 26 48 20 51
REMARK SMILES IDX 21 52 24 53 22 54 23 55
REMARK H PARENT 10 7 12 8 28 9 7 14 31 20 3 26 4 27 1 29 1 30 1 31 34 33 34 34
REMARK H PARENT 14 36 14 37 17 43 27 45 18 47 26 49 26 50 22 56 23 57
REMARK Flexibility Score: inf
ROOT
ATOM      1  C   UNL     1     -45.956  38.459  27.502  1.00  0.00     0.066 A 
ATOM      2  C   UNL     1     -45.234  38.068  28.623  1.00  0.00     0.051 A 
ATOM      3  N   UNL     1     -45.323  36.841  29.199  1.00  0.00    -0.262 NA
ATOM      4  C   UNL     1     -46.171  35.957  28.637  1.00  0.00     0.034 A 
ATOM      5  C   UNL     1     -46.956  36.236  27.528  1.00  0.00     0.010 A 
ATOM      6  C   UNL     1     -46.825  37.507  26.948  1.00  0.00    -0.028 A 
ATOM      7  H   UNL     1     -44.546  38.720  29.149  1.00  0.00     0.086 H 
ATOM      8  H   UNL     1     -46.201  34.987  29.127  1.00  0.00     0.084 H 
ATOM      9  H   UNL     1     -47.409  37.715  26.056  1.00  0.00     0.065 H 
ENDROOT
BRANCH   1  10
ATOM     10  N   UNL     1     -45.834  39.770  26.934  1.00  0.00    -0.299 N 
ATOM     11  C   UNL     1     -44.900  41.578  25.951  1.00  0.00     0.033 A 
ATOM     12  C   UNL     1     -44.660  40.309  26.436  1.00  0.00     0.021 A 
ATOM     13  C   UNL     1     -46.275  41.868  26.178  1.00  0.00     0.071 A 
ATOM     14  H   UNL     1     -43.741  39.742  26.418  1.00  0.00     0.083 H 
ATOM     15  C   UNL     1     -46.833  40.730  26.764  1.00  0.00     0.150 A 
ATOM     16  C   UNL     1     -47.142  42.956  25.967  1.00  0.00     0.137 A 
ATOM     17  N   UNL     1     -48.125  40.604  27.127  1.00  0.00    -0.218 NA
ATOM     18  N   UNL     1     -48.441  42.838  26.297  1.00  0.00    -0.219 NA
ATOM     19  C   UNL     1     -48.854  41.693  26.854  1.00  0.00     0.120 A 
ATOM     20  H   UNL     1     -49.905  41.644  27.117  1.00  0.00     0.106 H 
BRANCH  11  21
ATOM     21  C   UNL     1     -43.914  42.451  25.304  1.00  0.00     0.095 A 
ATOM     22  N   UNL     1     -42.921  43.650  23.873  1.00  0.00    -0.275 N 
ATOM     23  C   UNL     1     -42.086  43.647  24.949  1.00  0.00     0.025 A 
ATOM     24  N   UNL     1     -44.040  42.923  24.056  1.00  0.00    -0.173 NA
ATOM     25  C   UNL     1     -42.703  42.869  25.901  1.00  0.00    -0.016 A 
ATOM     26  H   UNL     1     -41.147  44.182  24.953  1.00  0.00     0.084 H 
ATOM     27  H   UNL     1     -42.330  42.645  26.889  1.00  0.00     0.066 H 
BRANCH  22  28
ATOM     28  C   UNL     1     -42.716  44.331  22.617  1.00  0.00     0.030 C 
ATOM     29  H   UNL     1     -43.512  45.070  22.493  1.00  0.00     0.048 H 
ATOM     30  H   UNL     1     -42.747  43.607  21.800  1.00  0.00     0.048 H 
ATOM     31  H   UNL     1     -41.738  44.819  22.647  1.00  0.00     0.048 H 
ENDBRANCH  22  28
ENDBRANCH  11  21
BRANCH  16  32
ATOM     32  N   UNL     1     -46.747  44.174  25.433  1.00  0.00    -0.383 N 
ATOM     33  H   UNL     1     -46.262  44.055  24.555  1.00  0.00     0.158 HD
ATOM     34  H   UNL     1     -46.304  44.783  26.127  1.00  0.00     0.158 HD
ENDBRANCH  16  32
ENDBRANCH   1  10
BRANCH   5  35
ATOM     35  C   UNL     1     -47.858  35.173  26.957  1.00  0.00     0.115 C 
ATOM     36  H   UNL     1     -48.794  35.197  27.527  1.00  0.00     0.076 H 
ATOM     37  H   UNL     1     -48.130  35.378  25.913  1.00  0.00     0.076 H 
BRANCH  35  38
ATOM     38  O   UNL     1     -47.334  33.849  27.097  1.00  0.00    -0.489 OA
BRANCH  38  39
ATOM     39  C   UNL     1     -47.476  32.978  26.052  1.00  0.00     0.121 A 
ATOM     40  C   UNL     1     -48.786  32.576  25.807  1.00  0.00    -0.019 A 
ATOM     41  C   UNL     1     -46.451  32.468  25.255  1.00  0.00     0.004 A 
ATOM     42  C   UNL     1     -49.069  31.698  24.760  1.00  0.00    -0.044 A 
ATOM     43  H   UNL     1     -49.596  32.962  26.419  1.00  0.00     0.066 H 
ATOM     44  C   UNL     1     -46.712  31.538  24.227  1.00  0.00     0.048 A 
ATOM     45  H   UNL     1     -45.422  32.770  25.410  1.00  0.00     0.068 H 
ATOM     46  C   UNL     1     -48.048  31.175  23.944  1.00  0.00     0.060 A 
ATOM     47  H   UNL     1     -50.107  31.419  24.575  1.00  0.00     0.063 H 
BRANCH  44  48
ATOM     48  N   UNL     1     -45.630  31.187  23.390  1.00  0.00    -0.398 N 
ATOM     49  H   UNL     1     -45.602  30.188  23.180  1.00  0.00     0.156 HD
ATOM     50  H   UNL     1     -44.731  31.537  23.703  1.00  0.00     0.156 HD
ENDBRANCH  44  48
BRANCH  46  51
ATOM     51  C   UNL     1     -48.447  30.265  22.866  1.00  0.00     0.227 A 
ATOM     52  N   UNL     1     -48.173  30.342  21.573  1.00  0.00    -0.218 NA
ATOM     53  O   UNL     1     -49.255  29.202  23.193  1.00  0.00    -0.444 OA
ATOM     54  C   UNL     1     -48.813  29.260  21.028  1.00  0.00     0.066 A 
ATOM     55  C   UNL     1     -49.472  28.566  22.010  1.00  0.00     0.112 A 
ATOM     56  H   UNL     1     -48.767  29.043  19.970  1.00  0.00     0.087 H 
ATOM     57  H   UNL     1     -50.088  27.680  22.041  1.00  0.00     0.106 H 
ENDBRANCH  46  51
ENDBRANCH  38  39
ENDBRANCH  35  38
ENDBRANCH   5  35
TORSDOF 9
ENDMDL
MODEL 5
REMARK VINA RESULT:     -10.0      1.681      2.339
REMARK SMILES Cn1ccc(-c2cn(-c3cncc(COc4ccc(-c5ncco5)c(N)c4)c3)c3ncnc(N)c23)n1
REMARK SMILES IDX 9 1 10 2 11 3 12 4 13 5 28 6 8 10 6 11 7 12 35 13 29 15
REMARK SMILES IDX 33 16 30 17 32 18 31 19 5 21 2 22 3 23 36 24 4 25 1 28 34 32
REMARK SMILES IDX 14 35 15 38 16 39 17 40 27 41 18 42 25 44 19 46 26 48 20 51
REMARK SMILES IDX 21 52 24 53 22 54 23 55
REMARK H PARENT 10 7 12 8 28 9 7 14 31 20 3 26 4 27 1 29 1 30 1 31 34 33 34 34
REMARK H PARENT 14 36 14 37 17 43 27 45 18 47 26 49 26 50 22 56 23 57
REMARK Flexibility Score: inf
ROOT
ATOM      1  C   UNL     1     -46.651  37.397  27.260  1.00  0.00     0.066 A 
ATOM      2  C   UNL     1     -48.002  37.416  27.586  1.00  0.00     0.051 A 
ATOM      3  N   UNL     1     -48.829  36.344  27.475  1.00  0.00    -0.262 NA
ATOM      4  C   UNL     1     -48.292  35.195  27.019  1.00  0.00     0.034 A 
ATOM      5  C   UNL     1     -46.962  35.058  26.648  1.00  0.00     0.010 A 
ATOM      6  C   UNL     1     -46.133  36.180  26.791  1.00  0.00    -0.028 A 
ATOM      7  H   UNL     1     -48.519  38.300  27.940  1.00  0.00     0.086 H 
ATOM      8  H   UNL     1     -48.990  34.365  26.957  1.00  0.00     0.084 H 
ATOM      9  H   UNL     1     -45.083  36.064  26.538  1.00  0.00     0.065 H 
ENDROOT
BRANCH   1  10
ATOM     10  N   UNL     1     -45.819  38.557  27.385  1.00  0.00    -0.299 N 
ATOM     11  C   UNL     1     -44.905  40.573  26.925  1.00  0.00     0.033 A 
ATOM     12  C   UNL     1     -45.806  39.621  26.498  1.00  0.00     0.021 A 
ATOM     13  C   UNL     1     -44.298  40.081  28.115  1.00  0.00     0.071 A 
ATOM     14  H   UNL     1     -46.469  39.652  25.646  1.00  0.00     0.083 H 
ATOM     15  C   UNL     1     -44.894  38.849  28.389  1.00  0.00     0.150 A 
ATOM     16  C   UNL     1     -43.307  40.515  29.015  1.00  0.00     0.137 A 
ATOM     17  N   UNL     1     -44.594  38.064  29.444  1.00  0.00    -0.218 NA
ATOM     18  N   UNL     1     -43.015  39.759  30.090  1.00  0.00    -0.219 NA
ATOM     19  C   UNL     1     -43.657  38.594  30.240  1.00  0.00     0.120 A 
ATOM     20  H   UNL     1     -43.382  38.008  31.111  1.00  0.00     0.106 H 
BRANCH  11  21
ATOM     21  C   UNL     1     -44.644  41.862  26.274  1.00  0.00     0.095 A 
ATOM     22  N   UNL     1     -44.397  43.936  25.945  1.00  0.00    -0.275 N 
ATOM     23  C   UNL     1     -44.209  43.375  24.719  1.00  0.00     0.025 A 
ATOM     24  N   UNL     1     -44.672  43.039  26.912  1.00  0.00    -0.173 NA
ATOM     25  C   UNL     1     -44.367  42.019  24.897  1.00  0.00    -0.016 A 
ATOM     26  H   UNL     1     -43.983  43.965  23.842  1.00  0.00     0.084 H 
ATOM     27  H   UNL     1     -44.284  41.257  24.138  1.00  0.00     0.066 H 
BRANCH  22  28
ATOM     28  C   UNL     1     -44.331  45.339  26.277  1.00  0.00     0.030 C 
ATOM     29  H   UNL     1     -43.351  45.542  26.718  1.00  0.00     0.048 H 
ATOM     30  H   UNL     1     -45.121  45.582  26.992  1.00  0.00     0.048 H 
ATOM     31  H   UNL     1     -44.468  45.916  25.359  1.00  0.00     0.048 H 
ENDBRANCH  22  28
ENDBRANCH  11  21
BRANCH  16  32
ATOM     32  N   UNL     1     -42.588  41.692  28.873  1.00  0.00    -0.383 N 
ATOM     33  H   UNL     1     -43.198  42.489  28.757  1.00  0.00     0.158 HD
ATOM     34  H   UNL     1     -41.813  41.603  28.210  1.00  0.00     0.158 HD
ENDBRANCH  16  32
ENDBRANCH   1  10
BRANCH   5  35
ATOM     35  C   UNL     1     -46.448  33.725  26.169  1.00  0.00     0.115 C 
ATOM     36  H   UNL     1     -45.356  33.799  26.103  1.00  0.00     0.076 H 
ATOM     37  H   UNL     1     -46.658  32.919  26.885  1.00  0.00     0.076 H 
BRANCH  35  38
ATOM     38  O   UNL     1     -46.909  33.375  24.861  1.00  0.00    -0.489 OA
BRANCH  38  39
ATOM     39  C   UNL     1     -47.426  32.125  24.663  1.00  0.00     0.121 A 
ATOM     40  C   UNL     1     -48.189  31.640  25.722  1.00  0.00    -0.019 A 
ATOM     41  C   UNL     1     -47.241  31.320  23.538  1.00  0.00     0.004 A 
ATOM     42  C   UNL     1     -48.785  30.380  25.642  1.00  0.00    -0.044 A 
ATOM     43  H   UNL     1     -48.342  32.252  26.607  1.00  0.00     0.066 H 
ATOM     44  C   UNL     1     -47.790  30.023  23.463  1.00  0.00     0.048 A 
ATOM     45  H   UNL     1     -46.663  31.672  22.691  1.00  0.00     0.068 H 
ATOM     46  C   UNL     1     -48.612  29.557  24.514  1.00  0.00     0.060 A 
ATOM     47  H   UNL     1     -49.399  30.037  26.476  1.00  0.00     0.063 H 
BRANCH  44  48
ATOM     48  N   UNL     1     -47.664  29.344  22.232  1.00  0.00    -0.398 N 
ATOM     49  H   UNL     1     -47.423  28.359  22.348  1.00  0.00     0.156 HD
ATOM     50  H   UNL     1     -47.061  29.808  21.560  1.00  0.00     0.156 HD
ENDBRANCH  44  48
BRANCH  46  51
ATOM     51  C   UNL     1     -49.283  28.254  24.522  1.00  0.00     0.227 A 
ATOM     52  N   UNL     1     -49.180  27.274  25.406  1.00  0.00    -0.218 NA
ATOM     53  O   UNL     1     -50.103  27.951  23.461  1.00  0.00    -0.444 OA
ATOM     54  C   UNL     1     -49.993  26.288  24.913  1.00  0.00     0.066 A 
ATOM     55  C   UNL     1     -50.555  26.696  23.731  1.00  0.00     0.112 A 
ATOM     56  H   UNL     1     -50.127  25.347  25.429  1.00  0.00     0.087 H 
ATOM     57  H   UNL     1     -51.234  26.260  23.014  1.00  0.00     0.106 H 
ENDBRANCH  46  51
ENDBRANCH  38  39
ENDBRANCH  35  38
ENDBRANCH   5  35
TORSDOF 9
ENDMDL
MODEL 6
REMARK VINA RESULT:      -9.5      2.452     11.761
REMARK SMILES Cn1ccc(-c2cn(-c3cncc(COc4ccc(-c5ncco5)c(N)c4)c3)c3ncnc(N)c23)n1
REMARK SMILES IDX 9 1 10 2 11 3 12 4 13 5 28 6 8 10 6 11 7 12 35 13 29 15
REMARK SMILES IDX 33 16 30 17 32 18 31 19 5 21 2 22 3 23 36 24 4 25 1 28 34 32
REMARK SMILES IDX 14 35 15 38 16 39 17 40 27 41 18 42 25 44 19 46 26 48 20 51
REMARK SMILES IDX 21 52 24 53 22 54 23 55
REMARK H PARENT 10 7 12 8 28 9 7 14 31 20 3 26 4 27 1 29 1 30 1 31 34 33 34 34
REMARK H PARENT 14 36 14 37 17 43 27 45 18 47 26 49 26 50 22 56 23 57
REMARK Flexibility Score: inf
ROOT
ATOM      1  C   UNL     1     -47.989  33.498  26.242  1.00  0.00     0.066 A 
ATOM      2  C   UNL     1     -49.178  34.159  26.530  1.00  0.00     0.051 A 
ATOM      3  N   UNL     1     -49.251  35.353  27.173  1.00  0.00    -0.262 NA
ATOM      4  C   UNL     1     -48.088  35.923  27.549  1.00  0.00     0.034 A 
ATOM      5  C   UNL     1     -46.842  35.353  27.332  1.00  0.00     0.010 A 
ATOM      6  C   UNL     1     -46.804  34.127  26.651  1.00  0.00    -0.028 A 
ATOM      7  H   UNL     1     -50.157  33.765  26.282  1.00  0.00     0.086 H 
ATOM      8  H   UNL     1     -48.197  36.880  28.051  1.00  0.00     0.084 H 
ATOM      9  H   UNL     1     -45.827  33.698  26.444  1.00  0.00     0.065 H 
ENDROOT
BRANCH   1  10
ATOM     10  N   UNL     1     -47.963  32.233  25.569  1.00  0.00    -0.299 N 
ATOM     11  C   UNL     1     -48.461  30.086  25.066  1.00  0.00     0.033 A 
ATOM     12  C   UNL     1     -48.713  31.127  25.934  1.00  0.00     0.021 A 
ATOM     13  C   UNL     1     -47.489  30.539  24.130  1.00  0.00     0.071 A 
ATOM     14  H   UNL     1     -49.409  31.165  26.759  1.00  0.00     0.083 H 
ATOM     15  C   UNL     1     -47.216  31.870  24.447  1.00  0.00     0.150 A 
ATOM     16  C   UNL     1     -46.787  29.996  23.037  1.00  0.00     0.137 A 
ATOM     17  N   UNL     1     -46.346  32.659  23.784  1.00  0.00    -0.218 NA
ATOM     18  N   UNL     1     -45.936  30.777  22.345  1.00  0.00    -0.219 NA
ATOM     19  C   UNL     1     -45.760  32.040  22.752  1.00  0.00     0.120 A 
ATOM     20  H   UNL     1     -45.056  32.631  22.176  1.00  0.00     0.106 H 
BRANCH  11  21
ATOM     21  C   UNL     1     -49.099  28.766  25.099  1.00  0.00     0.095 A 
ATOM     22  N   UNL     1     -49.509  26.740  25.546  1.00  0.00    -0.275 N 
ATOM     23  C   UNL     1     -50.484  27.095  24.664  1.00  0.00     0.025 A 
ATOM     24  N   UNL     1     -48.645  27.735  25.825  1.00  0.00    -0.173 NA
ATOM     25  C   UNL     1     -50.244  28.413  24.349  1.00  0.00    -0.016 A 
ATOM     26  H   UNL     1     -51.250  26.404  24.340  1.00  0.00     0.084 H 
ATOM     27  H   UNL     1     -50.821  29.029  23.677  1.00  0.00     0.066 H 
BRANCH  22  28
ATOM     28  C   UNL     1     -49.334  25.452  26.174  1.00  0.00     0.030 C 
ATOM     29  H   UNL     1     -49.897  25.446  27.111  1.00  0.00     0.048 H 
ATOM     30  H   UNL     1     -48.272  25.286  26.373  1.00  0.00     0.048 H 
ATOM     31  H   UNL     1     -49.711  24.684  25.493  1.00  0.00     0.048 H 
ENDBRANCH  22  28
ENDBRANCH  11  21
BRANCH  16  32
ATOM     32  N   UNL     1     -46.906  28.682  22.610  1.00  0.00    -0.383 N 
ATOM     33  H   UNL     1     -47.311  28.094  23.325  1.00  0.00     0.158 HD
ATOM     34  H   UNL     1     -46.058  28.338  22.154  1.00  0.00     0.158 HD
ENDBRANCH  16  32
ENDBRANCH   1  10
BRANCH   5  35
ATOM     35  C   UNL     1     -45.596  36.077  27.771  1.00  0.00     0.115 C 
ATOM     36  H   UNL     1     -45.023  35.389  28.403  1.00  0.00     0.076 H 
ATOM     37  H   UNL     1     -44.945  36.330  26.924  1.00  0.00     0.076 H 
BRANCH  35  38
ATOM     38  O   UNL     1     -45.863  37.232  28.571  1.00  0.00    -0.489 OA
BRANCH  38  39
ATOM     39  C   UNL     1     -45.351  38.435  28.171  1.00  0.00     0.121 A 
ATOM     40  C   UNL     1     -45.973  38.987  27.054  1.00  0.00    -0.019 A 
ATOM     41  C   UNL     1     -44.285  39.118  28.759  1.00  0.00     0.004 A 
ATOM     42  C   UNL     1     -45.553  40.220  26.552  1.00  0.00    -0.044 A 
ATOM     43  H   UNL     1     -46.803  38.468  26.583  1.00  0.00     0.066 H 
ATOM     44  C   UNL     1     -43.812  40.338  28.232  1.00  0.00     0.048 A 
ATOM     45  H   UNL     1     -43.787  38.723  29.637  1.00  0.00     0.068 H 
ATOM     46  C   UNL     1     -44.482  40.923  27.134  1.00  0.00     0.060 A 
ATOM     47  H   UNL     1     -46.075  40.640  25.691  1.00  0.00     0.063 H 
BRANCH  44  48
ATOM     48  N   UNL     1     -42.824  41.017  28.975  1.00  0.00    -0.398 N 
ATOM     49  H   UNL     1     -42.189  40.382  29.461  1.00  0.00     0.156 HD
ATOM     50  H   UNL     1     -43.187  41.738  29.591  1.00  0.00     0.156 HD
ENDBRANCH  44  48
BRANCH  46  51
ATOM     51  C   UNL     1     -44.120  42.213  26.537  1.00  0.00     0.227 A 
ATOM     52  N   UNL     1     -43.729  42.473  25.300  1.00  0.00    -0.218 NA
ATOM     53  O   UNL     1     -44.131  43.319  27.353  1.00  0.00    -0.444 OA
ATOM     54  C   UNL     1     -43.495  43.823  25.296  1.00  0.00     0.066 A 
ATOM     55  C   UNL     1     -43.738  44.340  26.543  1.00  0.00     0.112 A 
ATOM     56  H   UNL     1     -43.166  44.343  24.408  1.00  0.00     0.087 H 
ATOM     57  H   UNL     1     -43.685  45.321  26.990  1.00  0.00     0.106 H 
ENDBRANCH  46  51
ENDBRANCH  38  39
ENDBRANCH  35  38
ENDBRANCH   5  35
TORSDOF 9
ENDMDL
