MODEL 1
REMARK VINA RESULT:     -10.6      0.000      0.000
REMARK SMILES Cc1cc(N)c2ccc(OC[C@H]3O[C@@H](n4cc(Br)c5c(N)ncnc54)[C@@H](F)[C@@H]3O)cc2n1
REMARK SMILES IDX 11 1 10 4 9 5 2 6 3 7 32 8 4 9 31 11 6 12 30 13 7 14 8 16
REMARK SMILES IDX 1 19 5 23 12 26 13 27 28 28 14 30 26 31 27 34 29 36 15 38
REMARK SMILES IDX 16 39 25 40 17 41 19 43 24 44 18 45 20 46 23 47 22 48 21 50
REMARK H PARENT 11 2 11 3 3 10 30 15 7 17 8 18 1 20 1 21 1 22 5 24 5 25 12 29
REMARK H PARENT 28 32 14 33 26 35 29 37 16 42 23 49 21 51 21 52
REMARK Flexibility Score: inf
ROOT
ATOM      1  C   UNL     1     -47.163  36.117  27.133  1.00  0.00     0.117 C 
ATOM      2  H   UNL     1     -46.676  36.350  26.179  1.00  0.00     0.073 H 
ATOM      3  H   UNL     1     -47.853  36.954  27.290  1.00  0.00     0.073 H 
ENDROOT
BRANCH   1   4
ATOM      4  O   UNL     1     -47.958  34.935  27.061  1.00  0.00    -0.491 OA
BRANCH   4   5
ATOM      5  C   UNL     1     -47.573  33.929  26.221  1.00  0.00     0.121 A 
ATOM      6  C   UNL     1     -49.132  29.888  24.252  1.00  0.00     0.040 A 
ATOM      7  C   UNL     1     -47.933  29.654  23.595  1.00  0.00    -0.017 A 
ATOM      8  N   UNL     1     -49.344  30.988  25.006  1.00  0.00    -0.253 NA
ATOM      9  C   UNL     1     -46.913  30.603  23.677  1.00  0.00     0.043 A 
ATOM     10  H   UNL     1     -47.800  28.746  23.018  1.00  0.00     0.066 H 
ATOM     11  C   UNL     1     -48.345  31.872  25.153  1.00  0.00     0.076 A 
ATOM     12  C   UNL     1     -47.089  31.722  24.529  1.00  0.00     0.023 A 
ATOM     13  C   UNL     1     -48.562  32.972  25.971  1.00  0.00     0.007 A 
ATOM     14  C   UNL     1     -46.089  32.689  24.787  1.00  0.00    -0.047 A 
ATOM     15  H   UNL     1     -49.537  33.082  26.441  1.00  0.00     0.069 H 
ATOM     16  C   UNL     1     -46.331  33.783  25.623  1.00  0.00    -0.019 A 
ATOM     17  H   UNL     1     -45.102  32.594  24.343  1.00  0.00     0.063 H 
ATOM     18  H   UNL     1     -45.523  34.491  25.775  1.00  0.00     0.066 H 
BRANCH   6  19
ATOM     19  C   UNL     1     -50.251  28.897  24.151  1.00  0.00    -0.022 C 
ATOM     20  H   UNL     1     -49.955  27.945  24.601  1.00  0.00     0.030 H 
ATOM     21  H   UNL     1     -50.515  28.712  23.106  1.00  0.00     0.030 H 
ATOM     22  H   UNL     1     -51.139  29.277  24.666  1.00  0.00     0.030 H 
ENDBRANCH   6  19
BRANCH   9  23
ATOM     23  N   UNL     1     -45.674  30.304  23.072  1.00  0.00    -0.398 N 
ATOM     24  H   UNL     1     -44.891  30.319  23.718  1.00  0.00     0.156 HD
ATOM     25  H   UNL     1     -45.479  30.864  22.248  1.00  0.00     0.156 HD
ENDBRANCH   9  23
ENDBRANCH   4   5
ENDBRANCH   1   4
BRANCH   1  26
ATOM     26  C   UNL     1     -46.159  36.052  28.293  1.00  0.00     0.123 C 
ATOM     27  O   UNL     1     -45.025  36.885  27.970  1.00  0.00    -0.345 OA
ATOM     28  C   UNL     1     -46.738  36.556  29.620  1.00  0.00     0.119 C 
ATOM     29  H   UNL     1     -45.787  35.029  28.410  1.00  0.00     0.067 H 
ATOM     30  C   UNL     1     -44.987  37.967  28.933  1.00  0.00     0.169 C 
ATOM     31  C   UNL     1     -46.349  38.016  29.611  1.00  0.00     0.173 C 
ATOM     32  H   UNL     1     -47.817  36.406  29.713  1.00  0.00     0.066 H 
ATOM     33  H   UNL     1     -44.192  37.716  29.646  1.00  0.00     0.088 H 
ATOM     34  F   UNL     1     -47.249  38.695  28.846  1.00  0.00    -0.239 F 
ATOM     35  H   UNL     1     -46.314  38.482  30.600  1.00  0.00     0.074 H 
BRANCH  28  36
ATOM     36  O   UNL     1     -46.101  35.908  30.727  1.00  0.00    -0.387 OA
ATOM     37  H   UNL     1     -45.159  35.798  30.498  1.00  0.00     0.211 HD
ENDBRANCH  28  36
BRANCH  30  38
ATOM     38  N   UNL     1     -44.612  39.208  28.277  1.00  0.00    -0.302 N 
ATOM     39  C   UNL     1     -45.162  39.750  27.142  1.00  0.00     0.023 A 
ATOM     40  C   UNL     1     -43.616  40.035  28.743  1.00  0.00     0.148 A 
ATOM     41  C   UNL     1     -44.500  40.928  26.891  1.00  0.00     0.049 A 
ATOM     42  H   UNL     1     -45.967  39.257  26.614  1.00  0.00     0.083 H 
ATOM     43  C   UNL     1     -43.516  41.129  27.891  1.00  0.00     0.075 A 
ATOM     44  N   UNL     1     -42.878  39.805  29.843  1.00  0.00    -0.218 NA
ATOM     45  Br  UNL     1     -44.851  42.086  25.457  1.00  0.00    -0.048 Br
ATOM     46  C   UNL     1     -42.540  42.083  28.214  1.00  0.00     0.137 A 
ATOM     47  C   UNL     1     -41.984  40.786  30.050  1.00  0.00     0.120 A 
ATOM     48  N   UNL     1     -41.782  41.894  29.314  1.00  0.00    -0.219 NA
ATOM     49  H   UNL     1     -41.345  40.673  30.921  1.00  0.00     0.106 H 
BRANCH  46  50
ATOM     50  N   UNL     1     -42.300  43.235  27.482  1.00  0.00    -0.383 N 
ATOM     51  H   UNL     1     -43.117  43.515  26.954  1.00  0.00     0.158 HD
ATOM     52  H   UNL     1     -41.409  43.266  27.004  1.00  0.00     0.158 HD
ENDBRANCH  46  50
ENDBRANCH  30  38
ENDBRANCH   1  26
TORSDOF 8
ENDMDL
MODEL 2
REMARK VINA RESULT:      -9.7      1.242      2.070
REMARK SMILES Cc1cc(N)c2ccc(OC[C@H]3O[C@@H](n4cc(Br)c5c(N)ncnc54)[C@@H](F)[C@@H]3O)cc2n1
REMARK SMILES IDX 11 1 10 4 9 5 2 6 3 7 32 8 4 9 31 11 6 12 30 13 7 14 8 16
REMARK SMILES IDX 1 19 5 23 12 26 13 27 28 28 14 30 26 31 27 34 29 36 15 38
REMARK SMILES IDX 16 39 25 40 17 41 19 43 24 44 18 45 20 46 23 47 22 48 21 50
REMARK H PARENT 11 2 11 3 3 10 30 15 7 17 8 18 1 20 1 21 1 22 5 24 5 25 12 29
REMARK H PARENT 28 32 14 33 26 35 29 37 16 42 23 49 21 51 21 52
REMARK Flexibility Score: inf
ROOT
ATOM      1  C   UNL     1     -45.769  35.200  27.027  1.00  0.00     0.117 C 
ATOM      2  H   UNL     1     -45.285  34.245  27.259  1.00  0.00     0.073 H 
ATOM      3  H   UNL     1     -44.959  35.815  26.617  1.00  0.00     0.073 H 
ENDROOT
BRANCH   1   4
ATOM      4  O   UNL     1     -46.752  35.076  26.001  1.00  0.00    -0.491 OA
BRANCH   4   5
ATOM      5  C   UNL     1     -47.232  33.835  25.692  1.00  0.00     0.121 A 
ATOM      6  C   UNL     1     -46.225  29.960  23.123  1.00  0.00     0.040 A 
ATOM      7  C   UNL     1     -47.389  29.309  23.503  1.00  0.00    -0.017 A 
ATOM      8  N   UNL     1     -45.891  31.184  23.587  1.00  0.00    -0.253 NA
ATOM      9  C   UNL     1     -48.236  29.915  24.431  1.00  0.00     0.043 A 
ATOM     10  H   UNL     1     -47.626  28.336  23.087  1.00  0.00     0.066 H 
ATOM     11  C   UNL     1     -46.735  31.808  24.423  1.00  0.00     0.076 A 
ATOM     12  C   UNL     1     -47.944  31.231  24.866  1.00  0.00     0.023 A 
ATOM     13  C   UNL     1     -46.403  33.085  24.852  1.00  0.00     0.007 A 
ATOM     14  C   UNL     1     -48.783  31.995  25.712  1.00  0.00    -0.047 A 
ATOM     15  H   UNL     1     -45.464  33.517  24.511  1.00  0.00     0.069 H 
ATOM     16  C   UNL     1     -48.429  33.283  26.122  1.00  0.00    -0.019 A 
ATOM     17  H   UNL     1     -49.733  31.593  26.054  1.00  0.00     0.063 H 
ATOM     18  H   UNL     1     -49.115  33.812  26.774  1.00  0.00     0.066 H 
BRANCH   6  19
ATOM     19  C   UNL     1     -45.284  29.314  22.151  1.00  0.00    -0.022 C 
ATOM     20  H   UNL     1     -44.253  29.400  22.508  1.00  0.00     0.030 H 
ATOM     21  H   UNL     1     -45.345  29.795  21.170  1.00  0.00     0.030 H 
ATOM     22  H   UNL     1     -45.535  28.256  22.029  1.00  0.00     0.030 H 
ENDBRANCH   6  19
BRANCH   9  23
ATOM     23  N   UNL     1     -49.456  29.273  24.738  1.00  0.00    -0.398 N 
ATOM     24  H   UNL     1     -50.255  29.663  24.249  1.00  0.00     0.156 HD
ATOM     25  H   UNL     1     -49.637  29.201  25.735  1.00  0.00     0.156 HD
ENDBRANCH   9  23
ENDBRANCH   4   5
ENDBRANCH   1   4
BRANCH   1  26
ATOM     26  C   UNL     1     -46.344  35.875  28.281  1.00  0.00     0.123 C 
ATOM     27  O   UNL     1     -45.487  36.977  28.647  1.00  0.00    -0.345 OA
ATOM     28  C   UNL     1     -47.754  36.439  28.069  1.00  0.00     0.119 C 
ATOM     29  H   UNL     1     -46.343  35.171  29.120  1.00  0.00     0.067 H 
ATOM     30  C   UNL     1     -46.256  38.197  28.504  1.00  0.00     0.169 C 
ATOM     31  C   UNL     1     -47.476  37.865  27.657  1.00  0.00     0.173 C 
ATOM     32  H   UNL     1     -48.339  35.889  27.327  1.00  0.00     0.066 H 
ATOM     33  H   UNL     1     -46.542  38.502  29.518  1.00  0.00     0.088 H 
ATOM     34  F   UNL     1     -47.164  37.875  26.330  1.00  0.00    -0.239 F 
ATOM     35  H   UNL     1     -48.308  38.555  27.822  1.00  0.00     0.074 H 
BRANCH  28  36
ATOM     36  O   UNL     1     -48.487  36.440  29.300  1.00  0.00    -0.387 OA
ATOM     37  H   UNL     1     -49.037  37.245  29.311  1.00  0.00     0.211 HD
ENDBRANCH  28  36
BRANCH  30  38
ATOM     38  N   UNL     1     -45.424  39.251  27.947  1.00  0.00    -0.302 N 
ATOM     39  C   UNL     1     -45.630  39.946  26.782  1.00  0.00     0.023 A 
ATOM     40  C   UNL     1     -44.277  39.705  28.555  1.00  0.00     0.148 A 
ATOM     41  C   UNL     1     -44.597  40.845  26.656  1.00  0.00     0.049 A 
ATOM     42  H   UNL     1     -46.482  39.744  26.147  1.00  0.00     0.083 H 
ATOM     43  C   UNL     1     -43.728  40.710  27.767  1.00  0.00     0.075 A 
ATOM     44  N   UNL     1     -43.789  39.243  29.721  1.00  0.00    -0.218 NA
ATOM     45  Br  UNL     1     -44.381  42.059  25.242  1.00  0.00    -0.048 Br
ATOM     46  C   UNL     1     -42.541  41.292  28.237  1.00  0.00     0.137 A 
ATOM     47  C   UNL     1     -42.658  39.878  30.067  1.00  0.00     0.120 A 
ATOM     48  N   UNL     1     -42.022  40.862  29.406  1.00  0.00    -0.219 NA
ATOM     49  H   UNL     1     -42.198  39.560  30.998  1.00  0.00     0.106 H 
BRANCH  46  50
ATOM     50  N   UNL     1     -41.856  42.306  27.585  1.00  0.00    -0.383 N 
ATOM     51  H   UNL     1     -40.866  42.276  27.793  1.00  0.00     0.158 HD
ATOM     52  H   UNL     1     -42.304  43.212  27.604  1.00  0.00     0.158 HD
ENDBRANCH  46  50
ENDBRANCH  30  38
ENDBRANCH   1  26
TORSDOF 8
ENDMDL
MODEL 3
REMARK VINA RESULT:      -9.7      3.106      9.881
REMARK SMILES Cc1cc(N)c2ccc(OC[C@H]3O[C@@H](n4cc(Br)c5c(N)ncnc54)[C@@H](F)[C@@H]3O)cc2n1
REMARK SMILES IDX 11 1 10 4 9 5 2 6 3 7 32 8 4 9 31 11 6 12 30 13 7 14 8 16
REMARK SMILES IDX 1 19 5 23 12 26 13 27 28 28 14 30 26 31 27 34 29 36 15 38
REMARK SMILES IDX 16 39 25 40 17 41 19 43 24 44 18 45 20 46 23 47 22 48 21 50
REMARK H PARENT 11 2 11 3 3 10 30 15 7 17 8 18 1 20 1 21 1 22 5 24 5 25 12 29
REMARK H PARENT 28 32 14 33 26 35 29 37 16 42 23 49 21 51 21 52
REMARK Flexibility Score: inf
ROOT
ATOM      1  C   UNL     1     -48.090  35.495  26.576  1.00  0.00     0.117 C 
ATOM      2  H   UNL     1     -48.946  35.395  25.899  1.00  0.00     0.073 H 
ATOM      3  H   UNL     1     -47.274  35.832  25.927  1.00  0.00     0.073 H 
ENDROOT
BRANCH   1   4
ATOM      4  O   UNL     1     -48.288  36.517  27.553  1.00  0.00    -0.491 OA
BRANCH   4   5
ATOM      5  C   UNL     1     -47.231  37.305  27.909  1.00  0.00     0.121 A 
ATOM      6  C   UNL     1     -44.576  40.937  26.362  1.00  0.00     0.040 A 
ATOM      7  C   UNL     1     -43.761  40.921  27.484  1.00  0.00    -0.017 A 
ATOM      8  N   UNL     1     -45.626  40.100  26.215  1.00  0.00    -0.253 NA
ATOM      9  C   UNL     1     -44.049  40.037  28.524  1.00  0.00     0.043 A 
ATOM     10  H   UNL     1     -42.916  41.598  27.549  1.00  0.00     0.066 H 
ATOM     11  C   UNL     1     -45.868  39.196  27.176  1.00  0.00     0.076 A 
ATOM     12  C   UNL     1     -45.095  39.098  28.352  1.00  0.00     0.023 A 
ATOM     13  C   UNL     1     -46.920  38.309  26.987  1.00  0.00     0.007 A 
ATOM     14  C   UNL     1     -45.409  38.078  29.280  1.00  0.00    -0.047 A 
ATOM     15  H   UNL     1     -47.515  38.399  26.080  1.00  0.00     0.069 H 
ATOM     16  C   UNL     1     -46.468  37.192  29.062  1.00  0.00    -0.019 A 
ATOM     17  H   UNL     1     -44.821  37.957  30.186  1.00  0.00     0.063 H 
ATOM     18  H   UNL     1     -46.658  36.436  29.815  1.00  0.00     0.066 H 
BRANCH   6  19
ATOM     19  C   UNL     1     -44.304  41.900  25.247  1.00  0.00    -0.022 C 
ATOM     20  H   UNL     1     -43.343  41.671  24.775  1.00  0.00     0.030 H 
ATOM     21  H   UNL     1     -44.262  42.928  25.620  1.00  0.00     0.030 H 
ATOM     22  H   UNL     1     -45.096  41.842  24.495  1.00  0.00     0.030 H 
ENDBRANCH   6  19
BRANCH   9  23
ATOM     23  N   UNL     1     -43.157  39.979  29.616  1.00  0.00    -0.398 N 
ATOM     24  H   UNL     1     -43.363  39.232  30.271  1.00  0.00     0.156 HD
ATOM     25  H   UNL     1     -43.045  40.867  30.097  1.00  0.00     0.156 HD
ENDBRANCH   9  23
ENDBRANCH   4   5
ENDBRANCH   1   4
BRANCH   1  26
ATOM     26  C   UNL     1     -47.711  34.158  27.228  1.00  0.00     0.123 C 
ATOM     27  O   UNL     1     -48.546  33.120  26.673  1.00  0.00    -0.345 OA
ATOM     28  C   UNL     1     -46.252  33.758  26.979  1.00  0.00     0.119 C 
ATOM     29  H   UNL     1     -47.911  34.194  28.304  1.00  0.00     0.067 H 
ATOM     30  C   UNL     1     -47.685  32.202  25.954  1.00  0.00     0.169 C 
ATOM     31  C   UNL     1     -46.355  32.909  25.734  1.00  0.00     0.173 C 
ATOM     32  H   UNL     1     -45.578  34.610  26.856  1.00  0.00     0.066 H 
ATOM     33  H   UNL     1     -47.570  31.321  26.596  1.00  0.00     0.088 H 
ATOM     34  F   UNL     1     -46.417  33.737  24.654  1.00  0.00    -0.239 F 
ATOM     35  H   UNL     1     -45.523  32.213  25.589  1.00  0.00     0.074 H 
BRANCH  28  36
ATOM     36  O   UNL     1     -45.758  32.954  28.056  1.00  0.00    -0.387 OA
ATOM     37  H   UNL     1     -46.007  32.030  27.868  1.00  0.00     0.211 HD
ENDBRANCH  28  36
BRANCH  30  38
ATOM     38  N   UNL     1     -48.330  31.769  24.725  1.00  0.00    -0.302 N 
ATOM     39  C   UNL     1     -49.641  31.952  24.363  1.00  0.00     0.023 A 
ATOM     40  C   UNL     1     -47.668  31.095  23.725  1.00  0.00     0.148 A 
ATOM     41  C   UNL     1     -49.804  31.382  23.122  1.00  0.00     0.049 A 
ATOM     42  H   UNL     1     -50.340  32.464  25.012  1.00  0.00     0.083 H 
ATOM     43  C   UNL     1     -48.569  30.833  22.699  1.00  0.00     0.075 A 
ATOM     44  N   UNL     1     -46.366  30.760  23.754  1.00  0.00    -0.218 NA
ATOM     45  Br  UNL     1     -51.406  31.347  22.147  1.00  0.00    -0.048 Br
ATOM     46  C   UNL     1     -48.062  30.144  21.587  1.00  0.00     0.137 A 
ATOM     47  C   UNL     1     -45.999  30.111  22.637  1.00  0.00     0.120 A 
ATOM     48  N   UNL     1     -46.759  29.795  21.573  1.00  0.00    -0.219 NA
ATOM     49  H   UNL     1     -44.959  29.803  22.584  1.00  0.00     0.106 H 
BRANCH  46  50
ATOM     50  N   UNL     1     -48.812  29.799  20.473  1.00  0.00    -0.383 N 
ATOM     51  H   UNL     1     -49.229  30.614  20.041  1.00  0.00     0.158 HD
ATOM     52  H   UNL     1     -49.400  28.984  20.584  1.00  0.00     0.158 HD
ENDBRANCH  46  50
ENDBRANCH  30  38
ENDBRANCH   1  26
TORSDOF 8
ENDMDL
MODEL 4
REMARK VINA RESULT:      -8.9      1.876      3.003
REMARK SMILES Cc1cc(N)c2ccc(OC[C@H]3O[C@@H](n4cc(Br)c5c(N)ncnc54)[C@@H](F)[C@@H]3O)cc2n1
REMARK SMILES IDX 11 1 10 4 9 5 2 6 3 7 32 8 4 9 31 11 6 12 30 13 7 14 8 16
REMARK SMILES IDX 1 19 5 23 12 26 13 27 28 28 14 30 26 31 27 34 29 36 15 38
REMARK SMILES IDX 16 39 25 40 17 41 19 43 24 44 18 45 20 46 23 47 22 48 21 50
REMARK H PARENT 11 2 11 3 3 10 30 15 7 17 8 18 1 20 1 21 1 22 5 24 5 25 12 29
REMARK H PARENT 28 32 14 33 26 35 29 37 16 42 23 49 21 51 21 52
REMARK Flexibility Score: inf
ROOT
ATOM      1  C   UNL     1     -45.981  35.971  27.649  1.00  0.00     0.117 C 
ATOM      2  H   UNL     1     -45.847  35.038  28.206  1.00  0.00     0.073 H 
ATOM      3  H   UNL     1     -44.968  36.385  27.574  1.00  0.00     0.073 H 
ENDROOT
BRANCH   1   4
ATOM      4  O   UNL     1     -46.433  35.747  26.315  1.00  0.00    -0.491 OA
BRANCH   4   5
ATOM      5  C   UNL     1     -47.010  34.549  26.005  1.00  0.00     0.121 A 
ATOM      6  C   UNL     1     -46.377  30.664  23.333  1.00  0.00     0.040 A 
ATOM      7  C   UNL     1     -47.567  30.087  23.750  1.00  0.00    -0.017 A 
ATOM      8  N   UNL     1     -45.941  31.852  23.803  1.00  0.00    -0.253 NA
ATOM      9  C   UNL     1     -48.334  30.732  24.722  1.00  0.00     0.043 A 
ATOM     10  H   UNL     1     -47.888  29.141  23.328  1.00  0.00     0.066 H 
ATOM     11  C   UNL     1     -46.706  32.516  24.683  1.00  0.00     0.076 A 
ATOM     12  C   UNL     1     -47.934  32.016  25.166  1.00  0.00     0.023 A 
ATOM     13  C   UNL     1     -46.269  33.760  25.120  1.00  0.00     0.007 A 
ATOM     14  C   UNL     1     -48.684  32.819  26.058  1.00  0.00    -0.047 A 
ATOM     15  H   UNL     1     -45.317  34.132  24.748  1.00  0.00     0.069 H 
ATOM     16  C   UNL     1     -48.225  34.071  26.475  1.00  0.00    -0.019 A 
ATOM     17  H   UNL     1     -49.644  32.476  26.432  1.00  0.00     0.063 H 
ATOM     18  H   UNL     1     -48.846  34.634  27.163  1.00  0.00     0.066 H 
BRANCH   6  19
ATOM     19  C   UNL     1     -45.523  29.973  22.313  1.00  0.00    -0.022 C 
ATOM     20  H   UNL     1     -44.591  30.527  22.163  1.00  0.00     0.030 H 
ATOM     21  H   UNL     1     -46.039  29.910  21.351  1.00  0.00     0.030 H 
ATOM     22  H   UNL     1     -45.288  28.957  22.642  1.00  0.00     0.030 H 
ENDBRANCH   6  19
BRANCH   9  23
ATOM     23  N   UNL     1     -49.582  30.169  25.068  1.00  0.00    -0.398 N 
ATOM     24  H   UNL     1     -49.587  29.155  25.059  1.00  0.00     0.156 HD
ATOM     25  H   UNL     1     -50.358  30.544  24.531  1.00  0.00     0.156 HD
ENDBRANCH   9  23
ENDBRANCH   4   5
ENDBRANCH   1   4
BRANCH   1  26
ATOM     26  C   UNL     1     -46.887  36.962  28.393  1.00  0.00     0.123 C 
ATOM     27  O   UNL     1     -46.068  38.018  28.939  1.00  0.00    -0.345 OA
ATOM     28  C   UNL     1     -47.938  37.615  27.488  1.00  0.00     0.119 C 
ATOM     29  H   UNL     1     -47.376  36.463  29.237  1.00  0.00     0.067 H 
ATOM     30  C   UNL     1     -46.452  39.253  28.286  1.00  0.00     0.169 C 
ATOM     31  C   UNL     1     -47.242  38.878  27.039  1.00  0.00     0.173 C 
ATOM     32  H   UNL     1     -48.251  36.983  26.653  1.00  0.00     0.066 H 
ATOM     33  H   UNL     1     -47.074  39.801  29.004  1.00  0.00     0.088 H 
ATOM     34  F   UNL     1     -46.406  38.564  26.010  1.00  0.00    -0.239 F 
ATOM     35  H   UNL     1     -47.915  39.674  26.708  1.00  0.00     0.074 H 
BRANCH  28  36
ATOM     36  O   UNL     1     -49.105  37.965  28.242  1.00  0.00    -0.387 OA
ATOM     37  H   UNL     1     -49.244  37.265  28.906  1.00  0.00     0.211 HD
ENDBRANCH  28  36
BRANCH  30  38
ATOM     38  N   UNL     1     -45.277  40.063  28.014  1.00  0.00    -0.302 N 
ATOM     39  C   UNL     1     -44.007  39.879  28.502  1.00  0.00     0.023 A 
ATOM     40  C   UNL     1     -45.295  41.164  27.189  1.00  0.00     0.148 A 
ATOM     41  C   UNL     1     -43.221  40.878  27.979  1.00  0.00     0.049 A 
ATOM     42  H   UNL     1     -43.773  39.063  29.173  1.00  0.00     0.083 H 
ATOM     43  C   UNL     1     -44.015  41.704  27.146  1.00  0.00     0.075 A 
ATOM     44  N   UNL     1     -46.381  41.620  26.539  1.00  0.00    -0.218 NA
ATOM     45  Br  UNL     1     -41.388  41.104  28.313  1.00  0.00    -0.048 Br
ATOM     46  C   UNL     1     -43.847  42.844  26.346  1.00  0.00     0.137 A 
ATOM     47  C   UNL     1     -46.095  42.709  25.807  1.00  0.00     0.120 A 
ATOM     48  N   UNL     1     -44.909  43.331  25.672  1.00  0.00    -0.219 NA
ATOM     49  H   UNL     1     -46.922  43.141  25.252  1.00  0.00     0.106 H 
BRANCH  46  50
ATOM     50  N   UNL     1     -42.644  43.514  26.183  1.00  0.00    -0.383 N 
ATOM     51  H   UNL     1     -42.255  43.357  25.262  1.00  0.00     0.158 HD
ATOM     52  H   UNL     1     -42.009  43.460  26.968  1.00  0.00     0.158 HD
ENDBRANCH  46  50
ENDBRANCH  30  38
ENDBRANCH   1  26
TORSDOF 8
ENDMDL
MODEL 5
REMARK VINA RESULT:      -8.6      4.807     11.259
REMARK SMILES Cc1cc(N)c2ccc(OC[C@H]3O[C@@H](n4cc(Br)c5c(N)ncnc54)[C@@H](F)[C@@H]3O)cc2n1
REMARK SMILES IDX 11 1 10 4 9 5 2 6 3 7 32 8 4 9 31 11 6 12 30 13 7 14 8 16
REMARK SMILES IDX 1 19 5 23 12 26 13 27 28 28 14 30 26 31 27 34 29 36 15 38
REMARK SMILES IDX 16 39 25 40 17 41 19 43 24 44 18 45 20 46 23 47 22 48 21 50
REMARK H PARENT 11 2 11 3 3 10 30 15 7 17 8 18 1 20 1 21 1 22 5 24 5 25 12 29
REMARK H PARENT 28 32 14 33 26 35 29 37 16 42 23 49 21 51 21 52
REMARK Flexibility Score: inf
ROOT
ATOM      1  C   UNL     1     -47.159  32.242  24.575  1.00  0.00     0.117 C 
ATOM      2  H   UNL     1     -47.415  31.839  25.561  1.00  0.00     0.073 H 
ATOM      3  H   UNL     1     -48.128  32.507  24.136  1.00  0.00     0.073 H 
ENDROOT
BRANCH   1   4
ATOM      4  O   UNL     1     -46.404  33.450  24.661  1.00  0.00    -0.491 OA
BRANCH   4   5
ATOM      5  C   UNL     1     -46.347  34.110  25.855  1.00  0.00     0.121 A 
ATOM      6  C   UNL     1     -46.946  38.414  27.790  1.00  0.00     0.040 A 
ATOM      7  C   UNL     1     -46.608  37.976  29.062  1.00  0.00    -0.017 A 
ATOM      8  N   UNL     1     -47.001  37.584  26.727  1.00  0.00    -0.253 NA
ATOM      9  C   UNL     1     -46.352  36.620  29.271  1.00  0.00     0.043 A 
ATOM     10  H   UNL     1     -46.555  38.683  29.883  1.00  0.00     0.066 H 
ATOM     11  C   UNL     1     -46.685  36.292  26.901  1.00  0.00     0.076 A 
ATOM     12  C   UNL     1     -46.325  35.751  28.152  1.00  0.00     0.023 A 
ATOM     13  C   UNL     1     -46.698  35.462  25.788  1.00  0.00     0.007 A 
ATOM     14  C   UNL     1     -45.966  34.384  28.217  1.00  0.00    -0.047 A 
ATOM     15  H   UNL     1     -46.985  35.888  24.829  1.00  0.00     0.069 H 
ATOM     16  C   UNL     1     -45.979  33.571  27.079  1.00  0.00    -0.019 A 
ATOM     17  H   UNL     1     -45.661  33.938  29.159  1.00  0.00     0.063 H 
ATOM     18  H   UNL     1     -45.697  32.531  27.198  1.00  0.00     0.066 H 
BRANCH   6  19
ATOM     19  C   UNL     1     -47.256  39.861  27.550  1.00  0.00    -0.022 C 
ATOM     20  H   UNL     1     -46.418  40.486  27.875  1.00  0.00     0.030 H 
ATOM     21  H   UNL     1     -48.145  40.167  28.109  1.00  0.00     0.030 H 
ATOM     22  H   UNL     1     -47.443  40.036  26.487  1.00  0.00     0.030 H 
ENDBRANCH   6  19
BRANCH   9  23
ATOM     23  N   UNL     1     -45.927  36.212  30.553  1.00  0.00    -0.398 N 
ATOM     24  H   UNL     1     -46.278  36.797  31.304  1.00  0.00     0.156 HD
ATOM     25  H   UNL     1     -44.922  36.087  30.627  1.00  0.00     0.156 HD
ENDBRANCH   9  23
ENDBRANCH   4   5
ENDBRANCH   1   4
BRANCH   1  26
ATOM     26  C   UNL     1     -46.460  31.201  23.689  1.00  0.00     0.123 C 
ATOM     27  O   UNL     1     -46.777  29.884  24.186  1.00  0.00    -0.345 OA
ATOM     28  C   UNL     1     -46.903  31.260  22.223  1.00  0.00     0.119 C 
ATOM     29  H   UNL     1     -45.373  31.320  23.758  1.00  0.00     0.067 H 
ATOM     30  C   UNL     1     -47.540  29.201  23.160  1.00  0.00     0.169 C 
ATOM     31  C   UNL     1     -48.034  30.260  22.184  1.00  0.00     0.173 C 
ATOM     32  H   UNL     1     -47.210  32.258  21.897  1.00  0.00     0.066 H 
ATOM     33  H   UNL     1     -46.848  28.501  22.677  1.00  0.00     0.088 H 
ATOM     34  F   UNL     1     -49.160  30.866  22.654  1.00  0.00    -0.239 F 
ATOM     35  H   UNL     1     -48.247  29.854  21.191  1.00  0.00     0.074 H 
BRANCH  28  36
ATOM     36  O   UNL     1     -45.851  30.814  21.359  1.00  0.00    -0.387 OA
ATOM     37  H   UNL     1     -46.119  31.019  20.444  1.00  0.00     0.211 HD
ENDBRANCH  28  36
BRANCH  30  38
ATOM     38  N   UNL     1     -48.604  28.418  23.765  1.00  0.00    -0.302 N 
ATOM     39  C   UNL     1     -49.950  28.500  23.505  1.00  0.00     0.023 A 
ATOM     40  C   UNL     1     -48.380  27.448  24.714  1.00  0.00     0.148 A 
ATOM     41  C   UNL     1     -50.576  27.572  24.303  1.00  0.00     0.049 A 
ATOM     42  H   UNL     1     -50.344  29.204  22.784  1.00  0.00     0.083 H 
ATOM     43  C   UNL     1     -49.602  26.894  25.078  1.00  0.00     0.075 A 
ATOM     44  N   UNL     1     -47.170  27.104  25.192  1.00  0.00    -0.218 NA
ATOM     45  Br  UNL     1     -52.424  27.252  24.350  1.00  0.00    -0.048 Br
ATOM     46  C   UNL     1     -49.564  25.880  26.046  1.00  0.00     0.137 A 
ATOM     47  C   UNL     1     -47.261  26.125  26.106  1.00  0.00     0.120 A 
ATOM     48  N   UNL     1     -48.370  25.502  26.547  1.00  0.00    -0.219 NA
ATOM     49  H   UNL     1     -46.325  25.792  26.543  1.00  0.00     0.106 H 
BRANCH  46  50
ATOM     50  N   UNL     1     -50.681  25.216  26.528  1.00  0.00    -0.383 N 
ATOM     51  H   UNL     1     -51.509  25.796  26.471  1.00  0.00     0.158 HD
ATOM     52  H   UNL     1     -50.539  24.696  27.383  1.00  0.00     0.158 HD
ENDBRANCH  46  50
ENDBRANCH  30  38
ENDBRANCH   1  26
TORSDOF 8
ENDMDL
MODEL 6
REMARK VINA RESULT:      -8.6      2.090      2.859
REMARK SMILES Cc1cc(N)c2ccc(OC[C@H]3O[C@@H](n4cc(Br)c5c(N)ncnc54)[C@@H](F)[C@@H]3O)cc2n1
REMARK SMILES IDX 11 1 10 4 9 5 2 6 3 7 32 8 4 9 31 11 6 12 30 13 7 14 8 16
REMARK SMILES IDX 1 19 5 23 12 26 13 27 28 28 14 30 26 31 27 34 29 36 15 38
REMARK SMILES IDX 16 39 25 40 17 41 19 43 24 44 18 45 20 46 23 47 22 48 21 50
REMARK H PARENT 11 2 11 3 3 10 30 15 7 17 8 18 1 20 1 21 1 22 5 24 5 25 12 29
REMARK H PARENT 28 32 14 33 26 35 29 37 16 42 23 49 21 51 21 52
REMARK Flexibility Score: inf
ROOT
ATOM      1  C   UNL     1     -46.061  35.244  28.159  1.00  0.00     0.117 C 
ATOM      2  H   UNL     1     -45.055  35.359  28.577  1.00  0.00     0.073 H 
ATOM      3  H   UNL     1     -45.962  35.597  27.126  1.00  0.00     0.073 H 
ENDROOT
BRANCH   1   4
ATOM      4  O   UNL     1     -46.468  33.878  28.090  1.00  0.00    -0.491 OA
BRANCH   4   5
ATOM      5  C   UNL     1     -46.643  33.301  26.865  1.00  0.00     0.121 A 
ATOM      6  C   UNL     1     -48.793  29.640  24.718  1.00  0.00     0.040 A 
ATOM      7  C   UNL     1     -48.290  29.975  23.470  1.00  0.00    -0.017 A 
ATOM      8  N   UNL     1     -48.549  30.379  25.822  1.00  0.00    -0.253 NA
ATOM      9  C   UNL     1     -47.535  31.140  23.329  1.00  0.00     0.043 A 
ATOM     10  H   UNL     1     -48.494  29.339  22.615  1.00  0.00     0.066 H 
ATOM     11  C   UNL     1     -47.763  31.461  25.712  1.00  0.00     0.076 A 
ATOM     12  C   UNL     1     -47.202  31.883  24.489  1.00  0.00     0.023 A 
ATOM     13  C   UNL     1     -47.481  32.182  26.865  1.00  0.00     0.007 A 
ATOM     14  C   UNL     1     -46.351  33.012  24.493  1.00  0.00    -0.047 A 
ATOM     15  H   UNL     1     -47.926  31.853  27.802  1.00  0.00     0.069 H 
ATOM     16  C   UNL     1     -46.076  33.716  25.669  1.00  0.00    -0.019 A 
ATOM     17  H   UNL     1     -45.882  33.352  23.573  1.00  0.00     0.063 H 
ATOM     18  H   UNL     1     -45.418  34.575  25.602  1.00  0.00     0.066 H 
BRANCH   6  19
ATOM     19  C   UNL     1     -49.632  28.410  24.887  1.00  0.00    -0.022 C 
ATOM     20  H   UNL     1     -49.559  27.777  23.997  1.00  0.00     0.030 H 
ATOM     21  H   UNL     1     -50.684  28.673  25.031  1.00  0.00     0.030 H 
ATOM     22  H   UNL     1     -49.299  27.842  25.761  1.00  0.00     0.030 H 
ENDBRANCH   6  19
BRANCH   9  23
ATOM     23  N   UNL     1     -46.964  31.416  22.068  1.00  0.00    -0.398 N 
ATOM     24  H   UNL     1     -47.209  30.738  21.353  1.00  0.00     0.156 HD
ATOM     25  H   UNL     1     -45.960  31.565  22.102  1.00  0.00     0.156 HD
ENDBRANCH   9  23
ENDBRANCH   4   5
ENDBRANCH   1   4
BRANCH   1  26
ATOM     26  C   UNL     1     -47.095  36.103  28.900  1.00  0.00     0.123 C 
ATOM     27  O   UNL     1     -46.517  37.401  29.160  1.00  0.00    -0.345 OA
ATOM     28  C   UNL     1     -48.382  36.325  28.097  1.00  0.00     0.119 C 
ATOM     29  H   UNL     1     -47.331  35.653  29.870  1.00  0.00     0.067 H 
ATOM     30  C   UNL     1     -47.285  38.379  28.418  1.00  0.00     0.169 C 
ATOM     31  C   UNL     1     -48.097  37.622  27.376  1.00  0.00     0.173 C 
ATOM     32  H   UNL     1     -48.621  35.505  27.414  1.00  0.00     0.066 H 
ATOM     33  H   UNL     1     -47.935  38.879  29.147  1.00  0.00     0.088 H 
ATOM     34  F   UNL     1     -47.341  37.344  26.278  1.00  0.00    -0.239 F 
ATOM     35  H   UNL     1     -48.989  38.167  27.054  1.00  0.00     0.074 H 
BRANCH  28  36
ATOM     36  O   UNL     1     -49.499  36.511  28.975  1.00  0.00    -0.387 OA
ATOM     37  H   UNL     1     -49.280  36.079  29.821  1.00  0.00     0.211 HD
ENDBRANCH  28  36
BRANCH  30  38
ATOM     38  N   UNL     1     -46.402  39.387  27.854  1.00  0.00    -0.302 N 
ATOM     39  C   UNL     1     -45.029  39.379  27.842  1.00  0.00     0.023 A 
ATOM     40  C   UNL     1     -46.859  40.523  27.228  1.00  0.00     0.148 A 
ATOM     41  C   UNL     1     -44.621  40.526  27.204  1.00  0.00     0.049 A 
ATOM     42  H   UNL     1     -44.466  38.568  28.285  1.00  0.00     0.083 H 
ATOM     43  C   UNL     1     -45.762  41.266  26.808  1.00  0.00     0.075 A 
ATOM     44  N   UNL     1     -48.155  40.840  27.059  1.00  0.00    -0.218 NA
ATOM     45  Br  UNL     1     -42.837  41.023  26.903  1.00  0.00    -0.048 Br
ATOM     46  C   UNL     1     -46.043  42.471  26.145  1.00  0.00     0.137 A 
ATOM     47  C   UNL     1     -48.296  42.008  26.411  1.00  0.00     0.120 A 
ATOM     48  N   UNL     1     -47.330  42.823  25.949  1.00  0.00    -0.219 NA
ATOM     49  H   UNL     1     -49.316  42.337  26.237  1.00  0.00     0.106 H 
BRANCH  46  50
ATOM     50  N   UNL     1     -45.077  43.337  25.656  1.00  0.00    -0.383 N 
ATOM     51  H   UNL     1     -44.289  43.407  26.287  1.00  0.00     0.158 HD
ATOM     52  H   UNL     1     -45.430  44.199  25.261  1.00  0.00     0.158 HD
ENDBRANCH  46  50
ENDBRANCH  30  38
ENDBRANCH   1  26
TORSDOF 8
ENDMDL
MODEL 7
REMARK VINA RESULT:      -8.6      1.886      2.318
REMARK SMILES Cc1cc(N)c2ccc(OC[C@H]3O[C@@H](n4cc(Br)c5c(N)ncnc54)[C@@H](F)[C@@H]3O)cc2n1
REMARK SMILES IDX 11 1 10 4 9 5 2 6 3 7 32 8 4 9 31 11 6 12 30 13 7 14 8 16
REMARK SMILES IDX 1 19 5 23 12 26 13 27 28 28 14 30 26 31 27 34 29 36 15 38
REMARK SMILES IDX 16 39 25 40 17 41 19 43 24 44 18 45 20 46 23 47 22 48 21 50
REMARK H PARENT 11 2 11 3 3 10 30 15 7 17 8 18 1 20 1 21 1 22 5 24 5 25 12 29
REMARK H PARENT 28 32 14 33 26 35 29 37 16 42 23 49 21 51 21 52
REMARK Flexibility Score: inf
ROOT
ATOM      1  C   UNL     1     -46.444  35.167  26.584  1.00  0.00     0.117 C 
ATOM      2  H   UNL     1     -45.674  35.045  25.814  1.00  0.00     0.073 H 
ATOM      3  H   UNL     1     -47.124  35.917  26.165  1.00  0.00     0.073 H 
ENDROOT
BRANCH   1   4
ATOM      4  O   UNL     1     -47.211  33.978  26.778  1.00  0.00    -0.491 OA
BRANCH   4   5
ATOM      5  C   UNL     1     -47.151  32.992  25.835  1.00  0.00     0.121 A 
ATOM      6  C   UNL     1     -48.915  28.701  24.783  1.00  0.00     0.040 A 
ATOM      7  C   UNL     1     -48.164  28.591  23.622  1.00  0.00    -0.017 A 
ATOM      8  N   UNL     1     -48.880  29.799  25.569  1.00  0.00    -0.253 NA
ATOM      9  C   UNL     1     -47.369  29.664  23.219  1.00  0.00     0.043 A 
ATOM     10  H   UNL     1     -48.208  27.681  23.033  1.00  0.00     0.066 H 
ATOM     11  C   UNL     1     -48.062  30.807  25.231  1.00  0.00     0.076 A 
ATOM     12  C   UNL     1     -47.257  30.789  24.073  1.00  0.00     0.023 A 
ATOM     13  C   UNL     1     -47.999  31.907  26.076  1.00  0.00     0.007 A 
ATOM     14  C   UNL     1     -46.396  31.886  23.834  1.00  0.00    -0.047 A 
ATOM     15  H   UNL     1     -48.631  31.914  26.962  1.00  0.00     0.069 H 
ATOM     16  C   UNL     1     -46.346  32.978  24.706  1.00  0.00    -0.019 A 
ATOM     17  H   UNL     1     -45.745  31.897  22.965  1.00  0.00     0.063 H 
ATOM     18  H   UNL     1     -45.668  33.788  24.462  1.00  0.00     0.066 H 
BRANCH   6  19
ATOM     19  C   UNL     1     -49.800  27.573  25.217  1.00  0.00    -0.022 C 
ATOM     20  H   UNL     1     -50.577  27.941  25.895  1.00  0.00     0.030 H 
ATOM     21  H   UNL     1     -49.224  26.806  25.744  1.00  0.00     0.030 H 
ATOM     22  H   UNL     1     -50.273  27.107  24.347  1.00  0.00     0.030 H 
ENDBRANCH   6  19
BRANCH   9  23
ATOM     23  N   UNL     1     -46.549  29.497  22.082  1.00  0.00    -0.398 N 
ATOM     24  H   UNL     1     -46.054  28.611  22.064  1.00  0.00     0.156 HD
ATOM     25  H   UNL     1     -45.916  30.274  21.920  1.00  0.00     0.156 HD
ENDBRANCH   9  23
ENDBRANCH   4   5
ENDBRANCH   1   4
BRANCH   1  26
ATOM     26  C   UNL     1     -45.861  35.683  27.907  1.00  0.00     0.123 C 
ATOM     27  O   UNL     1     -45.476  37.064  27.735  1.00  0.00    -0.345 OA
ATOM     28  C   UNL     1     -46.858  35.625  29.070  1.00  0.00     0.119 C 
ATOM     29  H   UNL     1     -44.955  35.123  28.162  1.00  0.00     0.067 H 
ATOM     30  C   UNL     1     -46.308  37.863  28.610  1.00  0.00     0.169 C 
ATOM     31  C   UNL     1     -47.488  36.997  29.028  1.00  0.00     0.173 C 
ATOM     32  H   UNL     1     -47.592  34.819  28.979  1.00  0.00     0.066 H 
ATOM     33  H   UNL     1     -45.683  38.131  29.471  1.00  0.00     0.088 H 
ATOM     34  F   UNL     1     -48.454  36.996  28.067  1.00  0.00    -0.239 F 
ATOM     35  H   UNL     1     -47.938  37.319  29.972  1.00  0.00     0.074 H 
BRANCH  28  36
ATOM     36  O   UNL     1     -46.171  35.462  30.316  1.00  0.00    -0.387 OA
ATOM     37  H   UNL     1     -45.223  35.358  30.115  1.00  0.00     0.211 HD
ENDBRANCH  28  36
BRANCH  30  38
ATOM     38  N   UNL     1     -46.692  39.098  27.946  1.00  0.00    -0.302 N 
ATOM     39  C   UNL     1     -47.956  39.622  27.827  1.00  0.00     0.023 A 
ATOM     40  C   UNL     1     -45.790  39.935  27.332  1.00  0.00     0.148 A 
ATOM     41  C   UNL     1     -47.844  40.799  27.127  1.00  0.00     0.049 A 
ATOM     42  H   UNL     1     -48.818  39.117  28.244  1.00  0.00     0.083 H 
ATOM     43  C   UNL     1     -46.483  41.018  26.802  1.00  0.00     0.075 A 
ATOM     44  N   UNL     1     -44.463  39.724  27.271  1.00  0.00    -0.218 NA
ATOM     45  Br  UNL     1     -49.269  41.935  26.681  1.00  0.00    -0.048 Br
ATOM     46  C   UNL     1     -45.714  41.981  26.132  1.00  0.00     0.137 A 
ATOM     47  C   UNL     1     -43.837  40.712  26.611  1.00  0.00     0.120 A 
ATOM     48  N   UNL     1     -44.378  41.810  26.053  1.00  0.00    -0.219 NA
ATOM     49  H   UNL     1     -42.760  40.614  26.516  1.00  0.00     0.106 H 
BRANCH  46  50
ATOM     50  N   UNL     1     -46.232  43.124  25.543  1.00  0.00    -0.383 N 
ATOM     51  H   UNL     1     -47.072  42.920  25.016  1.00  0.00     0.158 HD
ATOM     52  H   UNL     1     -45.552  43.733  25.110  1.00  0.00     0.158 HD
ENDBRANCH  46  50
ENDBRANCH  30  38
ENDBRANCH   1  26
TORSDOF 8
ENDMDL
