MODEL 1
REMARK VINA RESULT:      -7.1      0.000      0.000
REMARK SMILES Nc1ncnc2c1ncn2[C@@H]1O[C@H](CO)[C@@H](O)[C@H]1O
REMARK SMILES IDX 11 1 12 2 13 3 16 4 18 5 10 10 2 11 3 12 7 13 4 14 6 15 8 16
REMARK SMILES IDX 5 17 9 19 1 21 19 24 14 26 15 29 17 31
REMARK H PARENT 11 6 13 7 16 8 18 9 4 18 9 20 1 22 1 23 19 25 14 27 14 28
REMARK H PARENT 15 30 17 32
REMARK Flexibility Score: inf
ROOT
ATOM      1  C   UNL     1     -44.947  38.033  28.997  1.00  0.00     0.165 C 
ATOM      2  O   UNL     1     -44.928  37.030  27.961  1.00  0.00    -0.347 OA
ATOM      3  C   UNL     1     -46.184  36.322  28.011  1.00  0.00     0.112 C 
ATOM      4  C   UNL     1     -47.184  37.309  28.599  1.00  0.00     0.113 C 
ATOM      5  C   UNL     1     -46.340  38.016  29.648  1.00  0.00     0.128 C 
ATOM      6  H   UNL     1     -44.194  37.743  29.740  1.00  0.00     0.088 H 
ATOM      7  H   UNL     1     -46.047  35.451  28.665  1.00  0.00     0.066 H 
ATOM      8  H   UNL     1     -47.527  38.010  27.832  1.00  0.00     0.066 H 
ATOM      9  H   UNL     1     -46.740  38.990  29.945  1.00  0.00     0.068 H 
ENDROOT
BRANCH   1  10
ATOM     10  N   UNL     1     -44.490  39.275  28.412  1.00  0.00    -0.285 N 
ATOM     11  C   UNL     1     -42.518  42.153  28.111  1.00  0.00     0.155 A 
ATOM     12  N   UNL     1     -41.672  42.046  29.161  1.00  0.00    -0.217 NA
ATOM     13  C   UNL     1     -43.472  41.142  27.911  1.00  0.00     0.150 A 
ATOM     14  C   UNL     1     -41.806  40.985  29.983  1.00  0.00     0.120 A 
ATOM     15  C   UNL     1     -43.489  40.106  28.833  1.00  0.00     0.167 A 
ATOM     16  N   UNL     1     -44.427  40.950  26.936  1.00  0.00    -0.231 NA
ATOM     17  N   UNL     1     -42.681  39.962  29.896  1.00  0.00    -0.216 NA
ATOM     18  H   UNL     1     -41.116  40.949  30.822  1.00  0.00     0.106 H 
ATOM     19  C   UNL     1     -45.038  39.838  27.283  1.00  0.00     0.099 A 
ATOM     20  H   UNL     1     -45.877  39.392  26.762  1.00  0.00     0.104 H 
BRANCH  11  21
ATOM     21  N   UNL     1     -42.384  43.250  27.271  1.00  0.00    -0.382 N 
ATOM     22  H   UNL     1     -42.636  43.040  26.314  1.00  0.00     0.158 HD
ATOM     23  H   UNL     1     -42.720  44.117  27.674  1.00  0.00     0.158 HD
ENDBRANCH  11  21
ENDBRANCH   1  10
BRANCH   5  24
ATOM     24  O   UNL     1     -46.349  37.197  30.842  1.00  0.00    -0.386 OA
ATOM     25  H   UNL     1     -47.256  36.857  30.956  1.00  0.00     0.211 HD
ENDBRANCH   5  24
BRANCH   3  26
ATOM     26  C   UNL     1     -46.586  35.844  26.616  1.00  0.00     0.072 C 
ATOM     27  H   UNL     1     -45.918  35.048  26.272  1.00  0.00     0.059 H 
ATOM     28  H   UNL     1     -46.570  36.669  25.897  1.00  0.00     0.059 H 
BRANCH  26  29
ATOM     29  O   UNL     1     -47.911  35.316  26.645  1.00  0.00    -0.394 OA
ATOM     30  H   UNL     1     -48.397  35.729  25.911  1.00  0.00     0.210 HD
ENDBRANCH  26  29
ENDBRANCH   3  26
BRANCH   4  31
ATOM     31  O   UNL     1     -48.319  36.668  29.170  1.00  0.00    -0.387 OA
ATOM     32  H   UNL     1     -49.094  37.167  28.836  1.00  0.00     0.211 HD
ENDBRANCH   4  31
TORSDOF 6
ENDMDL
MODEL 2
REMARK VINA RESULT:      -7.0      3.759      6.367
REMARK SMILES Nc1ncnc2c1ncn2[C@@H]1O[C@H](CO)[C@@H](O)[C@H]1O
REMARK SMILES IDX 11 1 12 2 13 3 16 4 18 5 10 10 2 11 3 12 7 13 4 14 6 15 8 16
REMARK SMILES IDX 5 17 9 19 1 21 19 24 14 26 15 29 17 31
REMARK H PARENT 11 6 13 7 16 8 18 9 4 18 9 20 1 22 1 23 19 25 14 27 14 28
REMARK H PARENT 15 30 17 32
REMARK Flexibility Score: inf
ROOT
ATOM      1  C   UNL     1     -43.224  41.465  28.023  1.00  0.00     0.165 C 
ATOM      2  O   UNL     1     -43.875  42.746  27.898  1.00  0.00    -0.347 OA
ATOM      3  C   UNL     1     -43.017  43.601  27.113  1.00  0.00     0.112 C 
ATOM      4  C   UNL     1     -42.207  42.662  26.228  1.00  0.00     0.113 C 
ATOM      5  C   UNL     1     -41.944  41.498  27.171  1.00  0.00     0.128 C 
ATOM      6  H   UNL     1     -42.955  41.342  29.079  1.00  0.00     0.088 H 
ATOM      7  H   UNL     1     -42.372  44.152  27.811  1.00  0.00     0.066 H 
ATOM      8  H   UNL     1     -42.799  42.343  25.366  1.00  0.00     0.066 H 
ATOM      9  H   UNL     1     -41.691  40.568  26.655  1.00  0.00     0.068 H 
ENDROOT
BRANCH   1  10
ATOM     10  N   UNL     1     -44.206  40.445  27.727  1.00  0.00    -0.285 N 
ATOM     11  C   UNL     1     -46.099  37.550  28.274  1.00  0.00     0.155 A 
ATOM     12  N   UNL     1     -45.662  37.133  29.484  1.00  0.00    -0.217 NA
ATOM     13  C   UNL     1     -45.547  38.719  27.727  1.00  0.00     0.150 A 
ATOM     14  C   UNL     1     -44.695  37.847  30.095  1.00  0.00     0.120 A 
ATOM     15  C   UNL     1     -44.564  39.355  28.471  1.00  0.00     0.167 A 
ATOM     16  N   UNL     1     -45.801  39.406  26.559  1.00  0.00    -0.231 NA
ATOM     17  N   UNL     1     -44.089  38.973  29.668  1.00  0.00    -0.216 NA
ATOM     18  H   UNL     1     -44.364  37.464  31.056  1.00  0.00     0.106 H 
ATOM     19  C   UNL     1     -44.960  40.418  26.578  1.00  0.00     0.099 A 
ATOM     20  H   UNL     1     -44.851  41.158  25.794  1.00  0.00     0.104 H 
BRANCH  11  21
ATOM     21  N   UNL     1     -47.089  36.809  27.642  1.00  0.00    -0.382 N 
ATOM     22  H   UNL     1     -46.931  35.812  27.709  1.00  0.00     0.158 HD
ATOM     23  H   UNL     1     -48.026  37.156  27.807  1.00  0.00     0.158 HD
ENDBRANCH  11  21
ENDBRANCH   1  10
BRANCH   5  24
ATOM     24  O   UNL     1     -40.789  41.839  27.975  1.00  0.00    -0.386 OA
ATOM     25  H   UNL     1     -41.117  42.135  28.845  1.00  0.00     0.211 HD
ENDBRANCH   5  24
BRANCH   3  26
ATOM     26  C   UNL     1     -43.847  44.596  26.305  1.00  0.00     0.072 C 
ATOM     27  H   UNL     1     -44.458  45.219  26.966  1.00  0.00     0.059 H 
ATOM     28  H   UNL     1     -44.495  44.080  25.589  1.00  0.00     0.059 H 
BRANCH  26  29
ATOM     29  O   UNL     1     -42.986  45.462  25.567  1.00  0.00    -0.394 OA
ATOM     30  H   UNL     1     -43.516  45.843  24.845  1.00  0.00     0.210 HD
ENDBRANCH  26  29
ENDBRANCH   3  26
BRANCH   4  31
ATOM     31  O   UNL     1     -41.001  43.253  25.759  1.00  0.00    -0.387 OA
ATOM     32  H   UNL     1     -41.153  43.430  24.807  1.00  0.00     0.211 HD
ENDBRANCH   4  31
TORSDOF 6
ENDMDL
MODEL 3
REMARK VINA RESULT:      -6.8      4.544      7.313
REMARK SMILES Nc1ncnc2c1ncn2[C@@H]1O[C@H](CO)[C@@H](O)[C@H]1O
REMARK SMILES IDX 11 1 12 2 13 3 16 4 18 5 10 10 2 11 3 12 7 13 4 14 6 15 8 16
REMARK SMILES IDX 5 17 9 19 1 21 19 24 14 26 15 29 17 31
REMARK H PARENT 11 6 13 7 16 8 18 9 4 18 9 20 1 22 1 23 19 25 14 27 14 28
REMARK H PARENT 15 30 17 32
REMARK Flexibility Score: inf
ROOT
ATOM      1  C   UNL     1     -46.568  36.782  26.719  1.00  0.00     0.165 C 
ATOM      2  O   UNL     1     -45.626  36.562  27.789  1.00  0.00    -0.347 OA
ATOM      3  C   UNL     1     -45.607  37.749  28.609  1.00  0.00     0.112 C 
ATOM      4  C   UNL     1     -46.980  38.386  28.435  1.00  0.00     0.113 C 
ATOM      5  C   UNL     1     -47.251  38.138  26.959  1.00  0.00     0.128 C 
ATOM      6  H   UNL     1     -45.992  36.823  25.787  1.00  0.00     0.088 H 
ATOM      7  H   UNL     1     -44.810  38.402  28.227  1.00  0.00     0.066 H 
ATOM      8  H   UNL     1     -47.719  37.878  29.061  1.00  0.00     0.066 H 
ATOM      9  H   UNL     1     -48.311  38.192  26.696  1.00  0.00     0.068 H 
ENDROOT
BRANCH   1  10
ATOM     10  N   UNL     1     -47.410  35.609  26.630  1.00  0.00    -0.285 N 
ATOM     11  C   UNL     1     -48.274  32.330  25.751  1.00  0.00     0.155 A 
ATOM     12  N   UNL     1     -47.159  31.886  25.127  1.00  0.00    -0.217 NA
ATOM     13  C   UNL     1     -48.284  33.641  26.255  1.00  0.00     0.150 A 
ATOM     14  C   UNL     1     -46.120  32.735  24.994  1.00  0.00     0.120 A 
ATOM     15  C   UNL     1     -47.141  34.399  26.051  1.00  0.00     0.167 A 
ATOM     16  N   UNL     1     -49.231  34.357  26.955  1.00  0.00    -0.231 NA
ATOM     17  N   UNL     1     -46.017  34.008  25.428  1.00  0.00    -0.216 NA
ATOM     18  H   UNL     1     -45.253  32.340  24.471  1.00  0.00     0.106 H 
ATOM     19  C   UNL     1     -48.686  35.541  27.137  1.00  0.00     0.099 A 
ATOM     20  H   UNL     1     -49.162  36.383  27.625  1.00  0.00     0.104 H 
BRANCH  11  21
ATOM     21  N   UNL     1     -49.346  31.458  25.880  1.00  0.00    -0.382 N 
ATOM     22  H   UNL     1     -49.297  30.683  25.231  1.00  0.00     0.158 HD
ATOM     23  H   UNL     1     -49.599  31.261  26.841  1.00  0.00     0.158 HD
ENDBRANCH  11  21
ENDBRANCH   1  10
BRANCH   5  24
ATOM     24  O   UNL     1     -46.596  39.192  26.212  1.00  0.00    -0.386 OA
ATOM     25  H   UNL     1     -47.004  40.037  26.480  1.00  0.00     0.211 HD
ENDBRANCH   5  24
BRANCH   3  26
ATOM     26  C   UNL     1     -45.309  37.391  30.064  1.00  0.00     0.072 C 
ATOM     27  H   UNL     1     -44.277  37.649  30.323  1.00  0.00     0.059 H 
ATOM     28  H   UNL     1     -45.476  36.325  30.250  1.00  0.00     0.059 H 
BRANCH  26  29
ATOM     29  O   UNL     1     -46.171  38.126  30.933  1.00  0.00    -0.394 OA
ATOM     30  H   UNL     1     -45.647  38.364  31.717  1.00  0.00     0.210 HD
ENDBRANCH  26  29
ENDBRANCH   3  26
BRANCH   4  31
ATOM     31  O   UNL     1     -46.987  39.772  28.754  1.00  0.00    -0.387 OA
ATOM     32  H   UNL     1     -47.669  40.168  28.171  1.00  0.00     0.211 HD
ENDBRANCH   4  31
TORSDOF 6
ENDMDL
MODEL 4
REMARK VINA RESULT:      -6.6      1.563      2.306
REMARK SMILES Nc1ncnc2c1ncn2[C@@H]1O[C@H](CO)[C@@H](O)[C@H]1O
REMARK SMILES IDX 11 1 12 2 13 3 16 4 18 5 10 10 2 11 3 12 7 13 4 14 6 15 8 16
REMARK SMILES IDX 5 17 9 19 1 21 19 24 14 26 15 29 17 31
REMARK H PARENT 11 6 13 7 16 8 18 9 4 18 9 20 1 22 1 23 19 25 14 27 14 28
REMARK H PARENT 15 30 17 32
REMARK Flexibility Score: inf
ROOT
ATOM      1  C   UNL     1     -46.968  37.172  28.566  1.00  0.00     0.165 C 
ATOM      2  O   UNL     1     -46.156  35.982  28.491  1.00  0.00    -0.347 OA
ATOM      3  C   UNL     1     -46.972  34.927  27.940  1.00  0.00     0.112 C 
ATOM      4  C   UNL     1     -48.018  35.628  27.083  1.00  0.00     0.113 C 
ATOM      5  C   UNL     1     -48.327  36.861  27.919  1.00  0.00     0.128 C 
ATOM      6  H   UNL     1     -47.113  37.396  29.630  1.00  0.00     0.088 H 
ATOM      7  H   UNL     1     -47.434  34.393  28.781  1.00  0.00     0.066 H 
ATOM      8  H   UNL     1     -47.596  35.906  26.114  1.00  0.00     0.066 H 
ATOM      9  H   UNL     1     -48.779  37.674  27.345  1.00  0.00     0.068 H 
ENDROOT
BRANCH   1  10
ATOM     10  N   UNL     1     -46.193  38.264  28.019  1.00  0.00    -0.285 N 
ATOM     11  C   UNL     1     -43.637  40.656  27.909  1.00  0.00     0.155 A 
ATOM     12  N   UNL     1     -42.962  40.422  29.058  1.00  0.00    -0.217 NA
ATOM     13  C   UNL     1     -44.753  39.857  27.612  1.00  0.00     0.150 A 
ATOM     14  C   UNL     1     -43.412  39.450  29.877  1.00  0.00     0.120 A 
ATOM     15  C   UNL     1     -45.096  38.889  28.544  1.00  0.00     0.167 A 
ATOM     16  N   UNL     1     -45.606  39.822  26.530  1.00  0.00    -0.231 NA
ATOM     17  N   UNL     1     -44.467  38.629  29.702  1.00  0.00    -0.216 NA
ATOM     18  H   UNL     1     -42.848  39.310  30.796  1.00  0.00     0.106 H 
ATOM     19  C   UNL     1     -46.474  38.877  26.820  1.00  0.00     0.099 A 
ATOM     20  H   UNL     1     -47.321  38.593  26.207  1.00  0.00     0.104 H 
BRANCH  11  21
ATOM     21  N   UNL     1     -43.177  41.663  27.071  1.00  0.00    -0.382 N 
ATOM     22  H   UNL     1     -42.316  42.078  27.399  1.00  0.00     0.158 HD
ATOM     23  H   UNL     1     -43.257  41.441  26.086  1.00  0.00     0.158 HD
ENDBRANCH  11  21
ENDBRANCH   1  10
BRANCH   5  24
ATOM     24  O   UNL     1     -49.305  36.479  28.916  1.00  0.00    -0.386 OA
ATOM     25  H   UNL     1     -49.455  35.520  28.826  1.00  0.00     0.211 HD
ENDBRANCH   5  24
BRANCH   3  26
ATOM     26  C   UNL     1     -46.114  33.952  27.135  1.00  0.00     0.072 C 
ATOM     27  H   UNL     1     -45.072  34.286  27.105  1.00  0.00     0.059 H 
ATOM     28  H   UNL     1     -46.493  33.845  26.113  1.00  0.00     0.059 H 
BRANCH  26  29
ATOM     29  O   UNL     1     -46.139  32.663  27.747  1.00  0.00    -0.394 OA
ATOM     30  H   UNL     1     -46.600  32.066  27.133  1.00  0.00     0.210 HD
ENDBRANCH  26  29
ENDBRANCH   3  26
BRANCH   4  31
ATOM     31  O   UNL     1     -49.174  34.828  26.864  1.00  0.00    -0.387 OA
ATOM     32  H   UNL     1     -48.861  34.057  26.346  1.00  0.00     0.211 HD
ENDBRANCH   4  31
TORSDOF 6
ENDMDL
MODEL 5
REMARK VINA RESULT:      -6.4      4.967      7.191
REMARK SMILES Nc1ncnc2c1ncn2[C@@H]1O[C@H](CO)[C@@H](O)[C@H]1O
REMARK SMILES IDX 11 1 12 2 13 3 16 4 18 5 10 10 2 11 3 12 7 13 4 14 6 15 8 16
REMARK SMILES IDX 5 17 9 19 1 21 19 24 14 26 15 29 17 31
REMARK H PARENT 11 6 13 7 16 8 18 9 4 18 9 20 1 22 1 23 19 25 14 27 14 28
REMARK H PARENT 15 30 17 32
REMARK Flexibility Score: inf
ROOT
ATOM      1  C   UNL     1     -47.026  33.282  25.128  1.00  0.00     0.165 C 
ATOM      2  O   UNL     1     -48.334  32.675  25.173  1.00  0.00    -0.347 OA
ATOM      3  C   UNL     1     -48.256  31.411  24.480  1.00  0.00     0.112 C 
ATOM      4  C   UNL     1     -46.806  30.964  24.611  1.00  0.00     0.113 C 
ATOM      5  C   UNL     1     -46.061  32.283  24.468  1.00  0.00     0.128 C 
ATOM      6  H   UNL     1     -47.108  34.178  24.501  1.00  0.00     0.088 H 
ATOM      7  H   UNL     1     -48.528  31.592  23.432  1.00  0.00     0.066 H 
ATOM      8  H   UNL     1     -46.630  30.518  25.594  1.00  0.00     0.066 H 
ATOM      9  H   UNL     1     -45.048  32.257  24.878  1.00  0.00     0.068 H 
ENDROOT
BRANCH   1  10
ATOM     10  N   UNL     1     -46.712  33.742  26.463  1.00  0.00    -0.285 N 
ATOM     11  C   UNL     1     -46.340  36.063  29.060  1.00  0.00     0.155 A 
ATOM     12  N   UNL     1     -46.720  37.223  28.478  1.00  0.00    -0.217 NA
ATOM     13  C   UNL     1     -46.369  34.886  28.293  1.00  0.00     0.150 A 
ATOM     14  C   UNL     1     -47.082  37.199  27.179  1.00  0.00     0.120 A 
ATOM     15  C   UNL     1     -46.770  35.010  26.971  1.00  0.00     0.167 A 
ATOM     16  N   UNL     1     -46.084  33.573  28.600  1.00  0.00    -0.231 NA
ATOM     17  N   UNL     1     -47.143  36.139  26.347  1.00  0.00    -0.216 NA
ATOM     18  H   UNL     1     -47.362  38.157  26.751  1.00  0.00     0.106 H 
ATOM     19  C   UNL     1     -46.272  32.920  27.474  1.00  0.00     0.099 A 
ATOM     20  H   UNL     1     -46.107  31.859  27.328  1.00  0.00     0.104 H 
BRANCH  11  21
ATOM     21  N   UNL     1     -45.960  36.092  30.395  1.00  0.00    -0.382 N 
ATOM     22  H   UNL     1     -45.434  35.272  30.667  1.00  0.00     0.158 HD
ATOM     23  H   UNL     1     -45.628  36.997  30.706  1.00  0.00     0.158 HD
ENDBRANCH  11  21
ENDBRANCH   1  10
BRANCH   5  24
ATOM     24  O   UNL     1     -45.918  32.553  23.053  1.00  0.00    -0.386 OA
ATOM     25  H   UNL     1     -44.964  32.638  22.868  1.00  0.00     0.211 HD
ENDBRANCH   5  24
BRANCH   3  26
ATOM     26  C   UNL     1     -49.235  30.407  25.086  1.00  0.00     0.072 C 
ATOM     27  H   UNL     1     -49.823  29.918  24.303  1.00  0.00     0.059 H 
ATOM     28  H   UNL     1     -49.909  30.894  25.798  1.00  0.00     0.059 H 
BRANCH  26  29
ATOM     29  O   UNL     1     -48.518  29.392  25.789  1.00  0.00    -0.394 OA
ATOM     30  H   UNL     1     -49.180  28.809  26.197  1.00  0.00     0.210 HD
ENDBRANCH  26  29
ENDBRANCH   3  26
BRANCH   4  31
ATOM     31  O   UNL     1     -46.428  30.026  23.611  1.00  0.00    -0.387 OA
ATOM     32  H   UNL     1     -45.462  29.899  23.727  1.00  0.00     0.211 HD
ENDBRANCH   4  31
TORSDOF 6
ENDMDL
MODEL 6
REMARK VINA RESULT:      -6.3      1.370      2.566
REMARK SMILES Nc1ncnc2c1ncn2[C@@H]1O[C@H](CO)[C@@H](O)[C@H]1O
REMARK SMILES IDX 11 1 12 2 13 3 16 4 18 5 10 10 2 11 3 12 7 13 4 14 6 15 8 16
REMARK SMILES IDX 5 17 9 19 1 21 19 24 14 26 15 29 17 31
REMARK H PARENT 11 6 13 7 16 8 18 9 4 18 9 20 1 22 1 23 19 25 14 27 14 28
REMARK H PARENT 15 30 17 32
REMARK Flexibility Score: inf
ROOT
ATOM      1  C   UNL     1     -46.302  38.754  27.551  1.00  0.00     0.165 C 
ATOM      2  O   UNL     1     -46.537  38.822  28.972  1.00  0.00    -0.347 OA
ATOM      3  C   UNL     1     -46.363  37.494  29.510  1.00  0.00     0.112 C 
ATOM      4  C   UNL     1     -45.394  36.795  28.565  1.00  0.00     0.113 C 
ATOM      5  C   UNL     1     -45.846  37.325  27.212  1.00  0.00     0.128 C 
ATOM      6  H   UNL     1     -47.259  38.958  27.056  1.00  0.00     0.088 H 
ATOM      7  H   UNL     1     -47.347  37.006  29.510  1.00  0.00     0.066 H 
ATOM      8  H   UNL     1     -44.365  37.096  28.781  1.00  0.00     0.066 H 
ATOM      9  H   UNL     1     -45.083  37.239  26.434  1.00  0.00     0.068 H 
ENDROOT
BRANCH   1  10
ATOM     10  N   UNL     1     -45.418  39.844  27.201  1.00  0.00    -0.285 N 
ATOM     11  C   UNL     1     -42.693  42.016  27.559  1.00  0.00     0.155 A 
ATOM     12  N   UNL     1     -42.111  41.578  28.698  1.00  0.00    -0.217 NA
ATOM     13  C   UNL     1     -43.844  41.356  27.095  1.00  0.00     0.150 A 
ATOM     14  C   UNL     1     -42.681  40.544  29.350  1.00  0.00     0.120 A 
ATOM     15  C   UNL     1     -44.314  40.303  27.865  1.00  0.00     0.167 A 
ATOM     16  N   UNL     1     -44.627  41.536  25.975  1.00  0.00    -0.231 NA
ATOM     17  N   UNL     1     -43.780  39.841  29.007  1.00  0.00    -0.216 NA
ATOM     18  H   UNL     1     -42.188  40.238  30.268  1.00  0.00     0.106 H 
ATOM     19  C   UNL     1     -45.577  40.633  26.086  1.00  0.00     0.099 A 
ATOM     20  H   UNL     1     -46.403  40.502  25.396  1.00  0.00     0.104 H 
BRANCH  11  21
ATOM     21  N   UNL     1     -42.111  43.087  26.893  1.00  0.00    -0.382 N 
ATOM     22  H   UNL     1     -42.457  43.980  27.217  1.00  0.00     0.158 HD
ATOM     23  H   UNL     1     -41.113  42.984  26.749  1.00  0.00     0.158 HD
ENDBRANCH  11  21
ENDBRANCH   1  10
BRANCH   5  24
ATOM     24  O   UNL     1     -46.961  36.511  26.775  1.00  0.00    -0.386 OA
ATOM     25  H   UNL     1     -47.778  36.937  27.097  1.00  0.00     0.211 HD
ENDBRANCH   5  24
BRANCH   3  26
ATOM     26  C   UNL     1     -45.836  37.561  30.943  1.00  0.00     0.072 C 
ATOM     27  H   UNL     1     -45.954  36.596  31.445  1.00  0.00     0.059 H 
ATOM     28  H   UNL     1     -46.352  38.337  31.517  1.00  0.00     0.059 H 
BRANCH  26  29
ATOM     29  O   UNL     1     -44.444  37.878  30.934  1.00  0.00    -0.394 OA
ATOM     30  H   UNL     1     -43.966  37.049  30.758  1.00  0.00     0.210 HD
ENDBRANCH  26  29
ENDBRANCH   3  26
BRANCH   4  31
ATOM     31  O   UNL     1     -45.480  35.377  28.639  1.00  0.00    -0.387 OA
ATOM     32  H   UNL     1     -46.413  35.163  28.425  1.00  0.00     0.211 HD
ENDBRANCH   4  31
TORSDOF 6
ENDMDL
MODEL 7
REMARK VINA RESULT:      -6.3      1.510      2.822
REMARK SMILES Nc1ncnc2c1ncn2[C@@H]1O[C@H](CO)[C@@H](O)[C@H]1O
REMARK SMILES IDX 11 1 12 2 13 3 16 4 18 5 10 10 2 11 3 12 7 13 4 14 6 15 8 16
REMARK SMILES IDX 5 17 9 19 1 21 19 24 14 26 15 29 17 31
REMARK H PARENT 11 6 13 7 16 8 18 9 4 18 9 20 1 22 1 23 19 25 14 27 14 28
REMARK H PARENT 15 30 17 32
REMARK Flexibility Score: inf
ROOT
ATOM      1  C   UNL     1     -46.494  37.436  28.897  1.00  0.00     0.165 C 
ATOM      2  O   UNL     1     -46.272  36.103  29.402  1.00  0.00    -0.347 OA
ATOM      3  C   UNL     1     -46.623  35.173  28.356  1.00  0.00     0.112 C 
ATOM      4  C   UNL     1     -46.411  35.929  27.051  1.00  0.00     0.113 C 
ATOM      5  C   UNL     1     -46.898  37.323  27.418  1.00  0.00     0.128 C 
ATOM      6  H   UNL     1     -47.325  37.863  29.470  1.00  0.00     0.088 H 
ATOM      7  H   UNL     1     -47.678  34.902  28.496  1.00  0.00     0.066 H 
ATOM      8  H   UNL     1     -45.350  35.940  26.783  1.00  0.00     0.066 H 
ATOM      9  H   UNL     1     -46.514  38.105  26.757  1.00  0.00     0.068 H 
ENDROOT
BRANCH   1  10
ATOM     10  N   UNL     1     -45.325  38.226  29.219  1.00  0.00    -0.285 N 
ATOM     11  C   UNL     1     -42.940  40.757  28.804  1.00  0.00     0.155 A 
ATOM     12  N   UNL     1     -43.353  41.371  27.672  1.00  0.00    -0.217 NA
ATOM     13  C   UNL     1     -43.684  39.668  29.286  1.00  0.00     0.150 A 
ATOM     14  C   UNL     1     -44.445  40.889  27.045  1.00  0.00     0.120 A 
ATOM     15  C   UNL     1     -44.790  39.286  28.541  1.00  0.00     0.167 A 
ATOM     16  N   UNL     1     -43.547  38.875  30.405  1.00  0.00    -0.231 NA
ATOM     17  N   UNL     1     -45.231  39.854  27.407  1.00  0.00    -0.216 NA
ATOM     18  H   UNL     1     -44.729  41.404  26.131  1.00  0.00     0.106 H 
ATOM     19  C   UNL     1     -44.528  38.003  30.318  1.00  0.00     0.099 A 
ATOM     20  H   UNL     1     -44.713  37.194  31.014  1.00  0.00     0.104 H 
BRANCH  11  21
ATOM     21  N   UNL     1     -41.810  41.249  29.443  1.00  0.00    -0.382 N 
ATOM     22  H   UNL     1     -41.504  42.135  29.064  1.00  0.00     0.158 HD
ATOM     23  H   UNL     1     -41.832  41.142  30.450  1.00  0.00     0.158 HD
ENDBRANCH  11  21
ENDBRANCH   1  10
BRANCH   5  24
ATOM     24  O   UNL     1     -48.337  37.337  27.267  1.00  0.00    -0.386 OA
ATOM     25  H   UNL     1     -48.646  36.413  27.322  1.00  0.00     0.211 HD
ENDBRANCH   5  24
BRANCH   3  26
ATOM     26  C   UNL     1     -45.764  33.913  28.449  1.00  0.00     0.072 C 
ATOM     27  H   UNL     1     -45.809  33.487  29.456  1.00  0.00     0.059 H 
ATOM     28  H   UNL     1     -44.722  34.127  28.189  1.00  0.00     0.059 H 
BRANCH  26  29
ATOM     29  O   UNL     1     -46.247  32.926  27.538  1.00  0.00    -0.394 OA
ATOM     30  H   UNL     1     -45.623  32.182  27.569  1.00  0.00     0.210 HD
ENDBRANCH  26  29
ENDBRANCH   3  26
BRANCH   4  31
ATOM     31  O   UNL     1     -47.148  35.374  25.968  1.00  0.00    -0.387 OA
ATOM     32  H   UNL     1     -46.956  35.953  25.200  1.00  0.00     0.211 HD
ENDBRANCH   4  31
TORSDOF 6
ENDMDL
