MODEL 1
REMARK VINA RESULT:     -11.4      0.000      0.000
REMARK SMILES Cn1ccc(-c2cn(-c3cncc(COc4ccc5ccc(N6CCOCC6)nc5c4)c3)c3ncnc(N)c23)n1
REMARK SMILES IDX 9 1 10 2 11 3 12 4 13 5 32 6 8 10 6 11 7 12 39 13 33 15
REMARK SMILES IDX 37 16 34 17 36 18 35 19 5 21 2 22 3 23 40 24 4 25 1 28 38 32
REMARK SMILES IDX 14 35 15 38 16 39 17 40 31 41 18 42 30 44 19 46 29 48 20 49
REMARK SMILES IDX 22 50 21 51 23 54 24 55 28 56 25 57 27 60 26 63
REMARK H PARENT 10 7 12 8 32 9 7 14 35 20 3 26 4 27 1 29 1 30 1 31 38 33 38 34
REMARK H PARENT 14 36 14 37 17 43 31 45 18 47 20 52 21 53 24 58 24 59 28 61
REMARK H PARENT 28 62 25 64 25 65 27 66 27 67
REMARK Flexibility Score: inf
ROOT
ATOM      1  C   UNL     1     -45.761  38.439  28.122  1.00  0.00     0.066 A 
ATOM      2  C   UNL     1     -45.445  37.844  29.340  1.00  0.00     0.051 A 
ATOM      3  N   UNL     1     -45.992  36.686  29.791  1.00  0.00    -0.262 NA
ATOM      4  C   UNL     1     -46.895  36.083  28.989  1.00  0.00     0.034 A 
ATOM      5  C   UNL     1     -47.305  36.596  27.767  1.00  0.00     0.010 A 
ATOM      6  C   UNL     1     -46.722  37.796  27.339  1.00  0.00    -0.028 A 
ATOM      7  H   UNL     1     -44.704  38.249  30.022  1.00  0.00     0.086 H 
ATOM      8  H   UNL     1     -47.289  35.145  29.371  1.00  0.00     0.084 H 
ATOM      9  H   UNL     1     -47.047  38.204  26.387  1.00  0.00     0.065 H 
ENDROOT
BRANCH   1  10
ATOM     10  N   UNL     1     -45.116  39.644  27.700  1.00  0.00    -0.299 N 
ATOM     11  C   UNL     1     -44.658  41.497  26.503  1.00  0.00     0.033 A 
ATOM     12  C   UNL     1     -45.523  40.432  26.641  1.00  0.00     0.021 A 
ATOM     13  C   UNL     1     -43.709  41.426  27.554  1.00  0.00     0.071 A 
ATOM     14  H   UNL     1     -46.369  40.174  26.019  1.00  0.00     0.083 H 
ATOM     15  C   UNL     1     -43.991  40.257  28.262  1.00  0.00     0.150 A 
ATOM     16  C   UNL     1     -42.642  42.206  28.033  1.00  0.00     0.137 A 
ATOM     17  N   UNL     1     -43.307  39.824  29.339  1.00  0.00    -0.218 NA
ATOM     18  N   UNL     1     -41.941  41.785  29.101  1.00  0.00    -0.219 NA
ATOM     19  C   UNL     1     -42.303  40.634  29.687  1.00  0.00     0.120 A 
ATOM     20  H   UNL     1     -41.715  40.328  30.547  1.00  0.00     0.106 H 
BRANCH  11  21
ATOM     21  C   UNL     1     -44.743  42.508  25.452  1.00  0.00     0.095 A 
ATOM     22  N   UNL     1     -44.192  43.763  23.847  1.00  0.00    -0.275 N 
ATOM     23  C   UNL     1     -45.453  44.165  24.177  1.00  0.00     0.025 A 
ATOM     24  N   UNL     1     -43.732  42.758  24.614  1.00  0.00    -0.173 NA
ATOM     25  C   UNL     1     -45.837  43.373  25.235  1.00  0.00    -0.016 A 
ATOM     26  H   UNL     1     -45.956  44.969  23.658  1.00  0.00     0.084 H 
ATOM     27  H   UNL     1     -46.773  43.418  25.774  1.00  0.00     0.066 H 
BRANCH  22  28
ATOM     28  C   UNL     1     -43.353  44.303  22.805  1.00  0.00     0.030 C 
ATOM     29  H   UNL     1     -43.863  44.168  21.848  1.00  0.00     0.048 H 
ATOM     30  H   UNL     1     -43.190  45.364  23.009  1.00  0.00     0.048 H 
ATOM     31  H   UNL     1     -42.397  43.774  22.796  1.00  0.00     0.048 H 
ENDBRANCH  22  28
ENDBRANCH  11  21
BRANCH  16  32
ATOM     32  N   UNL     1     -42.266  43.439  27.511  1.00  0.00    -0.383 N 
ATOM     33  H   UNL     1     -42.693  43.560  26.598  1.00  0.00     0.158 HD
ATOM     34  H   UNL     1     -41.267  43.603  27.539  1.00  0.00     0.158 HD
ENDBRANCH  16  32
ENDBRANCH   1  10
BRANCH   5  35
ATOM     35  C   UNL     1     -48.301  35.863  26.909  1.00  0.00     0.115 C 
ATOM     36  H   UNL     1     -49.283  36.340  27.020  1.00  0.00     0.076 H 
ATOM     37  H   UNL     1     -48.061  35.953  25.844  1.00  0.00     0.076 H 
BRANCH  35  38
ATOM     38  O   UNL     1     -48.460  34.497  27.321  1.00  0.00    -0.489 OA
BRANCH  38  39
ATOM     39  C   UNL     1     -48.005  33.570  26.422  1.00  0.00     0.122 A 
ATOM     40  C   UNL     1     -46.872  33.920  25.695  1.00  0.00    -0.019 A 
ATOM     41  C   UNL     1     -48.593  32.318  26.240  1.00  0.00     0.007 A 
ATOM     42  C   UNL     1     -46.363  33.037  24.746  1.00  0.00    -0.049 A 
ATOM     43  H   UNL     1     -46.401  34.887  25.850  1.00  0.00     0.066 H 
ATOM     44  C   UNL     1     -48.110  31.422  25.294  1.00  0.00     0.076 A 
ATOM     45  H   UNL     1     -49.445  32.011  26.837  1.00  0.00     0.069 H 
ATOM     46  C   UNL     1     -46.983  31.795  24.537  1.00  0.00     0.001 A 
ATOM     47  H   UNL     1     -45.490  33.327  24.166  1.00  0.00     0.063 H 
ATOM     48  N   UNL     1     -48.731  30.241  25.128  1.00  0.00    -0.231 NA
ATOM     49  C   UNL     1     -46.519  30.889  23.582  1.00  0.00    -0.049 A 
ATOM     50  C   UNL     1     -48.268  29.357  24.217  1.00  0.00     0.129 A 
ATOM     51  C   UNL     1     -47.170  29.670  23.419  1.00  0.00    -0.019 A 
ATOM     52  H   UNL     1     -45.665  31.128  22.955  1.00  0.00     0.063 H 
ATOM     53  H   UNL     1     -46.831  28.986  22.649  1.00  0.00     0.066 H 
BRANCH  50  54
ATOM     54  N   UNL     1     -48.944  28.135  24.025  1.00  0.00    -0.352 N 
ATOM     55  C   UNL     1     -49.240  27.429  25.293  1.00  0.00     0.043 C 
ATOM     56  C   UNL     1     -50.157  28.270  23.187  1.00  0.00     0.043 C 
ATOM     57  C   UNL     1     -49.914  26.080  24.991  1.00  0.00     0.064 C 
ATOM     58  H   UNL     1     -49.915  28.042  25.903  1.00  0.00     0.052 H 
ATOM     59  H   UNL     1     -48.332  27.233  25.872  1.00  0.00     0.052 H 
ATOM     60  C   UNL     1     -50.786  26.886  22.959  1.00  0.00     0.064 C 
ATOM     61  H   UNL     1     -50.892  28.913  23.690  1.00  0.00     0.052 H 
ATOM     62  H   UNL     1     -49.910  28.704  22.211  1.00  0.00     0.052 H 
ATOM     63  O   UNL     1     -51.104  26.243  24.205  1.00  0.00    -0.378 OA
ATOM     64  H   UNL     1     -50.201  25.591  25.929  1.00  0.00     0.059 H 
ATOM     65  H   UNL     1     -49.227  25.408  24.462  1.00  0.00     0.059 H 
ATOM     66  H   UNL     1     -51.717  26.989  22.393  1.00  0.00     0.059 H 
ATOM     67  H   UNL     1     -50.115  26.237  22.384  1.00  0.00     0.059 H 
ENDBRANCH  50  54
ENDBRANCH  38  39
ENDBRANCH  35  38
ENDBRANCH   5  35
TORSDOF 8
ENDMDL
MODEL 2
REMARK VINA RESULT:     -11.1      2.425     12.788
REMARK SMILES Cn1ccc(-c2cn(-c3cncc(COc4ccc5ccc(N6CCOCC6)nc5c4)c3)c3ncnc(N)c23)n1
REMARK SMILES IDX 9 1 10 2 11 3 12 4 13 5 32 6 8 10 6 11 7 12 39 13 33 15
REMARK SMILES IDX 37 16 34 17 36 18 35 19 5 21 2 22 3 23 40 24 4 25 1 28 38 32
REMARK SMILES IDX 14 35 15 38 16 39 17 40 31 41 18 42 30 44 19 46 29 48 20 49
REMARK SMILES IDX 22 50 21 51 23 54 24 55 28 56 25 57 27 60 26 63
REMARK H PARENT 10 7 12 8 32 9 7 14 35 20 3 26 4 27 1 29 1 30 1 31 38 33 38 34
REMARK H PARENT 14 36 14 37 17 43 31 45 18 47 20 52 21 53 24 58 24 59 28 61
REMARK H PARENT 28 62 25 64 25 65 27 66 27 67
REMARK Flexibility Score: inf
ROOT
ATOM      1  C   UNL     1     -47.631  32.101  25.199  1.00  0.00     0.066 A 
ATOM      2  C   UNL     1     -46.278  32.402  25.069  1.00  0.00     0.051 A 
ATOM      3  N   UNL     1     -45.706  33.557  25.496  1.00  0.00    -0.262 NA
ATOM      4  C   UNL     1     -46.517  34.459  26.089  1.00  0.00     0.034 A 
ATOM      5  C   UNL     1     -47.883  34.279  26.249  1.00  0.00     0.010 A 
ATOM      6  C   UNL     1     -48.438  33.076  25.790  1.00  0.00    -0.028 A 
ATOM      7  H   UNL     1     -45.558  31.714  24.638  1.00  0.00     0.086 H 
ATOM      8  H   UNL     1     -46.019  35.358  26.442  1.00  0.00     0.084 H 
ATOM      9  H   UNL     1     -49.507  32.936  25.907  1.00  0.00     0.065 H 
ENDROOT
BRANCH   1  10
ATOM     10  N   UNL     1     -48.154  30.846  24.754  1.00  0.00    -0.299 N 
ATOM     11  C   UNL     1     -49.086  28.795  24.816  1.00  0.00     0.033 A 
ATOM     12  C   UNL     1     -48.711  29.885  25.575  1.00  0.00     0.021 A 
ATOM     13  C   UNL     1     -48.824  29.102  23.457  1.00  0.00     0.071 A 
ATOM     14  H   UNL     1     -48.772  30.003  26.647  1.00  0.00     0.083 H 
ATOM     15  C   UNL     1     -48.220  30.360  23.445  1.00  0.00     0.150 A 
ATOM     16  C   UNL     1     -49.032  28.496  22.206  1.00  0.00     0.137 A 
ATOM     17  N   UNL     1     -47.811  31.008  22.337  1.00  0.00    -0.218 NA
ATOM     18  N   UNL     1     -48.621  29.123  21.089  1.00  0.00    -0.219 NA
ATOM     19  C   UNL     1     -48.039  30.326  21.211  1.00  0.00     0.120 A 
ATOM     20  H   UNL     1     -47.723  30.801  20.288  1.00  0.00     0.106 H 
BRANCH  11  21
ATOM     21  C   UNL     1     -49.658  27.564  25.353  1.00  0.00     0.095 A 
ATOM     22  N   UNL     1     -51.059  26.206  26.158  1.00  0.00    -0.275 N 
ATOM     23  C   UNL     1     -49.876  25.526  26.173  1.00  0.00     0.025 A 
ATOM     24  N   UNL     1     -50.953  27.454  25.669  1.00  0.00    -0.173 NA
ATOM     25  C   UNL     1     -48.937  26.393  25.666  1.00  0.00    -0.016 A 
ATOM     26  H   UNL     1     -49.798  24.514  26.546  1.00  0.00     0.084 H 
ATOM     27  H   UNL     1     -47.878  26.206  25.546  1.00  0.00     0.066 H 
BRANCH  22  28
ATOM     28  C   UNL     1     -52.343  25.725  26.606  1.00  0.00     0.030 C 
ATOM     29  H   UNL     1     -52.474  26.018  27.651  1.00  0.00     0.048 H 
ATOM     30  H   UNL     1     -53.118  26.175  25.980  1.00  0.00     0.048 H 
ATOM     31  H   UNL     1     -52.377  24.637  26.517  1.00  0.00     0.048 H 
ENDBRANCH  22  28
ENDBRANCH  11  21
BRANCH  16  32
ATOM     32  N   UNL     1     -49.690  27.286  22.012  1.00  0.00    -0.383 N 
ATOM     33  H   UNL     1     -50.571  27.457  21.535  1.00  0.00     0.158 HD
ATOM     34  H   UNL     1     -49.762  26.725  22.852  1.00  0.00     0.158 HD
ENDBRANCH  16  32
ENDBRANCH   1  10
BRANCH   5  35
ATOM     35  C   UNL     1     -48.730  35.315  26.938  1.00  0.00     0.115 C 
ATOM     36  H   UNL     1     -48.577  36.283  26.444  1.00  0.00     0.076 H 
ATOM     37  H   UNL     1     -49.799  35.105  26.823  1.00  0.00     0.076 H 
BRANCH  35  38
ATOM     38  O   UNL     1     -48.350  35.490  28.311  1.00  0.00    -0.489 OA
BRANCH  38  39
ATOM     39  C   UNL     1     -47.326  36.376  28.514  1.00  0.00     0.122 A 
ATOM     40  C   UNL     1     -46.566  36.189  29.664  1.00  0.00    -0.019 A 
ATOM     41  C   UNL     1     -47.004  37.402  27.624  1.00  0.00     0.007 A 
ATOM     42  C   UNL     1     -45.520  37.063  29.949  1.00  0.00    -0.049 A 
ATOM     43  H   UNL     1     -46.802  35.378  30.348  1.00  0.00     0.066 H 
ATOM     44  C   UNL     1     -45.972  38.292  27.888  1.00  0.00     0.076 A 
ATOM     45  H   UNL     1     -47.555  37.527  26.697  1.00  0.00     0.069 H 
ATOM     46  C   UNL     1     -45.227  38.119  29.070  1.00  0.00     0.001 A 
ATOM     47  H   UNL     1     -44.945  36.923  30.860  1.00  0.00     0.063 H 
ATOM     48  N   UNL     1     -45.722  39.288  27.018  1.00  0.00    -0.231 NA
ATOM     49  C   UNL     1     -44.203  39.030  29.327  1.00  0.00    -0.049 A 
ATOM     50  C   UNL     1     -44.716  40.158  27.259  1.00  0.00     0.129 A 
ATOM     51  C   UNL     1     -43.953  40.057  28.421  1.00  0.00    -0.019 A 
ATOM     52  H   UNL     1     -43.606  38.958  30.232  1.00  0.00     0.063 H 
ATOM     53  H   UNL     1     -43.183  40.786  28.643  1.00  0.00     0.066 H 
BRANCH  50  54
ATOM     54  N   UNL     1     -44.481  41.218  26.360  1.00  0.00    -0.352 N 
ATOM     55  C   UNL     1     -45.702  41.995  26.046  1.00  0.00     0.043 C 
ATOM     56  C   UNL     1     -43.373  42.104  26.788  1.00  0.00     0.043 C 
ATOM     57  C   UNL     1     -45.372  43.085  25.012  1.00  0.00     0.064 C 
ATOM     58  H   UNL     1     -46.079  42.467  26.962  1.00  0.00     0.052 H 
ATOM     59  H   UNL     1     -46.493  41.361  25.632  1.00  0.00     0.052 H 
ATOM     60  C   UNL     1     -43.128  43.179  25.719  1.00  0.00     0.064 C 
ATOM     61  H   UNL     1     -43.631  42.598  27.734  1.00  0.00     0.052 H 
ATOM     62  H   UNL     1     -42.447  41.531  26.923  1.00  0.00     0.052 H 
ATOM     63  O   UNL     1     -44.318  43.947  25.465  1.00  0.00    -0.378 OA
ATOM     64  H   UNL     1     -46.256  43.707  24.835  1.00  0.00     0.059 H 
ATOM     65  H   UNL     1     -45.079  42.640  24.053  1.00  0.00     0.059 H 
ATOM     66  H   UNL     1     -42.354  43.873  26.059  1.00  0.00     0.059 H 
ATOM     67  H   UNL     1     -42.787  42.732  24.778  1.00  0.00     0.059 H 
ENDBRANCH  50  54
ENDBRANCH  38  39
ENDBRANCH  35  38
ENDBRANCH   5  35
TORSDOF 8
ENDMDL
MODEL 3
REMARK VINA RESULT:     -10.9      1.556      2.419
REMARK SMILES Cn1ccc(-c2cn(-c3cncc(COc4ccc5ccc(N6CCOCC6)nc5c4)c3)c3ncnc(N)c23)n1
REMARK SMILES IDX 9 1 10 2 11 3 12 4 13 5 32 6 8 10 6 11 7 12 39 13 33 15
REMARK SMILES IDX 37 16 34 17 36 18 35 19 5 21 2 22 3 23 40 24 4 25 1 28 38 32
REMARK SMILES IDX 14 35 15 38 16 39 17 40 31 41 18 42 30 44 19 46 29 48 20 49
REMARK SMILES IDX 22 50 21 51 23 54 24 55 28 56 25 57 27 60 26 63
REMARK H PARENT 10 7 12 8 32 9 7 14 35 20 3 26 4 27 1 29 1 30 1 31 38 33 38 34
REMARK H PARENT 14 36 14 37 17 43 31 45 18 47 20 52 21 53 24 58 24 59 28 61
REMARK H PARENT 28 62 25 64 25 65 27 66 27 67
REMARK Flexibility Score: inf
ROOT
ATOM      1  C   UNL     1     -46.097  38.833  27.428  1.00  0.00     0.066 A 
ATOM      2  C   UNL     1     -45.353  38.390  28.517  1.00  0.00     0.051 A 
ATOM      3  N   UNL     1     -45.499  37.172  29.099  1.00  0.00    -0.262 NA
ATOM      4  C   UNL     1     -46.427  36.347  28.570  1.00  0.00     0.034 A 
ATOM      5  C   UNL     1     -47.244  36.691  27.502  1.00  0.00     0.010 A 
ATOM      6  C   UNL     1     -47.068  37.959  26.931  1.00  0.00    -0.028 A 
ATOM      7  H   UNL     1     -44.566  38.980  28.975  1.00  0.00     0.086 H 
ATOM      8  H   UNL     1     -46.496  35.372  29.044  1.00  0.00     0.084 H 
ATOM      9  H   UNL     1     -47.710  38.233  26.101  1.00  0.00     0.065 H 
ENDROOT
BRANCH   1  10
ATOM     10  N   UNL     1     -45.862  40.119  26.847  1.00  0.00    -0.299 N 
ATOM     11  C   UNL     1     -44.802  41.816  25.810  1.00  0.00     0.033 A 
ATOM     12  C   UNL     1     -44.688  40.507  26.230  1.00  0.00     0.021 A 
ATOM     13  C   UNL     1     -46.118  42.254  26.106  1.00  0.00     0.071 A 
ATOM     14  H   UNL     1     -43.828  39.856  26.161  1.00  0.00     0.083 H 
ATOM     15  C   UNL     1     -46.744  41.201  26.774  1.00  0.00     0.150 A 
ATOM     16  C   UNL     1     -46.894  43.405  25.884  1.00  0.00     0.137 A 
ATOM     17  N   UNL     1     -48.011  41.224  27.231  1.00  0.00    -0.218 NA
ATOM     18  N   UNL     1     -48.157  43.450  26.342  1.00  0.00    -0.219 NA
ATOM     19  C   UNL     1     -48.642  42.375  26.983  1.00  0.00     0.120 A 
ATOM     20  H   UNL     1     -49.666  42.449  27.335  1.00  0.00     0.106 H 
BRANCH  11  21
ATOM     21  C   UNL     1     -43.736  42.579  25.168  1.00  0.00     0.095 A 
ATOM     22  N   UNL     1     -42.626  43.587  23.681  1.00  0.00    -0.275 N 
ATOM     23  C   UNL     1     -41.820  43.608  24.783  1.00  0.00     0.025 A 
ATOM     24  N   UNL     1     -43.797  42.959  23.887  1.00  0.00    -0.173 NA
ATOM     25  C   UNL     1     -42.512  42.943  25.769  1.00  0.00    -0.016 A 
ATOM     26  H   UNL     1     -40.842  44.068  24.773  1.00  0.00     0.084 H 
ATOM     27  H   UNL     1     -42.177  42.746  26.778  1.00  0.00     0.066 H 
BRANCH  22  28
ATOM     28  C   UNL     1     -42.337  44.143  22.383  1.00  0.00     0.030 C 
ATOM     29  H   UNL     1     -41.693  43.444  21.844  1.00  0.00     0.048 H 
ATOM     30  H   UNL     1     -43.281  44.286  21.851  1.00  0.00     0.048 H 
ATOM     31  H   UNL     1     -41.827  45.103  22.503  1.00  0.00     0.048 H 
ENDBRANCH  22  28
ENDBRANCH  11  21
BRANCH  16  32
ATOM     32  N   UNL     1     -46.471  44.520  25.167  1.00  0.00    -0.383 N 
ATOM     33  H   UNL     1     -45.563  44.815  25.514  1.00  0.00     0.158 HD
ATOM     34  H   UNL     1     -47.166  45.254  25.113  1.00  0.00     0.158 HD
ENDBRANCH  16  32
ENDBRANCH   1  10
BRANCH   5  35
ATOM     35  C   UNL     1     -48.246  35.717  26.943  1.00  0.00     0.115 C 
ATOM     36  H   UNL     1     -49.249  36.009  27.279  1.00  0.00     0.076 H 
ATOM     37  H   UNL     1     -48.289  35.764  25.849  1.00  0.00     0.076 H 
BRANCH  35  38
ATOM     38  O   UNL     1     -48.023  34.384  27.425  1.00  0.00    -0.489 OA
BRANCH  38  39
ATOM     39  C   UNL     1     -47.683  33.474  26.460  1.00  0.00     0.122 A 
ATOM     40  C   UNL     1     -46.632  33.828  25.621  1.00  0.00    -0.019 A 
ATOM     41  C   UNL     1     -48.306  32.233  26.315  1.00  0.00     0.007 A 
ATOM     42  C   UNL     1     -46.243  32.962  24.601  1.00  0.00    -0.049 A 
ATOM     43  H   UNL     1     -46.133  34.785  25.745  1.00  0.00     0.066 H 
ATOM     44  C   UNL     1     -47.942  31.355  25.301  1.00  0.00     0.076 A 
ATOM     45  H   UNL     1     -49.092  31.922  26.995  1.00  0.00     0.069 H 
ATOM     46  C   UNL     1     -46.900  31.733  24.433  1.00  0.00     0.001 A 
ATOM     47  H   UNL     1     -45.435  33.256  23.936  1.00  0.00     0.063 H 
ATOM     48  N   UNL     1     -48.596  30.186  25.178  1.00  0.00    -0.231 NA
ATOM     49  C   UNL     1     -46.557  30.846  23.413  1.00  0.00    -0.049 A 
ATOM     50  C   UNL     1     -48.248  29.319  24.201  1.00  0.00     0.129 A 
ATOM     51  C   UNL     1     -47.240  29.639  23.294  1.00  0.00    -0.019 A 
ATOM     52  H   UNL     1     -45.774  31.090  22.702  1.00  0.00     0.063 H 
ATOM     53  H   UNL     1     -46.998  28.970  22.476  1.00  0.00     0.066 H 
BRANCH  50  54
ATOM     54  N   UNL     1     -48.958  28.110  24.056  1.00  0.00    -0.352 N 
ATOM     55  C   UNL     1     -49.175  27.406  25.341  1.00  0.00     0.043 C 
ATOM     56  C   UNL     1     -50.227  28.270  23.309  1.00  0.00     0.043 C 
ATOM     57  C   UNL     1     -49.894  26.070  25.086  1.00  0.00     0.064 C 
ATOM     58  H   UNL     1     -49.793  28.030  26.000  1.00  0.00     0.052 H 
ATOM     59  H   UNL     1     -48.231  27.192  25.852  1.00  0.00     0.052 H 
ATOM     60  C   UNL     1     -50.896  26.899  23.124  1.00  0.00     0.064 C 
ATOM     61  H   UNL     1     -50.911  28.925  23.865  1.00  0.00     0.052 H 
ATOM     62  H   UNL     1     -50.043  28.703  22.318  1.00  0.00     0.052 H 
ATOM     63  O   UNL     1     -51.135  26.258  24.389  1.00  0.00    -0.378 OA
ATOM     64  H   UNL     1     -50.121  25.584  26.041  1.00  0.00     0.059 H 
ATOM     65  H   UNL     1     -49.260  25.388  24.507  1.00  0.00     0.059 H 
ATOM     66  H   UNL     1     -51.864  27.021  22.628  1.00  0.00     0.059 H 
ATOM     67  H   UNL     1     -50.281  26.239  22.501  1.00  0.00     0.059 H 
ENDBRANCH  50  54
ENDBRANCH  38  39
ENDBRANCH  35  38
ENDBRANCH   5  35
TORSDOF 8
ENDMDL
MODEL 4
REMARK VINA RESULT:     -10.8      2.678     12.695
REMARK SMILES Cn1ccc(-c2cn(-c3cncc(COc4ccc5ccc(N6CCOCC6)nc5c4)c3)c3ncnc(N)c23)n1
REMARK SMILES IDX 9 1 10 2 11 3 12 4 13 5 32 6 8 10 6 11 7 12 39 13 33 15
REMARK SMILES IDX 37 16 34 17 36 18 35 19 5 21 2 22 3 23 40 24 4 25 1 28 38 32
REMARK SMILES IDX 14 35 15 38 16 39 17 40 31 41 18 42 30 44 19 46 29 48 20 49
REMARK SMILES IDX 22 50 21 51 23 54 24 55 28 56 25 57 27 60 26 63
REMARK H PARENT 10 7 12 8 32 9 7 14 35 20 3 26 4 27 1 29 1 30 1 31 38 33 38 34
REMARK H PARENT 14 36 14 37 17 43 31 45 18 47 20 52 21 53 24 58 24 59 28 61
REMARK H PARENT 28 62 25 64 25 65 27 66 27 67
REMARK Flexibility Score: inf
ROOT
ATOM      1  C   UNL     1     -47.135  32.553  26.123  1.00  0.00     0.066 A 
ATOM      2  C   UNL     1     -46.449  32.222  27.289  1.00  0.00     0.051 A 
ATOM      3  N   UNL     1     -46.003  33.127  28.197  1.00  0.00    -0.262 NA
ATOM      4  C   UNL     1     -46.256  34.428  27.941  1.00  0.00     0.034 A 
ATOM      5  C   UNL     1     -46.908  34.876  26.801  1.00  0.00     0.010 A 
ATOM      6  C   UNL     1     -47.347  33.913  25.883  1.00  0.00    -0.028 A 
ATOM      7  H   UNL     1     -46.240  31.198  27.581  1.00  0.00     0.086 H 
ATOM      8  H   UNL     1     -45.909  35.119  28.704  1.00  0.00     0.084 H 
ATOM      9  H   UNL     1     -47.850  34.261  24.987  1.00  0.00     0.065 H 
ENDROOT
BRANCH   1  10
ATOM     10  N   UNL     1     -47.603  31.539  25.230  1.00  0.00    -0.299 N 
ATOM     11  C   UNL     1     -48.792  29.798  24.433  1.00  0.00     0.033 A 
ATOM     12  C   UNL     1     -48.623  30.649  25.506  1.00  0.00     0.021 A 
ATOM     13  C   UNL     1     -47.898  30.205  23.411  1.00  0.00     0.071 A 
ATOM     14  H   UNL     1     -49.140  30.637  26.455  1.00  0.00     0.083 H 
ATOM     15  C   UNL     1     -47.152  31.261  23.936  1.00  0.00     0.150 A 
ATOM     16  C   UNL     1     -47.619  29.840  22.082  1.00  0.00     0.137 A 
ATOM     17  N   UNL     1     -46.185  31.926  23.274  1.00  0.00    -0.218 NA
ATOM     18  N   UNL     1     -46.649  30.485  21.409  1.00  0.00    -0.219 NA
ATOM     19  C   UNL     1     -45.992  31.477  22.030  1.00  0.00     0.120 A 
ATOM     20  H   UNL     1     -45.219  31.974  21.453  1.00  0.00     0.106 H 
BRANCH  11  21
ATOM     21  C   UNL     1     -49.743  28.691  24.392  1.00  0.00     0.095 A 
ATOM     22  N   UNL     1     -51.342  27.462  23.768  1.00  0.00    -0.275 N 
ATOM     23  C   UNL     1     -50.909  26.895  24.931  1.00  0.00     0.025 A 
ATOM     24  N   UNL     1     -50.653  28.563  23.420  1.00  0.00    -0.173 NA
ATOM     25  C   UNL     1     -49.872  27.685  25.372  1.00  0.00    -0.016 A 
ATOM     26  H   UNL     1     -51.369  26.009  25.347  1.00  0.00     0.084 H 
ATOM     27  H   UNL     1     -49.295  27.553  26.277  1.00  0.00     0.066 H 
BRANCH  22  28
ATOM     28  C   UNL     1     -52.425  27.008  22.930  1.00  0.00     0.030 C 
ATOM     29  H   UNL     1     -52.410  25.915  22.912  1.00  0.00     0.048 H 
ATOM     30  H   UNL     1     -53.364  27.373  23.353  1.00  0.00     0.048 H 
ATOM     31  H   UNL     1     -52.293  27.400  21.919  1.00  0.00     0.048 H 
ENDBRANCH  22  28
ENDBRANCH  11  21
BRANCH  16  32
ATOM     32  N   UNL     1     -48.311  28.870  21.365  1.00  0.00    -0.383 N 
ATOM     33  H   UNL     1     -49.308  28.999  21.506  1.00  0.00     0.158 HD
ATOM     34  H   UNL     1     -47.975  27.929  21.528  1.00  0.00     0.158 HD
ENDBRANCH  16  32
ENDBRANCH   1  10
BRANCH   5  35
ATOM     35  C   UNL     1     -47.178  36.341  26.584  1.00  0.00     0.115 C 
ATOM     36  H   UNL     1     -46.397  36.752  25.932  1.00  0.00     0.076 H 
ATOM     37  H   UNL     1     -48.116  36.502  26.040  1.00  0.00     0.076 H 
BRANCH  35  38
ATOM     38  O   UNL     1     -47.122  37.083  27.811  1.00  0.00    -0.489 OA
BRANCH  38  39
ATOM     39  C   UNL     1     -46.193  38.089  27.831  1.00  0.00     0.122 A 
ATOM     40  C   UNL     1     -45.198  37.992  28.797  1.00  0.00    -0.019 A 
ATOM     41  C   UNL     1     -46.187  39.152  26.926  1.00  0.00     0.007 A 
ATOM     42  C   UNL     1     -44.230  38.988  28.892  1.00  0.00    -0.049 A 
ATOM     43  H   UNL     1     -45.189  37.154  29.490  1.00  0.00     0.066 H 
ATOM     44  C   UNL     1     -45.238  40.163  27.004  1.00  0.00     0.076 A 
ATOM     45  H   UNL     1     -46.926  39.213  26.134  1.00  0.00     0.069 H 
ATOM     46  C   UNL     1     -44.252  40.077  28.005  1.00  0.00     0.001 A 
ATOM     47  H   UNL     1     -43.468  38.916  29.664  1.00  0.00     0.063 H 
ATOM     48  N   UNL     1     -45.294  41.187  26.133  1.00  0.00    -0.231 NA
ATOM     49  C   UNL     1     -43.315  41.108  28.079  1.00  0.00    -0.049 A 
ATOM     50  C   UNL     1     -44.373  42.174  26.192  1.00  0.00     0.129 A 
ATOM     51  C   UNL     1     -43.382  42.163  27.172  1.00  0.00    -0.019 A 
ATOM     52  H   UNL     1     -42.542  41.106  28.841  1.00  0.00     0.063 H 
ATOM     53  H   UNL     1     -42.677  42.981  27.257  1.00  0.00     0.066 H 
BRANCH  50  54
ATOM     54  N   UNL     1     -44.456  43.260  25.298  1.00  0.00    -0.352 N 
ATOM     55  C   UNL     1     -43.724  44.458  25.769  1.00  0.00     0.043 C 
ATOM     56  C   UNL     1     -44.069  42.902  23.914  1.00  0.00     0.043 C 
ATOM     57  C   UNL     1     -43.922  45.613  24.773  1.00  0.00     0.064 C 
ATOM     58  H   UNL     1     -42.655  44.226  25.846  1.00  0.00     0.052 H 
ATOM     59  H   UNL     1     -44.077  44.792  26.751  1.00  0.00     0.052 H 
ATOM     60  C   UNL     1     -44.265  44.114  22.991  1.00  0.00     0.064 C 
ATOM     61  H   UNL     1     -43.012  42.603  23.885  1.00  0.00     0.052 H 
ATOM     62  H   UNL     1     -44.685  42.076  23.539  1.00  0.00     0.052 H 
ATOM     63  O   UNL     1     -43.509  45.249  23.447  1.00  0.00    -0.378 OA
ATOM     64  H   UNL     1     -43.321  46.475  25.081  1.00  0.00     0.059 H 
ATOM     65  H   UNL     1     -44.971  45.931  24.744  1.00  0.00     0.059 H 
ATOM     66  H   UNL     1     -43.920  43.872  21.981  1.00  0.00     0.059 H 
ATOM     67  H   UNL     1     -45.323  44.395  22.926  1.00  0.00     0.059 H 
ENDBRANCH  50  54
ENDBRANCH  38  39
ENDBRANCH  35  38
ENDBRANCH   5  35
TORSDOF 8
ENDMDL
MODEL 5
REMARK VINA RESULT:     -10.7      2.622     12.791
REMARK SMILES Cn1ccc(-c2cn(-c3cncc(COc4ccc5ccc(N6CCOCC6)nc5c4)c3)c3ncnc(N)c23)n1
REMARK SMILES IDX 9 1 10 2 11 3 12 4 13 5 32 6 8 10 6 11 7 12 39 13 33 15
REMARK SMILES IDX 37 16 34 17 36 18 35 19 5 21 2 22 3 23 40 24 4 25 1 28 38 32
REMARK SMILES IDX 14 35 15 38 16 39 17 40 31 41 18 42 30 44 19 46 29 48 20 49
REMARK SMILES IDX 22 50 21 51 23 54 24 55 28 56 25 57 27 60 26 63
REMARK H PARENT 10 7 12 8 32 9 7 14 35 20 3 26 4 27 1 29 1 30 1 31 38 33 38 34
REMARK H PARENT 14 36 14 37 17 43 31 45 18 47 20 52 21 53 24 58 24 59 28 61
REMARK H PARENT 28 62 25 64 25 65 27 66 27 67
REMARK Flexibility Score: inf
ROOT
ATOM      1  C   UNL     1     -48.308  32.662  26.055  1.00  0.00     0.066 A 
ATOM      2  C   UNL     1     -49.534  33.309  26.178  1.00  0.00     0.051 A 
ATOM      3  N   UNL     1     -49.689  34.571  26.655  1.00  0.00    -0.262 NA
ATOM      4  C   UNL     1     -48.569  35.228  27.022  1.00  0.00     0.034 A 
ATOM      5  C   UNL     1     -47.298  34.676  26.968  1.00  0.00     0.010 A 
ATOM      6  C   UNL     1     -47.179  33.368  26.476  1.00  0.00    -0.028 A 
ATOM      7  H   UNL     1     -50.473  32.860  25.871  1.00  0.00     0.086 H 
ATOM      8  H   UNL     1     -48.731  36.244  27.371  1.00  0.00     0.084 H 
ATOM      9  H   UNL     1     -46.186  32.931  26.440  1.00  0.00     0.065 H 
ENDROOT
BRANCH   1  10
ATOM     10  N   UNL     1     -48.221  31.341  25.512  1.00  0.00    -0.299 N 
ATOM     11  C   UNL     1     -48.373  29.098  25.354  1.00  0.00     0.033 A 
ATOM     12  C   UNL     1     -48.626  30.190  26.159  1.00  0.00     0.021 A 
ATOM     13  C   UNL     1     -47.855  29.577  24.124  1.00  0.00     0.071 A 
ATOM     14  H   UNL     1     -49.027  30.200  27.162  1.00  0.00     0.083 H 
ATOM     15  C   UNL     1     -47.740  30.961  24.256  1.00  0.00     0.150 A 
ATOM     16  C   UNL     1     -47.477  29.031  22.885  1.00  0.00     0.137 A 
ATOM     17  N   UNL     1     -47.278  31.790  23.299  1.00  0.00    -0.218 NA
ATOM     18  N   UNL     1     -47.004  29.842  21.921  1.00  0.00    -0.219 NA
ATOM     19  C   UNL     1     -46.928  31.158  22.175  1.00  0.00     0.120 A 
ATOM     20  H   UNL     1     -46.544  31.779  21.373  1.00  0.00     0.106 H 
BRANCH  11  21
ATOM     21  C   UNL     1     -48.619  27.710  25.733  1.00  0.00     0.095 A 
ATOM     22  N   UNL     1     -48.264  25.711  26.311  1.00  0.00    -0.275 N 
ATOM     23  C   UNL     1     -49.612  25.774  26.107  1.00  0.00     0.025 A 
ATOM     24  N   UNL     1     -47.633  26.876  26.083  1.00  0.00    -0.173 NA
ATOM     25  C   UNL     1     -49.874  27.066  25.714  1.00  0.00    -0.016 A 
ATOM     26  H   UNL     1     -50.255  24.915  26.240  1.00  0.00     0.084 H 
ATOM     27  H   UNL     1     -50.836  27.481  25.446  1.00  0.00     0.066 H 
BRANCH  22  28
ATOM     28  C   UNL     1     -47.500  24.558  26.720  1.00  0.00     0.030 C 
ATOM     29  H   UNL     1     -48.175  23.858  27.220  1.00  0.00     0.048 H 
ATOM     30  H   UNL     1     -47.062  24.101  25.829  1.00  0.00     0.048 H 
ATOM     31  H   UNL     1     -46.709  24.869  27.407  1.00  0.00     0.048 H 
ENDBRANCH  22  28
ENDBRANCH  11  21
BRANCH  16  32
ATOM     32  N   UNL     1     -47.598  27.689  22.540  1.00  0.00    -0.383 N 
ATOM     33  H   UNL     1     -47.623  27.128  23.385  1.00  0.00     0.158 HD
ATOM     34  H   UNL     1     -46.924  27.387  21.847  1.00  0.00     0.158 HD
ENDBRANCH  16  32
ENDBRANCH   1  10
BRANCH   5  35
ATOM     35  C   UNL     1     -46.085  35.470  27.373  1.00  0.00     0.115 C 
ATOM     36  H   UNL     1     -45.276  34.775  27.627  1.00  0.00     0.076 H 
ATOM     37  H   UNL     1     -45.695  36.066  26.540  1.00  0.00     0.076 H 
BRANCH  35  38
ATOM     38  O   UNL     1     -46.331  36.262  28.544  1.00  0.00    -0.489 OA
BRANCH  38  39
ATOM     39  C   UNL     1     -45.516  37.354  28.679  1.00  0.00     0.122 A 
ATOM     40  C   UNL     1     -44.801  37.448  29.869  1.00  0.00    -0.019 A 
ATOM     41  C   UNL     1     -45.354  38.324  27.689  1.00  0.00     0.007 A 
ATOM     42  C   UNL     1     -43.968  38.541  30.087  1.00  0.00    -0.049 A 
ATOM     43  H   UNL     1     -44.911  36.683  30.633  1.00  0.00     0.066 H 
ATOM     44  C   UNL     1     -44.535  39.429  27.885  1.00  0.00     0.076 A 
ATOM     45  H   UNL     1     -45.865  38.236  26.735  1.00  0.00     0.069 H 
ATOM     46  C   UNL     1     -43.840  39.536  29.104  1.00  0.00     0.001 A 
ATOM     47  H   UNL     1     -43.429  38.618  31.028  1.00  0.00     0.063 H 
ATOM     48  N   UNL     1     -44.438  40.357  26.915  1.00  0.00    -0.231 NA
ATOM     49  C   UNL     1     -43.033  40.658  29.290  1.00  0.00    -0.049 A 
ATOM     50  C   UNL     1     -43.640  41.433  27.089  1.00  0.00     0.129 A 
ATOM     51  C   UNL     1     -42.940  41.612  28.280  1.00  0.00    -0.019 A 
ATOM     52  H   UNL     1     -42.486  40.805  30.217  1.00  0.00     0.063 H 
ATOM     53  H   UNL     1     -42.344  42.502  28.444  1.00  0.00     0.066 H 
BRANCH  50  54
ATOM     54  N   UNL     1     -43.569  42.418  26.083  1.00  0.00    -0.352 N 
ATOM     55  C   UNL     1     -42.183  42.848  25.789  1.00  0.00     0.043 C 
ATOM     56  C   UNL     1     -44.288  42.035  24.846  1.00  0.00     0.043 C 
ATOM     57  C   UNL     1     -42.199  43.968  24.734  1.00  0.00     0.064 C 
ATOM     58  H   UNL     1     -41.610  41.996  25.403  1.00  0.00     0.052 H 
ATOM     59  H   UNL     1     -41.676  43.230  26.682  1.00  0.00     0.052 H 
ATOM     60  C   UNL     1     -44.232  43.191  23.836  1.00  0.00     0.064 C 
ATOM     61  H   UNL     1     -43.819  41.150  24.397  1.00  0.00     0.052 H 
ATOM     62  H   UNL     1     -45.340  41.813  25.061  1.00  0.00     0.052 H 
ATOM     63  O   UNL     1     -42.875  43.559  23.535  1.00  0.00    -0.378 OA
ATOM     64  H   UNL     1     -41.173  44.235  24.462  1.00  0.00     0.059 H 
ATOM     65  H   UNL     1     -42.685  44.870  25.127  1.00  0.00     0.059 H 
ATOM     66  H   UNL     1     -44.708  42.889  22.898  1.00  0.00     0.059 H 
ATOM     67  H   UNL     1     -44.764  44.073  24.213  1.00  0.00     0.059 H 
ENDBRANCH  50  54
ENDBRANCH  38  39
ENDBRANCH  35  38
ENDBRANCH   5  35
TORSDOF 8
ENDMDL
MODEL 6
REMARK VINA RESULT:     -10.4      1.540      2.203
REMARK SMILES Cn1ccc(-c2cn(-c3cncc(COc4ccc5ccc(N6CCOCC6)nc5c4)c3)c3ncnc(N)c23)n1
REMARK SMILES IDX 9 1 10 2 11 3 12 4 13 5 32 6 8 10 6 11 7 12 39 13 33 15
REMARK SMILES IDX 37 16 34 17 36 18 35 19 5 21 2 22 3 23 40 24 4 25 1 28 38 32
REMARK SMILES IDX 14 35 15 38 16 39 17 40 31 41 18 42 30 44 19 46 29 48 20 49
REMARK SMILES IDX 22 50 21 51 23 54 24 55 28 56 25 57 27 60 26 63
REMARK H PARENT 10 7 12 8 32 9 7 14 35 20 3 26 4 27 1 29 1 30 1 31 38 33 38 34
REMARK H PARENT 14 36 14 37 17 43 31 45 18 47 20 52 21 53 24 58 24 59 28 61
REMARK H PARENT 28 62 25 64 25 65 27 66 27 67
REMARK Flexibility Score: inf
ROOT
ATOM      1  C   UNL     1     -47.768  38.133  27.697  1.00  0.00     0.066 A 
ATOM      2  C   UNL     1     -48.984  38.609  28.180  1.00  0.00     0.051 A 
ATOM      3  N   UNL     1     -50.126  37.877  28.230  1.00  0.00    -0.262 NA
ATOM      4  C   UNL     1     -50.058  36.605  27.785  1.00  0.00     0.034 A 
ATOM      5  C   UNL     1     -48.909  36.032  27.260  1.00  0.00     0.010 A 
ATOM      6  C   UNL     1     -47.751  36.821  27.218  1.00  0.00    -0.028 A 
ATOM      7  H   UNL     1     -49.108  39.607  28.587  1.00  0.00     0.086 H 
ATOM      8  H   UNL     1     -50.984  36.043  27.867  1.00  0.00     0.084 H 
ATOM      9  H   UNL     1     -46.853  36.378  26.801  1.00  0.00     0.065 H 
ENDROOT
BRANCH   1  10
ATOM     10  N   UNL     1     -46.597  38.955  27.707  1.00  0.00    -0.299 N 
ATOM     11  C   UNL     1     -45.112  40.539  27.104  1.00  0.00     0.033 A 
ATOM     12  C   UNL     1     -46.340  39.979  26.817  1.00  0.00     0.021 A 
ATOM     13  C   UNL     1     -44.602  39.897  28.260  1.00  0.00     0.071 A 
ATOM     14  H   UNL     1     -47.013  40.226  26.008  1.00  0.00     0.083 H 
ATOM     15  C   UNL     1     -45.520  38.902  28.597  1.00  0.00     0.150 A 
ATOM     16  C   UNL     1     -43.483  40.029  29.102  1.00  0.00     0.137 A 
ATOM     17  N   UNL     1     -45.395  38.060  29.642  1.00  0.00    -0.218 NA
ATOM     18  N   UNL     1     -43.337  39.191  30.144  1.00  0.00    -0.219 NA
ATOM     19  C   UNL     1     -44.283  38.264  30.355  1.00  0.00     0.120 A 
ATOM     20  H   UNL     1     -44.131  37.608  31.206  1.00  0.00     0.106 H 
BRANCH  11  21
ATOM     21  C   UNL     1     -44.486  41.611  26.335  1.00  0.00     0.095 A 
ATOM     22  N   UNL     1     -43.001  42.865  25.510  1.00  0.00    -0.275 N 
ATOM     23  C   UNL     1     -44.181  43.425  25.113  1.00  0.00     0.025 A 
ATOM     24  N   UNL     1     -43.159  41.761  26.263  1.00  0.00    -0.173 NA
ATOM     25  C   UNL     1     -45.172  42.636  25.649  1.00  0.00    -0.016 A 
ATOM     26  H   UNL     1     -44.219  44.321  24.511  1.00  0.00     0.084 H 
ATOM     27  H   UNL     1     -46.240  42.784  25.561  1.00  0.00     0.066 H 
BRANCH  22  28
ATOM     28  C   UNL     1     -41.672  43.338  25.213  1.00  0.00     0.030 C 
ATOM     29  H   UNL     1     -41.367  44.028  26.004  1.00  0.00     0.048 H 
ATOM     30  H   UNL     1     -41.000  42.476  25.173  1.00  0.00     0.048 H 
ATOM     31  H   UNL     1     -41.675  43.853  24.249  1.00  0.00     0.048 H 
ENDBRANCH  22  28
ENDBRANCH  11  21
BRANCH  16  32
ATOM     32  N   UNL     1     -42.508  41.012  28.975  1.00  0.00    -0.383 N 
ATOM     33  H   UNL     1     -42.923  41.844  28.568  1.00  0.00     0.158 HD
ATOM     34  H   UNL     1     -41.664  40.689  28.516  1.00  0.00     0.158 HD
ENDBRANCH  16  32
ENDBRANCH   1  10
BRANCH   5  35
ATOM     35  C   UNL     1     -48.893  34.599  26.799  1.00  0.00     0.115 C 
ATOM     36  H   UNL     1     -49.296  33.966  27.600  1.00  0.00     0.076 H 
ATOM     37  H   UNL     1     -49.565  34.441  25.948  1.00  0.00     0.076 H 
BRANCH  35  38
ATOM     38  O   UNL     1     -47.560  34.136  26.539  1.00  0.00    -0.489 OA
BRANCH  38  39
ATOM     39  C   UNL     1     -47.475  33.122  25.622  1.00  0.00     0.122 A 
ATOM     40  C   UNL     1     -46.241  32.952  25.003  1.00  0.00    -0.019 A 
ATOM     41  C   UNL     1     -48.531  32.261  25.322  1.00  0.00     0.007 A 
ATOM     42  C   UNL     1     -46.083  31.956  24.044  1.00  0.00    -0.049 A 
ATOM     43  H   UNL     1     -45.411  33.610  25.250  1.00  0.00     0.066 H 
ATOM     44  C   UNL     1     -48.402  31.264  24.364  1.00  0.00     0.076 A 
ATOM     45  H   UNL     1     -49.483  32.348  25.836  1.00  0.00     0.069 H 
ATOM     46  C   UNL     1     -47.161  31.118  23.716  1.00  0.00     0.001 A 
ATOM     47  H   UNL     1     -45.121  31.844  23.549  1.00  0.00     0.063 H 
ATOM     48  N   UNL     1     -49.459  30.481  24.082  1.00  0.00    -0.231 NA
ATOM     49  C   UNL     1     -47.052  30.121  22.746  1.00  0.00    -0.049 A 
ATOM     50  C   UNL     1     -49.346  29.502  23.157  1.00  0.00     0.129 A 
ATOM     51  C   UNL     1     -48.152  29.317  22.462  1.00  0.00    -0.019 A 
ATOM     52  H   UNL     1     -46.126  29.972  22.199  1.00  0.00     0.063 H 
ATOM     53  H   UNL     1     -48.077  28.570  21.680  1.00  0.00     0.066 H 
BRANCH  50  54
ATOM     54  N   UNL     1     -50.466  28.707  22.842  1.00  0.00    -0.352 N 
ATOM     55  C   UNL     1     -50.152  27.607  21.902  1.00  0.00     0.043 C 
ATOM     56  C   UNL     1     -51.175  28.205  24.042  1.00  0.00     0.043 C 
ATOM     57  C   UNL     1     -51.437  26.833  21.561  1.00  0.00     0.064 C 
ATOM     58  H   UNL     1     -49.431  26.923  22.368  1.00  0.00     0.052 H 
ATOM     59  H   UNL     1     -49.721  27.980  20.968  1.00  0.00     0.052 H 
ATOM     60  C   UNL     1     -52.425  27.420  23.615  1.00  0.00     0.064 C 
ATOM     61  H   UNL     1     -50.517  27.538  24.616  1.00  0.00     0.052 H 
ATOM     62  H   UNL     1     -51.490  29.037  24.685  1.00  0.00     0.052 H 
ATOM     63  O   UNL     1     -52.086  26.331  22.739  1.00  0.00    -0.378 OA
ATOM     64  H   UNL     1     -51.195  25.974  20.925  1.00  0.00     0.059 H 
ATOM     65  H   UNL     1     -52.142  27.467  21.009  1.00  0.00     0.059 H 
ATOM     66  H   UNL     1     -52.915  26.994  24.496  1.00  0.00     0.059 H 
ATOM     67  H   UNL     1     -53.148  28.071  23.110  1.00  0.00     0.059 H 
ENDBRANCH  50  54
ENDBRANCH  38  39
ENDBRANCH  35  38
ENDBRANCH   5  35
TORSDOF 8
ENDMDL
MODEL 7
REMARK VINA RESULT:     -10.1      2.652     12.872
REMARK SMILES Cn1ccc(-c2cn(-c3cncc(COc4ccc5ccc(N6CCOCC6)nc5c4)c3)c3ncnc(N)c23)n1
REMARK SMILES IDX 9 1 10 2 11 3 12 4 13 5 32 6 8 10 6 11 7 12 39 13 33 15
REMARK SMILES IDX 37 16 34 17 36 18 35 19 5 21 2 22 3 23 40 24 4 25 1 28 38 32
REMARK SMILES IDX 14 35 15 38 16 39 17 40 31 41 18 42 30 44 19 46 29 48 20 49
REMARK SMILES IDX 22 50 21 51 23 54 24 55 28 56 25 57 27 60 26 63
REMARK H PARENT 10 7 12 8 32 9 7 14 35 20 3 26 4 27 1 29 1 30 1 31 38 33 38 34
REMARK H PARENT 14 36 14 37 17 43 31 45 18 47 20 52 21 53 24 58 24 59 28 61
REMARK H PARENT 28 62 25 64 25 65 27 66 27 67
REMARK Flexibility Score: inf
ROOT
ATOM      1  C   UNL     1     -47.756  32.376  25.339  1.00  0.00     0.066 A 
ATOM      2  C   UNL     1     -46.493  32.902  25.082  1.00  0.00     0.051 A 
ATOM      3  N   UNL     1     -46.081  34.132  25.485  1.00  0.00    -0.262 NA
ATOM      4  C   UNL     1     -46.964  34.876  26.184  1.00  0.00     0.034 A 
ATOM      5  C   UNL     1     -48.256  34.465  26.477  1.00  0.00     0.010 A 
ATOM      6  C   UNL     1     -48.648  33.192  26.039  1.00  0.00    -0.028 A 
ATOM      7  H   UNL     1     -45.719  32.352  24.559  1.00  0.00     0.086 H 
ATOM      8  H   UNL     1     -46.588  35.841  26.512  1.00  0.00     0.084 H 
ATOM      9  H   UNL     1     -49.661  32.872  26.260  1.00  0.00     0.065 H 
ENDROOT
BRANCH   1  10
ATOM     10  N   UNL     1     -48.106  31.057  24.911  1.00  0.00    -0.299 N 
ATOM     11  C   UNL     1     -48.568  28.852  24.994  1.00  0.00     0.033 A 
ATOM     12  C   UNL     1     -48.253  29.965  25.746  1.00  0.00     0.021 A 
ATOM     13  C   UNL     1     -48.698  29.263  23.644  1.00  0.00     0.071 A 
ATOM     14  H   UNL     1     -48.083  30.025  26.811  1.00  0.00     0.083 H 
ATOM     15  C   UNL     1     -48.378  30.621  23.611  1.00  0.00     0.150 A 
ATOM     16  C   UNL     1     -49.067  28.676  22.420  1.00  0.00     0.137 A 
ATOM     17  N   UNL     1     -48.377  31.386  22.502  1.00  0.00    -0.218 NA
ATOM     18  N   UNL     1     -49.062  29.422  21.301  1.00  0.00    -0.219 NA
ATOM     19  C   UNL     1     -48.721  30.716  21.397  1.00  0.00     0.120 A 
ATOM     20  H   UNL     1     -48.731  31.284  20.473  1.00  0.00     0.106 H 
BRANCH  11  21
ATOM     21  C   UNL     1     -48.741  27.506  25.533  1.00  0.00     0.095 A 
ATOM     22  N   UNL     1     -48.281  25.593  26.298  1.00  0.00    -0.275 N 
ATOM     23  C   UNL     1     -49.640  25.593  26.170  1.00  0.00     0.025 A 
ATOM     24  N   UNL     1     -47.707  26.746  25.909  1.00  0.00    -0.173 NA
ATOM     25  C   UNL     1     -49.971  26.826  25.658  1.00  0.00    -0.016 A 
ATOM     26  H   UNL     1     -50.243  24.735  26.432  1.00  0.00     0.084 H 
ATOM     27  H   UNL     1     -50.961  27.180  25.406  1.00  0.00     0.066 H 
BRANCH  22  28
ATOM     28  C   UNL     1     -47.453  24.515  26.780  1.00  0.00     0.030 C 
ATOM     29  H   UNL     1     -46.881  24.878  27.637  1.00  0.00     0.048 H 
ATOM     30  H   UNL     1     -48.103  23.686  27.074  1.00  0.00     0.048 H 
ATOM     31  H   UNL     1     -46.774  24.194  25.987  1.00  0.00     0.048 H 
ENDBRANCH  22  28
ENDBRANCH  11  21
BRANCH  16  32
ATOM     32  N   UNL     1     -49.497  27.362  22.270  1.00  0.00    -0.383 N 
ATOM     33  H   UNL     1     -48.838  26.741  22.729  1.00  0.00     0.158 HD
ATOM     34  H   UNL     1     -49.719  27.116  21.312  1.00  0.00     0.158 HD
ENDBRANCH  16  32
ENDBRANCH   1  10
BRANCH   5  35
ATOM     35  C   UNL     1     -49.186  35.334  27.280  1.00  0.00     0.115 C 
ATOM     36  H   UNL     1     -49.682  36.042  26.603  1.00  0.00     0.076 H 
ATOM     37  H   UNL     1     -50.000  34.751  27.725  1.00  0.00     0.076 H 
BRANCH  35  38
ATOM     38  O   UNL     1     -48.480  36.119  28.251  1.00  0.00    -0.489 OA
BRANCH  38  39
ATOM     39  C   UNL     1     -48.356  37.446  27.936  1.00  0.00     0.122 A 
ATOM     40  C   UNL     1     -49.499  38.225  28.085  1.00  0.00    -0.019 A 
ATOM     41  C   UNL     1     -47.160  38.033  27.520  1.00  0.00     0.007 A 
ATOM     42  C   UNL     1     -49.456  39.579  27.763  1.00  0.00    -0.049 A 
ATOM     43  H   UNL     1     -50.427  37.774  28.427  1.00  0.00     0.066 H 
ATOM     44  C   UNL     1     -47.093  39.379  27.185  1.00  0.00     0.076 A 
ATOM     45  H   UNL     1     -46.249  37.448  27.450  1.00  0.00     0.069 H 
ATOM     46  C   UNL     1     -48.261  40.156  27.305  1.00  0.00     0.001 A 
ATOM     47  H   UNL     1     -50.359  40.176  27.861  1.00  0.00     0.063 H 
ATOM     48  N   UNL     1     -45.926  39.893  26.754  1.00  0.00    -0.231 NA
ATOM     49  C   UNL     1     -48.179  41.503  26.952  1.00  0.00    -0.049 A 
ATOM     50  C   UNL     1     -45.844  41.203  26.432  1.00  0.00     0.129 A 
ATOM     51  C   UNL     1     -46.967  42.024  26.508  1.00  0.00    -0.019 A 
ATOM     52  H   UNL     1     -49.051  42.148  27.007  1.00  0.00     0.063 H 
ATOM     53  H   UNL     1     -46.917  43.061  26.196  1.00  0.00     0.066 H 
BRANCH  50  54
ATOM     54  N   UNL     1     -44.628  41.727  25.950  1.00  0.00    -0.352 N 
ATOM     55  C   UNL     1     -44.804  42.956  25.143  1.00  0.00     0.043 C 
ATOM     56  C   UNL     1     -43.619  41.923  27.017  1.00  0.00     0.043 C 
ATOM     57  C   UNL     1     -43.442  43.422  24.602  1.00  0.00     0.064 C 
ATOM     58  H   UNL     1     -45.234  43.747  25.771  1.00  0.00     0.052 H 
ATOM     59  H   UNL     1     -45.471  42.791  24.290  1.00  0.00     0.052 H 
ATOM     60  C   UNL     1     -42.302  42.417  26.399  1.00  0.00     0.064 C 
ATOM     61  H   UNL     1     -43.974  42.673  27.737  1.00  0.00     0.052 H 
ATOM     62  H   UNL     1     -43.423  40.983  27.546  1.00  0.00     0.052 H 
ATOM     63  O   UNL     1     -42.494  43.635  25.658  1.00  0.00    -0.378 OA
ATOM     64  H   UNL     1     -43.561  44.371  24.068  1.00  0.00     0.059 H 
ATOM     65  H   UNL     1     -43.029  42.691  23.896  1.00  0.00     0.059 H 
ATOM     66  H   UNL     1     -41.574  42.624  27.190  1.00  0.00     0.059 H 
ATOM     67  H   UNL     1     -41.868  41.661  25.734  1.00  0.00     0.059 H 
ENDBRANCH  50  54
ENDBRANCH  38  39
ENDBRANCH  35  38
ENDBRANCH   5  35
TORSDOF 8
ENDMDL
