MODEL 1
REMARK VINA RESULT:     -10.4      0.000      0.000
REMARK SMILES Cc1cc2c(N)ncnc2n1[C@@H]1C[C@H](CCc2ccc3ccc(N)nc3c2)[C@@H](O)[C@H]1O
REMARK SMILES IDX 15 1 14 4 12 5 13 6 30 7 28 11 11 15 2 16 3 17 4 18 10 20
REMARK SMILES IDX 5 21 9 22 7 23 8 24 1 26 6 30 31 33 29 35 16 37 17 40 18 41
REMARK SMILES IDX 27 42 19 43 26 45 20 47 25 49 21 50 23 51 22 52 24 55
REMARK H PARENT 15 2 15 3 12 8 13 9 13 10 30 12 14 13 28 14 3 19 8 25 1 27
REMARK H PARENT 1 28 1 29 6 31 6 32 31 34 29 36 16 38 16 39 18 44 27 46 19 48
REMARK H PARENT 21 53 22 54 24 56 24 57
REMARK Flexibility Score: inf
ROOT
ATOM      1  C   UNL     1     -46.020  34.752  27.649  1.00  0.00    -0.044 C 
ATOM      2  H   UNL     1     -46.505  33.983  28.267  1.00  0.00     0.027 H 
ATOM      3  H   UNL     1     -45.052  34.332  27.345  1.00  0.00     0.027 H 
ENDROOT
BRANCH   1   4
ATOM      4  C   UNL     1     -45.797  35.997  28.517  1.00  0.00    -0.010 C 
ATOM      5  C   UNL     1     -45.032  38.276  28.645  1.00  0.00     0.064 C 
ATOM      6  C   UNL     1     -44.810  36.973  27.866  1.00  0.00    -0.024 C 
ATOM      7  C   UNL     1     -46.484  38.242  29.157  1.00  0.00     0.101 C 
ATOM      8  H   UNL     1     -44.368  38.209  29.516  1.00  0.00     0.056 H 
ATOM      9  H   UNL     1     -43.777  36.623  27.961  1.00  0.00     0.029 H 
ATOM     10  H   UNL     1     -45.016  37.073  26.800  1.00  0.00     0.029 H 
ATOM     11  C   UNL     1     -47.037  36.873  28.715  1.00  0.00     0.085 C 
ATOM     12  H   UNL     1     -47.115  39.055  28.782  1.00  0.00     0.065 H 
ATOM     13  H   UNL     1     -45.412  35.676  29.494  1.00  0.00     0.033 H 
ATOM     14  H   UNL     1     -47.584  36.973  27.770  1.00  0.00     0.063 H 
BRANCH   5  15
ATOM     15  N   UNL     1     -44.691  39.515  27.966  1.00  0.00    -0.324 N 
ATOM     16  C   UNL     1     -45.296  40.105  26.869  1.00  0.00     0.018 A 
ATOM     17  C   UNL     1     -44.607  41.278  26.602  1.00  0.00    -0.028 A 
ATOM     18  C   UNL     1     -43.600  41.443  27.587  1.00  0.00     0.061 A 
ATOM     19  H   UNL     1     -44.830  41.966  25.797  1.00  0.00     0.065 H 
ATOM     20  C   UNL     1     -43.692  40.352  28.433  1.00  0.00     0.146 A 
ATOM     21  C   UNL     1     -42.621  42.400  27.886  1.00  0.00     0.136 A 
ATOM     22  N   UNL     1     -42.944  40.138  29.531  1.00  0.00    -0.218 NA
ATOM     23  N   UNL     1     -41.837  42.214  28.964  1.00  0.00    -0.219 NA
ATOM     24  C   UNL     1     -42.042  41.116  29.717  1.00  0.00     0.120 A 
ATOM     25  H   UNL     1     -41.394  41.009  30.581  1.00  0.00     0.106 H 
BRANCH  16  26
ATOM     26  C   UNL     1     -46.471  39.569  26.129  1.00  0.00    -0.024 C 
ATOM     27  H   UNL     1     -46.423  39.853  25.074  1.00  0.00     0.029 H 
ATOM     28  H   UNL     1     -47.400  39.981  26.540  1.00  0.00     0.029 H 
ATOM     29  H   UNL     1     -46.545  38.482  26.204  1.00  0.00     0.029 H 
ENDBRANCH  16  26
BRANCH  21  30
ATOM     30  N   UNL     1     -42.399  43.539  27.125  1.00  0.00    -0.383 N 
ATOM     31  H   UNL     1     -41.577  43.501  26.538  1.00  0.00     0.158 HD
ATOM     32  H   UNL     1     -42.513  44.372  27.690  1.00  0.00     0.158 HD
ENDBRANCH  21  30
ENDBRANCH   5  15
BRANCH   7  33
ATOM     33  O   UNL     1     -46.513  38.311  30.594  1.00  0.00    -0.388 OA
ATOM     34  H   UNL     1     -45.585  38.245  30.898  1.00  0.00     0.211 HD
ENDBRANCH   7  33
BRANCH  11  35
ATOM     35  O   UNL     1     -47.912  36.331  29.692  1.00  0.00    -0.390 OA
ATOM     36  H   UNL     1     -47.623  36.726  30.543  1.00  0.00     0.211 HD
ENDBRANCH  11  35
ENDBRANCH   1   4
BRANCH   1  37
ATOM     37  C   UNL     1     -46.873  35.018  26.406  1.00  0.00    -0.027 C 
ATOM     38  H   UNL     1     -47.753  35.618  26.671  1.00  0.00     0.032 H 
ATOM     39  H   UNL     1     -46.313  35.603  25.668  1.00  0.00     0.032 H 
BRANCH  37  40
ATOM     40  C   UNL     1     -47.317  33.728  25.761  1.00  0.00    -0.046 A 
ATOM     41  C   UNL     1     -48.569  33.180  26.049  1.00  0.00    -0.058 A 
ATOM     42  C   UNL     1     -46.463  33.045  24.879  1.00  0.00    -0.033 A 
ATOM     43  C   UNL     1     -48.957  31.979  25.459  1.00  0.00    -0.053 A 
ATOM     44  H   UNL     1     -49.248  33.685  26.732  1.00  0.00     0.063 H 
ATOM     45  C   UNL     1     -46.823  31.844  24.279  1.00  0.00     0.073 A 
ATOM     46  H   UNL     1     -45.484  33.460  24.648  1.00  0.00     0.065 H 
ATOM     47  C   UNL     1     -48.092  31.309  24.578  1.00  0.00     0.000 A 
ATOM     48  H   UNL     1     -49.937  31.567  25.690  1.00  0.00     0.063 H 
ATOM     49  N   UNL     1     -45.960  31.234  23.446  1.00  0.00    -0.231 NA
ATOM     50  C   UNL     1     -48.452  30.103  23.968  1.00  0.00    -0.049 A 
ATOM     51  C   UNL     1     -46.328  30.074  22.877  1.00  0.00     0.124 A 
ATOM     52  C   UNL     1     -47.559  29.480  23.103  1.00  0.00    -0.019 A 
ATOM     53  H   UNL     1     -49.421  29.650  24.153  1.00  0.00     0.063 H 
ATOM     54  H   UNL     1     -47.825  28.554  22.607  1.00  0.00     0.066 H 
BRANCH  51  55
ATOM     55  N   UNL     1     -45.412  29.492  22.005  1.00  0.00    -0.384 N 
ATOM     56  H   UNL     1     -44.721  30.164  21.691  1.00  0.00     0.158 HD
ATOM     57  H   UNL     1     -45.950  29.113  21.229  1.00  0.00     0.158 HD
ENDBRANCH  51  55
ENDBRANCH  37  40
ENDBRANCH   1  37
TORSDOF 9
ENDMDL
MODEL 2
REMARK VINA RESULT:      -9.6      1.320      2.235
REMARK SMILES Cc1cc2c(N)ncnc2n1[C@@H]1C[C@H](CCc2ccc3ccc(N)nc3c2)[C@@H](O)[C@H]1O
REMARK SMILES IDX 15 1 14 4 12 5 13 6 30 7 28 11 11 15 2 16 3 17 4 18 10 20
REMARK SMILES IDX 5 21 9 22 7 23 8 24 1 26 6 30 31 33 29 35 16 37 17 40 18 41
REMARK SMILES IDX 27 42 19 43 26 45 20 47 25 49 21 50 23 51 22 52 24 55
REMARK H PARENT 15 2 15 3 12 8 13 9 13 10 30 12 14 13 28 14 3 19 8 25 1 27
REMARK H PARENT 1 28 1 29 6 31 6 32 31 34 29 36 16 38 16 39 18 44 27 46 19 48
REMARK H PARENT 21 53 22 54 24 56 24 57
REMARK Flexibility Score: inf
ROOT
ATOM      1  C   UNL     1     -46.952  36.230  26.508  1.00  0.00    -0.044 C 
ATOM      2  H   UNL     1     -46.402  36.534  25.606  1.00  0.00     0.027 H 
ATOM      3  H   UNL     1     -48.009  36.181  26.217  1.00  0.00     0.027 H 
ENDROOT
BRANCH   1   4
ATOM      4  C   UNL     1     -46.756  37.309  27.579  1.00  0.00    -0.010 C 
ATOM      5  C   UNL     1     -45.389  39.094  28.441  1.00  0.00     0.064 C 
ATOM      6  C   UNL     1     -45.300  37.785  27.645  1.00  0.00    -0.024 C 
ATOM      7  C   UNL     1     -46.800  39.662  28.200  1.00  0.00     0.101 C 
ATOM      8  H   UNL     1     -45.324  38.795  29.496  1.00  0.00     0.056 H 
ATOM      9  H   UNL     1     -44.660  37.054  28.150  1.00  0.00     0.029 H 
ATOM     10  H   UNL     1     -44.896  37.924  26.641  1.00  0.00     0.029 H 
ATOM     11  C   UNL     1     -47.513  38.616  27.322  1.00  0.00     0.085 C 
ATOM     12  H   UNL     1     -46.815  40.647  27.720  1.00  0.00     0.065 H 
ATOM     13  H   UNL     1     -47.055  36.895  28.551  1.00  0.00     0.033 H 
ATOM     14  H   UNL     1     -47.438  38.894  26.264  1.00  0.00     0.063 H 
BRANCH   5  15
ATOM     15  N   UNL     1     -44.332  40.069  28.226  1.00  0.00    -0.324 N 
ATOM     16  C   UNL     1     -43.175  40.277  28.959  1.00  0.00     0.018 A 
ATOM     17  C   UNL     1     -42.489  41.318  28.353  1.00  0.00    -0.028 A 
ATOM     18  C   UNL     1     -43.204  41.716  27.195  1.00  0.00     0.061 A 
ATOM     19  H   UNL     1     -41.546  41.727  28.692  1.00  0.00     0.065 H 
ATOM     20  C   UNL     1     -44.326  40.908  27.126  1.00  0.00     0.146 A 
ATOM     21  C   UNL     1     -43.033  42.656  26.169  1.00  0.00     0.136 A 
ATOM     22  N   UNL     1     -45.255  40.927  26.153  1.00  0.00    -0.218 NA
ATOM     23  N   UNL     1     -43.950  42.722  25.187  1.00  0.00    -0.219 NA
ATOM     24  C   UNL     1     -44.988  41.865  25.229  1.00  0.00     0.120 A 
ATOM     25  H   UNL     1     -45.700  41.946  24.413  1.00  0.00     0.106 H 
BRANCH  16  26
ATOM     26  C   UNL     1     -42.759  39.513  30.167  1.00  0.00    -0.024 C 
ATOM     27  H   UNL     1     -43.175  39.968  31.071  1.00  0.00     0.029 H 
ATOM     28  H   UNL     1     -41.668  39.521  30.265  1.00  0.00     0.029 H 
ATOM     29  H   UNL     1     -43.067  38.467  30.118  1.00  0.00     0.029 H 
ENDBRANCH  16  26
BRANCH  21  30
ATOM     30  N   UNL     1     -41.967  43.543  26.108  1.00  0.00    -0.383 N 
ATOM     31  H   UNL     1     -41.364  43.425  25.307  1.00  0.00     0.158 HD
ATOM     32  H   UNL     1     -41.510  43.613  27.010  1.00  0.00     0.158 HD
ENDBRANCH  21  30
ENDBRANCH   5  15
BRANCH   7  33
ATOM     33  O   UNL     1     -47.513  39.785  29.444  1.00  0.00    -0.388 OA
ATOM     34  H   UNL     1     -48.287  39.191  29.385  1.00  0.00     0.211 HD
ENDBRANCH   7  33
BRANCH  11  35
ATOM     35  O   UNL     1     -48.885  38.503  27.665  1.00  0.00    -0.390 OA
ATOM     36  H   UNL     1     -48.895  38.363  28.637  1.00  0.00     0.211 HD
ENDBRANCH  11  35
ENDBRANCH   1   4
BRANCH   1  37
ATOM     37  C   UNL     1     -46.480  34.841  26.946  1.00  0.00    -0.027 C 
ATOM     38  H   UNL     1     -45.385  34.775  26.886  1.00  0.00     0.032 H 
ATOM     39  H   UNL     1     -46.742  34.653  27.993  1.00  0.00     0.032 H 
BRANCH  37  40
ATOM     40  C   UNL     1     -47.097  33.759  26.093  1.00  0.00    -0.046 A 
ATOM     41  C   UNL     1     -48.446  33.427  26.227  1.00  0.00    -0.058 A 
ATOM     42  C   UNL     1     -46.311  33.051  25.168  1.00  0.00    -0.033 A 
ATOM     43  C   UNL     1     -48.996  32.413  25.445  1.00  0.00    -0.053 A 
ATOM     44  H   UNL     1     -49.076  33.955  26.940  1.00  0.00     0.063 H 
ATOM     45  C   UNL     1     -46.833  32.034  24.378  1.00  0.00     0.073 A 
ATOM     46  H   UNL     1     -45.257  33.298  25.055  1.00  0.00     0.065 H 
ATOM     47  C   UNL     1     -48.198  31.716  24.523  1.00  0.00     0.000 A 
ATOM     48  H   UNL     1     -50.050  32.170  25.558  1.00  0.00     0.063 H 
ATOM     49  N   UNL     1     -46.029  31.389  23.511  1.00  0.00    -0.231 NA
ATOM     50  C   UNL     1     -48.719  30.695  23.721  1.00  0.00    -0.049 A 
ATOM     51  C   UNL     1     -46.554  30.409  22.757  1.00  0.00     0.124 A 
ATOM     52  C   UNL     1     -47.886  30.036  22.824  1.00  0.00    -0.019 A 
ATOM     53  H   UNL     1     -49.766  30.416  23.784  1.00  0.00     0.063 H 
ATOM     54  H   UNL     1     -48.275  29.255  22.182  1.00  0.00     0.066 H 
BRANCH  51  55
ATOM     55  N   UNL     1     -45.691  29.786  21.860  1.00  0.00    -0.384 N 
ATOM     56  H   UNL     1     -44.828  29.502  22.312  1.00  0.00     0.158 HD
ATOM     57  H   UNL     1     -45.522  30.451  21.109  1.00  0.00     0.158 HD
ENDBRANCH  51  55
ENDBRANCH  37  40
ENDBRANCH   1  37
TORSDOF 9
ENDMDL
MODEL 3
REMARK VINA RESULT:      -9.5      1.607      2.103
REMARK SMILES Cc1cc2c(N)ncnc2n1[C@@H]1C[C@H](CCc2ccc3ccc(N)nc3c2)[C@@H](O)[C@H]1O
REMARK SMILES IDX 15 1 14 4 12 5 13 6 30 7 28 11 11 15 2 16 3 17 4 18 10 20
REMARK SMILES IDX 5 21 9 22 7 23 8 24 1 26 6 30 31 33 29 35 16 37 17 40 18 41
REMARK SMILES IDX 27 42 19 43 26 45 20 47 25 49 21 50 23 51 22 52 24 55
REMARK H PARENT 15 2 15 3 12 8 13 9 13 10 30 12 14 13 28 14 3 19 8 25 1 27
REMARK H PARENT 1 28 1 29 6 31 6 32 31 34 29 36 16 38 16 39 18 44 27 46 19 48
REMARK H PARENT 21 53 22 54 24 56 24 57
REMARK Flexibility Score: inf
ROOT
ATOM      1  C   UNL     1     -46.154  34.743  27.639  1.00  0.00    -0.044 C 
ATOM      2  H   UNL     1     -46.768  34.281  28.424  1.00  0.00     0.027 H 
ATOM      3  H   UNL     1     -45.307  34.063  27.477  1.00  0.00     0.027 H 
ENDROOT
BRANCH   1   4
ATOM      4  C   UNL     1     -45.645  36.093  28.158  1.00  0.00    -0.010 C 
ATOM      5  C   UNL     1     -45.655  38.490  27.937  1.00  0.00     0.064 C 
ATOM      6  C   UNL     1     -45.826  37.204  27.118  1.00  0.00    -0.024 C 
ATOM      7  C   UNL     1     -46.076  38.153  29.380  1.00  0.00     0.101 C 
ATOM      8  H   UNL     1     -44.575  38.690  27.941  1.00  0.00     0.056 H 
ATOM      9  H   UNL     1     -45.076  37.137  26.322  1.00  0.00     0.029 H 
ATOM     10  H   UNL     1     -46.804  37.129  26.641  1.00  0.00     0.029 H 
ATOM     11  C   UNL     1     -46.410  36.649  29.363  1.00  0.00     0.085 C 
ATOM     12  H   UNL     1     -46.926  38.735  29.751  1.00  0.00     0.065 H 
ATOM     13  H   UNL     1     -44.581  35.991  28.411  1.00  0.00     0.033 H 
ATOM     14  H   UNL     1     -47.488  36.502  29.227  1.00  0.00     0.063 H 
BRANCH   5  15
ATOM     15  N   UNL     1     -46.290  39.691  27.419  1.00  0.00    -0.324 N 
ATOM     16  C   UNL     1     -47.623  40.065  27.469  1.00  0.00     0.018 A 
ATOM     17  C   UNL     1     -47.727  41.296  26.840  1.00  0.00    -0.028 A 
ATOM     18  C   UNL     1     -46.429  41.714  26.450  1.00  0.00     0.061 A 
ATOM     19  H   UNL     1     -48.644  41.855  26.707  1.00  0.00     0.065 H 
ATOM     20  C   UNL     1     -45.557  40.714  26.844  1.00  0.00     0.146 A 
ATOM     21  C   UNL     1     -45.871  42.835  25.822  1.00  0.00     0.136 A 
ATOM     22  N   UNL     1     -44.219  40.732  26.701  1.00  0.00    -0.218 NA
ATOM     23  N   UNL     1     -44.538  42.883  25.641  1.00  0.00    -0.219 NA
ATOM     24  C   UNL     1     -43.798  41.851  26.088  1.00  0.00     0.120 A 
ATOM     25  H   UNL     1     -42.727  41.933  25.930  1.00  0.00     0.106 H 
BRANCH  16  26
ATOM     26  C   UNL     1     -48.724  39.281  28.092  1.00  0.00    -0.024 C 
ATOM     27  H   UNL     1     -48.334  38.628  28.879  1.00  0.00     0.029 H 
ATOM     28  H   UNL     1     -49.208  38.643  27.345  1.00  0.00     0.029 H 
ATOM     29  H   UNL     1     -49.501  39.924  28.513  1.00  0.00     0.029 H 
ENDBRANCH  16  26
BRANCH  21  30
ATOM     30  N   UNL     1     -46.617  43.910  25.360  1.00  0.00    -0.383 N 
ATOM     31  H   UNL     1     -46.428  44.175  24.403  1.00  0.00     0.158 HD
ATOM     32  H   UNL     1     -46.623  44.659  26.043  1.00  0.00     0.158 HD
ENDBRANCH  21  30
ENDBRANCH   5  15
BRANCH   7  33
ATOM     33  O   UNL     1     -44.982  38.374  30.288  1.00  0.00    -0.388 OA
ATOM     34  H   UNL     1     -44.793  39.334  30.273  1.00  0.00     0.211 HD
ENDBRANCH   7  33
BRANCH  11  35
ATOM     35  O   UNL     1     -46.013  36.019  30.571  1.00  0.00    -0.390 OA
ATOM     36  H   UNL     1     -45.042  36.151  30.622  1.00  0.00     0.211 HD
ENDBRANCH  11  35
ENDBRANCH   1   4
BRANCH   1  37
ATOM     37  C   UNL     1     -46.974  34.852  26.351  1.00  0.00    -0.027 C 
ATOM     38  H   UNL     1     -47.903  35.406  26.538  1.00  0.00     0.032 H 
ATOM     39  H   UNL     1     -46.426  35.417  25.588  1.00  0.00     0.032 H 
BRANCH  37  40
ATOM     40  C   UNL     1     -47.304  33.488  25.795  1.00  0.00    -0.046 A 
ATOM     41  C   UNL     1     -48.400  32.768  26.274  1.00  0.00    -0.058 A 
ATOM     42  C   UNL     1     -46.492  32.911  24.803  1.00  0.00    -0.033 A 
ATOM     43  C   UNL     1     -48.681  31.502  25.763  1.00  0.00    -0.053 A 
ATOM     44  H   UNL     1     -49.042  33.188  27.045  1.00  0.00     0.063 H 
ATOM     45  C   UNL     1     -46.747  31.649  24.278  1.00  0.00     0.073 A 
ATOM     46  H   UNL     1     -45.634  33.461  24.423  1.00  0.00     0.065 H 
ATOM     47  C   UNL     1     -47.861  30.940  24.770  1.00  0.00     0.000 A 
ATOM     48  H   UNL     1     -49.541  30.956  26.143  1.00  0.00     0.063 H 
ATOM     49  N   UNL     1     -45.932  31.148  23.332  1.00  0.00    -0.231 NA
ATOM     50  C   UNL     1     -48.116  29.673  24.235  1.00  0.00    -0.049 A 
ATOM     51  C   UNL     1     -46.196  29.927  22.839  1.00  0.00     0.124 A 
ATOM     52  C   UNL     1     -47.274  29.162  23.253  1.00  0.00    -0.019 A 
ATOM     53  H   UNL     1     -48.966  29.086  24.569  1.00  0.00     0.063 H 
ATOM     54  H   UNL     1     -47.465  28.190  22.814  1.00  0.00     0.066 H 
BRANCH  51  55
ATOM     55  N   UNL     1     -45.339  29.460  21.846  1.00  0.00    -0.384 N 
ATOM     56  H   UNL     1     -44.474  29.106  22.239  1.00  0.00     0.158 HD
ATOM     57  H   UNL     1     -45.175  30.239  21.213  1.00  0.00     0.158 HD
ENDBRANCH  51  55
ENDBRANCH  37  40
ENDBRANCH   1  37
TORSDOF 9
ENDMDL
MODEL 4
REMARK VINA RESULT:      -9.4      1.780      2.270
REMARK SMILES Cc1cc2c(N)ncnc2n1[C@@H]1C[C@H](CCc2ccc3ccc(N)nc3c2)[C@@H](O)[C@H]1O
REMARK SMILES IDX 15 1 14 4 12 5 13 6 30 7 28 11 11 15 2 16 3 17 4 18 10 20
REMARK SMILES IDX 5 21 9 22 7 23 8 24 1 26 6 30 31 33 29 35 16 37 17 40 18 41
REMARK SMILES IDX 27 42 19 43 26 45 20 47 25 49 21 50 23 51 22 52 24 55
REMARK H PARENT 15 2 15 3 12 8 13 9 13 10 30 12 14 13 28 14 3 19 8 25 1 27
REMARK H PARENT 1 28 1 29 6 31 6 32 31 34 29 36 16 38 16 39 18 44 27 46 19 48
REMARK H PARENT 21 53 22 54 24 56 24 57
REMARK Flexibility Score: inf
ROOT
ATOM      1  C   UNL     1     -46.790  35.501  28.702  1.00  0.00    -0.044 C 
ATOM      2  H   UNL     1     -47.441  35.513  29.586  1.00  0.00     0.027 H 
ATOM      3  H   UNL     1     -46.289  34.525  28.706  1.00  0.00     0.027 H 
ENDROOT
BRANCH   1   4
ATOM      4  C   UNL     1     -45.752  36.619  28.854  1.00  0.00    -0.010 C 
ATOM      5  C   UNL     1     -44.924  38.744  28.082  1.00  0.00     0.064 C 
ATOM      6  C   UNL     1     -45.675  37.497  27.599  1.00  0.00    -0.024 C 
ATOM      7  C   UNL     1     -45.210  38.875  29.590  1.00  0.00     0.101 C 
ATOM      8  H   UNL     1     -43.859  38.506  27.962  1.00  0.00     0.056 H 
ATOM      9  H   UNL     1     -45.134  36.995  26.790  1.00  0.00     0.029 H 
ATOM     10  H   UNL     1     -46.675  37.719  27.224  1.00  0.00     0.029 H 
ATOM     11  C   UNL     1     -46.066  37.645  29.947  1.00  0.00     0.085 C 
ATOM     12  H   UNL     1     -45.722  39.801  29.874  1.00  0.00     0.065 H 
ATOM     13  H   UNL     1     -44.772  36.162  29.047  1.00  0.00     0.033 H 
ATOM     14  H   UNL     1     -47.131  37.905  29.927  1.00  0.00     0.063 H 
BRANCH   5  15
ATOM     15  N   UNL     1     -45.152  39.977  27.345  1.00  0.00    -0.324 N 
ATOM     16  C   UNL     1     -46.338  40.491  26.848  1.00  0.00     0.018 A 
ATOM     17  C   UNL     1     -46.036  41.691  26.225  1.00  0.00    -0.028 A 
ATOM     18  C   UNL     1     -44.652  41.950  26.393  1.00  0.00     0.061 A 
ATOM     19  H   UNL     1     -46.749  42.336  25.728  1.00  0.00     0.065 H 
ATOM     20  C   UNL     1     -44.135  40.886  27.112  1.00  0.00     0.146 A 
ATOM     21  C   UNL     1     -43.760  42.973  26.040  1.00  0.00     0.136 A 
ATOM     22  N   UNL     1     -42.861  40.756  27.524  1.00  0.00    -0.218 NA
ATOM     23  N   UNL     1     -42.472  42.871  26.414  1.00  0.00    -0.219 NA
ATOM     24  C   UNL     1     -42.101  41.791  27.128  1.00  0.00     0.120 A 
ATOM     25  H   UNL     1     -41.055  41.752  27.418  1.00  0.00     0.106 H 
BRANCH  16  26
ATOM     26  C   UNL     1     -47.681  39.861  26.975  1.00  0.00    -0.024 C 
ATOM     27  H   UNL     1     -47.988  39.820  28.025  1.00  0.00     0.029 H 
ATOM     28  H   UNL     1     -47.656  38.832  26.600  1.00  0.00     0.029 H 
ATOM     29  H   UNL     1     -48.442  40.392  26.399  1.00  0.00     0.029 H 
ENDBRANCH  16  26
BRANCH  21  30
ATOM     30  N   UNL     1     -44.126  44.094  25.309  1.00  0.00    -0.383 N 
ATOM     31  H   UNL     1     -44.409  43.905  24.358  1.00  0.00     0.158 HD
ATOM     32  H   UNL     1     -43.451  44.839  25.440  1.00  0.00     0.158 HD
ENDBRANCH  21  30
ENDBRANCH   5  15
BRANCH   7  33
ATOM     33  O   UNL     1     -43.984  38.821  30.341  1.00  0.00    -0.388 OA
ATOM     34  H   UNL     1     -43.588  37.943  30.170  1.00  0.00     0.211 HD
ENDBRANCH   7  33
BRANCH  11  35
ATOM     35  O   UNL     1     -45.744  37.150  31.238  1.00  0.00    -0.390 OA
ATOM     36  H   UNL     1     -46.304  36.352  31.353  1.00  0.00     0.211 HD
ENDBRANCH  11  35
ENDBRANCH   1   4
BRANCH   1  37
ATOM     37  C   UNL     1     -47.646  35.629  27.438  1.00  0.00    -0.027 C 
ATOM     38  H   UNL     1     -48.707  35.717  27.706  1.00  0.00     0.032 H 
ATOM     39  H   UNL     1     -47.391  36.541  26.886  1.00  0.00     0.032 H 
BRANCH  37  40
ATOM     40  C   UNL     1     -47.453  34.443  26.525  1.00  0.00    -0.046 A 
ATOM     41  C   UNL     1     -46.207  34.176  25.955  1.00  0.00    -0.058 A 
ATOM     42  C   UNL     1     -48.537  33.604  26.215  1.00  0.00    -0.033 A 
ATOM     43  C   UNL     1     -46.050  33.087  25.099  1.00  0.00    -0.053 A 
ATOM     44  H   UNL     1     -45.352  34.812  26.174  1.00  0.00     0.063 H 
ATOM     45  C   UNL     1     -48.410  32.513  25.362  1.00  0.00     0.073 A 
ATOM     46  H   UNL     1     -49.514  33.802  26.651  1.00  0.00     0.065 H 
ATOM     47  C   UNL     1     -47.143  32.256  24.801  1.00  0.00     0.000 A 
ATOM     48  H   UNL     1     -45.072  32.889  24.667  1.00  0.00     0.063 H 
ATOM     49  N   UNL     1     -49.485  31.748  25.100  1.00  0.00    -0.231 NA
ATOM     50  C   UNL     1     -47.019  31.154  23.948  1.00  0.00    -0.049 A 
ATOM     51  C   UNL     1     -49.340  30.699  24.273  1.00  0.00     0.124 A 
ATOM     52  C   UNL     1     -48.132  30.363  23.684  1.00  0.00    -0.019 A 
ATOM     53  H   UNL     1     -46.065  30.903  23.495  1.00  0.00     0.063 H 
ATOM     54  H   UNL     1     -48.052  29.496  23.041  1.00  0.00     0.066 H 
BRANCH  51  55
ATOM     55  N   UNL     1     -50.474  29.923  24.050  1.00  0.00    -0.384 N 
ATOM     56  H   UNL     1     -51.109  29.959  24.839  1.00  0.00     0.158 HD
ATOM     57  H   UNL     1     -50.148  28.977  23.870  1.00  0.00     0.158 HD
ENDBRANCH  51  55
ENDBRANCH  37  40
ENDBRANCH   1  37
TORSDOF 9
ENDMDL
MODEL 5
REMARK VINA RESULT:      -9.2      1.818      9.990
REMARK SMILES Cc1cc2c(N)ncnc2n1[C@@H]1C[C@H](CCc2ccc3ccc(N)nc3c2)[C@@H](O)[C@H]1O
REMARK SMILES IDX 15 1 14 4 12 5 13 6 30 7 28 11 11 15 2 16 3 17 4 18 10 20
REMARK SMILES IDX 5 21 9 22 7 23 8 24 1 26 6 30 31 33 29 35 16 37 17 40 18 41
REMARK SMILES IDX 27 42 19 43 26 45 20 47 25 49 21 50 23 51 22 52 24 55
REMARK H PARENT 15 2 15 3 12 8 13 9 13 10 30 12 14 13 28 14 3 19 8 25 1 27
REMARK H PARENT 1 28 1 29 6 31 6 32 31 34 29 36 16 38 16 39 18 44 27 46 19 48
REMARK H PARENT 21 53 22 54 24 56 24 57
REMARK Flexibility Score: inf
ROOT
ATOM      1  C   UNL     1     -47.816  36.303  27.108  1.00  0.00    -0.044 C 
ATOM      2  H   UNL     1     -48.875  36.575  27.001  1.00  0.00     0.027 H 
ATOM      3  H   UNL     1     -47.304  36.725  26.233  1.00  0.00     0.027 H 
ENDROOT
BRANCH   1   4
ATOM      4  C   UNL     1     -47.708  34.774  27.086  1.00  0.00    -0.010 C 
ATOM      5  C   UNL     1     -48.265  32.711  25.976  1.00  0.00     0.064 C 
ATOM      6  C   UNL     1     -48.777  34.141  26.188  1.00  0.00    -0.024 C 
ATOM      7  C   UNL     1     -46.732  32.767  26.115  1.00  0.00     0.101 C 
ATOM      8  H   UNL     1     -48.657  32.134  26.824  1.00  0.00     0.056 H 
ATOM      9  H   UNL     1     -49.760  34.145  26.671  1.00  0.00     0.029 H 
ATOM     10  H   UNL     1     -48.877  34.701  25.257  1.00  0.00     0.029 H 
ATOM     11  C   UNL     1     -46.411  34.229  26.478  1.00  0.00     0.085 C 
ATOM     12  H   UNL     1     -46.185  32.461  25.216  1.00  0.00     0.065 H 
ATOM     13  H   UNL     1     -47.818  34.401  28.113  1.00  0.00     0.033 H 
ATOM     14  H   UNL     1     -46.150  34.795  25.576  1.00  0.00     0.063 H 
BRANCH   5  15
ATOM     15  N   UNL     1     -48.709  32.023  24.775  1.00  0.00    -0.324 N 
ATOM     16  C   UNL     1     -49.982  31.943  24.235  1.00  0.00     0.018 A 
ATOM     17  C   UNL     1     -49.891  31.178  23.083  1.00  0.00    -0.028 A 
ATOM     18  C   UNL     1     -48.532  30.833  22.877  1.00  0.00     0.061 A 
ATOM     19  H   UNL     1     -50.719  30.924  22.433  1.00  0.00     0.065 H 
ATOM     20  C   UNL     1     -47.819  31.391  23.925  1.00  0.00     0.146 A 
ATOM     21  C   UNL     1     -47.799  30.125  21.914  1.00  0.00     0.136 A 
ATOM     22  N   UNL     1     -46.485  31.337  24.089  1.00  0.00    -0.218 NA
ATOM     23  N   UNL     1     -46.464  30.029  22.053  1.00  0.00    -0.219 NA
ATOM     24  C   UNL     1     -45.890  30.635  23.110  1.00  0.00     0.120 A 
ATOM     25  H   UNL     1     -44.811  30.541  23.180  1.00  0.00     0.106 H 
BRANCH  16  26
ATOM     26  C   UNL     1     -51.208  32.573  24.798  1.00  0.00    -0.024 C 
ATOM     27  H   UNL     1     -51.623  33.302  24.095  1.00  0.00     0.029 H 
ATOM     28  H   UNL     1     -50.970  33.108  25.724  1.00  0.00     0.029 H 
ATOM     29  H   UNL     1     -51.975  31.836  25.044  1.00  0.00     0.029 H 
ENDBRANCH  16  26
BRANCH  21  30
ATOM     30  N   UNL     1     -48.373  29.499  20.817  1.00  0.00    -0.383 N 
ATOM     31  H   UNL     1     -48.135  29.909  19.924  1.00  0.00     0.158 HD
ATOM     32  H   UNL     1     -49.356  29.320  20.984  1.00  0.00     0.158 HD
ENDBRANCH  21  30
ENDBRANCH   5  15
BRANCH   7  33
ATOM     33  O   UNL     1     -46.292  31.915  27.188  1.00  0.00    -0.388 OA
ATOM     34  H   UNL     1     -47.016  31.897  27.847  1.00  0.00     0.211 HD
ENDBRANCH   7  33
BRANCH  11  35
ATOM     35  O   UNL     1     -45.329  34.308  27.394  1.00  0.00    -0.390 OA
ATOM     36  H   UNL     1     -45.703  34.023  28.256  1.00  0.00     0.211 HD
ENDBRANCH  11  35
ENDBRANCH   1   4
BRANCH   1  37
ATOM     37  C   UNL     1     -47.253  36.937  28.383  1.00  0.00    -0.027 C 
ATOM     38  H   UNL     1     -48.070  37.320  29.009  1.00  0.00     0.032 H 
ATOM     39  H   UNL     1     -46.725  36.192  28.988  1.00  0.00     0.032 H 
BRANCH  37  40
ATOM     40  C   UNL     1     -46.298  38.061  28.059  1.00  0.00    -0.046 A 
ATOM     41  C   UNL     1     -46.381  38.739  26.841  1.00  0.00    -0.058 A 
ATOM     42  C   UNL     1     -45.292  38.421  28.972  1.00  0.00    -0.033 A 
ATOM     43  C   UNL     1     -45.480  39.762  26.550  1.00  0.00    -0.053 A 
ATOM     44  H   UNL     1     -47.146  38.477  26.115  1.00  0.00     0.063 H 
ATOM     45  C   UNL     1     -44.379  39.435  28.706  1.00  0.00     0.073 A 
ATOM     46  H   UNL     1     -45.216  37.899  29.923  1.00  0.00     0.065 H 
ATOM     47  C   UNL     1     -44.481  40.112  27.475  1.00  0.00     0.000 A 
ATOM     48  H   UNL     1     -45.561  40.285  25.600  1.00  0.00     0.063 H 
ATOM     49  N   UNL     1     -43.435  39.732  29.619  1.00  0.00    -0.231 NA
ATOM     50  C   UNL     1     -43.563  41.135  27.215  1.00  0.00    -0.049 A 
ATOM     51  C   UNL     1     -42.563  40.715  29.341  1.00  0.00     0.124 A 
ATOM     52  C   UNL     1     -42.594  41.443  28.163  1.00  0.00    -0.019 A 
ATOM     53  H   UNL     1     -43.601  41.697  26.287  1.00  0.00     0.063 H 
ATOM     54  H   UNL     1     -41.885  42.243  27.987  1.00  0.00     0.066 H 
BRANCH  51  55
ATOM     55  N   UNL     1     -41.619  41.003  30.324  1.00  0.00    -0.384 N 
ATOM     56  H   UNL     1     -42.058  41.161  31.224  1.00  0.00     0.158 HD
ATOM     57  H   UNL     1     -41.108  41.822  30.005  1.00  0.00     0.158 HD
ENDBRANCH  51  55
ENDBRANCH  37  40
ENDBRANCH   1  37
TORSDOF 9
ENDMDL
MODEL 6
REMARK VINA RESULT:      -9.1      2.448      3.668
REMARK SMILES Cc1cc2c(N)ncnc2n1[C@@H]1C[C@H](CCc2ccc3ccc(N)nc3c2)[C@@H](O)[C@H]1O
REMARK SMILES IDX 15 1 14 4 12 5 13 6 30 7 28 11 11 15 2 16 3 17 4 18 10 20
REMARK SMILES IDX 5 21 9 22 7 23 8 24 1 26 6 30 31 33 29 35 16 37 17 40 18 41
REMARK SMILES IDX 27 42 19 43 26 45 20 47 25 49 21 50 23 51 22 52 24 55
REMARK H PARENT 15 2 15 3 12 8 13 9 13 10 30 12 14 13 28 14 3 19 8 25 1 27
REMARK H PARENT 1 28 1 29 6 31 6 32 31 34 29 36 16 38 16 39 18 44 27 46 19 48
REMARK H PARENT 21 53 22 54 24 56 24 57
REMARK Flexibility Score: inf
ROOT
ATOM      1  C   UNL     1     -46.510  34.772  28.150  1.00  0.00    -0.044 C 
ATOM      2  H   UNL     1     -47.029  34.477  29.072  1.00  0.00     0.027 H 
ATOM      3  H   UNL     1     -45.766  33.989  27.955  1.00  0.00     0.027 H 
ENDROOT
BRANCH   1   4
ATOM      4  C   UNL     1     -45.804  36.109  28.401  1.00  0.00    -0.010 C 
ATOM      5  C   UNL     1     -45.659  38.459  27.897  1.00  0.00     0.064 C 
ATOM      6  C   UNL     1     -46.087  37.120  27.284  1.00  0.00    -0.024 C 
ATOM      7  C   UNL     1     -45.824  38.319  29.422  1.00  0.00     0.101 C 
ATOM      8  H   UNL     1     -44.585  38.546  27.683  1.00  0.00     0.056 H 
ATOM      9  H   UNL     1     -45.510  36.893  26.381  1.00  0.00     0.029 H 
ATOM     10  H   UNL     1     -47.141  37.097  27.003  1.00  0.00     0.029 H 
ATOM     11  C   UNL     1     -46.277  36.864  29.647  1.00  0.00     0.085 C 
ATOM     12  H   UNL     1     -46.538  39.021  29.866  1.00  0.00     0.065 H 
ATOM     13  H   UNL     1     -44.723  35.926  28.470  1.00  0.00     0.033 H 
ATOM     14  H   UNL     1     -47.370  36.815  29.726  1.00  0.00     0.063 H 
BRANCH   5  15
ATOM     15  N   UNL     1     -46.280  39.659  27.359  1.00  0.00    -0.324 N 
ATOM     16  C   UNL     1     -45.720  40.658  26.582  1.00  0.00     0.018 A 
ATOM     17  C   UNL     1     -46.719  41.583  26.321  1.00  0.00    -0.028 A 
ATOM     18  C   UNL     1     -47.927  41.115  26.896  1.00  0.00     0.061 A 
ATOM     19  H   UNL     1     -46.597  42.490  25.742  1.00  0.00     0.065 H 
ATOM     20  C   UNL     1     -47.633  39.909  27.509  1.00  0.00     0.146 A 
ATOM     21  C   UNL     1     -49.257  41.553  26.959  1.00  0.00     0.136 A 
ATOM     22  N   UNL     1     -48.511  39.108  28.140  1.00  0.00    -0.218 NA
ATOM     23  N   UNL     1     -50.163  40.792  27.600  1.00  0.00    -0.219 NA
ATOM     24  C   UNL     1     -49.749  39.630  28.139  1.00  0.00     0.120 A 
ATOM     25  H   UNL     1     -50.514  39.042  28.639  1.00  0.00     0.106 H 
BRANCH  16  26
ATOM     26  C   UNL     1     -44.306  40.711  26.117  1.00  0.00    -0.024 C 
ATOM     27  H   UNL     1     -43.630  40.368  26.906  1.00  0.00     0.029 H 
ATOM     28  H   UNL     1     -44.026  41.740  25.868  1.00  0.00     0.029 H 
ATOM     29  H   UNL     1     -44.145  40.111  25.220  1.00  0.00     0.029 H 
ENDBRANCH  16  26
BRANCH  21  30
ATOM     30  N   UNL     1     -49.702  42.745  26.406  1.00  0.00    -0.383 N 
ATOM     31  H   UNL     1     -49.174  43.562  26.679  1.00  0.00     0.158 HD
ATOM     32  H   UNL     1     -50.711  42.816  26.477  1.00  0.00     0.158 HD
ENDBRANCH  21  30
ENDBRANCH   5  15
BRANCH   7  33
ATOM     33  O   UNL     1     -44.563  38.519  30.086  1.00  0.00    -0.388 OA
ATOM     34  H   UNL     1     -44.751  38.547  31.045  1.00  0.00     0.211 HD
ENDBRANCH   7  33
BRANCH  11  35
ATOM     35  O   UNL     1     -45.712  36.325  30.833  1.00  0.00    -0.390 OA
ATOM     36  H   UNL     1     -46.103  35.429  30.918  1.00  0.00     0.211 HD
ENDBRANCH  11  35
ENDBRANCH   1   4
BRANCH   1  37
ATOM     37  C   UNL     1     -47.515  34.819  26.995  1.00  0.00    -0.027 C 
ATOM     38  H   UNL     1     -48.541  34.835  27.384  1.00  0.00     0.032 H 
ATOM     39  H   UNL     1     -47.393  35.738  26.411  1.00  0.00     0.032 H 
BRANCH  37  40
ATOM     40  C   UNL     1     -47.344  33.636  26.073  1.00  0.00    -0.046 A 
ATOM     41  C   UNL     1     -46.330  33.620  25.112  1.00  0.00    -0.058 A 
ATOM     42  C   UNL     1     -48.222  32.542  26.153  1.00  0.00    -0.033 A 
ATOM     43  C   UNL     1     -46.197  32.528  24.257  1.00  0.00    -0.053 A 
ATOM     44  H   UNL     1     -45.640  34.456  25.025  1.00  0.00     0.063 H 
ATOM     45  C   UNL     1     -48.114  31.441  25.311  1.00  0.00     0.073 A 
ATOM     46  H   UNL     1     -49.017  32.543  26.896  1.00  0.00     0.065 H 
ATOM     47  C   UNL     1     -47.082  31.441  24.351  1.00  0.00     0.000 A 
ATOM     48  H   UNL     1     -45.400  32.528  23.517  1.00  0.00     0.063 H 
ATOM     49  N   UNL     1     -48.988  30.425  25.433  1.00  0.00    -0.231 NA
ATOM     50  C   UNL     1     -46.975  30.329  23.510  1.00  0.00    -0.049 A 
ATOM     51  C   UNL     1     -48.865  29.372  24.609  1.00  0.00     0.124 A 
ATOM     52  C   UNL     1     -47.876  29.278  23.644  1.00  0.00    -0.019 A 
ATOM     53  H   UNL     1     -46.193  30.270  22.759  1.00  0.00     0.063 H 
ATOM     54  H   UNL     1     -47.799  28.401  23.013  1.00  0.00     0.066 H 
BRANCH  51  55
ATOM     55  N   UNL     1     -49.777  28.334  24.788  1.00  0.00    -0.384 N 
ATOM     56  H   UNL     1     -49.817  27.731  23.974  1.00  0.00     0.158 HD
ATOM     57  H   UNL     1     -50.676  28.768  24.981  1.00  0.00     0.158 HD
ENDBRANCH  51  55
ENDBRANCH  37  40
ENDBRANCH   1  37
TORSDOF 9
ENDMDL
MODEL 7
REMARK VINA RESULT:      -9.1      3.039      4.725
REMARK SMILES Cc1cc2c(N)ncnc2n1[C@@H]1C[C@H](CCc2ccc3ccc(N)nc3c2)[C@@H](O)[C@H]1O
REMARK SMILES IDX 15 1 14 4 12 5 13 6 30 7 28 11 11 15 2 16 3 17 4 18 10 20
REMARK SMILES IDX 5 21 9 22 7 23 8 24 1 26 6 30 31 33 29 35 16 37 17 40 18 41
REMARK SMILES IDX 27 42 19 43 26 45 20 47 25 49 21 50 23 51 22 52 24 55
REMARK H PARENT 15 2 15 3 12 8 13 9 13 10 30 12 14 13 28 14 3 19 8 25 1 27
REMARK H PARENT 1 28 1 29 6 31 6 32 31 34 29 36 16 38 16 39 18 44 27 46 19 48
REMARK H PARENT 21 53 22 54 24 56 24 57
REMARK Flexibility Score: inf
ROOT
ATOM      1  C   UNL     1     -45.223  38.470  28.222  1.00  0.00    -0.044 C 
ATOM      2  H   UNL     1     -45.090  38.607  29.304  1.00  0.00     0.027 H 
ATOM      3  H   UNL     1     -44.884  37.449  28.001  1.00  0.00     0.027 H 
ENDROOT
BRANCH   1   4
ATOM      4  C   UNL     1     -44.332  39.483  27.495  1.00  0.00    -0.010 C 
ATOM      5  C   UNL     1     -44.196  41.378  26.017  1.00  0.00     0.064 C 
ATOM      6  C   UNL     1     -45.072  40.160  26.336  1.00  0.00    -0.024 C 
ATOM      7  C   UNL     1     -43.467  41.751  27.322  1.00  0.00     0.101 C 
ATOM      8  H   UNL     1     -43.443  41.015  25.304  1.00  0.00     0.056 H 
ATOM      9  H   UNL     1     -45.159  39.494  25.470  1.00  0.00     0.029 H 
ATOM     10  H   UNL     1     -46.086  40.430  26.633  1.00  0.00     0.029 H 
ATOM     11  C   UNL     1     -43.895  40.681  28.344  1.00  0.00     0.085 C 
ATOM     12  H   UNL     1     -43.693  42.756  27.694  1.00  0.00     0.065 H 
ATOM     13  H   UNL     1     -43.446  38.958  27.113  1.00  0.00     0.033 H 
ATOM     14  H   UNL     1     -44.736  41.045  28.945  1.00  0.00     0.063 H 
BRANCH   5  15
ATOM     15  N   UNL     1     -44.848  42.510  25.379  1.00  0.00    -0.324 N 
ATOM     16  C   UNL     1     -46.130  43.001  25.569  1.00  0.00     0.018 A 
ATOM     17  C   UNL     1     -46.278  44.095  24.732  1.00  0.00    -0.028 A 
ATOM     18  C   UNL     1     -45.050  44.319  24.061  1.00  0.00     0.061 A 
ATOM     19  H   UNL     1     -47.174  44.696  24.641  1.00  0.00     0.065 H 
ATOM     20  C   UNL     1     -44.175  43.340  24.500  1.00  0.00     0.146 A 
ATOM     21  C   UNL     1     -44.552  45.250  23.139  1.00  0.00     0.136 A 
ATOM     22  N   UNL     1     -42.884  43.215  24.140  1.00  0.00    -0.218 NA
ATOM     23  N   UNL     1     -43.272  45.148  22.737  1.00  0.00    -0.219 NA
ATOM     24  C   UNL     1     -42.520  44.158  23.256  1.00  0.00     0.120 A 
ATOM     25  H   UNL     1     -41.491  44.117  22.912  1.00  0.00     0.106 H 
BRANCH  16  26
ATOM     26  C   UNL     1     -47.144  42.446  26.508  1.00  0.00    -0.024 C 
ATOM     27  H   UNL     1     -46.837  42.611  27.545  1.00  0.00     0.029 H 
ATOM     28  H   UNL     1     -47.246  41.365  26.362  1.00  0.00     0.029 H 
ATOM     29  H   UNL     1     -48.132  42.883  26.353  1.00  0.00     0.029 H 
ENDBRANCH  16  26
BRANCH  21  30
ATOM     30  N   UNL     1     -45.311  46.279  22.598  1.00  0.00    -0.383 N 
ATOM     31  H   UNL     1     -44.845  46.815  21.880  1.00  0.00     0.158 HD
ATOM     32  H   UNL     1     -45.767  46.808  23.332  1.00  0.00     0.158 HD
ENDBRANCH  21  30
ENDBRANCH   5  15
BRANCH   7  33
ATOM     33  O   UNL     1     -42.041  41.676  27.141  1.00  0.00    -0.388 OA
ATOM     34  H   UNL     1     -41.786  42.448  26.597  1.00  0.00     0.211 HD
ENDBRANCH   7  33
BRANCH  11  35
ATOM     35  O   UNL     1     -42.826  40.344  29.215  1.00  0.00    -0.390 OA
ATOM     36  H   UNL     1     -42.361  39.600  28.773  1.00  0.00     0.211 HD
ENDBRANCH  11  35
ENDBRANCH   1   4
BRANCH   1  37
ATOM     37  C   UNL     1     -46.709  38.599  27.872  1.00  0.00    -0.027 C 
ATOM     38  H   UNL     1     -47.269  38.985  28.734  1.00  0.00     0.032 H 
ATOM     39  H   UNL     1     -46.855  39.321  27.061  1.00  0.00     0.032 H 
BRANCH  37  40
ATOM     40  C   UNL     1     -47.288  37.272  27.447  1.00  0.00    -0.046 A 
ATOM     41  C   UNL     1     -48.634  36.975  27.674  1.00  0.00    -0.058 A 
ATOM     42  C   UNL     1     -46.471  36.304  26.839  1.00  0.00    -0.033 A 
ATOM     43  C   UNL     1     -49.149  35.738  27.292  1.00  0.00    -0.053 A 
ATOM     44  H   UNL     1     -49.287  37.704  28.148  1.00  0.00     0.063 H 
ATOM     45  C   UNL     1     -46.959  35.061  26.450  1.00  0.00     0.073 A 
ATOM     46  H   UNL     1     -45.421  36.522  26.658  1.00  0.00     0.065 H 
ATOM     47  C   UNL     1     -48.320  34.782  26.682  1.00  0.00     0.000 A 
ATOM     48  H   UNL     1     -50.201  35.524  27.470  1.00  0.00     0.063 H 
ATOM     49  N   UNL     1     -46.126  34.173  25.875  1.00  0.00    -0.231 NA
ATOM     50  C   UNL     1     -48.806  33.532  26.284  1.00  0.00    -0.049 A 
ATOM     51  C   UNL     1     -46.618  32.979  25.508  1.00  0.00     0.124 A 
ATOM     52  C   UNL     1     -47.944  32.620  25.686  1.00  0.00    -0.019 A 
ATOM     53  H   UNL     1     -49.849  33.266  26.430  1.00  0.00     0.063 H 
ATOM     54  H   UNL     1     -48.305  31.654  25.355  1.00  0.00     0.066 H 
BRANCH  51  55
ATOM     55  N   UNL     1     -45.726  32.102  24.896  1.00  0.00    -0.384 N 
ATOM     56  H   UNL     1     -44.824  32.539  24.742  1.00  0.00     0.158 HD
ATOM     57  H   UNL     1     -46.157  31.809  24.023  1.00  0.00     0.158 HD
ENDBRANCH  51  55
ENDBRANCH  37  40
ENDBRANCH   1  37
TORSDOF 9
ENDMDL
