MODEL 1
REMARK VINA RESULT:      -9.6      0.000      0.000
REMARK SMILES CNc1ccc2ccc(OCc3cc(CO)cc(-n4ccc5c(N)ncnc54)c3)cc2n1
REMARK SMILES IDX 11 1 10 4 9 5 3 6 4 7 32 8 5 9 31 11 6 12 30 14 7 15 8 17
REMARK SMILES IDX 2 20 1 22 12 26 13 27 29 28 14 29 18 31 17 33 15 35 16 38
REMARK SMILES IDX 19 40 20 41 28 42 21 43 22 45 27 46 23 48 26 49 25 50 24 52
REMARK H PARENT 11 2 11 3 4 10 5 13 30 16 7 18 8 19 2 21 1 23 1 24 1 25 13 30
REMARK H PARENT 29 32 17 34 15 36 15 37 16 39 20 44 21 47 26 51 24 53 24 54
REMARK Flexibility Score: inf
ROOT
ATOM      1  C   UNL     1     -46.222  34.329  27.097  1.00  0.00     0.113 C 
ATOM      2  H   UNL     1     -45.404  34.166  27.809  1.00  0.00     0.076 H 
ATOM      3  H   UNL     1     -45.853  34.234  26.069  1.00  0.00     0.076 H 
ENDROOT
BRANCH   1   4
ATOM      4  O   UNL     1     -47.267  33.377  27.308  1.00  0.00    -0.489 OA
BRANCH   4   5
ATOM      5  C   UNL     1     -47.768  32.743  26.204  1.00  0.00     0.122 A 
ATOM      6  C   UNL     1     -46.483  30.284  22.328  1.00  0.00     0.126 A 
ATOM      7  C   UNL     1     -47.807  30.133  21.930  1.00  0.00    -0.019 A 
ATOM      8  N   UNL     1     -46.157  30.940  23.459  1.00  0.00    -0.231 NA
ATOM      9  C   UNL     1     -48.821  30.688  22.705  1.00  0.00    -0.049 A 
ATOM     10  H   UNL     1     -48.051  29.577  21.032  1.00  0.00     0.066 H 
ATOM     11  C   UNL     1     -47.131  31.478  24.217  1.00  0.00     0.076 A 
ATOM     12  C   UNL     1     -48.492  31.378  23.874  1.00  0.00     0.001 A 
ATOM     13  H   UNL     1     -49.855  30.570  22.396  1.00  0.00     0.063 H 
ATOM     14  C   UNL     1     -46.799  32.159  25.378  1.00  0.00     0.007 A 
ATOM     15  C   UNL     1     -49.474  31.957  24.694  1.00  0.00    -0.049 A 
ATOM     16  H   UNL     1     -45.750  32.238  25.652  1.00  0.00     0.069 H 
ATOM     17  C   UNL     1     -49.111  32.639  25.858  1.00  0.00    -0.019 A 
ATOM     18  H   UNL     1     -50.527  31.879  24.434  1.00  0.00     0.063 H 
ATOM     19  H   UNL     1     -49.901  33.070  26.465  1.00  0.00     0.066 H 
BRANCH   6  20
ATOM     20  N   UNL     1     -45.487  29.687  21.533  1.00  0.00    -0.373 N 
ATOM     21  H   UNL     1     -44.997  30.414  21.020  1.00  0.00     0.161 HD
BRANCH  20  22
ATOM     22  C   UNL     1     -44.570  28.834  22.271  1.00  0.00     0.005 C 
ATOM     23  H   UNL     1     -44.948  27.809  22.351  1.00  0.00     0.045 H 
ATOM     24  H   UNL     1     -44.461  29.227  23.287  1.00  0.00     0.045 H 
ATOM     25  H   UNL     1     -43.573  28.826  21.817  1.00  0.00     0.045 H 
ENDBRANCH  20  22
ENDBRANCH   6  20
ENDBRANCH   4   5
ENDBRANCH   1   4
BRANCH   1  26
ATOM     26  C   UNL     1     -46.751  35.731  27.311  1.00  0.00    -0.008 A 
ATOM     27  C   UNL     1     -48.102  35.958  27.606  1.00  0.00    -0.050 A 
ATOM     28  C   UNL     1     -45.866  36.824  27.281  1.00  0.00    -0.031 A 
ATOM     29  C   UNL     1     -48.579  37.251  27.850  1.00  0.00    -0.020 A 
ATOM     30  H   UNL     1     -48.789  35.113  27.641  1.00  0.00     0.063 H 
ATOM     31  C   UNL     1     -46.316  38.132  27.511  1.00  0.00     0.048 A 
ATOM     32  H   UNL     1     -44.819  36.614  27.095  1.00  0.00     0.065 H 
ATOM     33  C   UNL     1     -47.679  38.330  27.786  1.00  0.00    -0.032 A 
ATOM     34  H   UNL     1     -48.092  39.323  27.942  1.00  0.00     0.065 H 
BRANCH  29  35
ATOM     35  C   UNL     1     -50.049  37.466  28.103  1.00  0.00     0.068 C 
ATOM     36  H   UNL     1     -50.197  37.807  29.133  1.00  0.00     0.062 H 
ATOM     37  H   UNL     1     -50.450  38.215  27.412  1.00  0.00     0.062 H 
BRANCH  35  38
ATOM     38  O   UNL     1     -50.782  36.263  27.910  1.00  0.00    -0.392 OA
ATOM     39  H   UNL     1     -51.162  36.030  28.774  1.00  0.00     0.211 HD
ENDBRANCH  35  38
ENDBRANCH  29  35
BRANCH  31  40
ATOM     40  N   UNL     1     -45.414  39.252  27.475  1.00  0.00    -0.301 N 
ATOM     41  C   UNL     1     -45.395  40.226  26.484  1.00  0.00     0.012 A 
ATOM     42  C   UNL     1     -44.410  39.587  28.393  1.00  0.00     0.150 A 
ATOM     43  C   UNL     1     -44.418  41.153  26.761  1.00  0.00    -0.031 A 
ATOM     44  H   UNL     1     -46.099  40.214  25.664  1.00  0.00     0.082 H 
ATOM     45  C   UNL     1     -43.786  40.755  27.961  1.00  0.00     0.061 A 
ATOM     46  N   UNL     1     -44.062  38.903  29.504  1.00  0.00    -0.218 NA
ATOM     47  H   UNL     1     -44.193  42.027  26.166  1.00  0.00     0.065 H 
ATOM     48  C   UNL     1     -42.739  41.256  28.748  1.00  0.00     0.136 A 
ATOM     49  C   UNL     1     -43.050  39.474  30.171  1.00  0.00     0.120 A 
ATOM     50  N   UNL     1     -42.379  40.595  29.860  1.00  0.00    -0.219 NA
ATOM     51  H   UNL     1     -42.731  38.968  31.077  1.00  0.00     0.106 H 
BRANCH  48  52
ATOM     52  N   UNL     1     -42.024  42.404  28.434  1.00  0.00    -0.383 N 
ATOM     53  H   UNL     1     -41.776  42.408  27.451  1.00  0.00     0.158 HD
ATOM     54  H   UNL     1     -42.414  43.261  28.801  1.00  0.00     0.158 HD
ENDBRANCH  48  52
ENDBRANCH  31  40
ENDBRANCH   1  26
TORSDOF 9
ENDMDL
MODEL 2
REMARK VINA RESULT:      -9.5      1.433      2.087
REMARK SMILES CNc1ccc2ccc(OCc3cc(CO)cc(-n4ccc5c(N)ncnc54)c3)cc2n1
REMARK SMILES IDX 11 1 10 4 9 5 3 6 4 7 32 8 5 9 31 11 6 12 30 14 7 15 8 17
REMARK SMILES IDX 2 20 1 22 12 26 13 27 29 28 14 29 18 31 17 33 15 35 16 38
REMARK SMILES IDX 19 40 20 41 28 42 21 43 22 45 27 46 23 48 26 49 25 50 24 52
REMARK H PARENT 11 2 11 3 4 10 5 13 30 16 7 18 8 19 2 21 1 23 1 24 1 25 13 30
REMARK H PARENT 29 32 17 34 15 36 15 37 16 39 20 44 21 47 26 51 24 53 24 54
REMARK Flexibility Score: inf
ROOT
ATOM      1  C   UNL     1     -46.409  34.016  25.910  1.00  0.00     0.113 C 
ATOM      2  H   UNL     1     -45.313  34.025  25.859  1.00  0.00     0.076 H 
ATOM      3  H   UNL     1     -46.833  34.085  24.901  1.00  0.00     0.076 H 
ENDROOT
BRANCH   1   4
ATOM      4  O   UNL     1     -46.874  32.818  26.533  1.00  0.00    -0.489 OA
BRANCH   4   5
ATOM      5  C   UNL     1     -47.502  31.901  25.735  1.00  0.00     0.122 A 
ATOM      6  C   UNL     1     -48.038  30.551  21.196  1.00  0.00     0.126 A 
ATOM      7  C   UNL     1     -48.887  29.511  21.558  1.00  0.00    -0.019 A 
ATOM      8  N   UNL     1     -47.492  31.370  22.117  1.00  0.00    -0.231 NA
ATOM      9  C   UNL     1     -49.198  29.320  22.901  1.00  0.00    -0.049 A 
ATOM     10  H   UNL     1     -49.293  28.845  20.806  1.00  0.00     0.066 H 
ATOM     11  C   UNL     1     -47.785  31.190  23.418  1.00  0.00     0.076 A 
ATOM     12  C   UNL     1     -48.645  30.169  23.862  1.00  0.00     0.001 A 
ATOM     13  H   UNL     1     -49.860  28.507  23.185  1.00  0.00     0.063 H 
ATOM     14  C   UNL     1     -47.231  32.035  24.368  1.00  0.00     0.007 A 
ATOM     15  C   UNL     1     -48.924  30.022  25.230  1.00  0.00    -0.049 A 
ATOM     16  H   UNL     1     -46.563  32.825  24.034  1.00  0.00     0.069 H 
ATOM     17  C   UNL     1     -48.353  30.888  26.165  1.00  0.00    -0.019 A 
ATOM     18  H   UNL     1     -49.586  29.231  25.577  1.00  0.00     0.063 H 
ATOM     19  H   UNL     1     -48.592  30.738  27.213  1.00  0.00     0.066 H 
BRANCH   6  20
ATOM     20  N   UNL     1     -47.726  30.697  19.831  1.00  0.00    -0.373 N 
ATOM     21  H   UNL     1     -48.589  30.739  19.299  1.00  0.00     0.161 HD
BRANCH  20  22
ATOM     22  C   UNL     1     -46.855  31.825  19.539  1.00  0.00     0.005 C 
ATOM     23  H   UNL     1     -45.799  31.566  19.676  1.00  0.00     0.045 H 
ATOM     24  H   UNL     1     -47.089  32.641  20.230  1.00  0.00     0.045 H 
ATOM     25  H   UNL     1     -47.015  32.204  18.523  1.00  0.00     0.045 H 
ENDBRANCH  20  22
ENDBRANCH   6  20
ENDBRANCH   4   5
ENDBRANCH   1   4
BRANCH   1  26
ATOM     26  C   UNL     1     -46.845  35.220  26.718  1.00  0.00    -0.008 A 
ATOM     27  C   UNL     1     -48.202  35.509  26.912  1.00  0.00    -0.050 A 
ATOM     28  C   UNL     1     -45.879  36.029  27.344  1.00  0.00    -0.031 A 
ATOM     29  C   UNL     1     -48.602  36.595  27.699  1.00  0.00    -0.020 A 
ATOM     30  H   UNL     1     -48.954  34.879  26.438  1.00  0.00     0.063 H 
ATOM     31  C   UNL     1     -46.248  37.130  28.129  1.00  0.00     0.048 A 
ATOM     32  H   UNL     1     -44.838  35.755  27.213  1.00  0.00     0.065 H 
ATOM     33  C   UNL     1     -47.617  37.405  28.290  1.00  0.00    -0.032 A 
ATOM     34  H   UNL     1     -47.963  38.262  28.861  1.00  0.00     0.065 H 
BRANCH  29  35
ATOM     35  C   UNL     1     -50.069  36.913  27.835  1.00  0.00     0.068 C 
ATOM     36  H   UNL     1     -50.245  37.956  27.552  1.00  0.00     0.062 H 
ATOM     37  H   UNL     1     -50.664  36.257  27.191  1.00  0.00     0.062 H 
BRANCH  35  38
ATOM     38  O   UNL     1     -50.512  36.722  29.173  1.00  0.00    -0.392 OA
ATOM     39  H   UNL     1     -50.645  37.610  29.548  1.00  0.00     0.211 HD
ENDBRANCH  35  38
ENDBRANCH  29  35
BRANCH  31  40
ATOM     40  N   UNL     1     -45.262  37.962  28.765  1.00  0.00    -0.301 N 
ATOM     41  C   UNL     1     -44.757  37.761  30.043  1.00  0.00     0.012 A 
ATOM     42  C   UNL     1     -44.626  39.099  28.251  1.00  0.00     0.150 A 
ATOM     43  C   UNL     1     -43.827  38.731  30.335  1.00  0.00    -0.031 A 
ATOM     44  H   UNL     1     -45.068  36.922  30.649  1.00  0.00     0.082 H 
ATOM     45  C   UNL     1     -43.742  39.586  29.212  1.00  0.00     0.061 A 
ATOM     46  N   UNL     1     -44.830  39.671  27.044  1.00  0.00    -0.218 NA
ATOM     47  H   UNL     1     -43.264  38.808  31.255  1.00  0.00     0.065 H 
ATOM     48  C   UNL     1     -43.006  40.734  28.889  1.00  0.00     0.136 A 
ATOM     49  C   UNL     1     -44.075  40.761  26.851  1.00  0.00     0.120 A 
ATOM     50  N   UNL     1     -43.188  41.317  27.693  1.00  0.00    -0.219 NA
ATOM     51  H   UNL     1     -44.194  41.260  25.894  1.00  0.00     0.106 H 
BRANCH  48  52
ATOM     52  N   UNL     1     -42.097  41.332  29.752  1.00  0.00    -0.383 N 
ATOM     53  H   UNL     1     -41.175  41.356  29.334  1.00  0.00     0.158 HD
ATOM     54  H   UNL     1     -42.418  42.191  30.178  1.00  0.00     0.158 HD
ENDBRANCH  48  52
ENDBRANCH  31  40
ENDBRANCH   1  26
TORSDOF 9
ENDMDL
MODEL 3
REMARK VINA RESULT:      -9.4      2.103      2.875
REMARK SMILES CNc1ccc2ccc(OCc3cc(CO)cc(-n4ccc5c(N)ncnc54)c3)cc2n1
REMARK SMILES IDX 11 1 10 4 9 5 3 6 4 7 32 8 5 9 31 11 6 12 30 14 7 15 8 17
REMARK SMILES IDX 2 20 1 22 12 26 13 27 29 28 14 29 18 31 17 33 15 35 16 38
REMARK SMILES IDX 19 40 20 41 28 42 21 43 22 45 27 46 23 48 26 49 25 50 24 52
REMARK H PARENT 11 2 11 3 4 10 5 13 30 16 7 18 8 19 2 21 1 23 1 24 1 25 13 30
REMARK H PARENT 29 32 17 34 15 36 15 37 16 39 20 44 21 47 26 51 24 53 24 54
REMARK Flexibility Score: inf
ROOT
ATOM      1  C   UNL     1     -46.593  34.285  25.769  1.00  0.00     0.113 C 
ATOM      2  H   UNL     1     -45.501  34.185  25.798  1.00  0.00     0.076 H 
ATOM      3  H   UNL     1     -46.924  34.502  24.746  1.00  0.00     0.076 H 
ENDROOT
BRANCH   1   4
ATOM      4  O   UNL     1     -47.219  33.083  26.219  1.00  0.00    -0.489 OA
BRANCH   4   5
ATOM      5  C   UNL     1     -47.295  32.046  25.330  1.00  0.00     0.122 A 
ATOM      6  C   UNL     1     -49.676  28.029  24.374  1.00  0.00     0.126 A 
ATOM      7  C   UNL     1     -48.915  27.796  23.234  1.00  0.00    -0.019 A 
ATOM      8  N   UNL     1     -49.476  29.115  25.147  1.00  0.00    -0.231 NA
ATOM      9  C   UNL     1     -47.907  28.692  22.890  1.00  0.00    -0.049 A 
ATOM     10  H   UNL     1     -49.110  26.932  22.610  1.00  0.00     0.066 H 
ATOM     11  C   UNL     1     -48.505  29.989  24.820  1.00  0.00     0.076 A 
ATOM     12  C   UNL     1     -47.685  29.816  23.690  1.00  0.00     0.001 A 
ATOM     13  H   UNL     1     -47.313  28.512  22.000  1.00  0.00     0.063 H 
ATOM     14  C   UNL     1     -48.291  31.105  25.616  1.00  0.00     0.007 A 
ATOM     15  C   UNL     1     -46.683  30.753  23.391  1.00  0.00    -0.049 A 
ATOM     16  H   UNL     1     -48.923  31.248  26.490  1.00  0.00     0.069 H 
ATOM     17  C   UNL     1     -46.489  31.867  24.210  1.00  0.00    -0.019 A 
ATOM     18  H   UNL     1     -46.050  30.623  22.516  1.00  0.00     0.063 H 
ATOM     19  H   UNL     1     -45.706  32.567  23.942  1.00  0.00     0.066 H 
BRANCH   6  20
ATOM     20  N   UNL     1     -50.703  27.115  24.675  1.00  0.00    -0.373 N 
ATOM     21  H   UNL     1     -50.738  26.408  23.947  1.00  0.00     0.161 HD
BRANCH  20  22
ATOM     22  C   UNL     1     -50.601  26.522  25.999  1.00  0.00     0.005 C 
ATOM     23  H   UNL     1     -50.911  25.471  25.997  1.00  0.00     0.045 H 
ATOM     24  H   UNL     1     -51.267  27.062  26.681  1.00  0.00     0.045 H 
ATOM     25  H   UNL     1     -49.586  26.608  26.403  1.00  0.00     0.045 H 
ENDBRANCH  20  22
ENDBRANCH   6  20
ENDBRANCH   4   5
ENDBRANCH   1   4
BRANCH   1  26
ATOM     26  C   UNL     1     -46.977  35.437  26.674  1.00  0.00    -0.008 A 
ATOM     27  C   UNL     1     -48.320  35.714  26.962  1.00  0.00    -0.050 A 
ATOM     28  C   UNL     1     -45.973  36.204  27.293  1.00  0.00    -0.031 A 
ATOM     29  C   UNL     1     -48.670  36.749  27.836  1.00  0.00    -0.020 A 
ATOM     30  H   UNL     1     -49.100  35.115  26.493  1.00  0.00     0.063 H 
ATOM     31  C   UNL     1     -46.293  37.255  28.165  1.00  0.00     0.048 A 
ATOM     32  H   UNL     1     -44.943  35.938  27.086  1.00  0.00     0.065 H 
ATOM     33  C   UNL     1     -47.649  37.520  28.419  1.00  0.00    -0.032 A 
ATOM     34  H   UNL     1     -47.959  38.340  29.062  1.00  0.00     0.065 H 
BRANCH  29  35
ATOM     35  C   UNL     1     -50.125  37.060  28.075  1.00  0.00     0.068 C 
ATOM     36  H   UNL     1     -50.308  37.151  29.151  1.00  0.00     0.062 H 
ATOM     37  H   UNL     1     -50.402  37.996  27.580  1.00  0.00     0.062 H 
BRANCH  35  38
ATOM     38  O   UNL     1     -50.960  36.033  27.555  1.00  0.00    -0.392 OA
ATOM     39  H   UNL     1     -51.877  36.324  27.699  1.00  0.00     0.211 HD
ENDBRANCH  35  38
ENDBRANCH  29  35
BRANCH  31  40
ATOM     40  N   UNL     1     -45.269  38.044  28.794  1.00  0.00    -0.301 N 
ATOM     41  C   UNL     1     -44.731  37.793  30.050  1.00  0.00     0.012 A 
ATOM     42  C   UNL     1     -44.622  39.182  28.294  1.00  0.00     0.150 A 
ATOM     43  C   UNL     1     -43.770  38.733  30.341  1.00  0.00    -0.031 A 
ATOM     44  H   UNL     1     -45.043  36.944  30.641  1.00  0.00     0.082 H 
ATOM     45  C   UNL     1     -43.698  39.619  29.242  1.00  0.00     0.061 A 
ATOM     46  N   UNL     1     -44.847  39.793  27.112  1.00  0.00    -0.218 NA
ATOM     47  H   UNL     1     -43.179  38.770  31.246  1.00  0.00     0.065 H 
ATOM     48  C   UNL     1     -42.944  40.759  28.930  1.00  0.00     0.136 A 
ATOM     49  C   UNL     1     -44.072  40.871  26.927  1.00  0.00     0.120 A 
ATOM     50  N   UNL     1     -43.148  41.381  27.758  1.00  0.00    -0.219 NA
ATOM     51  H   UNL     1     -44.208  41.401  25.989  1.00  0.00     0.106 H 
BRANCH  48  52
ATOM     52  N   UNL     1     -41.997  41.310  29.782  1.00  0.00    -0.383 N 
ATOM     53  H   UNL     1     -41.215  41.676  29.252  1.00  0.00     0.158 HD
ATOM     54  H   UNL     1     -42.372  41.913  30.502  1.00  0.00     0.158 HD
ENDBRANCH  48  52
ENDBRANCH  31  40
ENDBRANCH   1  26
TORSDOF 9
ENDMDL
MODEL 4
REMARK VINA RESULT:      -9.4      1.825     10.064
REMARK SMILES CNc1ccc2ccc(OCc3cc(CO)cc(-n4ccc5c(N)ncnc54)c3)cc2n1
REMARK SMILES IDX 11 1 10 4 9 5 3 6 4 7 32 8 5 9 31 11 6 12 30 14 7 15 8 17
REMARK SMILES IDX 2 20 1 22 12 26 13 27 29 28 14 29 18 31 17 33 15 35 16 38
REMARK SMILES IDX 19 40 20 41 28 42 21 43 22 45 27 46 23 48 26 49 25 50 24 52
REMARK H PARENT 11 2 11 3 4 10 5 13 30 16 7 18 8 19 2 21 1 23 1 24 1 25 13 30
REMARK H PARENT 29 32 17 34 15 36 15 37 16 39 20 44 21 47 26 51 24 53 24 54
REMARK Flexibility Score: inf
ROOT
ATOM      1  C   UNL     1     -46.500  36.782  26.775  1.00  0.00     0.113 C 
ATOM      2  H   UNL     1     -47.302  37.074  26.086  1.00  0.00     0.076 H 
ATOM      3  H   UNL     1     -45.528  37.103  26.380  1.00  0.00     0.076 H 
ENDROOT
BRANCH   1   4
ATOM      4  O   UNL     1     -46.701  37.374  28.060  1.00  0.00    -0.489 OA
BRANCH   4   5
ATOM      5  C   UNL     1     -45.639  38.028  28.621  1.00  0.00     0.122 A 
ATOM      6  C   UNL     1     -42.653  41.685  27.962  1.00  0.00     0.126 A 
ATOM      7  C   UNL     1     -41.992  41.418  29.156  1.00  0.00    -0.019 A 
ATOM      8  N   UNL     1     -43.698  40.938  27.552  1.00  0.00    -0.231 NA
ATOM      9  C   UNL     1     -42.402  40.344  29.939  1.00  0.00    -0.049 A 
ATOM     10  H   UNL     1     -41.172  42.048  29.483  1.00  0.00     0.066 H 
ATOM     11  C   UNL     1     -44.103  39.899  28.305  1.00  0.00     0.076 A 
ATOM     12  C   UNL     1     -43.478  39.558  29.518  1.00  0.00     0.001 A 
ATOM     13  H   UNL     1     -41.888  40.136  30.872  1.00  0.00     0.063 H 
ATOM     14  C   UNL     1     -45.174  39.124  27.883  1.00  0.00     0.007 A 
ATOM     15  C   UNL     1     -43.935  38.463  30.269  1.00  0.00    -0.049 A 
ATOM     16  H   UNL     1     -45.665  39.382  26.948  1.00  0.00     0.069 H 
ATOM     17  C   UNL     1     -45.014  37.699  29.820  1.00  0.00    -0.019 A 
ATOM     18  H   UNL     1     -43.455  38.200  31.209  1.00  0.00     0.063 H 
ATOM     19  H   UNL     1     -45.337  36.863  30.431  1.00  0.00     0.066 H 
BRANCH   6  20
ATOM     20  N   UNL     1     -42.226  42.795  27.209  1.00  0.00    -0.373 N 
ATOM     21  H   UNL     1     -41.368  42.552  26.724  1.00  0.00     0.161 HD
BRANCH  20  22
ATOM     22  C   UNL     1     -43.232  43.318  26.299  1.00  0.00     0.005 C 
ATOM     23  H   UNL     1     -42.788  43.653  25.355  1.00  0.00     0.045 H 
ATOM     24  H   UNL     1     -43.714  44.185  26.764  1.00  0.00     0.045 H 
ATOM     25  H   UNL     1     -44.017  42.580  26.098  1.00  0.00     0.045 H 
ENDBRANCH  20  22
ENDBRANCH   6  20
ENDBRANCH   4   5
ENDBRANCH   1   4
BRANCH   1  26
ATOM     26  C   UNL     1     -46.517  35.273  26.894  1.00  0.00    -0.008 A 
ATOM     27  C   UNL     1     -45.939  34.627  27.994  1.00  0.00    -0.050 A 
ATOM     28  C   UNL     1     -47.181  34.503  25.922  1.00  0.00    -0.031 A 
ATOM     29  C   UNL     1     -45.998  33.235  28.125  1.00  0.00    -0.020 A 
ATOM     30  H   UNL     1     -45.432  35.220  28.755  1.00  0.00     0.063 H 
ATOM     31  C   UNL     1     -47.248  33.106  26.020  1.00  0.00     0.048 A 
ATOM     32  H   UNL     1     -47.658  35.033  25.105  1.00  0.00     0.065 H 
ATOM     33  C   UNL     1     -46.642  32.485  27.125  1.00  0.00    -0.032 A 
ATOM     34  H   UNL     1     -46.635  31.405  27.240  1.00  0.00     0.065 H 
BRANCH  29  35
ATOM     35  C   UNL     1     -45.311  32.568  29.290  1.00  0.00     0.068 C 
ATOM     36  H   UNL     1     -44.247  32.441  29.063  1.00  0.00     0.062 H 
ATOM     37  H   UNL     1     -45.419  33.174  30.195  1.00  0.00     0.062 H 
BRANCH  35  38
ATOM     38  O   UNL     1     -45.878  31.291  29.554  1.00  0.00    -0.392 OA
ATOM     39  H   UNL     1     -45.518  30.685  28.883  1.00  0.00     0.211 HD
ENDBRANCH  35  38
ENDBRANCH  29  35
BRANCH  31  40
ATOM     40  N   UNL     1     -47.921  32.316  25.024  1.00  0.00    -0.301 N 
ATOM     41  C   UNL     1     -49.299  32.161  24.931  1.00  0.00     0.012 A 
ATOM     42  C   UNL     1     -47.357  31.572  23.980  1.00  0.00     0.150 A 
ATOM     43  C   UNL     1     -49.605  31.351  23.862  1.00  0.00    -0.031 A 
ATOM     44  H   UNL     1     -49.973  32.662  25.610  1.00  0.00     0.082 H 
ATOM     45  C   UNL     1     -48.385  30.968  23.259  1.00  0.00     0.061 A 
ATOM     46  N   UNL     1     -46.043  31.422  23.705  1.00  0.00    -0.218 NA
ATOM     47  H   UNL     1     -50.601  31.074  23.547  1.00  0.00     0.065 H 
ATOM     48  C   UNL     1     -48.023  30.168  22.166  1.00  0.00     0.136 A 
ATOM     49  C   UNL     1     -45.821  30.634  22.644  1.00  0.00     0.120 A 
ATOM     50  N   UNL     1     -46.723  30.008  21.872  1.00  0.00    -0.219 NA
ATOM     51  H   UNL     1     -44.780  30.481  22.374  1.00  0.00     0.106 H 
BRANCH  48  52
ATOM     52  N   UNL     1     -48.941  29.500  21.367  1.00  0.00    -0.383 N 
ATOM     53  H   UNL     1     -49.061  28.546  21.688  1.00  0.00     0.158 HD
ATOM     54  H   UNL     1     -49.787  30.017  21.170  1.00  0.00     0.158 HD
ENDBRANCH  48  52
ENDBRANCH  31  40
ENDBRANCH   1  26
TORSDOF 9
ENDMDL
MODEL 5
REMARK VINA RESULT:      -9.3      2.218      3.135
REMARK SMILES CNc1ccc2ccc(OCc3cc(CO)cc(-n4ccc5c(N)ncnc54)c3)cc2n1
REMARK SMILES IDX 11 1 10 4 9 5 3 6 4 7 32 8 5 9 31 11 6 12 30 14 7 15 8 17
REMARK SMILES IDX 2 20 1 22 12 26 13 27 29 28 14 29 18 31 17 33 15 35 16 38
REMARK SMILES IDX 19 40 20 41 28 42 21 43 22 45 27 46 23 48 26 49 25 50 24 52
REMARK H PARENT 11 2 11 3 4 10 5 13 30 16 7 18 8 19 2 21 1 23 1 24 1 25 13 30
REMARK H PARENT 29 32 17 34 15 36 15 37 16 39 20 44 21 47 26 51 24 53 24 54
REMARK Flexibility Score: inf
ROOT
ATOM      1  C   UNL     1     -46.887  36.723  26.557  1.00  0.00     0.113 C 
ATOM      2  H   UNL     1     -46.822  37.296  25.624  1.00  0.00     0.076 H 
ATOM      3  H   UNL     1     -47.937  36.585  26.843  1.00  0.00     0.076 H 
ENDROOT
BRANCH   1   4
ATOM      4  O   UNL     1     -46.273  35.441  26.403  1.00  0.00    -0.489 OA
BRANCH   4   5
ATOM      5  C   UNL     1     -47.083  34.397  26.052  1.00  0.00     0.122 A 
ATOM      6  C   UNL     1     -47.329  30.563  23.230  1.00  0.00     0.126 A 
ATOM      7  C   UNL     1     -48.597  30.241  23.703  1.00  0.00    -0.019 A 
ATOM      8  N   UNL     1     -46.655  31.636  23.691  1.00  0.00    -0.231 NA
ATOM      9  C   UNL     1     -49.196  31.055  24.659  1.00  0.00    -0.049 A 
ATOM     10  H   UNL     1     -49.110  29.358  23.341  1.00  0.00     0.066 H 
ATOM     11  C   UNL     1     -47.227  32.427  24.619  1.00  0.00     0.076 A 
ATOM     12  C   UNL     1     -48.511  32.175  25.136  1.00  0.00     0.001 A 
ATOM     13  H   UNL     1     -50.186  30.804  25.029  1.00  0.00     0.063 H 
ATOM     14  C   UNL     1     -46.540  33.536  25.091  1.00  0.00     0.007 A 
ATOM     15  C   UNL     1     -49.067  33.029  26.101  1.00  0.00    -0.049 A 
ATOM     16  H   UNL     1     -45.546  33.737  24.699  1.00  0.00     0.069 H 
ATOM     17  C   UNL     1     -48.354  34.140  26.558  1.00  0.00    -0.019 A 
ATOM     18  H   UNL     1     -50.058  32.835  26.505  1.00  0.00     0.063 H 
ATOM     19  H   UNL     1     -48.819  34.773  27.305  1.00  0.00     0.066 H 
BRANCH   6  20
ATOM     20  N   UNL     1     -46.744  29.703  22.283  1.00  0.00    -0.373 N 
ATOM     21  H   UNL     1     -47.186  29.857  21.382  1.00  0.00     0.161 HD
BRANCH  20  22
ATOM     22  C   UNL     1     -45.296  29.808  22.199  1.00  0.00     0.005 C 
ATOM     23  H   UNL     1     -44.836  29.860  23.192  1.00  0.00     0.045 H 
ATOM     24  H   UNL     1     -45.038  30.729  21.666  1.00  0.00     0.045 H 
ATOM     25  H   UNL     1     -44.863  28.974  21.634  1.00  0.00     0.045 H 
ENDBRANCH  20  22
ENDBRANCH   6  20
ENDBRANCH   4   5
ENDBRANCH   1   4
BRANCH   1  26
ATOM     26  C   UNL     1     -46.174  37.510  27.636  1.00  0.00    -0.008 A 
ATOM     27  C   UNL     1     -46.264  37.136  28.984  1.00  0.00    -0.050 A 
ATOM     28  C   UNL     1     -45.351  38.594  27.282  1.00  0.00    -0.031 A 
ATOM     29  C   UNL     1     -45.566  37.837  29.974  1.00  0.00    -0.020 A 
ATOM     30  H   UNL     1     -46.892  36.290  29.262  1.00  0.00     0.063 H 
ATOM     31  C   UNL     1     -44.648  39.322  28.252  1.00  0.00     0.048 A 
ATOM     32  H   UNL     1     -45.265  38.832  26.228  1.00  0.00     0.065 H 
ATOM     33  C   UNL     1     -44.774  38.935  29.597  1.00  0.00    -0.032 A 
ATOM     34  H   UNL     1     -44.277  39.480  30.396  1.00  0.00     0.065 H 
BRANCH  29  35
ATOM     35  C   UNL     1     -45.736  37.447  31.420  1.00  0.00     0.068 C 
ATOM     36  H   UNL     1     -46.725  37.001  31.565  1.00  0.00     0.062 H 
ATOM     37  H   UNL     1     -44.966  36.726  31.713  1.00  0.00     0.062 H 
BRANCH  35  38
ATOM     38  O   UNL     1     -45.614  38.579  32.272  1.00  0.00    -0.392 OA
ATOM     39  H   UNL     1     -46.461  38.661  32.743  1.00  0.00     0.211 HD
ENDBRANCH  35  38
ENDBRANCH  29  35
BRANCH  31  40
ATOM     40  N   UNL     1     -43.811  40.435  27.893  1.00  0.00    -0.301 N 
ATOM     41  C   UNL     1     -42.713  40.873  28.624  1.00  0.00     0.012 A 
ATOM     42  C   UNL     1     -43.917  41.275  26.777  1.00  0.00     0.150 A 
ATOM     43  C   UNL     1     -42.134  41.950  27.995  1.00  0.00    -0.031 A 
ATOM     44  H   UNL     1     -42.397  40.370  29.526  1.00  0.00     0.082 H 
ATOM     45  C   UNL     1     -42.891  42.216  26.831  1.00  0.00     0.061 A 
ATOM     46  N   UNL     1     -44.855  41.226  25.807  1.00  0.00    -0.218 NA
ATOM     47  H   UNL     1     -41.256  42.480  28.335  1.00  0.00     0.065 H 
ATOM     48  C   UNL     1     -42.826  43.161  25.796  1.00  0.00     0.136 A 
ATOM     49  C   UNL     1     -44.693  42.177  24.878  1.00  0.00     0.120 A 
ATOM     50  N   UNL     1     -43.746  43.128  24.819  1.00  0.00    -0.219 NA
ATOM     51  H   UNL     1     -45.419  42.183  24.069  1.00  0.00     0.106 H 
BRANCH  48  52
ATOM     52  N   UNL     1     -41.864  44.160  25.728  1.00  0.00    -0.383 N 
ATOM     53  H   UNL     1     -41.910  44.634  24.834  1.00  0.00     0.158 HD
ATOM     54  H   UNL     1     -41.808  44.751  26.546  1.00  0.00     0.158 HD
ENDBRANCH  48  52
ENDBRANCH  31  40
ENDBRANCH   1  26
TORSDOF 9
ENDMDL
MODEL 6
REMARK VINA RESULT:      -9.2      2.582      3.737
REMARK SMILES CNc1ccc2ccc(OCc3cc(CO)cc(-n4ccc5c(N)ncnc54)c3)cc2n1
REMARK SMILES IDX 11 1 10 4 9 5 3 6 4 7 32 8 5 9 31 11 6 12 30 14 7 15 8 17
REMARK SMILES IDX 2 20 1 22 12 26 13 27 29 28 14 29 18 31 17 33 15 35 16 38
REMARK SMILES IDX 19 40 20 41 28 42 21 43 22 45 27 46 23 48 26 49 25 50 24 52
REMARK H PARENT 11 2 11 3 4 10 5 13 30 16 7 18 8 19 2 21 1 23 1 24 1 25 13 30
REMARK H PARENT 29 32 17 34 15 36 15 37 16 39 20 44 21 47 26 51 24 53 24 54
REMARK Flexibility Score: inf
ROOT
ATOM      1  C   UNL     1     -47.168  37.062  26.600  1.00  0.00     0.113 C 
ATOM      2  H   UNL     1     -47.518  37.387  25.612  1.00  0.00     0.076 H 
ATOM      3  H   UNL     1     -48.023  36.908  27.271  1.00  0.00     0.076 H 
ENDROOT
BRANCH   1   4
ATOM      4  O   UNL     1     -46.430  35.843  26.496  1.00  0.00    -0.489 OA
BRANCH   4   5
ATOM      5  C   UNL     1     -47.135  34.707  26.210  1.00  0.00     0.122 A 
ATOM      6  C   UNL     1     -46.859  30.545  23.902  1.00  0.00     0.126 A 
ATOM      7  C   UNL     1     -48.147  30.192  24.294  1.00  0.00    -0.019 A 
ATOM      8  N   UNL     1     -46.303  31.714  24.280  1.00  0.00    -0.231 NA
ATOM      9  C   UNL     1     -48.888  31.071  25.076  1.00  0.00    -0.049 A 
ATOM     10  H   UNL     1     -48.566  29.235  24.004  1.00  0.00     0.066 H 
ATOM     11  C   UNL     1     -47.012  32.569  25.039  1.00  0.00     0.076 A 
ATOM     12  C   UNL     1     -48.324  32.289  25.464  1.00  0.00     0.001 A 
ATOM     13  H   UNL     1     -49.893  30.796  25.383  1.00  0.00     0.063 H 
ATOM     14  C   UNL     1     -46.446  33.775  25.424  1.00  0.00     0.007 A 
ATOM     15  C   UNL     1     -49.027  33.213  26.254  1.00  0.00    -0.049 A 
ATOM     16  H   UNL     1     -45.432  33.998  25.103  1.00  0.00     0.069 H 
ATOM     17  C   UNL     1     -48.432  34.421  26.626  1.00  0.00    -0.019 A 
ATOM     18  H   UNL     1     -50.040  32.998  26.586  1.00  0.00     0.063 H 
ATOM     19  H   UNL     1     -49.008  35.106  27.238  1.00  0.00     0.066 H 
BRANCH   6  20
ATOM     20  N   UNL     1     -46.130  29.619  23.133  1.00  0.00    -0.373 N 
ATOM     21  H   UNL     1     -46.748  28.863  22.857  1.00  0.00     0.161 HD
BRANCH  20  22
ATOM     22  C   UNL     1     -45.447  30.204  21.990  1.00  0.00     0.005 C 
ATOM     23  H   UNL     1     -44.699  29.520  21.574  1.00  0.00     0.045 H 
ATOM     24  H   UNL     1     -44.924  31.109  22.315  1.00  0.00     0.045 H 
ATOM     25  H   UNL     1     -46.154  30.501  21.207  1.00  0.00     0.045 H 
ENDBRANCH  20  22
ENDBRANCH   6  20
ENDBRANCH   4   5
ENDBRANCH   1   4
BRANCH   1  26
ATOM     26  C   UNL     1     -46.283  38.155  27.161  1.00  0.00    -0.008 A 
ATOM     27  C   UNL     1     -45.460  37.921  28.270  1.00  0.00    -0.050 A 
ATOM     28  C   UNL     1     -46.230  39.407  26.523  1.00  0.00    -0.031 A 
ATOM     29  C   UNL     1     -44.607  38.918  28.758  1.00  0.00    -0.020 A 
ATOM     30  H   UNL     1     -45.490  36.949  28.761  1.00  0.00     0.063 H 
ATOM     31  C   UNL     1     -45.394  40.430  26.994  1.00  0.00     0.048 A 
ATOM     32  H   UNL     1     -46.844  39.545  25.641  1.00  0.00     0.065 H 
ATOM     33  C   UNL     1     -44.594  40.171  28.120  1.00  0.00    -0.032 A 
ATOM     34  H   UNL     1     -43.950  40.933  28.549  1.00  0.00     0.065 H 
BRANCH  29  35
ATOM     35  C   UNL     1     -43.782  38.653  29.991  1.00  0.00     0.068 C 
ATOM     36  H   UNL     1     -44.443  38.396  30.826  1.00  0.00     0.062 H 
ATOM     37  H   UNL     1     -43.085  37.828  29.813  1.00  0.00     0.062 H 
BRANCH  35  38
ATOM     38  O   UNL     1     -43.015  39.796  30.348  1.00  0.00    -0.392 OA
ATOM     39  H   UNL     1     -42.255  39.469  30.859  1.00  0.00     0.211 HD
ENDBRANCH  35  38
ENDBRANCH  29  35
BRANCH  31  40
ATOM     40  N   UNL     1     -45.342  41.713  26.348  1.00  0.00    -0.301 N 
ATOM     41  C   UNL     1     -46.452  42.442  25.937  1.00  0.00     0.012 A 
ATOM     42  C   UNL     1     -44.212  42.471  26.014  1.00  0.00     0.150 A 
ATOM     43  C   UNL     1     -46.046  43.625  25.366  1.00  0.00    -0.031 A 
ATOM     44  H   UNL     1     -47.457  42.086  26.107  1.00  0.00     0.082 H 
ATOM     45  C   UNL     1     -44.633  43.650  25.403  1.00  0.00     0.061 A 
ATOM     46  N   UNL     1     -42.919  42.135  26.212  1.00  0.00    -0.218 NA
ATOM     47  H   UNL     1     -46.700  44.391  24.973  1.00  0.00     0.065 H 
ATOM     48  C   UNL     1     -43.643  44.550  24.985  1.00  0.00     0.136 A 
ATOM     49  C   UNL     1     -42.066  43.069  25.770  1.00  0.00     0.120 A 
ATOM     50  N   UNL     1     -42.350  44.239  25.176  1.00  0.00    -0.219 NA
ATOM     51  H   UNL     1     -41.010  42.853  25.907  1.00  0.00     0.106 H 
BRANCH  48  52
ATOM     52  N   UNL     1     -43.917  45.757  24.356  1.00  0.00    -0.383 N 
ATOM     53  H   UNL     1     -43.061  46.274  24.193  1.00  0.00     0.158 HD
ATOM     54  H   UNL     1     -44.558  45.693  23.576  1.00  0.00     0.158 HD
ENDBRANCH  48  52
ENDBRANCH  31  40
ENDBRANCH   1  26
TORSDOF 9
ENDMDL
MODEL 7
REMARK VINA RESULT:      -9.0      1.680      2.249
REMARK SMILES CNc1ccc2ccc(OCc3cc(CO)cc(-n4ccc5c(N)ncnc54)c3)cc2n1
REMARK SMILES IDX 11 1 10 4 9 5 3 6 4 7 32 8 5 9 31 11 6 12 30 14 7 15 8 17
REMARK SMILES IDX 2 20 1 22 12 26 13 27 29 28 14 29 18 31 17 33 15 35 16 38
REMARK SMILES IDX 19 40 20 41 28 42 21 43 22 45 27 46 23 48 26 49 25 50 24 52
REMARK H PARENT 11 2 11 3 4 10 5 13 30 16 7 18 8 19 2 21 1 23 1 24 1 25 13 30
REMARK H PARENT 29 32 17 34 15 36 15 37 16 39 20 44 21 47 26 51 24 53 24 54
REMARK Flexibility Score: inf
ROOT
ATOM      1  C   UNL     1     -46.694  36.414  27.855  1.00  0.00     0.113 C 
ATOM      2  H   UNL     1     -47.488  35.869  28.380  1.00  0.00     0.076 H 
ATOM      3  H   UNL     1     -45.767  36.386  28.440  1.00  0.00     0.076 H 
ENDROOT
BRANCH   1   4
ATOM      4  O   UNL     1     -46.453  35.837  26.570  1.00  0.00    -0.489 OA
BRANCH   4   5
ATOM      5  C   UNL     1     -47.175  34.724  26.239  1.00  0.00     0.122 A 
ATOM      6  C   UNL     1     -46.906  30.580  23.899  1.00  0.00     0.126 A 
ATOM      7  C   UNL     1     -48.219  30.259  24.226  1.00  0.00    -0.019 A 
ATOM      8  N   UNL     1     -46.336  31.728  24.316  1.00  0.00    -0.231 NA
ATOM      9  C   UNL     1     -48.973  31.151  24.982  1.00  0.00    -0.049 A 
ATOM     10  H   UNL     1     -48.651  29.318  23.906  1.00  0.00     0.066 H 
ATOM     11  C   UNL     1     -47.056  32.596  25.051  1.00  0.00     0.076 A 
ATOM     12  C   UNL     1     -48.394  32.348  25.410  1.00  0.00     0.001 A 
ATOM     13  H   UNL     1     -49.998  30.901  25.239  1.00  0.00     0.063 H 
ATOM     14  C   UNL     1     -46.476  33.781  25.476  1.00  0.00     0.007 A 
ATOM     15  C   UNL     1     -49.107  33.284  26.177  1.00  0.00    -0.049 A 
ATOM     16  H   UNL     1     -45.441  33.979  25.205  1.00  0.00     0.069 H 
ATOM     17  C   UNL     1     -48.498  34.471  26.590  1.00  0.00    -0.019 A 
ATOM     18  H   UNL     1     -50.140  33.094  26.459  1.00  0.00     0.063 H 
ATOM     19  H   UNL     1     -49.083  35.166  27.182  1.00  0.00     0.066 H 
BRANCH   6  20
ATOM     20  N   UNL     1     -46.167  29.642  23.155  1.00  0.00    -0.373 N 
ATOM     21  H   UNL     1     -46.742  28.819  23.000  1.00  0.00     0.161 HD
BRANCH  20  22
ATOM     22  C   UNL     1     -45.625  30.165  21.911  1.00  0.00     0.005 C 
ATOM     23  H   UNL     1     -45.356  31.223  22.000  1.00  0.00     0.045 H 
ATOM     24  H   UNL     1     -46.389  30.082  21.130  1.00  0.00     0.045 H 
ATOM     25  H   UNL     1     -44.755  29.588  21.576  1.00  0.00     0.045 H 
ENDBRANCH  20  22
ENDBRANCH   6  20
ENDBRANCH   4   5
ENDBRANCH   1   4
BRANCH   1  26
ATOM     26  C   UNL     1     -47.143  37.852  27.699  1.00  0.00    -0.008 A 
ATOM     27  C   UNL     1     -48.429  38.254  28.084  1.00  0.00    -0.050 A 
ATOM     28  C   UNL     1     -46.239  38.818  27.223  1.00  0.00    -0.031 A 
ATOM     29  C   UNL     1     -48.825  39.592  27.982  1.00  0.00    -0.020 A 
ATOM     30  H   UNL     1     -49.129  37.510  28.463  1.00  0.00     0.063 H 
ATOM     31  C   UNL     1     -46.610  40.165  27.100  1.00  0.00     0.048 A 
ATOM     32  H   UNL     1     -45.237  38.486  26.975  1.00  0.00     0.065 H 
ATOM     33  C   UNL     1     -47.912  40.534  27.476  1.00  0.00    -0.032 A 
ATOM     34  H   UNL     1     -48.267  41.556  27.375  1.00  0.00     0.065 H 
BRANCH  29  35
ATOM     35  C   UNL     1     -50.236  39.979  28.346  1.00  0.00     0.068 C 
ATOM     36  H   UNL     1     -50.218  40.877  28.974  1.00  0.00     0.062 H 
ATOM     37  H   UNL     1     -50.821  40.180  27.443  1.00  0.00     0.062 H 
BRANCH  35  38
ATOM     38  O   UNL     1     -50.885  38.935  29.059  1.00  0.00    -0.392 OA
ATOM     39  H   UNL     1     -51.267  38.341  28.390  1.00  0.00     0.211 HD
ENDBRANCH  35  38
ENDBRANCH  29  35
BRANCH  31  40
ATOM     40  N   UNL     1     -45.690  41.154  26.608  1.00  0.00    -0.301 N 
ATOM     41  C   UNL     1     -45.978  42.088  25.620  1.00  0.00     0.012 A 
ATOM     42  C   UNL     1     -44.366  41.381  27.007  1.00  0.00     0.150 A 
ATOM     43  C   UNL     1     -44.881  42.886  25.398  1.00  0.00    -0.031 A 
ATOM     44  H   UNL     1     -46.955  42.144  25.163  1.00  0.00     0.082 H 
ATOM     45  C   UNL     1     -43.854  42.443  26.264  1.00  0.00     0.061 A 
ATOM     46  N   UNL     1     -43.664  40.690  27.931  1.00  0.00    -0.218 NA
ATOM     47  H   UNL     1     -44.829  43.704  24.694  1.00  0.00     0.065 H 
ATOM     48  C   UNL     1     -42.528  42.825  26.512  1.00  0.00     0.136 A 
ATOM     49  C   UNL     1     -42.412  41.143  28.079  1.00  0.00     0.120 A 
ATOM     50  N   UNL     1     -41.813  42.156  27.431  1.00  0.00    -0.219 NA
ATOM     51  H   UNL     1     -41.801  40.626  28.814  1.00  0.00     0.106 H 
BRANCH  48  52
ATOM     52  N   UNL     1     -41.889  43.859  25.841  1.00  0.00    -0.383 N 
ATOM     53  H   UNL     1     -40.915  43.911  26.118  1.00  0.00     0.158 HD
ATOM     54  H   UNL     1     -42.075  43.899  24.849  1.00  0.00     0.158 HD
ENDBRANCH  48  52
ENDBRANCH  31  40
ENDBRANCH   1  26
TORSDOF 9
ENDMDL
