MODEL 1
REMARK VINA RESULT:      -9.4      0.000      0.000
REMARK SMILES Nc1ncnc2c1ccn2[C@@H]1O[C@H](CCC2CCNCC2)[C@@H](O)[C@@H]1F
REMARK SMILES IDX 11 1 12 2 13 3 22 4 24 5 25 6 10 11 2 12 3 13 7 14 4 15 6 16
REMARK SMILES IDX 8 17 5 18 9 20 1 23 14 26 15 29 16 32 17 33 21 34 18 36
REMARK SMILES IDX 20 39 19 42 23 48
REMARK H PARENT 11 7 13 8 22 9 24 10 4 19 8 21 9 22 1 24 1 25 14 27 14 28
REMARK H PARENT 15 30 15 31 16 35 17 37 17 38 21 40 21 41 18 43 18 44 20 45
REMARK H PARENT 20 46 19 47 23 49
REMARK Flexibility Score: inf
ROOT
ATOM      1  C   UNL     1     -45.638  38.755  28.740  1.00  0.00     0.169 C 
ATOM      2  O   UNL     1     -45.535  37.425  28.192  1.00  0.00    -0.349 OA
ATOM      3  C   UNL     1     -46.874  36.927  27.975  1.00  0.00     0.089 C 
ATOM      4  C   UNL     1     -47.793  38.144  27.912  1.00  0.00     0.116 C 
ATOM      5  C   UNL     1     -47.113  39.104  28.862  1.00  0.00     0.173 C 
ATOM      6  F   UNL     1     -47.401  40.388  28.546  1.00  0.00    -0.239 F 
ATOM      7  H   UNL     1     -45.195  38.714  29.743  1.00  0.00     0.088 H 
ATOM      8  H   UNL     1     -47.130  36.307  28.844  1.00  0.00     0.063 H 
ATOM      9  H   UNL     1     -47.867  38.563  26.907  1.00  0.00     0.066 H 
ATOM     10  H   UNL     1     -47.462  38.937  29.889  1.00  0.00     0.074 H 
ENDROOT
BRANCH   1  11
ATOM     11  N   UNL     1     -44.814  39.663  27.956  1.00  0.00    -0.303 N 
ATOM     12  C   UNL     1     -42.040  41.823  27.532  1.00  0.00     0.136 A 
ATOM     13  N   UNL     1     -41.438  41.751  28.734  1.00  0.00    -0.219 NA
ATOM     14  C   UNL     1     -43.208  41.080  27.311  1.00  0.00     0.061 A 
ATOM     15  C   UNL     1     -41.997  40.970  29.676  1.00  0.00     0.120 A 
ATOM     16  C   UNL     1     -43.674  40.309  28.369  1.00  0.00     0.147 A 
ATOM     17  C   UNL     1     -44.108  40.888  26.228  1.00  0.00    -0.031 A 
ATOM     18  N   UNL     1     -43.104  40.215  29.581  1.00  0.00    -0.218 NA
ATOM     19  H   UNL     1     -41.485  40.944  30.633  1.00  0.00     0.106 H 
ATOM     20  C   UNL     1     -45.085  40.013  26.649  1.00  0.00     0.009 A 
ATOM     21  H   UNL     1     -44.051  41.348  25.251  1.00  0.00     0.065 H 
ATOM     22  H   UNL     1     -45.951  39.620  26.131  1.00  0.00     0.082 H 
BRANCH  12  23
ATOM     23  N   UNL     1     -41.443  42.624  26.568  1.00  0.00    -0.383 N 
ATOM     24  H   UNL     1     -41.772  43.579  26.553  1.00  0.00     0.158 HD
ATOM     25  H   UNL     1     -41.419  42.142  25.676  1.00  0.00     0.158 HD
ENDBRANCH  12  23
ENDBRANCH   1  11
BRANCH   3  26
ATOM     26  C   UNL     1     -46.853  36.037  26.729  1.00  0.00    -0.024 C 
ATOM     27  H   UNL     1     -45.927  35.447  26.774  1.00  0.00     0.029 H 
ATOM     28  H   UNL     1     -46.742  36.651  25.829  1.00  0.00     0.029 H 
BRANCH  26  29
ATOM     29  C   UNL     1     -48.027  35.059  26.605  1.00  0.00    -0.048 C 
ATOM     30  H   UNL     1     -48.758  35.450  25.886  1.00  0.00     0.027 H 
ATOM     31  H   UNL     1     -48.546  35.029  27.573  1.00  0.00     0.027 H 
BRANCH  29  32
ATOM     32  C   UNL     1     -47.638  33.618  26.230  1.00  0.00    -0.039 C 
ATOM     33  C   UNL     1     -48.859  32.756  25.844  1.00  0.00    -0.038 C 
ATOM     34  C   UNL     1     -46.614  33.610  25.087  1.00  0.00    -0.038 C 
ATOM     35  H   UNL     1     -47.157  33.145  27.093  1.00  0.00     0.030 H 
ATOM     36  C   UNL     1     -48.552  31.724  24.753  1.00  0.00    -0.005 C 
ATOM     37  H   UNL     1     -49.215  32.238  26.743  1.00  0.00     0.028 H 
ATOM     38  H   UNL     1     -49.688  33.383  25.496  1.00  0.00     0.028 H 
ATOM     39  C   UNL     1     -46.172  32.179  24.752  1.00  0.00    -0.005 C 
ATOM     40  H   UNL     1     -47.054  34.075  24.196  1.00  0.00     0.028 H 
ATOM     41  H   UNL     1     -45.734  34.206  25.354  1.00  0.00     0.028 H 
ATOM     42  N   UNL     1     -47.218  31.167  24.924  1.00  0.00    -0.317 NA
ATOM     43  H   UNL     1     -49.294  30.920  24.805  1.00  0.00     0.043 H 
ATOM     44  H   UNL     1     -48.651  32.175  23.757  1.00  0.00     0.043 H 
ATOM     45  H   UNL     1     -45.328  31.899  25.393  1.00  0.00     0.043 H 
ATOM     46  H   UNL     1     -45.802  32.158  23.720  1.00  0.00     0.043 H 
ATOM     47  H   UNL     1     -47.065  30.404  24.266  1.00  0.00     0.122 HD
ENDBRANCH  29  32
ENDBRANCH  26  29
ENDBRANCH   3  26
BRANCH   4  48
ATOM     48  O   UNL     1     -49.114  37.831  28.357  1.00  0.00    -0.387 OA
ATOM     49  H   UNL     1     -49.518  37.284  27.658  1.00  0.00     0.211 HD
ENDBRANCH   4  48
TORSDOF 6
ENDMDL
MODEL 2
REMARK VINA RESULT:      -8.7      1.976      8.381
REMARK SMILES Nc1ncnc2c1ccn2[C@@H]1O[C@H](CCC2CCNCC2)[C@@H](O)[C@@H]1F
REMARK SMILES IDX 11 1 12 2 13 3 22 4 24 5 25 6 10 11 2 12 3 13 7 14 4 15 6 16
REMARK SMILES IDX 8 17 5 18 9 20 1 23 14 26 15 29 16 32 17 33 21 34 18 36
REMARK SMILES IDX 20 39 19 42 23 48
REMARK H PARENT 11 7 13 8 22 9 24 10 4 19 8 21 9 22 1 24 1 25 14 27 14 28
REMARK H PARENT 15 30 15 31 16 35 17 37 17 38 21 40 21 41 18 43 18 44 20 45
REMARK H PARENT 20 46 19 47 23 49
REMARK Flexibility Score: inf
ROOT
ATOM      1  C   UNL     1     -47.860  36.301  27.747  1.00  0.00     0.169 C 
ATOM      2  O   UNL     1     -47.606  37.540  27.053  1.00  0.00    -0.349 OA
ATOM      3  C   UNL     1     -46.948  38.440  27.971  1.00  0.00     0.089 C 
ATOM      4  C   UNL     1     -46.339  37.579  29.074  1.00  0.00     0.116 C 
ATOM      5  C   UNL     1     -47.326  36.436  29.165  1.00  0.00     0.173 C 
ATOM      6  F   UNL     1     -46.732  35.316  29.636  1.00  0.00    -0.239 F 
ATOM      7  H   UNL     1     -48.950  36.182  27.785  1.00  0.00     0.088 H 
ATOM      8  H   UNL     1     -47.724  39.094  28.390  1.00  0.00     0.063 H 
ATOM      9  H   UNL     1     -45.339  37.222  28.825  1.00  0.00     0.066 H 
ATOM     10  H   UNL     1     -48.139  36.687  29.857  1.00  0.00     0.074 H 
ENDROOT
BRANCH   1  11
ATOM     11  N   UNL     1     -47.345  35.193  26.958  1.00  0.00    -0.303 N 
ATOM     12  C   UNL     1     -47.718  32.139  25.203  1.00  0.00     0.136 A 
ATOM     13  N   UNL     1     -49.032  31.889  25.345  1.00  0.00    -0.219 NA
ATOM     14  C   UNL     1     -47.179  33.298  25.780  1.00  0.00     0.061 A 
ATOM     15  C   UNL     1     -49.771  32.766  26.048  1.00  0.00     0.120 A 
ATOM     16  C   UNL     1     -48.057  34.121  26.475  1.00  0.00     0.147 A 
ATOM     17  C   UNL     1     -45.895  33.901  25.856  1.00  0.00    -0.031 A 
ATOM     18  N   UNL     1     -49.372  33.904  26.640  1.00  0.00    -0.218 NA
ATOM     19  H   UNL     1     -50.826  32.525  26.144  1.00  0.00     0.106 H 
ATOM     20  C   UNL     1     -46.023  35.064  26.584  1.00  0.00     0.009 A 
ATOM     21  H   UNL     1     -44.975  33.520  25.432  1.00  0.00     0.065 H 
ATOM     22  H   UNL     1     -45.284  35.801  26.871  1.00  0.00     0.082 H 
BRANCH  12  23
ATOM     23  N   UNL     1     -46.972  31.230  24.464  1.00  0.00    -0.383 N 
ATOM     24  H   UNL     1     -47.389  30.960  23.585  1.00  0.00     0.158 HD
ATOM     25  H   UNL     1     -46.647  30.476  25.059  1.00  0.00     0.158 HD
ENDBRANCH  12  23
ENDBRANCH   1  11
BRANCH   3  26
ATOM     26  C   UNL     1     -45.965  39.299  27.171  1.00  0.00    -0.024 C 
ATOM     27  H   UNL     1     -46.315  40.338  27.247  1.00  0.00     0.029 H 
ATOM     28  H   UNL     1     -46.041  39.062  26.104  1.00  0.00     0.029 H 
BRANCH  26  29
ATOM     29  C   UNL     1     -44.512  39.255  27.659  1.00  0.00    -0.048 C 
ATOM     30  H   UNL     1     -43.891  38.735  26.919  1.00  0.00     0.027 H 
ATOM     31  H   UNL     1     -44.479  38.636  28.566  1.00  0.00     0.027 H 
BRANCH  29  32
ATOM     32  C   UNL     1     -43.896  40.625  27.995  1.00  0.00    -0.039 C 
ATOM     33  C   UNL     1     -42.927  40.561  29.195  1.00  0.00    -0.038 C 
ATOM     34  C   UNL     1     -43.175  41.213  26.775  1.00  0.00    -0.038 C 
ATOM     35  H   UNL     1     -44.702  41.321  28.255  1.00  0.00     0.030 H 
ATOM     36  C   UNL     1     -41.748  41.531  29.074  1.00  0.00    -0.005 C 
ATOM     37  H   UNL     1     -43.491  40.787  30.108  1.00  0.00     0.028 H 
ATOM     38  H   UNL     1     -42.525  39.549  29.320  1.00  0.00     0.028 H 
ATOM     39  C   UNL     1     -42.615  42.608  27.084  1.00  0.00    -0.005 C 
ATOM     40  H   UNL     1     -42.355  40.547  26.477  1.00  0.00     0.028 H 
ATOM     41  H   UNL     1     -43.856  41.280  25.919  1.00  0.00     0.028 H 
ATOM     42  N   UNL     1     -42.167  42.787  28.467  1.00  0.00    -0.317 NA
ATOM     43  H   UNL     1     -41.343  41.725  30.073  1.00  0.00     0.043 H 
ATOM     44  H   UNL     1     -40.935  41.080  28.491  1.00  0.00     0.043 H 
ATOM     45  H   UNL     1     -43.385  43.362  26.883  1.00  0.00     0.043 H 
ATOM     46  H   UNL     1     -41.786  42.814  26.396  1.00  0.00     0.043 H 
ATOM     47  H   UNL     1     -41.407  43.465  28.494  1.00  0.00     0.122 HD
ENDBRANCH  29  32
ENDBRANCH  26  29
ENDBRANCH   3  26
BRANCH   4  48
ATOM     48  O   UNL     1     -46.260  38.286  30.312  1.00  0.00    -0.387 OA
ATOM     49  H   UNL     1     -45.311  38.433  30.485  1.00  0.00     0.211 HD
ENDBRANCH   4  48
TORSDOF 6
ENDMDL
MODEL 3
REMARK VINA RESULT:      -8.3      1.735      2.498
REMARK SMILES Nc1ncnc2c1ccn2[C@@H]1O[C@H](CCC2CCNCC2)[C@@H](O)[C@@H]1F
REMARK SMILES IDX 11 1 12 2 13 3 22 4 24 5 25 6 10 11 2 12 3 13 7 14 4 15 6 16
REMARK SMILES IDX 8 17 5 18 9 20 1 23 14 26 15 29 16 32 17 33 21 34 18 36
REMARK SMILES IDX 20 39 19 42 23 48
REMARK H PARENT 11 7 13 8 22 9 24 10 4 19 8 21 9 22 1 24 1 25 14 27 14 28
REMARK H PARENT 15 30 15 31 16 35 17 37 17 38 21 40 21 41 18 43 18 44 20 45
REMARK H PARENT 20 46 19 47 23 49
REMARK Flexibility Score: inf
ROOT
ATOM      1  C   UNL     1     -46.659  36.794  28.515  1.00  0.00     0.169 C 
ATOM      2  O   UNL     1     -45.965  35.638  28.002  1.00  0.00    -0.349 OA
ATOM      3  C   UNL     1     -46.935  34.788  27.350  1.00  0.00     0.089 C 
ATOM      4  C   UNL     1     -48.138  35.666  27.017  1.00  0.00     0.116 C 
ATOM      5  C   UNL     1     -48.131  36.659  28.158  1.00  0.00     0.173 C 
ATOM      6  F   UNL     1     -48.715  37.824  27.793  1.00  0.00    -0.239 F 
ATOM      7  H   UNL     1     -46.551  36.763  29.607  1.00  0.00     0.088 H 
ATOM      8  H   UNL     1     -47.222  34.015  28.074  1.00  0.00     0.063 H 
ATOM      9  H   UNL     1     -48.039  36.166  26.053  1.00  0.00     0.066 H 
ATOM     10  H   UNL     1     -48.697  36.265  29.011  1.00  0.00     0.074 H 
ENDROOT
BRANCH   1  11
ATOM     11  N   UNL     1     -45.984  38.000  28.062  1.00  0.00    -0.303 N 
ATOM     12  C   UNL     1     -43.572  40.572  28.401  1.00  0.00     0.136 A 
ATOM     13  N   UNL     1     -42.967  40.243  29.556  1.00  0.00    -0.219 NA
ATOM     14  C   UNL     1     -44.613  39.763  27.923  1.00  0.00     0.061 A 
ATOM     15  C   UNL     1     -43.399  39.149  30.209  1.00  0.00     0.120 A 
ATOM     16  C   UNL     1     -44.956  38.659  28.694  1.00  0.00     0.147 A 
ATOM     17  C   UNL     1     -45.473  39.764  26.793  1.00  0.00    -0.031 A 
ATOM     18  N   UNL     1     -44.377  38.300  29.852  1.00  0.00    -0.218 NA
ATOM     19  H   UNL     1     -42.889  38.921  31.140  1.00  0.00     0.106 H 
ATOM     20  C   UNL     1     -46.305  38.671  26.900  1.00  0.00     0.009 A 
ATOM     21  H   UNL     1     -45.488  40.492  25.992  1.00  0.00     0.065 H 
ATOM     22  H   UNL     1     -47.101  38.324  26.253  1.00  0.00     0.082 H 
BRANCH  12  23
ATOM     23  N   UNL     1     -43.106  41.697  27.734  1.00  0.00    -0.383 N 
ATOM     24  H   UNL     1     -42.121  41.675  27.510  1.00  0.00     0.158 HD
ATOM     25  H   UNL     1     -43.446  42.539  28.185  1.00  0.00     0.158 HD
ENDBRANCH  12  23
ENDBRANCH   1  11
BRANCH   3  26
ATOM     26  C   UNL     1     -46.248  34.112  26.160  1.00  0.00    -0.024 C 
ATOM     27  H   UNL     1     -45.166  34.182  26.335  1.00  0.00     0.029 H 
ATOM     28  H   UNL     1     -46.416  34.694  25.248  1.00  0.00     0.029 H 
BRANCH  26  29
ATOM     29  C   UNL     1     -46.597  32.632  25.959  1.00  0.00    -0.048 C 
ATOM     30  H   UNL     1     -47.128  32.257  26.842  1.00  0.00     0.027 H 
ATOM     31  H   UNL     1     -45.656  32.067  25.912  1.00  0.00     0.027 H 
BRANCH  29  32
ATOM     32  C   UNL     1     -47.403  32.320  24.686  1.00  0.00    -0.039 C 
ATOM     33  C   UNL     1     -46.645  31.387  23.718  1.00  0.00    -0.038 C 
ATOM     34  C   UNL     1     -48.765  31.707  25.040  1.00  0.00    -0.038 C 
ATOM     35  H   UNL     1     -47.604  33.257  24.156  1.00  0.00     0.030 H 
ATOM     36  C   UNL     1     -47.565  30.430  22.953  1.00  0.00    -0.005 C 
ATOM     37  H   UNL     1     -46.091  32.006  23.003  1.00  0.00     0.028 H 
ATOM     38  H   UNL     1     -45.900  30.787  24.255  1.00  0.00     0.028 H 
ATOM     39  C   UNL     1     -49.601  31.454  23.778  1.00  0.00    -0.005 C 
ATOM     40  H   UNL     1     -48.614  30.761  25.574  1.00  0.00     0.028 H 
ATOM     41  H   UNL     1     -49.322  32.368  25.714  1.00  0.00     0.028 H 
ATOM     42  N   UNL     1     -48.816  31.085  22.597  1.00  0.00    -0.317 NA
ATOM     43  H   UNL     1     -47.054  30.097  22.043  1.00  0.00     0.043 H 
ATOM     44  H   UNL     1     -47.764  29.529  23.547  1.00  0.00     0.043 H 
ATOM     45  H   UNL     1     -50.170  32.358  23.530  1.00  0.00     0.043 H 
ATOM     46  H   UNL     1     -50.336  30.670  23.995  1.00  0.00     0.043 H 
ATOM     47  H   UNL     1     -49.373  30.481  21.993  1.00  0.00     0.122 HD
ENDBRANCH  29  32
ENDBRANCH  26  29
ENDBRANCH   3  26
BRANCH   4  48
ATOM     48  O   UNL     1     -49.351  34.913  27.001  1.00  0.00    -0.387 OA
ATOM     49  H   UNL     1     -49.115  34.003  27.262  1.00  0.00     0.211 HD
ENDBRANCH   4  48
TORSDOF 6
ENDMDL
MODEL 4
REMARK VINA RESULT:      -8.3      2.521      8.284
REMARK SMILES Nc1ncnc2c1ccn2[C@@H]1O[C@H](CCC2CCNCC2)[C@@H](O)[C@@H]1F
REMARK SMILES IDX 11 1 12 2 13 3 22 4 24 5 25 6 10 11 2 12 3 13 7 14 4 15 6 16
REMARK SMILES IDX 8 17 5 18 9 20 1 23 14 26 15 29 16 32 17 33 21 34 18 36
REMARK SMILES IDX 20 39 19 42 23 48
REMARK H PARENT 11 7 13 8 22 9 24 10 4 19 8 21 9 22 1 24 1 25 14 27 14 28
REMARK H PARENT 15 30 15 31 16 35 17 37 17 38 21 40 21 41 18 43 18 44 20 45
REMARK H PARENT 20 46 19 47 23 49
REMARK Flexibility Score: inf
ROOT
ATOM      1  C   UNL     1     -46.773  37.870  28.515  1.00  0.00     0.169 C 
ATOM      2  O   UNL     1     -46.264  38.872  27.610  1.00  0.00    -0.349 OA
ATOM      3  C   UNL     1     -45.128  39.505  28.237  1.00  0.00     0.089 C 
ATOM      4  C   UNL     1     -44.625  38.545  29.312  1.00  0.00     0.116 C 
ATOM      5  C   UNL     1     -45.904  37.877  29.764  1.00  0.00     0.173 C 
ATOM      6  F   UNL     1     -45.659  36.645  30.267  1.00  0.00    -0.239 F 
ATOM      7  H   UNL     1     -47.790  38.182  28.785  1.00  0.00     0.088 H 
ATOM      8  H   UNL     1     -45.492  40.430  28.700  1.00  0.00     0.063 H 
ATOM      9  H   UNL     1     -43.911  37.817  28.925  1.00  0.00     0.066 H 
ATOM     10  H   UNL     1     -46.381  38.463  30.558  1.00  0.00     0.074 H 
ENDROOT
BRANCH   1  11
ATOM     11  N   UNL     1     -46.896  36.603  27.811  1.00  0.00    -0.303 N 
ATOM     12  C   UNL     1     -48.781  33.954  26.407  1.00  0.00     0.136 A 
ATOM     13  N   UNL     1     -50.045  34.339  26.661  1.00  0.00    -0.219 NA
ATOM     14  C   UNL     1     -47.723  34.773  26.825  1.00  0.00     0.061 A 
ATOM     15  C   UNL     1     -50.234  35.498  27.318  1.00  0.00     0.120 A 
ATOM     16  C   UNL     1     -48.060  35.947  27.489  1.00  0.00     0.147 A 
ATOM     17  C   UNL     1     -46.305  34.728  26.754  1.00  0.00    -0.031 A 
ATOM     18  N   UNL     1     -49.307  36.363  27.763  1.00  0.00    -0.218 NA
ATOM     19  H   UNL     1     -51.268  35.771  27.509  1.00  0.00     0.106 H 
ATOM     20  C   UNL     1     -45.820  35.863  27.365  1.00  0.00     0.009 A 
ATOM     21  H   UNL     1     -45.704  33.944  26.311  1.00  0.00     0.065 H 
ATOM     22  H   UNL     1     -44.803  36.198  27.526  1.00  0.00     0.082 H 
BRANCH  12  23
ATOM     23  N   UNL     1     -48.605  32.762  25.718  1.00  0.00    -0.383 N 
ATOM     24  H   UNL     1     -48.821  32.810  24.732  1.00  0.00     0.158 HD
ATOM     25  H   UNL     1     -49.020  31.994  26.232  1.00  0.00     0.158 HD
ENDBRANCH  12  23
ENDBRANCH   1  11
BRANCH   3  26
ATOM     26  C   UNL     1     -44.123  39.870  27.140  1.00  0.00    -0.024 C 
ATOM     27  H   UNL     1     -43.831  38.931  26.650  1.00  0.00     0.029 H 
ATOM     28  H   UNL     1     -43.196  40.243  27.588  1.00  0.00     0.029 H 
BRANCH  26  29
ATOM     29  C   UNL     1     -44.652  40.820  26.060  1.00  0.00    -0.048 C 
ATOM     30  H   UNL     1     -45.737  40.937  26.172  1.00  0.00     0.027 H 
ATOM     31  H   UNL     1     -44.502  40.338  25.084  1.00  0.00     0.027 H 
BRANCH  29  32
ATOM     32  C   UNL     1     -43.974  42.201  26.017  1.00  0.00    -0.039 C 
ATOM     33  C   UNL     1     -42.475  42.136  26.378  1.00  0.00    -0.038 C 
ATOM     34  C   UNL     1     -44.150  42.852  24.639  1.00  0.00    -0.038 C 
ATOM     35  H   UNL     1     -44.463  42.857  26.745  1.00  0.00     0.030 H 
ATOM     36  C   UNL     1     -41.623  43.153  25.612  1.00  0.00    -0.005 C 
ATOM     37  H   UNL     1     -42.370  42.313  27.455  1.00  0.00     0.028 H 
ATOM     38  H   UNL     1     -42.068  41.136  26.186  1.00  0.00     0.028 H 
ATOM     39  C   UNL     1     -43.533  44.257  24.610  1.00  0.00    -0.005 C 
ATOM     40  H   UNL     1     -43.672  42.227  23.874  1.00  0.00     0.028 H 
ATOM     41  H   UNL     1     -45.211  42.919  24.377  1.00  0.00     0.028 H 
ATOM     42  N   UNL     1     -42.338  44.410  25.444  1.00  0.00    -0.317 NA
ATOM     43  H   UNL     1     -40.695  43.331  26.168  1.00  0.00     0.043 H 
ATOM     44  H   UNL     1     -41.327  42.750  24.635  1.00  0.00     0.043 H 
ATOM     45  H   UNL     1     -44.275  44.988  24.953  1.00  0.00     0.043 H 
ATOM     46  H   UNL     1     -43.295  44.514  23.571  1.00  0.00     0.043 H 
ATOM     47  H   UNL     1     -41.726  45.115  25.035  1.00  0.00     0.122 HD
ENDBRANCH  29  32
ENDBRANCH  26  29
ENDBRANCH   3  26
BRANCH   4  48
ATOM     48  O   UNL     1     -44.002  39.242  30.392  1.00  0.00    -0.387 OA
ATOM     49  H   UNL     1     -44.538  39.056  31.185  1.00  0.00     0.211 HD
ENDBRANCH   4  48
TORSDOF 6
ENDMDL
MODEL 5
REMARK VINA RESULT:      -8.2      5.806     11.247
REMARK SMILES Nc1ncnc2c1ccn2[C@@H]1O[C@H](CCC2CCNCC2)[C@@H](O)[C@@H]1F
REMARK SMILES IDX 11 1 12 2 13 3 22 4 24 5 25 6 10 11 2 12 3 13 7 14 4 15 6 16
REMARK SMILES IDX 8 17 5 18 9 20 1 23 14 26 15 29 16 32 17 33 21 34 18 36
REMARK SMILES IDX 20 39 19 42 23 48
REMARK H PARENT 11 7 13 8 22 9 24 10 4 19 8 21 9 22 1 24 1 25 14 27 14 28
REMARK H PARENT 15 30 15 31 16 35 17 37 17 38 21 40 21 41 18 43 18 44 20 45
REMARK H PARENT 20 46 19 47 23 49
REMARK Flexibility Score: inf
ROOT
ATOM      1  C   UNL     1     -46.609  29.487  22.922  1.00  0.00     0.169 C 
ATOM      2  O   UNL     1     -46.409  30.598  23.821  1.00  0.00    -0.349 OA
ATOM      3  C   UNL     1     -47.501  31.526  23.633  1.00  0.00     0.089 C 
ATOM      4  C   UNL     1     -48.640  30.744  22.986  1.00  0.00     0.116 C 
ATOM      5  C   UNL     1     -47.892  29.734  22.143  1.00  0.00     0.173 C 
ATOM      6  F   UNL     1     -48.634  28.621  21.944  1.00  0.00    -0.239 F 
ATOM      7  H   UNL     1     -45.761  29.493  22.226  1.00  0.00     0.088 H 
ATOM      8  H   UNL     1     -47.144  32.306  22.949  1.00  0.00     0.063 H 
ATOM      9  H   UNL     1     -49.282  30.253  23.718  1.00  0.00     0.066 H 
ATOM     10  H   UNL     1     -47.665  30.154  21.156  1.00  0.00     0.074 H 
ENDROOT
BRANCH   1  11
ATOM     11  N   UNL     1     -46.528  28.242  23.671  1.00  0.00    -0.303 N 
ATOM     12  C   UNL     1     -47.679  25.967  26.128  1.00  0.00     0.136 A 
ATOM     13  N   UNL     1     -48.767  26.596  26.609  1.00  0.00    -0.219 NA
ATOM     14  C   UNL     1     -46.935  26.578  25.109  1.00  0.00     0.061 A 
ATOM     15  C   UNL     1     -49.087  27.796  26.091  1.00  0.00     0.120 A 
ATOM     16  C   UNL     1     -47.380  27.816  24.661  1.00  0.00     0.147 A 
ATOM     17  C   UNL     1     -45.771  26.259  24.360  1.00  0.00    -0.031 A 
ATOM     18  N   UNL     1     -48.457  28.475  25.117  1.00  0.00    -0.218 NA
ATOM     19  H   UNL     1     -49.967  28.272  26.510  1.00  0.00     0.106 H 
ATOM     20  C   UNL     1     -45.541  27.295  23.482  1.00  0.00     0.009 A 
ATOM     21  H   UNL     1     -45.162  25.370  24.459  1.00  0.00     0.065 H 
ATOM     22  H   UNL     1     -44.757  27.440  22.750  1.00  0.00     0.082 H 
BRANCH  12  23
ATOM     23  N   UNL     1     -47.371  24.725  26.666  1.00  0.00    -0.383 N 
ATOM     24  H   UNL     1     -46.384  24.515  26.699  1.00  0.00     0.158 HD
ATOM     25  H   UNL     1     -47.970  24.011  26.267  1.00  0.00     0.158 HD
ENDBRANCH  12  23
ENDBRANCH   1  11
BRANCH   3  26
ATOM     26  C   UNL     1     -47.813  32.170  24.987  1.00  0.00    -0.024 C 
ATOM     27  H   UNL     1     -47.757  31.372  25.740  1.00  0.00     0.029 H 
ATOM     28  H   UNL     1     -48.857  32.499  25.015  1.00  0.00     0.029 H 
BRANCH  26  29
ATOM     29  C   UNL     1     -46.856  33.288  25.415  1.00  0.00    -0.048 C 
ATOM     30  H   UNL     1     -46.745  34.011  24.597  1.00  0.00     0.027 H 
ATOM     31  H   UNL     1     -45.861  32.844  25.560  1.00  0.00     0.027 H 
BRANCH  29  32
ATOM     32  C   UNL     1     -47.245  34.017  26.714  1.00  0.00    -0.039 C 
ATOM     33  C   UNL     1     -46.094  34.050  27.742  1.00  0.00    -0.038 C 
ATOM     34  C   UNL     1     -47.718  35.446  26.416  1.00  0.00    -0.038 C 
ATOM     35  H   UNL     1     -48.088  33.492  27.175  1.00  0.00     0.030 H 
ATOM     36  C   UNL     1     -46.069  35.331  28.582  1.00  0.00    -0.005 C 
ATOM     37  H   UNL     1     -46.198  33.183  28.405  1.00  0.00     0.028 H 
ATOM     38  H   UNL     1     -45.122  33.949  27.246  1.00  0.00     0.028 H 
ATOM     39  C   UNL     1     -48.169  36.157  27.699  1.00  0.00    -0.005 C 
ATOM     40  H   UNL     1     -46.902  36.014  25.951  1.00  0.00     0.028 H 
ATOM     41  H   UNL     1     -48.546  35.437  25.699  1.00  0.00     0.028 H 
ATOM     42  N   UNL     1     -47.420  35.773  28.898  1.00  0.00    -0.317 NA
ATOM     43  H   UNL     1     -45.521  35.137  29.511  1.00  0.00     0.043 H 
ATOM     44  H   UNL     1     -45.522  36.126  28.058  1.00  0.00     0.043 H 
ATOM     45  H   UNL     1     -49.228  35.938  27.884  1.00  0.00     0.043 H 
ATOM     46  H   UNL     1     -48.094  37.240  27.546  1.00  0.00     0.043 H 
ATOM     47  H   UNL     1     -47.394  36.557  29.549  1.00  0.00     0.122 HD
ENDBRANCH  29  32
ENDBRANCH  26  29
ENDBRANCH   3  26
BRANCH   4  48
ATOM     48  O   UNL     1     -49.460  31.583  22.172  1.00  0.00    -0.387 OA
ATOM     49  H   UNL     1     -48.853  32.112  21.622  1.00  0.00     0.211 HD
ENDBRANCH   4  48
TORSDOF 6
ENDMDL
MODEL 6
REMARK VINA RESULT:      -8.0      3.092      4.656
REMARK SMILES Nc1ncnc2c1ccn2[C@@H]1O[C@H](CCC2CCNCC2)[C@@H](O)[C@@H]1F
REMARK SMILES IDX 11 1 12 2 13 3 22 4 24 5 25 6 10 11 2 12 3 13 7 14 4 15 6 16
REMARK SMILES IDX 8 17 5 18 9 20 1 23 14 26 15 29 16 32 17 33 21 34 18 36
REMARK SMILES IDX 20 39 19 42 23 48
REMARK H PARENT 11 7 13 8 22 9 24 10 4 19 8 21 9 22 1 24 1 25 14 27 14 28
REMARK H PARENT 15 30 15 31 16 35 17 37 17 38 21 40 21 41 18 43 18 44 20 45
REMARK H PARENT 20 46 19 47 23 49
REMARK Flexibility Score: inf
ROOT
ATOM      1  C   UNL     1     -46.541  35.873  26.649  1.00  0.00     0.169 C 
ATOM      2  O   UNL     1     -47.325  34.995  25.815  1.00  0.00    -0.349 OA
ATOM      3  C   UNL     1     -47.090  33.638  26.252  1.00  0.00     0.089 C 
ATOM      4  C   UNL     1     -46.559  33.718  27.680  1.00  0.00     0.116 C 
ATOM      5  C   UNL     1     -45.788  35.020  27.658  1.00  0.00     0.173 C 
ATOM      6  F   UNL     1     -45.719  35.566  28.894  1.00  0.00    -0.239 F 
ATOM      7  H   UNL     1     -45.818  36.367  25.988  1.00  0.00     0.088 H 
ATOM      8  H   UNL     1     -46.324  33.216  25.589  1.00  0.00     0.063 H 
ATOM      9  H   UNL     1     -47.356  33.740  28.425  1.00  0.00     0.066 H 
ATOM     10  H   UNL     1     -44.758  34.848  27.321  1.00  0.00     0.074 H 
ENDROOT
BRANCH   1  11
ATOM     11  N   UNL     1     -47.399  36.918  27.187  1.00  0.00    -0.303 N 
ATOM     12  C   UNL     1     -48.111  40.285  28.022  1.00  0.00     0.136 A 
ATOM     13  N   UNL     1     -46.996  40.920  27.617  1.00  0.00    -0.219 NA
ATOM     14  C   UNL     1     -48.204  38.896  27.851  1.00  0.00     0.061 A 
ATOM     15  C   UNL     1     -46.011  40.183  27.072  1.00  0.00     0.120 A 
ATOM     16  C   UNL     1     -47.115  38.260  27.268  1.00  0.00     0.147 A 
ATOM     17  C   UNL     1     -49.171  37.894  28.132  1.00  0.00    -0.031 A 
ATOM     18  N   UNL     1     -45.986  38.858  26.855  1.00  0.00    -0.218 NA
ATOM     19  H   UNL     1     -45.126  40.732  26.764  1.00  0.00     0.106 H 
ATOM     20  C   UNL     1     -48.654  36.687  27.714  1.00  0.00     0.009 A 
ATOM     21  H   UNL     1     -50.137  38.039  28.598  1.00  0.00     0.065 H 
ATOM     22  H   UNL     1     -49.070  35.689  27.757  1.00  0.00     0.082 H 
BRANCH  12  23
ATOM     23  N   UNL     1     -49.123  41.061  28.571  1.00  0.00    -0.383 N 
ATOM     24  H   UNL     1     -49.749  40.562  29.186  1.00  0.00     0.158 HD
ATOM     25  H   UNL     1     -49.556  41.633  27.855  1.00  0.00     0.158 HD
ENDBRANCH  12  23
ENDBRANCH   1  11
BRANCH   3  26
ATOM     26  C   UNL     1     -48.388  32.847  26.063  1.00  0.00    -0.024 C 
ATOM     27  H   UNL     1     -49.214  33.567  26.142  1.00  0.00     0.029 H 
ATOM     28  H   UNL     1     -48.539  32.164  26.905  1.00  0.00     0.029 H 
BRANCH  26  29
ATOM     29  C   UNL     1     -48.522  32.125  24.717  1.00  0.00    -0.048 C 
ATOM     30  H   UNL     1     -48.362  32.838  23.899  1.00  0.00     0.027 H 
ATOM     31  H   UNL     1     -49.563  31.785  24.619  1.00  0.00     0.027 H 
BRANCH  29  32
ATOM     32  C   UNL     1     -47.604  30.902  24.539  1.00  0.00    -0.039 C 
ATOM     33  C   UNL     1     -48.319  29.572  24.858  1.00  0.00    -0.038 C 
ATOM     34  C   UNL     1     -47.029  30.855  23.118  1.00  0.00    -0.038 C 
ATOM     35  H   UNL     1     -46.754  30.996  25.224  1.00  0.00     0.030 H 
ATOM     36  C   UNL     1     -47.847  28.406  23.985  1.00  0.00    -0.005 C 
ATOM     37  H   UNL     1     -48.144  29.330  25.913  1.00  0.00     0.028 H 
ATOM     38  H   UNL     1     -49.404  29.672  24.737  1.00  0.00     0.028 H 
ATOM     39  C   UNL     1     -46.060  29.676  22.953  1.00  0.00    -0.005 C 
ATOM     40  H   UNL     1     -47.847  30.761  22.393  1.00  0.00     0.028 H 
ATOM     41  H   UNL     1     -46.504  31.788  22.883  1.00  0.00     0.028 H 
ATOM     42  N   UNL     1     -46.416  28.489  23.734  1.00  0.00    -0.317 NA
ATOM     43  H   UNL     1     -48.076  27.463  24.495  1.00  0.00     0.043 H 
ATOM     44  H   UNL     1     -48.399  28.387  23.036  1.00  0.00     0.043 H 
ATOM     45  H   UNL     1     -45.054  29.986  23.256  1.00  0.00     0.043 H 
ATOM     46  H   UNL     1     -46.002  29.416  21.889  1.00  0.00     0.043 H 
ATOM     47  H   UNL     1     -46.091  27.653  23.250  1.00  0.00     0.122 HD
ENDBRANCH  29  32
ENDBRANCH  26  29
ENDBRANCH   3  26
BRANCH   4  48
ATOM     48  O   UNL     1     -45.700  32.619  27.986  1.00  0.00    -0.387 OA
ATOM     49  H   UNL     1     -44.992  32.973  28.557  1.00  0.00     0.211 HD
ENDBRANCH   4  48
TORSDOF 6
ENDMDL
MODEL 7
REMARK VINA RESULT:      -7.9      2.440      3.380
REMARK SMILES Nc1ncnc2c1ccn2[C@@H]1O[C@H](CCC2CCNCC2)[C@@H](O)[C@@H]1F
REMARK SMILES IDX 11 1 12 2 13 3 22 4 24 5 25 6 10 11 2 12 3 13 7 14 4 15 6 16
REMARK SMILES IDX 8 17 5 18 9 20 1 23 14 26 15 29 16 32 17 33 21 34 18 36
REMARK SMILES IDX 20 39 19 42 23 48
REMARK H PARENT 11 7 13 8 22 9 24 10 4 19 8 21 9 22 1 24 1 25 14 27 14 28
REMARK H PARENT 15 30 15 31 16 35 17 37 17 38 21 40 21 41 18 43 18 44 20 45
REMARK H PARENT 20 46 19 47 23 49
REMARK Flexibility Score: inf
ROOT
ATOM      1  C   UNL     1     -45.904  37.583  27.433  1.00  0.00     0.169 C 
ATOM      2  O   UNL     1     -46.481  36.600  26.550  1.00  0.00    -0.349 OA
ATOM      3  C   UNL     1     -46.765  35.415  27.325  1.00  0.00     0.089 C 
ATOM      4  C   UNL     1     -46.834  35.849  28.787  1.00  0.00     0.116 C 
ATOM      5  C   UNL     1     -45.832  36.981  28.828  1.00  0.00     0.173 C 
ATOM      6  F   UNL     1     -46.126  37.856  29.818  1.00  0.00    -0.239 F 
ATOM      7  H   UNL     1     -44.885  37.768  27.070  1.00  0.00     0.088 H 
ATOM      8  H   UNL     1     -45.924  34.726  27.177  1.00  0.00     0.063 H 
ATOM      9  H   UNL     1     -47.829  36.187  29.079  1.00  0.00     0.066 H 
ATOM     10  H   UNL     1     -44.825  36.594  29.026  1.00  0.00     0.074 H 
ENDROOT
BRANCH   1  11
ATOM     11  N   UNL     1     -46.630  38.837  27.298  1.00  0.00    -0.303 N 
ATOM     12  C   UNL     1     -46.893  42.231  26.323  1.00  0.00     0.136 A 
ATOM     13  N   UNL     1     -45.677  42.470  25.797  1.00  0.00    -0.219 NA
ATOM     14  C   UNL     1     -47.176  40.955  26.830  1.00  0.00     0.061 A 
ATOM     15  C   UNL     1     -44.781  41.467  25.793  1.00  0.00     0.120 A 
ATOM     16  C   UNL     1     -46.160  40.009  26.757  1.00  0.00     0.147 A 
ATOM     17  C   UNL     1     -48.290  40.322  27.442  1.00  0.00    -0.031 A 
ATOM     18  N   UNL     1     -44.935  40.211  26.244  1.00  0.00    -0.218 NA
ATOM     19  H   UNL     1     -43.811  41.702  25.365  1.00  0.00     0.106 H 
ATOM     20  C   UNL     1     -47.931  39.021  27.720  1.00  0.00     0.009 A 
ATOM     21  H   UNL     1     -49.249  40.772  27.664  1.00  0.00     0.065 H 
ATOM     22  H   UNL     1     -48.488  38.219  28.187  1.00  0.00     0.082 H 
BRANCH  12  23
ATOM     23  N   UNL     1     -47.810  43.274  26.309  1.00  0.00    -0.383 N 
ATOM     24  H   UNL     1     -48.588  43.157  26.941  1.00  0.00     0.158 HD
ATOM     25  H   UNL     1     -48.039  43.527  25.354  1.00  0.00     0.158 HD
ENDBRANCH  12  23
ENDBRANCH   1  11
BRANCH   3  26
ATOM     26  C   UNL     1     -48.032  34.768  26.757  1.00  0.00    -0.024 C 
ATOM     27  H   UNL     1     -48.199  35.211  25.766  1.00  0.00     0.029 H 
ATOM     28  H   UNL     1     -48.905  35.074  27.343  1.00  0.00     0.029 H 
BRANCH  26  29
ATOM     29  C   UNL     1     -47.969  33.246  26.587  1.00  0.00    -0.048 C 
ATOM     30  H   UNL     1     -48.827  32.784  27.090  1.00  0.00     0.027 H 
ATOM     31  H   UNL     1     -47.078  32.884  27.120  1.00  0.00     0.027 H 
BRANCH  29  32
ATOM     32  C   UNL     1     -47.884  32.756  25.131  1.00  0.00    -0.039 C 
ATOM     33  C   UNL     1     -46.444  32.388  24.712  1.00  0.00    -0.038 C 
ATOM     34  C   UNL     1     -48.814  31.557  24.904  1.00  0.00    -0.038 C 
ATOM     35  H   UNL     1     -48.229  33.557  24.468  1.00  0.00     0.030 H 
ATOM     36  C   UNL     1     -46.381  31.217  23.726  1.00  0.00    -0.005 C 
ATOM     37  H   UNL     1     -45.980  33.271  24.257  1.00  0.00     0.028 H 
ATOM     38  H   UNL     1     -45.835  32.131  25.587  1.00  0.00     0.028 H 
ATOM     39  C   UNL     1     -48.784  31.104  23.438  1.00  0.00    -0.005 C 
ATOM     40  H   UNL     1     -48.505  30.725  25.550  1.00  0.00     0.028 H 
ATOM     41  H   UNL     1     -49.843  31.809  25.182  1.00  0.00     0.028 H 
ATOM     42  N   UNL     1     -47.485  31.272  22.780  1.00  0.00    -0.317 NA
ATOM     43  H   UNL     1     -45.430  31.261  23.183  1.00  0.00     0.043 H 
ATOM     44  H   UNL     1     -46.388  30.260  24.264  1.00  0.00     0.043 H 
ATOM     45  H   UNL     1     -49.524  31.675  22.865  1.00  0.00     0.043 H 
ATOM     46  H   UNL     1     -49.091  30.053  23.389  1.00  0.00     0.043 H 
ATOM     47  H   UNL     1     -47.373  30.558  22.061  1.00  0.00     0.122 HD
ENDBRANCH  29  32
ENDBRANCH  26  29
ENDBRANCH   3  26
BRANCH   4  48
ATOM     48  O   UNL     1     -46.451  34.793  29.669  1.00  0.00    -0.387 OA
ATOM     49  H   UNL     1     -45.779  34.268  29.195  1.00  0.00     0.211 HD
ENDBRANCH   4  48
TORSDOF 6
ENDMDL
