MODEL 1
REMARK VINA RESULT:      -9.7      0.000      0.000
REMARK SMILES CN(CCS(C)(=O)=O)c1ccc2ccc(OC[C@H]3O[C@@H](n4cc(-c5ccn(C)n5)c5c(N)ncnc54)[C@@H](F)[C@@H]3O)cc2n1
REMARK SMILES IDX 9 1 10 2 11 3 12 4 13 5 14 6 15 7 41 8 42 9 43 10 2 16 1 17
REMARK SMILES IDX 3 21 4 24 5 27 7 28 8 29 6 30 16 34 17 35 18 38 19 39 39 40
REMARK SMILES IDX 20 42 37 43 38 46 40 48 21 50 22 51 36 52 23 53 30 55 35 56
REMARK SMILES IDX 31 57 34 58 33 59 24 61 25 62 29 63 26 64 27 66 28 68 32 72
REMARK H PARENT 10 11 11 12 13 13 14 14 41 15 1 18 1 19 1 20 3 22 3 23 4 25
REMARK H PARENT 4 26 6 31 6 32 6 33 17 36 17 37 18 41 39 44 20 45 37 47 40 49
REMARK H PARENT 22 54 34 60 25 65 26 67 28 69 28 70 28 71 32 73 32 74
REMARK Flexibility Score: inf
ROOT
ATOM      1  C   UNL     1     -48.857  30.487  24.067  1.00  0.00     0.129 A 
ATOM      2  C   UNL     1     -47.532  30.287  23.687  1.00  0.00    -0.019 A 
ATOM      3  C   UNL     1     -46.565  31.228  24.029  1.00  0.00    -0.049 A 
ATOM      4  C   UNL     1     -46.932  32.358  24.760  1.00  0.00     0.001 A 
ATOM      5  C   UNL     1     -46.000  33.341  25.131  1.00  0.00    -0.049 A 
ATOM      6  C   UNL     1     -46.403  34.456  25.870  1.00  0.00    -0.019 A 
ATOM      7  C   UNL     1     -47.737  34.591  26.240  1.00  0.00     0.121 A 
ATOM      8  C   UNL     1     -48.655  33.603  25.860  1.00  0.00     0.007 A 
ATOM      9  C   UNL     1     -48.282  32.487  25.126  1.00  0.00     0.076 A 
ATOM     10  N   UNL     1     -49.209  31.569  24.793  1.00  0.00    -0.231 NA
ATOM     11  H   UNL     1     -47.237  29.394  23.146  1.00  0.00     0.066 H 
ATOM     12  H   UNL     1     -45.533  31.066  23.729  1.00  0.00     0.063 H 
ATOM     13  H   UNL     1     -44.954  33.242  24.849  1.00  0.00     0.063 H 
ATOM     14  H   UNL     1     -45.649  35.189  26.130  1.00  0.00     0.066 H 
ATOM     15  H   UNL     1     -49.698  33.712  26.149  1.00  0.00     0.069 H 
ENDROOT
BRANCH   1  16
ATOM     16  N   UNL     1     -49.835  29.517  23.740  1.00  0.00    -0.359 N 
BRANCH  16  17
ATOM     17  C   UNL     1     -50.907  30.089  22.915  1.00  0.00     0.008 C 
ATOM     18  H   UNL     1     -50.501  30.613  22.041  1.00  0.00     0.046 H 
ATOM     19  H   UNL     1     -51.620  29.329  22.577  1.00  0.00     0.046 H 
ATOM     20  H   UNL     1     -51.488  30.810  23.502  1.00  0.00     0.046 H 
ENDBRANCH  16  17
BRANCH  16  21
ATOM     21  C   UNL     1     -50.339  28.750  24.903  1.00  0.00     0.033 C 
ATOM     22  H   UNL     1     -50.026  29.233  25.839  1.00  0.00     0.050 H 
ATOM     23  H   UNL     1     -51.435  28.793  24.912  1.00  0.00     0.050 H 
BRANCH  21  24
ATOM     24  C   UNL     1     -49.899  27.296  24.897  1.00  0.00     0.067 C 
ATOM     25  H   UNL     1     -49.673  26.993  23.868  1.00  0.00     0.045 H 
ATOM     26  H   UNL     1     -50.646  26.601  25.291  1.00  0.00     0.045 H 
BRANCH  24  27
ATOM     27  S   UNL     1     -48.395  27.022  25.806  1.00  0.00     0.149 S 
ATOM     28  O   UNL     1     -48.411  27.854  26.996  1.00  0.00    -0.229 OA
ATOM     29  O   UNL     1     -47.299  27.139  24.860  1.00  0.00    -0.229 OA
BRANCH  27  30
ATOM     30  C   UNL     1     -48.455  25.320  26.318  1.00  0.00     0.039 C 
ATOM     31  H   UNL     1     -47.435  24.931  26.301  1.00  0.00     0.040 H 
ATOM     32  H   UNL     1     -48.846  25.257  27.333  1.00  0.00     0.040 H 
ATOM     33  H   UNL     1     -49.074  24.759  25.616  1.00  0.00     0.040 H 
ENDBRANCH  27  30
ENDBRANCH  24  27
ENDBRANCH  21  24
ENDBRANCH  16  21
ENDBRANCH   1  16
BRANCH   7  34
ATOM     34  O   UNL     1     -48.282  35.618  26.957  1.00  0.00    -0.491 OA
BRANCH  34  35
ATOM     35  C   UNL     1     -47.433  36.674  27.424  1.00  0.00     0.117 C 
ATOM     36  H   UNL     1     -48.017  37.504  27.836  1.00  0.00     0.073 H 
ATOM     37  H   UNL     1     -46.942  37.060  26.524  1.00  0.00     0.073 H 
BRANCH  35  38
ATOM     38  C   UNL     1     -46.385  36.135  28.412  1.00  0.00     0.123 C 
ATOM     39  O   UNL     1     -45.113  36.787  28.180  1.00  0.00    -0.345 OA
ATOM     40  C   UNL     1     -46.725  36.434  29.870  1.00  0.00     0.119 C 
ATOM     41  H   UNL     1     -46.219  35.065  28.250  1.00  0.00     0.067 H 
ATOM     42  C   UNL     1     -44.938  37.816  29.191  1.00  0.00     0.169 C 
ATOM     43  C   UNL     1     -46.199  37.842  30.047  1.00  0.00     0.173 C 
ATOM     44  H   UNL     1     -47.796  36.355  30.075  1.00  0.00     0.066 H 
ATOM     45  H   UNL     1     -44.069  37.502  29.783  1.00  0.00     0.088 H 
ATOM     46  F   UNL     1     -47.126  38.700  29.538  1.00  0.00    -0.239 F 
ATOM     47  H   UNL     1     -45.999  38.124  31.084  1.00  0.00     0.074 H 
BRANCH  40  48
ATOM     48  O   UNL     1     -46.048  35.533  30.755  1.00  0.00    -0.387 OA
ATOM     49  H   UNL     1     -46.708  34.995  31.232  1.00  0.00     0.211 HD
ENDBRANCH  40  48
BRANCH  42  50
ATOM     50  N   UNL     1     -44.604  39.086  28.572  1.00  0.00    -0.302 N 
ATOM     51  C   UNL     1     -45.223  39.681  27.502  1.00  0.00     0.019 A 
ATOM     52  C   UNL     1     -43.566  39.875  28.998  1.00  0.00     0.148 A 
ATOM     53  C   UNL     1     -44.577  40.876  27.244  1.00  0.00     0.033 A 
ATOM     54  H   UNL     1     -46.055  39.201  27.002  1.00  0.00     0.083 H 
ATOM     55  C   UNL     1     -43.530  41.019  28.209  1.00  0.00     0.071 A 
ATOM     56  N   UNL     1     -42.745  39.568  30.018  1.00  0.00    -0.218 NA
ATOM     57  C   UNL     1     -42.537  41.960  28.538  1.00  0.00     0.137 A 
ATOM     58  C   UNL     1     -41.827  40.528  30.212  1.00  0.00     0.120 A 
ATOM     59  N   UNL     1     -41.675  41.681  29.539  1.00  0.00    -0.219 NA
ATOM     60  H   UNL     1     -41.117  40.354  31.016  1.00  0.00     0.106 H 
BRANCH  53  61
ATOM     61  C   UNL     1     -44.901  41.813  26.163  1.00  0.00     0.095 A 
ATOM     62  C   UNL     1     -46.144  42.472  26.024  1.00  0.00    -0.016 A 
ATOM     63  N   UNL     1     -44.062  42.129  25.167  1.00  0.00    -0.173 NA
ATOM     64  C   UNL     1     -46.021  43.233  24.884  1.00  0.00     0.025 A 
ATOM     65  H   UNL     1     -47.010  42.410  26.668  1.00  0.00     0.066 H 
ATOM     66  N   UNL     1     -44.765  42.997  24.414  1.00  0.00    -0.275 N 
ATOM     67  H   UNL     1     -46.707  43.904  24.388  1.00  0.00     0.084 H 
BRANCH  66  68
ATOM     68  C   UNL     1     -44.158  43.570  23.237  1.00  0.00     0.030 C 
ATOM     69  H   UNL     1     -44.808  44.351  22.836  1.00  0.00     0.048 H 
ATOM     70  H   UNL     1     -43.192  43.996  23.521  1.00  0.00     0.048 H 
ATOM     71  H   UNL     1     -44.025  42.776  22.498  1.00  0.00     0.048 H 
ENDBRANCH  66  68
ENDBRANCH  53  61
BRANCH  57  72
ATOM     72  N   UNL     1     -42.373  43.176  27.894  1.00  0.00    -0.383 N 
ATOM     73  H   UNL     1     -43.083  43.842  28.160  1.00  0.00     0.158 HD
ATOM     74  H   UNL     1     -41.401  43.500  27.912  1.00  0.00     0.158 HD
ENDBRANCH  57  72
ENDBRANCH  42  50
ENDBRANCH  35  38
ENDBRANCH  34  35
ENDBRANCH   7  34
TORSDOF 14
ENDMDL
MODEL 2
REMARK VINA RESULT:      -8.8      4.067      8.406
REMARK SMILES CN(CCS(C)(=O)=O)c1ccc2ccc(OC[C@H]3O[C@@H](n4cc(-c5ccn(C)n5)c5c(N)ncnc54)[C@@H](F)[C@@H]3O)cc2n1
REMARK SMILES IDX 9 1 10 2 11 3 12 4 13 5 14 6 15 7 41 8 42 9 43 10 2 16 1 17
REMARK SMILES IDX 3 21 4 24 5 27 7 28 8 29 6 30 16 34 17 35 18 38 19 39 39 40
REMARK SMILES IDX 20 42 37 43 38 46 40 48 21 50 22 51 36 52 23 53 30 55 35 56
REMARK SMILES IDX 31 57 34 58 33 59 24 61 25 62 29 63 26 64 27 66 28 68 32 72
REMARK H PARENT 10 11 11 12 13 13 14 14 41 15 1 18 1 19 1 20 3 22 3 23 4 25
REMARK H PARENT 4 26 6 31 6 32 6 33 17 36 17 37 18 41 39 44 20 45 37 47 40 49
REMARK H PARENT 22 54 34 60 25 65 26 67 28 69 28 70 28 71 32 73 32 74
REMARK Flexibility Score: inf
ROOT
ATOM      1  C   UNL     1     -45.835  37.873  28.365  1.00  0.00     0.129 A 
ATOM      2  C   UNL     1     -45.290  37.513  29.596  1.00  0.00    -0.019 A 
ATOM      3  C   UNL     1     -44.243  38.257  30.133  1.00  0.00    -0.049 A 
ATOM      4  C   UNL     1     -43.758  39.365  29.437  1.00  0.00     0.001 A 
ATOM      5  C   UNL     1     -42.703  40.151  29.929  1.00  0.00    -0.049 A 
ATOM      6  C   UNL     1     -42.249  41.257  29.208  1.00  0.00    -0.019 A 
ATOM      7  C   UNL     1     -42.847  41.582  27.995  1.00  0.00     0.121 A 
ATOM      8  C   UNL     1     -43.896  40.787  27.517  1.00  0.00     0.007 A 
ATOM      9  C   UNL     1     -44.367  39.683  28.212  1.00  0.00     0.076 A 
ATOM     10  N   UNL     1     -45.381  38.958  27.702  1.00  0.00    -0.231 NA
ATOM     11  H   UNL     1     -45.685  36.672  30.154  1.00  0.00     0.066 H 
ATOM     12  H   UNL     1     -43.821  37.970  31.092  1.00  0.00     0.063 H 
ATOM     13  H   UNL     1     -42.231  39.907  30.878  1.00  0.00     0.063 H 
ATOM     14  H   UNL     1     -41.431  41.832  29.626  1.00  0.00     0.066 H 
ATOM     15  H   UNL     1     -44.361  41.041  26.566  1.00  0.00     0.069 H 
ENDROOT
BRANCH   1  16
ATOM     16  N   UNL     1     -46.916  37.131  27.833  1.00  0.00    -0.359 N 
BRANCH  16  17
ATOM     17  C   UNL     1     -47.746  36.550  28.897  1.00  0.00     0.008 C 
ATOM     18  H   UNL     1     -48.754  36.314  28.533  1.00  0.00     0.046 H 
ATOM     19  H   UNL     1     -47.299  35.646  29.324  1.00  0.00     0.046 H 
ATOM     20  H   UNL     1     -47.844  37.260  29.726  1.00  0.00     0.046 H 
ENDBRANCH  16  17
BRANCH  16  21
ATOM     21  C   UNL     1     -46.523  36.148  26.797  1.00  0.00     0.033 C 
ATOM     22  H   UNL     1     -47.353  35.985  26.096  1.00  0.00     0.050 H 
ATOM     23  H   UNL     1     -45.715  36.572  26.189  1.00  0.00     0.050 H 
BRANCH  21  24
ATOM     24  C   UNL     1     -46.064  34.820  27.377  1.00  0.00     0.067 C 
ATOM     25  H   UNL     1     -46.231  34.824  28.460  1.00  0.00     0.045 H 
ATOM     26  H   UNL     1     -45.007  34.599  27.204  1.00  0.00     0.045 H 
BRANCH  24  27
ATOM     27  S   UNL     1     -46.997  33.435  26.765  1.00  0.00     0.149 S 
ATOM     28  O   UNL     1     -48.412  33.755  26.843  1.00  0.00    -0.229 OA
ATOM     29  O   UNL     1     -46.488  32.251  27.434  1.00  0.00    -0.229 OA
BRANCH  27  30
ATOM     30  C   UNL     1     -46.556  33.289  25.049  1.00  0.00     0.039 C 
ATOM     31  H   UNL     1     -45.478  33.442  24.967  1.00  0.00     0.040 H 
ATOM     32  H   UNL     1     -46.805  32.290  24.691  1.00  0.00     0.040 H 
ATOM     33  H   UNL     1     -47.081  34.059  24.480  1.00  0.00     0.040 H 
ENDBRANCH  27  30
ENDBRANCH  24  27
ENDBRANCH  21  24
ENDBRANCH  16  21
ENDBRANCH   1  16
BRANCH   7  34
ATOM     34  O   UNL     1     -42.516  42.626  27.178  1.00  0.00    -0.491 OA
BRANCH  34  35
ATOM     35  C   UNL     1     -43.490  43.642  26.909  1.00  0.00     0.117 C 
ATOM     36  H   UNL     1     -43.293  44.549  27.489  1.00  0.00     0.073 H 
ATOM     37  H   UNL     1     -44.434  43.233  27.285  1.00  0.00     0.073 H 
BRANCH  35  38
ATOM     38  C   UNL     1     -43.592  43.912  25.398  1.00  0.00     0.123 C 
ATOM     39  O   UNL     1     -44.769  43.260  24.862  1.00  0.00    -0.345 OA
ATOM     40  C   UNL     1     -43.772  45.391  25.064  1.00  0.00     0.119 C 
ATOM     41  H   UNL     1     -42.734  43.484  24.871  1.00  0.00     0.067 H 
ATOM     42  C   UNL     1     -45.809  44.260  24.697  1.00  0.00     0.169 C 
ATOM     43  C   UNL     1     -45.264  45.584  25.221  1.00  0.00     0.173 C 
ATOM     44  H   UNL     1     -43.190  46.042  25.722  1.00  0.00     0.066 H 
ATOM     45  H   UNL     1     -45.996  44.314  23.618  1.00  0.00     0.088 H 
ATOM     46  F   UNL     1     -45.527  45.737  26.549  1.00  0.00    -0.239 F 
ATOM     47  H   UNL     1     -45.669  46.448  24.687  1.00  0.00     0.074 H 
BRANCH  40  48
ATOM     48  O   UNL     1     -43.372  45.670  23.716  1.00  0.00    -0.387 OA
ATOM     49  H   UNL     1     -44.101  45.437  23.110  1.00  0.00     0.211 HD
ENDBRANCH  40  48
BRANCH  42  50
ATOM     50  N   UNL     1     -47.041  43.823  25.329  1.00  0.00    -0.302 N 
ATOM     51  C   UNL     1     -47.192  42.837  26.269  1.00  0.00     0.019 A 
ATOM     52  C   UNL     1     -48.265  44.365  25.032  1.00  0.00     0.148 A 
ATOM     53  C   UNL     1     -48.535  42.751  26.589  1.00  0.00     0.033 A 
ATOM     54  H   UNL     1     -46.341  42.267  26.620  1.00  0.00     0.083 H 
ATOM     55  C   UNL     1     -49.226  43.738  25.818  1.00  0.00     0.071 A 
ATOM     56  N   UNL     1     -48.468  45.343  24.131  1.00  0.00    -0.218 NA
ATOM     57  C   UNL     1     -50.545  44.204  25.662  1.00  0.00     0.137 A 
ATOM     58  C   UNL     1     -49.766  45.677  24.055  1.00  0.00     0.120 A 
ATOM     59  N   UNL     1     -50.796  45.168  24.752  1.00  0.00    -0.219 NA
ATOM     60  H   UNL     1     -50.017  46.458  23.344  1.00  0.00     0.106 H 
BRANCH  53  61
ATOM     61  C   UNL     1     -49.136  41.803  27.533  1.00  0.00     0.095 A 
ATOM     62  C   UNL     1     -48.776  40.439  27.631  1.00  0.00    -0.016 A 
ATOM     63  N   UNL     1     -50.115  42.118  28.392  1.00  0.00    -0.173 NA
ATOM     64  C   UNL     1     -49.585  39.925  28.619  1.00  0.00     0.025 A 
ATOM     65  H   UNL     1     -48.027  39.902  27.067  1.00  0.00     0.066 H 
ATOM     66  N   UNL     1     -50.359  40.963  29.042  1.00  0.00    -0.275 N 
ATOM     67  H   UNL     1     -49.666  38.934  29.041  1.00  0.00     0.084 H 
BRANCH  66  68
ATOM     68  C   UNL     1     -51.367  40.928  30.073  1.00  0.00     0.030 C 
ATOM     69  H   UNL     1     -52.022  40.068  29.913  1.00  0.00     0.048 H 
ATOM     70  H   UNL     1     -50.866  40.842  31.041  1.00  0.00     0.048 H 
ATOM     71  H   UNL     1     -51.946  41.853  30.020  1.00  0.00     0.048 H 
ENDBRANCH  66  68
ENDBRANCH  53  61
BRANCH  57  72
ATOM     72  N   UNL     1     -51.627  43.732  26.388  1.00  0.00    -0.383 N 
ATOM     73  H   UNL     1     -52.496  43.853  25.889  1.00  0.00     0.158 HD
ATOM     74  H   UNL     1     -51.450  42.810  26.799  1.00  0.00     0.158 HD
ENDBRANCH  57  72
ENDBRANCH  42  50
ENDBRANCH  35  38
ENDBRANCH  34  35
ENDBRANCH   7  34
TORSDOF 14
ENDMDL
MODEL 3
REMARK VINA RESULT:      -8.2      3.184      5.984
REMARK SMILES CN(CCS(C)(=O)=O)c1ccc2ccc(OC[C@H]3O[C@@H](n4cc(-c5ccn(C)n5)c5c(N)ncnc54)[C@@H](F)[C@@H]3O)cc2n1
REMARK SMILES IDX 9 1 10 2 11 3 12 4 13 5 14 6 15 7 41 8 42 9 43 10 2 16 1 17
REMARK SMILES IDX 3 21 4 24 5 27 7 28 8 29 6 30 16 34 17 35 18 38 19 39 39 40
REMARK SMILES IDX 20 42 37 43 38 46 40 48 21 50 22 51 36 52 23 53 30 55 35 56
REMARK SMILES IDX 31 57 34 58 33 59 24 61 25 62 29 63 26 64 27 66 28 68 32 72
REMARK H PARENT 10 11 11 12 13 13 14 14 41 15 1 18 1 19 1 20 3 22 3 23 4 25
REMARK H PARENT 4 26 6 31 6 32 6 33 17 36 17 37 18 41 39 44 20 45 37 47 40 49
REMARK H PARENT 22 54 34 60 25 65 26 67 28 69 28 70 28 71 32 73 32 74
REMARK Flexibility Score: inf
ROOT
ATOM      1  C   UNL     1     -47.433  34.521  26.624  1.00  0.00     0.129 A 
ATOM      2  C   UNL     1     -48.717  35.013  26.849  1.00  0.00    -0.019 A 
ATOM      3  C   UNL     1     -48.888  36.301  27.348  1.00  0.00    -0.049 A 
ATOM      4  C   UNL     1     -47.768  37.092  27.608  1.00  0.00     0.001 A 
ATOM      5  C   UNL     1     -47.879  38.398  28.113  1.00  0.00    -0.049 A 
ATOM      6  C   UNL     1     -46.736  39.163  28.354  1.00  0.00    -0.019 A 
ATOM      7  C   UNL     1     -45.480  38.627  28.090  1.00  0.00     0.121 A 
ATOM      8  C   UNL     1     -45.386  37.323  27.588  1.00  0.00     0.007 A 
ATOM      9  C   UNL     1     -46.504  36.541  27.341  1.00  0.00     0.076 A 
ATOM     10  N   UNL     1     -46.351  35.294  26.855  1.00  0.00    -0.231 NA
ATOM     11  H   UNL     1     -49.591  34.413  26.618  1.00  0.00     0.066 H 
ATOM     12  H   UNL     1     -49.892  36.678  27.521  1.00  0.00     0.063 H 
ATOM     13  H   UNL     1     -48.857  38.827  28.320  1.00  0.00     0.063 H 
ATOM     14  H   UNL     1     -46.871  40.164  28.747  1.00  0.00     0.066 H 
ATOM     15  H   UNL     1     -44.402  36.904  27.385  1.00  0.00     0.069 H 
ENDROOT
BRANCH   1  16
ATOM     16  N   UNL     1     -47.263  33.221  26.093  1.00  0.00    -0.359 N 
BRANCH  16  17
ATOM     17  C   UNL     1     -46.237  33.199  25.041  1.00  0.00     0.008 C 
ATOM     18  H   UNL     1     -46.664  32.904  24.074  1.00  0.00     0.046 H 
ATOM     19  H   UNL     1     -45.737  34.167  24.931  1.00  0.00     0.046 H 
ATOM     20  H   UNL     1     -45.452  32.479  25.298  1.00  0.00     0.046 H 
ENDBRANCH  16  17
BRANCH  16  21
ATOM     21  C   UNL     1     -48.527  32.562  25.689  1.00  0.00     0.033 C 
ATOM     22  H   UNL     1     -49.386  33.109  26.099  1.00  0.00     0.050 H 
ATOM     23  H   UNL     1     -48.635  32.633  24.600  1.00  0.00     0.050 H 
BRANCH  21  24
ATOM     24  C   UNL     1     -48.597  31.101  26.101  1.00  0.00     0.067 C 
ATOM     25  H   UNL     1     -49.506  30.937  26.690  1.00  0.00     0.045 H 
ATOM     26  H   UNL     1     -47.747  30.765  26.701  1.00  0.00     0.045 H 
BRANCH  24  27
ATOM     27  S   UNL     1     -48.732  29.994  24.715  1.00  0.00     0.149 S 
ATOM     28  O   UNL     1     -47.488  30.032  23.966  1.00  0.00    -0.229 OA
ATOM     29  O   UNL     1     -49.984  30.301  24.047  1.00  0.00    -0.229 OA
BRANCH  27  30
ATOM     30  C   UNL     1     -48.906  28.372  25.419  1.00  0.00     0.039 C 
ATOM     31  H   UNL     1     -48.071  27.763  25.066  1.00  0.00     0.040 H 
ATOM     32  H   UNL     1     -48.866  28.438  26.507  1.00  0.00     0.040 H 
ATOM     33  H   UNL     1     -49.848  27.936  25.080  1.00  0.00     0.040 H 
ENDBRANCH  27  30
ENDBRANCH  24  27
ENDBRANCH  21  24
ENDBRANCH  16  21
ENDBRANCH   1  16
BRANCH   7  34
ATOM     34  O   UNL     1     -44.276  39.246  28.274  1.00  0.00    -0.491 OA
BRANCH  34  35
ATOM     35  C   UNL     1     -44.174  40.659  28.054  1.00  0.00     0.117 C 
ATOM     36  H   UNL     1     -43.946  41.193  28.982  1.00  0.00     0.073 H 
ATOM     37  H   UNL     1     -45.180  40.971  27.757  1.00  0.00     0.073 H 
BRANCH  35  38
ATOM     38  C   UNL     1     -43.169  40.963  26.930  1.00  0.00     0.123 C 
ATOM     39  O   UNL     1     -43.878  41.396  25.743  1.00  0.00    -0.345 OA
ATOM     40  C   UNL     1     -42.221  42.112  27.266  1.00  0.00     0.119 C 
ATOM     41  H   UNL     1     -42.620  40.059  26.649  1.00  0.00     0.067 H 
ATOM     42  C   UNL     1     -43.786  42.843  25.660  1.00  0.00     0.169 C 
ATOM     43  C   UNL     1     -43.038  43.331  26.896  1.00  0.00     0.173 C 
ATOM     44  H   UNL     1     -41.918  42.110  28.317  1.00  0.00     0.066 H 
ATOM     45  H   UNL     1     -43.212  43.050  24.749  1.00  0.00     0.088 H 
ATOM     46  F   UNL     1     -43.894  43.587  27.925  1.00  0.00    -0.239 F 
ATOM     47  H   UNL     1     -42.448  44.231  26.705  1.00  0.00     0.074 H 
BRANCH  40  48
ATOM     48  O   UNL     1     -41.029  42.050  26.473  1.00  0.00    -0.387 OA
ATOM     49  H   UNL     1     -40.325  41.610  26.986  1.00  0.00     0.211 HD
ENDBRANCH  40  48
BRANCH  42  50
ATOM     50  N   UNL     1     -45.103  43.429  25.484  1.00  0.00    -0.302 N 
ATOM     51  C   UNL     1     -46.296  42.961  25.973  1.00  0.00     0.019 A 
ATOM     52  C   UNL     1     -45.322  44.570  24.757  1.00  0.00     0.148 A 
ATOM     53  C   UNL     1     -47.296  43.823  25.561  1.00  0.00     0.033 A 
ATOM     54  H   UNL     1     -46.340  42.049  26.556  1.00  0.00     0.083 H 
ATOM     55  C   UNL     1     -46.680  44.866  24.800  1.00  0.00     0.071 A 
ATOM     56  N   UNL     1     -44.361  45.268  24.125  1.00  0.00    -0.218 NA
ATOM     57  C   UNL     1     -47.074  46.038  24.128  1.00  0.00     0.137 A 
ATOM     58  C   UNL     1     -44.867  46.342  23.499  1.00  0.00     0.120 A 
ATOM     59  N   UNL     1     -46.146  46.754  23.460  1.00  0.00    -0.219 NA
ATOM     60  H   UNL     1     -44.156  46.958  22.957  1.00  0.00     0.106 H 
BRANCH  53  61
ATOM     61  C   UNL     1     -48.728  43.675  25.841  1.00  0.00     0.095 A 
ATOM     62  C   UNL     1     -49.278  43.545  27.137  1.00  0.00    -0.016 A 
ATOM     63  N   UNL     1     -49.675  43.620  24.895  1.00  0.00    -0.173 NA
ATOM     64  C   UNL     1     -50.634  43.420  26.939  1.00  0.00     0.025 A 
ATOM     65  H   UNL     1     -48.762  43.548  28.086  1.00  0.00     0.066 H 
ATOM     66  N   UNL     1     -50.820  43.474  25.591  1.00  0.00    -0.275 N 
ATOM     67  H   UNL     1     -51.456  43.302  27.631  1.00  0.00     0.084 H 
BRANCH  66  68
ATOM     68  C   UNL     1     -52.075  43.392  24.885  1.00  0.00     0.030 C 
ATOM     69  H   UNL     1     -52.143  42.428  24.375  1.00  0.00     0.048 H 
ATOM     70  H   UNL     1     -52.886  43.489  25.612  1.00  0.00     0.048 H 
ATOM     71  H   UNL     1     -52.114  44.205  24.156  1.00  0.00     0.048 H 
ENDBRANCH  66  68
ENDBRANCH  53  61
BRANCH  57  72
ATOM     72  N   UNL     1     -48.374  46.517  24.096  1.00  0.00    -0.383 N 
ATOM     73  H   UNL     1     -48.881  46.179  23.291  1.00  0.00     0.158 HD
ATOM     74  H   UNL     1     -48.842  46.440  25.005  1.00  0.00     0.158 HD
ENDBRANCH  57  72
ENDBRANCH  42  50
ENDBRANCH  35  38
ENDBRANCH  34  35
ENDBRANCH   7  34
TORSDOF 14
ENDMDL
MODEL 4
REMARK VINA RESULT:      -7.9      3.501      6.183
REMARK SMILES CN(CCS(C)(=O)=O)c1ccc2ccc(OC[C@H]3O[C@@H](n4cc(-c5ccn(C)n5)c5c(N)ncnc54)[C@@H](F)[C@@H]3O)cc2n1
REMARK SMILES IDX 9 1 10 2 11 3 12 4 13 5 14 6 15 7 41 8 42 9 43 10 2 16 1 17
REMARK SMILES IDX 3 21 4 24 5 27 7 28 8 29 6 30 16 34 17 35 18 38 19 39 39 40
REMARK SMILES IDX 20 42 37 43 38 46 40 48 21 50 22 51 36 52 23 53 30 55 35 56
REMARK SMILES IDX 31 57 34 58 33 59 24 61 25 62 29 63 26 64 27 66 28 68 32 72
REMARK H PARENT 10 11 11 12 13 13 14 14 41 15 1 18 1 19 1 20 3 22 3 23 4 25
REMARK H PARENT 4 26 6 31 6 32 6 33 17 36 17 37 18 41 39 44 20 45 37 47 40 49
REMARK H PARENT 22 54 34 60 25 65 26 67 28 69 28 70 28 71 32 73 32 74
REMARK Flexibility Score: inf
ROOT
ATOM      1  C   UNL     1     -46.782  34.517  26.316  1.00  0.00     0.129 A 
ATOM      2  C   UNL     1     -45.939  34.048  27.322  1.00  0.00    -0.019 A 
ATOM      3  C   UNL     1     -45.366  34.947  28.218  1.00  0.00    -0.049 A 
ATOM      4  C   UNL     1     -45.652  36.307  28.107  1.00  0.00     0.001 A 
ATOM      5  C   UNL     1     -45.102  37.259  28.981  1.00  0.00    -0.049 A 
ATOM      6  C   UNL     1     -45.418  38.612  28.843  1.00  0.00    -0.019 A 
ATOM      7  C   UNL     1     -46.284  39.019  27.834  1.00  0.00     0.121 A 
ATOM      8  C   UNL     1     -46.823  38.058  26.968  1.00  0.00     0.007 A 
ATOM      9  C   UNL     1     -46.526  36.708  27.082  1.00  0.00     0.076 A 
ATOM     10  N   UNL     1     -47.077  35.830  26.222  1.00  0.00    -0.231 NA
ATOM     11  H   UNL     1     -45.739  32.988  27.431  1.00  0.00     0.066 H 
ATOM     12  H   UNL     1     -44.709  34.575  29.000  1.00  0.00     0.063 H 
ATOM     13  H   UNL     1     -44.427  36.950  29.775  1.00  0.00     0.063 H 
ATOM     14  H   UNL     1     -44.967  39.310  29.539  1.00  0.00     0.066 H 
ATOM     15  H   UNL     1     -47.498  38.378  26.178  1.00  0.00     0.069 H 
ENDROOT
BRANCH   1  16
ATOM     16  N   UNL     1     -47.384  33.599  25.422  1.00  0.00    -0.359 N 
BRANCH  16  17
ATOM     17  C   UNL     1     -48.516  32.902  26.047  1.00  0.00     0.008 C 
ATOM     18  H   UNL     1     -48.856  32.061  25.429  1.00  0.00     0.046 H 
ATOM     19  H   UNL     1     -48.274  32.534  27.049  1.00  0.00     0.046 H 
ATOM     20  H   UNL     1     -49.358  33.591  26.172  1.00  0.00     0.046 H 
ENDBRANCH  16  17
BRANCH  16  21
ATOM     21  C   UNL     1     -46.426  32.682  24.761  1.00  0.00     0.033 C 
ATOM     22  H   UNL     1     -45.802  33.237  24.048  1.00  0.00     0.050 H 
ATOM     23  H   UNL     1     -45.727  32.294  25.511  1.00  0.00     0.050 H 
BRANCH  21  24
ATOM     24  C   UNL     1     -47.103  31.515  24.062  1.00  0.00     0.067 C 
ATOM     25  H   UNL     1     -48.173  31.729  23.959  1.00  0.00     0.045 H 
ATOM     26  H   UNL     1     -47.004  30.561  24.587  1.00  0.00     0.045 H 
BRANCH  24  27
ATOM     27  S   UNL     1     -46.514  31.264  22.402  1.00  0.00     0.149 S 
ATOM     28  O   UNL     1     -45.666  32.383  22.034  1.00  0.00    -0.229 OA
ATOM     29  O   UNL     1     -47.670  30.937  21.586  1.00  0.00    -0.229 OA
BRANCH  27  30
ATOM     30  C   UNL     1     -45.504  29.803  22.475  1.00  0.00     0.039 C 
ATOM     31  H   UNL     1     -45.917  29.076  21.773  1.00  0.00     0.040 H 
ATOM     32  H   UNL     1     -44.484  30.048  22.178  1.00  0.00     0.040 H 
ATOM     33  H   UNL     1     -45.538  29.397  23.487  1.00  0.00     0.040 H 
ENDBRANCH  27  30
ENDBRANCH  24  27
ENDBRANCH  21  24
ENDBRANCH  16  21
ENDBRANCH   1  16
BRANCH   7  34
ATOM     34  O   UNL     1     -46.685  40.298  27.572  1.00  0.00    -0.491 OA
BRANCH  34  35
ATOM     35  C   UNL     1     -46.217  40.950  26.384  1.00  0.00     0.117 C 
ATOM     36  H   UNL     1     -46.570  41.985  26.331  1.00  0.00     0.073 H 
ATOM     37  H   UNL     1     -46.702  40.416  25.561  1.00  0.00     0.073 H 
BRANCH  35  38
ATOM     38  C   UNL     1     -44.688  40.835  26.265  1.00  0.00     0.123 C 
ATOM     39  O   UNL     1     -44.257  41.348  24.981  1.00  0.00    -0.345 OA
ATOM     40  C   UNL     1     -43.940  41.675  27.298  1.00  0.00     0.119 C 
ATOM     41  H   UNL     1     -44.377  39.786  26.299  1.00  0.00     0.067 H 
ATOM     42  C   UNL     1     -43.732  42.688  25.179  1.00  0.00     0.169 C 
ATOM     43  C   UNL     1     -43.911  43.042  26.652  1.00  0.00     0.173 C 
ATOM     44  H   UNL     1     -44.438  41.679  28.272  1.00  0.00     0.066 H 
ATOM     45  H   UNL     1     -42.668  42.628  24.917  1.00  0.00     0.088 H 
ATOM     46  F   UNL     1     -45.115  43.636  26.876  1.00  0.00    -0.239 F 
ATOM     47  H   UNL     1     -43.124  43.703  27.025  1.00  0.00     0.074 H 
BRANCH  40  48
ATOM     48  O   UNL     1     -42.608  41.186  27.496  1.00  0.00    -0.387 OA
ATOM     49  H   UNL     1     -42.013  41.939  27.673  1.00  0.00     0.211 HD
ENDBRANCH  40  48
BRANCH  42  50
ATOM     50  N   UNL     1     -44.353  43.621  24.256  1.00  0.00    -0.302 N 
ATOM     51  C   UNL     1     -45.636  44.103  24.296  1.00  0.00     0.019 A 
ATOM     52  C   UNL     1     -43.699  44.145  23.171  1.00  0.00     0.148 A 
ATOM     53  C   UNL     1     -45.805  44.959  23.223  1.00  0.00     0.033 A 
ATOM     54  H   UNL     1     -46.326  43.788  25.068  1.00  0.00     0.083 H 
ATOM     55  C   UNL     1     -44.565  45.008  22.509  1.00  0.00     0.071 A 
ATOM     56  N   UNL     1     -42.429  43.857  22.833  1.00  0.00    -0.218 NA
ATOM     57  C   UNL     1     -44.036  45.664  21.383  1.00  0.00     0.137 A 
ATOM     58  C   UNL     1     -42.054  44.521  21.729  1.00  0.00     0.120 A 
ATOM     59  N   UNL     1     -42.774  45.386  20.995  1.00  0.00    -0.219 NA
ATOM     60  H   UNL     1     -41.041  44.339  21.384  1.00  0.00     0.106 H 
BRANCH  53  61
ATOM     61  C   UNL     1     -47.041  45.669  22.874  1.00  0.00     0.095 A 
ATOM     62  C   UNL     1     -47.433  46.908  23.432  1.00  0.00    -0.016 A 
ATOM     63  N   UNL     1     -47.952  45.208  22.007  1.00  0.00    -0.173 NA
ATOM     64  C   UNL     1     -48.642  47.199  22.844  1.00  0.00     0.025 A 
ATOM     65  H   UNL     1     -46.907  47.512  24.158  1.00  0.00     0.066 H 
ATOM     66  N   UNL     1     -48.906  46.160  22.003  1.00  0.00    -0.275 N 
ATOM     67  H   UNL     1     -49.315  48.037  22.954  1.00  0.00     0.084 H 
BRANCH  66  68
ATOM     68  C   UNL     1     -50.061  46.004  21.154  1.00  0.00     0.030 C 
ATOM     69  H   UNL     1     -49.802  45.376  20.298  1.00  0.00     0.048 H 
ATOM     70  H   UNL     1     -50.856  45.532  21.738  1.00  0.00     0.048 H 
ATOM     71  H   UNL     1     -50.372  46.994  20.811  1.00  0.00     0.048 H 
ENDBRANCH  66  68
ENDBRANCH  53  61
BRANCH  57  72
ATOM     72  N   UNL     1     -44.733  46.591  20.623  1.00  0.00    -0.383 N 
ATOM     73  H   UNL     1     -44.960  47.419  21.154  1.00  0.00     0.158 HD
ATOM     74  H   UNL     1     -44.315  46.732  19.698  1.00  0.00     0.158 HD
ENDBRANCH  57  72
ENDBRANCH  42  50
ENDBRANCH  35  38
ENDBRANCH  34  35
ENDBRANCH   7  34
TORSDOF 14
ENDMDL
MODEL 5
REMARK VINA RESULT:      -7.8      4.252      8.605
REMARK SMILES CN(CCS(C)(=O)=O)c1ccc2ccc(OC[C@H]3O[C@@H](n4cc(-c5ccn(C)n5)c5c(N)ncnc54)[C@@H](F)[C@@H]3O)cc2n1
REMARK SMILES IDX 9 1 10 2 11 3 12 4 13 5 14 6 15 7 41 8 42 9 43 10 2 16 1 17
REMARK SMILES IDX 3 21 4 24 5 27 7 28 8 29 6 30 16 34 17 35 18 38 19 39 39 40
REMARK SMILES IDX 20 42 37 43 38 46 40 48 21 50 22 51 36 52 23 53 30 55 35 56
REMARK SMILES IDX 31 57 34 58 33 59 24 61 25 62 29 63 26 64 27 66 28 68 32 72
REMARK H PARENT 10 11 11 12 13 13 14 14 41 15 1 18 1 19 1 20 3 22 3 23 4 25
REMARK H PARENT 4 26 6 31 6 32 6 33 17 36 17 37 18 41 39 44 20 45 37 47 40 49
REMARK H PARENT 22 54 34 60 25 65 26 67 28 69 28 70 28 71 32 73 32 74
REMARK Flexibility Score: inf
ROOT
ATOM      1  C   UNL     1     -45.513  38.070  28.686  1.00  0.00     0.129 A 
ATOM      2  C   UNL     1     -44.597  37.916  29.724  1.00  0.00    -0.019 A 
ATOM      3  C   UNL     1     -43.596  38.867  29.910  1.00  0.00    -0.049 A 
ATOM      4  C   UNL     1     -43.529  39.971  29.061  1.00  0.00     0.001 A 
ATOM      5  C   UNL     1     -42.542  40.959  29.199  1.00  0.00    -0.049 A 
ATOM      6  C   UNL     1     -42.510  42.055  28.334  1.00  0.00    -0.019 A 
ATOM      7  C   UNL     1     -43.465  42.166  27.329  1.00  0.00     0.121 A 
ATOM      8  C   UNL     1     -44.442  41.171  27.202  1.00  0.00     0.007 A 
ATOM      9  C   UNL     1     -44.496  40.073  28.047  1.00  0.00     0.076 A 
ATOM     10  N   UNL     1     -45.462  39.149  27.877  1.00  0.00    -0.231 NA
ATOM     11  H   UNL     1     -44.665  37.076  30.407  1.00  0.00     0.066 H 
ATOM     12  H   UNL     1     -42.885  38.741  30.722  1.00  0.00     0.063 H 
ATOM     13  H   UNL     1     -41.792  40.882  29.984  1.00  0.00     0.063 H 
ATOM     14  H   UNL     1     -41.727  42.790  28.478  1.00  0.00     0.066 H 
ATOM     15  H   UNL     1     -45.186  41.259  26.413  1.00  0.00     0.069 H 
ENDROOT
BRANCH   1  16
ATOM     16  N   UNL     1     -46.545  37.116  28.514  1.00  0.00    -0.359 N 
BRANCH  16  17
ATOM     17  C   UNL     1     -46.581  36.157  29.626  1.00  0.00     0.008 C 
ATOM     18  H   UNL     1     -46.617  36.671  30.595  1.00  0.00     0.046 H 
ATOM     19  H   UNL     1     -47.433  35.471  29.554  1.00  0.00     0.046 H 
ATOM     20  H   UNL     1     -45.684  35.528  29.610  1.00  0.00     0.046 H 
ENDBRANCH  16  17
BRANCH  16  21
ATOM     21  C   UNL     1     -46.553  36.467  27.183  1.00  0.00     0.033 C 
ATOM     22  H   UNL     1     -47.586  36.336  26.833  1.00  0.00     0.050 H 
ATOM     23  H   UNL     1     -46.087  37.140  26.454  1.00  0.00     0.050 H 
BRANCH  21  24
ATOM     24  C   UNL     1     -45.825  35.133  27.164  1.00  0.00     0.067 C 
ATOM     25  H   UNL     1     -45.483  34.896  28.178  1.00  0.00     0.045 H 
ATOM     26  H   UNL     1     -44.953  35.110  26.505  1.00  0.00     0.045 H 
BRANCH  24  27
ATOM     27  S   UNL     1     -46.874  33.776  26.695  1.00  0.00     0.149 S 
ATOM     28  O   UNL     1     -48.248  34.243  26.648  1.00  0.00    -0.229 OA
ATOM     29  O   UNL     1     -46.524  32.654  27.549  1.00  0.00    -0.229 OA
BRANCH  27  30
ATOM     30  C   UNL     1     -46.378  33.342  25.044  1.00  0.00     0.039 C 
ATOM     31  H   UNL     1     -46.480  32.261  24.938  1.00  0.00     0.040 H 
ATOM     32  H   UNL     1     -47.031  33.836  24.324  1.00  0.00     0.040 H 
ATOM     33  H   UNL     1     -45.335  33.629  24.899  1.00  0.00     0.040 H 
ENDBRANCH  27  30
ENDBRANCH  24  27
ENDBRANCH  21  24
ENDBRANCH  16  21
ENDBRANCH   1  16
BRANCH   7  34
ATOM     34  O   UNL     1     -43.564  43.172  26.409  1.00  0.00    -0.491 OA
BRANCH  34  35
ATOM     35  C   UNL     1     -42.666  43.191  25.292  1.00  0.00     0.117 C 
ATOM     36  H   UNL     1     -41.933  42.380  25.355  1.00  0.00     0.073 H 
ATOM     37  H   UNL     1     -42.104  44.124  25.398  1.00  0.00     0.073 H 
BRANCH  35  38
ATOM     38  C   UNL     1     -43.445  43.187  23.966  1.00  0.00     0.123 C 
ATOM     39  O   UNL     1     -44.869  43.192  24.235  1.00  0.00    -0.345 OA
ATOM     40  C   UNL     1     -43.197  44.433  23.119  1.00  0.00     0.119 C 
ATOM     41  H   UNL     1     -43.241  42.272  23.402  1.00  0.00     0.067 H 
ATOM     42  C   UNL     1     -45.362  44.545  24.048  1.00  0.00     0.169 C 
ATOM     43  C   UNL     1     -44.167  45.431  23.712  1.00  0.00     0.173 C 
ATOM     44  H   UNL     1     -42.159  44.773  23.170  1.00  0.00     0.066 H 
ATOM     45  H   UNL     1     -46.059  44.491  23.203  1.00  0.00     0.088 H 
ATOM     46  F   UNL     1     -43.600  45.946  24.838  1.00  0.00    -0.239 F 
ATOM     47  H   UNL     1     -44.429  46.259  23.047  1.00  0.00     0.074 H 
BRANCH  40  48
ATOM     48  O   UNL     1     -43.507  44.193  21.741  1.00  0.00    -0.387 OA
ATOM     49  H   UNL     1     -43.986  44.964  21.381  1.00  0.00     0.211 HD
ENDBRANCH  40  48
BRANCH  42  50
ATOM     50  N   UNL     1     -46.123  44.975  25.208  1.00  0.00    -0.302 N 
ATOM     51  C   UNL     1     -45.637  45.313  26.445  1.00  0.00     0.019 A 
ATOM     52  C   UNL     1     -47.490  45.084  25.207  1.00  0.00     0.148 A 
ATOM     53  C   UNL     1     -46.710  45.655  27.248  1.00  0.00     0.033 A 
ATOM     54  H   UNL     1     -44.576  45.266  26.659  1.00  0.00     0.083 H 
ATOM     55  C   UNL     1     -47.897  45.531  26.459  1.00  0.00     0.071 A 
ATOM     56  N   UNL     1     -48.276  44.805  24.151  1.00  0.00    -0.218 NA
ATOM     57  C   UNL     1     -49.280  45.733  26.618  1.00  0.00     0.137 A 
ATOM     58  C   UNL     1     -49.571  45.009  24.439  1.00  0.00     0.120 A 
ATOM     59  N   UNL     1     -50.107  45.442  25.592  1.00  0.00    -0.219 NA
ATOM     60  H   UNL     1     -50.276  44.800  23.640  1.00  0.00     0.106 H 
BRANCH  53  61
ATOM     61  C   UNL     1     -46.637  46.051  28.659  1.00  0.00     0.095 A 
ATOM     62  C   UNL     1     -45.819  47.093  29.153  1.00  0.00    -0.016 A 
ATOM     63  N   UNL     1     -47.319  45.450  29.643  1.00  0.00    -0.173 NA
ATOM     64  C   UNL     1     -46.047  47.114  30.510  1.00  0.00     0.025 A 
ATOM     65  H   UNL     1     -45.159  47.745  28.600  1.00  0.00     0.066 H 
ATOM     66  N   UNL     1     -46.948  46.121  30.751  1.00  0.00    -0.275 N 
ATOM     67  H   UNL     1     -45.651  47.738  31.298  1.00  0.00     0.084 H 
BRANCH  66  68
ATOM     68  C   UNL     1     -47.507  45.749  32.028  1.00  0.00     0.030 C 
ATOM     69  H   UNL     1     -47.908  46.636  32.523  1.00  0.00     0.048 H 
ATOM     70  H   UNL     1     -48.307  45.023  31.855  1.00  0.00     0.048 H 
ATOM     71  H   UNL     1     -46.713  45.308  32.635  1.00  0.00     0.048 H 
ENDBRANCH  66  68
ENDBRANCH  53  61
BRANCH  57  72
ATOM     72  N   UNL     1     -49.868  46.215  27.777  1.00  0.00    -0.383 N 
ATOM     73  H   UNL     1     -50.584  46.899  27.580  1.00  0.00     0.158 HD
ATOM     74  H   UNL     1     -50.108  45.465  28.434  1.00  0.00     0.158 HD
ENDBRANCH  57  72
ENDBRANCH  42  50
ENDBRANCH  35  38
ENDBRANCH  34  35
ENDBRANCH   7  34
TORSDOF 14
ENDMDL
MODEL 6
REMARK VINA RESULT:      -7.7      3.379      5.906
REMARK SMILES CN(CCS(C)(=O)=O)c1ccc2ccc(OC[C@H]3O[C@@H](n4cc(-c5ccn(C)n5)c5c(N)ncnc54)[C@@H](F)[C@@H]3O)cc2n1
REMARK SMILES IDX 9 1 10 2 11 3 12 4 13 5 14 6 15 7 41 8 42 9 43 10 2 16 1 17
REMARK SMILES IDX 3 21 4 24 5 27 7 28 8 29 6 30 16 34 17 35 18 38 19 39 39 40
REMARK SMILES IDX 20 42 37 43 38 46 40 48 21 50 22 51 36 52 23 53 30 55 35 56
REMARK SMILES IDX 31 57 34 58 33 59 24 61 25 62 29 63 26 64 27 66 28 68 32 72
REMARK H PARENT 10 11 11 12 13 13 14 14 41 15 1 18 1 19 1 20 3 22 3 23 4 25
REMARK H PARENT 4 26 6 31 6 32 6 33 17 36 17 37 18 41 39 44 20 45 37 47 40 49
REMARK H PARENT 22 54 34 60 25 65 26 67 28 69 28 70 28 71 32 73 32 74
REMARK Flexibility Score: inf
ROOT
ATOM      1  C   UNL     1     -46.896  35.288  26.626  1.00  0.00     0.129 A 
ATOM      2  C   UNL     1     -45.925  35.116  27.610  1.00  0.00    -0.019 A 
ATOM      3  C   UNL     1     -45.313  36.229  28.181  1.00  0.00    -0.049 A 
ATOM      4  C   UNL     1     -45.688  37.507  27.769  1.00  0.00     0.001 A 
ATOM      5  C   UNL     1     -45.105  38.665  28.307  1.00  0.00    -0.049 A 
ATOM      6  C   UNL     1     -45.511  39.930  27.875  1.00  0.00    -0.019 A 
ATOM      7  C   UNL     1     -46.501  40.040  26.905  1.00  0.00     0.121 A 
ATOM      8  C   UNL     1     -47.072  38.876  26.375  1.00  0.00     0.007 A 
ATOM      9  C   UNL     1     -46.687  37.608  26.786  1.00  0.00     0.076 A 
ATOM     10  N   UNL     1     -47.274  36.525  26.243  1.00  0.00    -0.231 NA
ATOM     11  H   UNL     1     -45.654  34.124  27.957  1.00  0.00     0.066 H 
ATOM     12  H   UNL     1     -44.556  36.087  28.948  1.00  0.00     0.063 H 
ATOM     13  H   UNL     1     -44.332  38.589  29.068  1.00  0.00     0.063 H 
ATOM     14  H   UNL     1     -45.030  40.794  28.317  1.00  0.00     0.066 H 
ATOM     15  H   UNL     1     -47.845  38.965  25.615  1.00  0.00     0.069 H 
ENDROOT
BRANCH   1  16
ATOM     16  N   UNL     1     -47.535  34.156  26.065  1.00  0.00    -0.359 N 
BRANCH  16  17
ATOM     17  C   UNL     1     -48.917  34.025  26.547  1.00  0.00     0.008 C 
ATOM     18  H   UNL     1     -49.054  34.533  27.509  1.00  0.00     0.046 H 
ATOM     19  H   UNL     1     -49.645  34.416  25.829  1.00  0.00     0.046 H 
ATOM     20  H   UNL     1     -49.167  32.967  26.685  1.00  0.00     0.046 H 
ENDBRANCH  16  17
BRANCH  16  21
ATOM     21  C   UNL     1     -46.755  32.902  26.180  1.00  0.00     0.033 C 
ATOM     22  H   UNL     1     -45.849  33.074  26.777  1.00  0.00     0.050 H 
ATOM     23  H   UNL     1     -47.338  32.169  26.750  1.00  0.00     0.050 H 
BRANCH  21  24
ATOM     24  C   UNL     1     -46.384  32.304  24.834  1.00  0.00     0.067 C 
ATOM     25  H   UNL     1     -45.432  31.769  24.928  1.00  0.00     0.045 H 
ATOM     26  H   UNL     1     -46.274  33.040  24.033  1.00  0.00     0.045 H 
BRANCH  24  27
ATOM     27  S   UNL     1     -47.551  31.086  24.270  1.00  0.00     0.149 S 
ATOM     28  O   UNL     1     -46.821  29.920  23.806  1.00  0.00    -0.229 OA
ATOM     29  O   UNL     1     -48.472  31.763  23.374  1.00  0.00    -0.229 OA
BRANCH  27  30
ATOM     30  C   UNL     1     -48.482  30.620  25.712  1.00  0.00     0.039 C 
ATOM     31  H   UNL     1     -49.542  30.671  25.455  1.00  0.00     0.040 H 
ATOM     32  H   UNL     1     -48.231  29.597  25.995  1.00  0.00     0.040 H 
ATOM     33  H   UNL     1     -48.264  31.322  26.518  1.00  0.00     0.040 H 
ENDBRANCH  27  30
ENDBRANCH  24  27
ENDBRANCH  21  24
ENDBRANCH  16  21
ENDBRANCH   1  16
BRANCH   7  34
ATOM     34  O   UNL     1     -47.001  41.199  26.381  1.00  0.00    -0.491 OA
BRANCH  34  35
ATOM     35  C   UNL     1     -48.375  41.536  26.610  1.00  0.00     0.117 C 
ATOM     36  H   UNL     1     -48.922  40.701  27.061  1.00  0.00     0.073 H 
ATOM     37  H   UNL     1     -48.800  41.680  25.612  1.00  0.00     0.073 H 
BRANCH  35  38
ATOM     38  C   UNL     1     -48.489  42.833  27.429  1.00  0.00     0.123 C 
ATOM     39  O   UNL     1     -47.219  43.530  27.422  1.00  0.00    -0.345 OA
ATOM     40  C   UNL     1     -49.490  43.827  26.845  1.00  0.00     0.119 C 
ATOM     41  H   UNL     1     -48.712  42.608  28.477  1.00  0.00     0.067 H 
ATOM     42  C   UNL     1     -47.301  44.614  26.459  1.00  0.00     0.169 C 
ATOM     43  C   UNL     1     -48.670  44.538  25.792  1.00  0.00     0.173 C 
ATOM     44  H   UNL     1     -50.375  43.334  26.431  1.00  0.00     0.066 H 
ATOM     45  H   UNL     1     -47.202  45.536  27.044  1.00  0.00     0.088 H 
ATOM     46  F   UNL     1     -48.638  43.747  24.684  1.00  0.00    -0.239 F 
ATOM     47  H   UNL     1     -49.055  45.520  25.504  1.00  0.00     0.074 H 
BRANCH  40  48
ATOM     48  O   UNL     1     -49.939  44.755  27.840  1.00  0.00    -0.387 OA
ATOM     49  H   UNL     1     -49.412  44.635  28.653  1.00  0.00     0.211 HD
ENDBRANCH  40  48
BRANCH  42  50
ATOM     50  N   UNL     1     -46.180  44.564  25.538  1.00  0.00    -0.302 N 
ATOM     51  C   UNL     1     -46.135  45.036  24.251  1.00  0.00     0.019 A 
ATOM     52  C   UNL     1     -44.974  43.994  25.860  1.00  0.00     0.148 A 
ATOM     53  C   UNL     1     -44.876  44.774  23.742  1.00  0.00     0.033 A 
ATOM     54  H   UNL     1     -47.002  45.501  23.798  1.00  0.00     0.083 H 
ATOM     55  C   UNL     1     -44.120  44.127  24.770  1.00  0.00     0.071 A 
ATOM     56  N   UNL     1     -44.694  43.419  27.043  1.00  0.00    -0.218 NA
ATOM     57  C   UNL     1     -42.819  43.622  24.946  1.00  0.00     0.137 A 
ATOM     58  C   UNL     1     -43.436  42.953  27.074  1.00  0.00     0.120 A 
ATOM     59  N   UNL     1     -42.503  43.015  26.109  1.00  0.00    -0.219 NA
ATOM     60  H   UNL     1     -43.131  42.465  27.995  1.00  0.00     0.106 H 
BRANCH  53  61
ATOM     61  C   UNL     1     -44.414  45.088  22.385  1.00  0.00     0.095 A 
ATOM     62  C   UNL     1     -45.117  44.750  21.206  1.00  0.00    -0.016 A 
ATOM     63  N   UNL     1     -43.258  45.706  22.111  1.00  0.00    -0.173 NA
ATOM     64  C   UNL     1     -44.331  45.213  20.175  1.00  0.00     0.025 A 
ATOM     65  H   UNL     1     -46.069  44.246  21.115  1.00  0.00     0.066 H 
ATOM     66  N   UNL     1     -43.240  45.776  20.765  1.00  0.00    -0.275 N 
ATOM     67  H   UNL     1     -44.460  45.187  19.103  1.00  0.00     0.084 H 
BRANCH  66  68
ATOM     68  C   UNL     1     -42.125  46.406  20.101  1.00  0.00     0.030 C 
ATOM     69  H   UNL     1     -41.987  45.957  19.115  1.00  0.00     0.048 H 
ATOM     70  H   UNL     1     -42.343  47.473  20.001  1.00  0.00     0.048 H 
ATOM     71  H   UNL     1     -41.231  46.252  20.710  1.00  0.00     0.048 H 
ENDBRANCH  66  68
ENDBRANCH  53  61
BRANCH  57  72
ATOM     72  N   UNL     1     -41.818  43.701  23.991  1.00  0.00    -0.383 N 
ATOM     73  H   UNL     1     -41.616  42.801  23.581  1.00  0.00     0.158 HD
ATOM     74  H   UNL     1     -41.954  44.486  23.345  1.00  0.00     0.158 HD
ENDBRANCH  57  72
ENDBRANCH  42  50
ENDBRANCH  35  38
ENDBRANCH  34  35
ENDBRANCH   7  34
TORSDOF 14
ENDMDL
MODEL 7
REMARK VINA RESULT:      -7.7      3.534      5.974
REMARK SMILES CN(CCS(C)(=O)=O)c1ccc2ccc(OC[C@H]3O[C@@H](n4cc(-c5ccn(C)n5)c5c(N)ncnc54)[C@@H](F)[C@@H]3O)cc2n1
REMARK SMILES IDX 9 1 10 2 11 3 12 4 13 5 14 6 15 7 41 8 42 9 43 10 2 16 1 17
REMARK SMILES IDX 3 21 4 24 5 27 7 28 8 29 6 30 16 34 17 35 18 38 19 39 39 40
REMARK SMILES IDX 20 42 37 43 38 46 40 48 21 50 22 51 36 52 23 53 30 55 35 56
REMARK SMILES IDX 31 57 34 58 33 59 24 61 25 62 29 63 26 64 27 66 28 68 32 72
REMARK H PARENT 10 11 11 12 13 13 14 14 41 15 1 18 1 19 1 20 3 22 3 23 4 25
REMARK H PARENT 4 26 6 31 6 32 6 33 17 36 17 37 18 41 39 44 20 45 37 47 40 49
REMARK H PARENT 22 54 34 60 25 65 26 67 28 69 28 70 28 71 32 73 32 74
REMARK Flexibility Score: inf
ROOT
ATOM      1  C   UNL     1     -47.149  34.676  26.584  1.00  0.00     0.129 A 
ATOM      2  C   UNL     1     -45.962  34.350  27.236  1.00  0.00    -0.019 A 
ATOM      3  C   UNL     1     -45.273  35.328  27.949  1.00  0.00    -0.049 A 
ATOM      4  C   UNL     1     -45.786  36.624  28.011  1.00  0.00     0.001 A 
ATOM      5  C   UNL     1     -45.134  37.651  28.712  1.00  0.00    -0.049 A 
ATOM      6  C   UNL     1     -45.682  38.935  28.759  1.00  0.00    -0.019 A 
ATOM      7  C   UNL     1     -46.882  39.196  28.107  1.00  0.00     0.121 A 
ATOM      8  C   UNL     1     -47.519  38.162  27.410  1.00  0.00     0.007 A 
ATOM      9  C   UNL     1     -46.997  36.878  27.346  1.00  0.00     0.076 A 
ATOM     10  N   UNL     1     -47.657  35.923  26.662  1.00  0.00    -0.231 NA
ATOM     11  H   UNL     1     -45.576  33.336  27.217  1.00  0.00     0.066 H 
ATOM     12  H   UNL     1     -44.347  35.068  28.455  1.00  0.00     0.063 H 
ATOM     13  H   UNL     1     -44.197  37.456  29.228  1.00  0.00     0.063 H 
ATOM     14  H   UNL     1     -45.141  39.695  29.310  1.00  0.00     0.066 H 
ATOM     15  H   UNL     1     -48.456  38.368  26.897  1.00  0.00     0.069 H 
ENDROOT
BRANCH   1  16
ATOM     16  N   UNL     1     -47.861  33.674  25.882  1.00  0.00    -0.359 N 
BRANCH  16  17
ATOM     17  C   UNL     1     -49.253  33.580  26.343  1.00  0.00     0.008 C 
ATOM     18  H   UNL     1     -49.944  33.458  25.500  1.00  0.00     0.046 H 
ATOM     19  H   UNL     1     -49.401  32.755  27.048  1.00  0.00     0.046 H 
ATOM     20  H   UNL     1     -49.533  34.493  26.880  1.00  0.00     0.046 H 
ENDBRANCH  16  17
BRANCH  16  21
ATOM     21  C   UNL     1     -47.172  32.364  25.833  1.00  0.00     0.033 C 
ATOM     22  H   UNL     1     -46.328  32.354  26.535  1.00  0.00     0.050 H 
ATOM     23  H   UNL     1     -47.855  31.587  26.198  1.00  0.00     0.050 H 
BRANCH  21  24
ATOM     24  C   UNL     1     -46.694  31.991  24.440  1.00  0.00     0.067 C 
ATOM     25  H   UNL     1     -45.671  31.602  24.502  1.00  0.00     0.045 H 
ATOM     26  H   UNL     1     -46.691  32.824  23.731  1.00  0.00     0.045 H 
BRANCH  24  27
ATOM     27  S   UNL     1     -47.648  30.681  23.706  1.00  0.00     0.149 S 
ATOM     28  O   UNL     1     -46.742  29.634  23.267  1.00  0.00    -0.229 OA
ATOM     29  O   UNL     1     -48.552  31.298  22.751  1.00  0.00    -0.229 OA
BRANCH  27  30
ATOM     30  C   UNL     1     -48.651  30.031  25.022  1.00  0.00     0.039 C 
ATOM     31  H   UNL     1     -48.054  30.049  25.936  1.00  0.00     0.040 H 
ATOM     32  H   UNL     1     -49.532  30.658  25.156  1.00  0.00     0.040 H 
ATOM     33  H   UNL     1     -48.926  29.001  24.783  1.00  0.00     0.040 H 
ENDBRANCH  27  30
ENDBRANCH  24  27
ENDBRANCH  21  24
ENDBRANCH  16  21
ENDBRANCH   1  16
BRANCH   7  34
ATOM     34  O   UNL     1     -47.539  40.393  28.059  1.00  0.00    -0.491 OA
BRANCH  34  35
ATOM     35  C   UNL     1     -48.942  40.411  27.769  1.00  0.00     0.117 C 
ATOM     36  H   UNL     1     -49.398  39.430  27.935  1.00  0.00     0.073 H 
ATOM     37  H   UNL     1     -49.004  40.602  26.693  1.00  0.00     0.073 H 
BRANCH  35  38
ATOM     38  C   UNL     1     -49.646  41.534  28.549  1.00  0.00     0.123 C 
ATOM     39  O   UNL     1     -48.809  42.716  28.568  1.00  0.00    -0.345 OA
ATOM     40  C   UNL     1     -50.954  41.986  27.905  1.00  0.00     0.119 C 
ATOM     41  H   UNL     1     -49.793  41.243  29.594  1.00  0.00     0.067 H 
ATOM     42  C   UNL     1     -49.314  43.648  27.575  1.00  0.00     0.169 C 
ATOM     43  C   UNL     1     -50.482  42.975  26.863  1.00  0.00     0.173 C 
ATOM     44  H   UNL     1     -51.516  41.153  27.472  1.00  0.00     0.066 H 
ATOM     45  H   UNL     1     -49.652  44.525  28.140  1.00  0.00     0.088 H 
ATOM     46  F   UNL     1     -50.061  42.269  25.777  1.00  0.00    -0.239 F 
ATOM     47  H   UNL     1     -51.245  43.689  26.537  1.00  0.00     0.074 H 
BRANCH  40  48
ATOM     48  O   UNL     1     -51.806  42.632  28.859  1.00  0.00    -0.387 OA
ATOM     49  H   UNL     1     -51.695  43.599  28.784  1.00  0.00     0.211 HD
ENDBRANCH  40  48
BRANCH  42  50
ATOM     50  N   UNL     1     -48.245  44.086  26.696  1.00  0.00    -0.302 N 
ATOM     51  C   UNL     1     -47.080  43.423  26.406  1.00  0.00     0.019 A 
ATOM     52  C   UNL     1     -48.269  45.284  26.029  1.00  0.00     0.148 A 
ATOM     53  C   UNL     1     -46.348  44.205  25.530  1.00  0.00     0.033 A 
ATOM     54  H   UNL     1     -46.857  42.464  26.857  1.00  0.00     0.083 H 
ATOM     55  C   UNL     1     -47.110  45.388  25.267  1.00  0.00     0.071 A 
ATOM     56  N   UNL     1     -49.266  46.183  26.114  1.00  0.00    -0.218 NA
ATOM     57  C   UNL     1     -46.992  46.552  24.486  1.00  0.00     0.137 A 
ATOM     58  C   UNL     1     -49.021  47.258  25.348  1.00  0.00     0.120 A 
ATOM     59  N   UNL     1     -47.958  47.491  24.560  1.00  0.00    -0.219 NA
ATOM     60  H   UNL     1     -49.777  48.038  25.364  1.00  0.00     0.106 H 
BRANCH  53  61
ATOM     61  C   UNL     1     -45.023  43.883  24.990  1.00  0.00     0.095 A 
ATOM     62  C   UNL     1     -44.769  43.576  23.633  1.00  0.00    -0.016 A 
ATOM     63  N   UNL     1     -43.907  43.817  25.728  1.00  0.00    -0.173 NA
ATOM     64  C   UNL     1     -43.417  43.328  23.569  1.00  0.00     0.025 A 
ATOM     65  H   UNL     1     -45.470  43.545  22.811  1.00  0.00     0.066 H 
ATOM     66  N   UNL     1     -42.950  43.488  24.839  1.00  0.00    -0.275 N 
ATOM     67  H   UNL     1     -42.771  43.061  22.745  1.00  0.00     0.084 H 
BRANCH  66  68
ATOM     68  C   UNL     1     -41.586  43.340  25.286  1.00  0.00     0.030 C 
ATOM     69  H   UNL     1     -41.491  42.420  25.867  1.00  0.00     0.048 H 
ATOM     70  H   UNL     1     -40.939  43.295  24.405  1.00  0.00     0.048 H 
ATOM     71  H   UNL     1     -41.332  44.203  25.906  1.00  0.00     0.048 H 
ENDBRANCH  66  68
ENDBRANCH  53  61
BRANCH  57  72
ATOM     72  N   UNL     1     -45.931  46.811  23.632  1.00  0.00    -0.383 N 
ATOM     73  H   UNL     1     -46.185  46.675  22.665  1.00  0.00     0.158 HD
ATOM     74  H   UNL     1     -45.445  47.683  23.867  1.00  0.00     0.158 HD
ENDBRANCH  57  72
ENDBRANCH  42  50
ENDBRANCH  35  38
ENDBRANCH  34  35
ENDBRANCH   7  34
TORSDOF 14
ENDMDL
