MODEL 1
REMARK VINA RESULT:     -10.1      0.000      0.000
REMARK SMILES CNc1ccc2ccc(OCc3cncc(-n4cc([C@@H]5CCCO5)c5c(N)ncnc54)c3)cc2n1
REMARK SMILES IDX 11 1 10 4 9 5 3 6 4 7 35 8 5 9 34 11 6 12 33 14 7 15 8 17
REMARK SMILES IDX 2 20 1 22 12 26 13 27 32 28 14 29 16 31 15 33 17 35 18 36
REMARK SMILES IDX 31 37 19 38 25 40 30 41 26 42 29 43 28 44 20 46 21 47 24 48
REMARK SMILES IDX 22 50 23 53 27 58
REMARK H PARENT 11 2 11 3 4 10 5 13 33 16 7 18 8 19 2 21 1 23 1 24 1 25 13 30
REMARK H PARENT 32 32 15 34 18 39 29 45 20 49 21 51 21 52 22 54 22 55 23 56
REMARK H PARENT 23 57 27 59 27 60
REMARK Flexibility Score: inf
ROOT
ATOM      1  C   UNL     1     -46.156  34.384  26.997  1.00  0.00     0.115 C 
ATOM      2  H   UNL     1     -45.381  34.115  27.726  1.00  0.00     0.076 H 
ATOM      3  H   UNL     1     -45.667  34.300  26.020  1.00  0.00     0.076 H 
ENDROOT
BRANCH   1   4
ATOM      4  O   UNL     1     -47.221  33.439  27.161  1.00  0.00    -0.489 OA
BRANCH   4   5
ATOM      5  C   UNL     1     -47.510  32.682  26.056  1.00  0.00     0.122 A 
ATOM      6  C   UNL     1     -46.570  31.044  21.689  1.00  0.00     0.126 A 
ATOM      7  C   UNL     1     -47.736  30.287  21.675  1.00  0.00    -0.019 A 
ATOM      8  N   UNL     1     -46.227  31.796  22.755  1.00  0.00    -0.231 NA
ATOM      9  C   UNL     1     -48.580  30.313  22.780  1.00  0.00    -0.049 A 
ATOM     10  H   UNL     1     -47.981  29.670  20.817  1.00  0.00     0.066 H 
ATOM     11  C   UNL     1     -47.038  31.823  23.831  1.00  0.00     0.076 A 
ATOM     12  C   UNL     1     -48.240  31.091  23.888  1.00  0.00     0.001 A 
ATOM     13  H   UNL     1     -49.491  29.720  22.771  1.00  0.00     0.063 H 
ATOM     14  C   UNL     1     -46.688  32.600  24.929  1.00  0.00     0.007 A 
ATOM     15  C   UNL     1     -49.052  31.143  25.032  1.00  0.00    -0.049 A 
ATOM     16  H   UNL     1     -45.744  33.134  24.887  1.00  0.00     0.069 H 
ATOM     17  C   UNL     1     -48.680  31.934  26.117  1.00  0.00    -0.019 A 
ATOM     18  H   UNL     1     -49.977  30.573  25.084  1.00  0.00     0.063 H 
ATOM     19  H   UNL     1     -49.311  31.980  27.000  1.00  0.00     0.066 H 
BRANCH   6  20
ATOM     20  N   UNL     1     -45.729  30.976  20.564  1.00  0.00    -0.373 N 
ATOM     21  H   UNL     1     -45.667  30.013  20.248  1.00  0.00     0.161 HD
BRANCH  20  22
ATOM     22  C   UNL     1     -46.085  31.886  19.488  1.00  0.00     0.005 C 
ATOM     23  H   UNL     1     -45.577  31.623  18.554  1.00  0.00     0.045 H 
ATOM     24  H   UNL     1     -45.770  32.898  19.760  1.00  0.00     0.045 H 
ATOM     25  H   UNL     1     -47.168  31.914  19.325  1.00  0.00     0.045 H 
ENDBRANCH  20  22
ENDBRANCH   6  20
ENDBRANCH   4   5
ENDBRANCH   1   4
BRANCH   1  26
ATOM     26  C   UNL     1     -46.611  35.792  27.273  1.00  0.00     0.010 A 
ATOM     27  C   UNL     1     -47.954  36.097  27.430  1.00  0.00     0.034 A 
ATOM     28  C   UNL     1     -45.695  36.851  27.330  1.00  0.00    -0.028 A 
ATOM     29  N   UNL     1     -48.418  37.346  27.656  1.00  0.00    -0.262 NA
ATOM     30  H   UNL     1     -48.720  35.329  27.375  1.00  0.00     0.084 H 
ATOM     31  C   UNL     1     -46.133  38.163  27.527  1.00  0.00     0.066 A 
ATOM     32  H   UNL     1     -44.643  36.611  27.215  1.00  0.00     0.065 H 
ATOM     33  C   UNL     1     -47.502  38.346  27.694  1.00  0.00     0.051 A 
ATOM     34  H   UNL     1     -47.955  39.320  27.841  1.00  0.00     0.086 H 
BRANCH  31  35
ATOM     35  N   UNL     1     -45.230  39.272  27.538  1.00  0.00    -0.299 N 
ATOM     36  C   UNL     1     -45.168  40.265  26.569  1.00  0.00     0.018 A 
ATOM     37  C   UNL     1     -44.252  39.564  28.487  1.00  0.00     0.150 A 
ATOM     38  C   UNL     1     -44.175  41.178  26.878  1.00  0.00     0.012 A 
ATOM     39  H   UNL     1     -45.856  40.267  25.737  1.00  0.00     0.083 H 
ATOM     40  C   UNL     1     -43.583  40.720  28.099  1.00  0.00     0.067 A 
ATOM     41  N   UNL     1     -43.961  38.842  29.587  1.00  0.00    -0.218 NA
ATOM     42  C   UNL     1     -42.537  41.158  28.930  1.00  0.00     0.136 A 
ATOM     43  C   UNL     1     -42.950  39.350  30.299  1.00  0.00     0.120 A 
ATOM     44  N   UNL     1     -42.230  40.452  30.034  1.00  0.00    -0.219 NA
ATOM     45  H   UNL     1     -42.681  38.807  31.197  1.00  0.00     0.106 H 
BRANCH  38  46
ATOM     46  C   UNL     1     -43.771  42.424  26.130  1.00  0.00     0.085 C 
ATOM     47  C   UNL     1     -44.222  43.747  26.735  1.00  0.00    -0.020 C 
ATOM     48  O   UNL     1     -44.336  42.403  24.797  1.00  0.00    -0.373 OA
ATOM     49  H   UNL     1     -42.679  42.417  26.032  1.00  0.00     0.066 H 
ATOM     50  C   UNL     1     -45.571  43.959  26.093  1.00  0.00    -0.027 C 
ATOM     51  H   UNL     1     -44.247  43.779  27.828  1.00  0.00     0.030 H 
ATOM     52  H   UNL     1     -43.547  44.545  26.401  1.00  0.00     0.030 H 
ATOM     53  C   UNL     1     -45.335  43.427  24.697  1.00  0.00     0.048 C 
ATOM     54  H   UNL     1     -46.332  43.356  26.602  1.00  0.00     0.029 H 
ATOM     55  H   UNL     1     -45.901  45.001  26.100  1.00  0.00     0.029 H 
ATOM     56  H   UNL     1     -44.943  44.209  24.038  1.00  0.00     0.057 H 
ATOM     57  H   UNL     1     -46.241  43.014  24.247  1.00  0.00     0.057 H 
ENDBRANCH  38  46
BRANCH  42  58
ATOM     58  N   UNL     1     -41.761  42.279  28.661  1.00  0.00    -0.383 N 
ATOM     59  H   UNL     1     -42.152  42.850  27.911  1.00  0.00     0.158 HD
ATOM     60  H   UNL     1     -40.792  42.011  28.538  1.00  0.00     0.158 HD
ENDBRANCH  42  58
ENDBRANCH  31  35
ENDBRANCH   1  26
TORSDOF 8
ENDMDL
MODEL 2
REMARK VINA RESULT:      -9.9      1.567      2.258
REMARK SMILES CNc1ccc2ccc(OCc3cncc(-n4cc([C@@H]5CCCO5)c5c(N)ncnc54)c3)cc2n1
REMARK SMILES IDX 11 1 10 4 9 5 3 6 4 7 35 8 5 9 34 11 6 12 33 14 7 15 8 17
REMARK SMILES IDX 2 20 1 22 12 26 13 27 32 28 14 29 16 31 15 33 17 35 18 36
REMARK SMILES IDX 31 37 19 38 25 40 30 41 26 42 29 43 28 44 20 46 21 47 24 48
REMARK SMILES IDX 22 50 23 53 27 58
REMARK H PARENT 11 2 11 3 4 10 5 13 33 16 7 18 8 19 2 21 1 23 1 24 1 25 13 30
REMARK H PARENT 32 32 15 34 18 39 29 45 20 49 21 51 21 52 22 54 22 55 23 56
REMARK H PARENT 23 57 27 59 27 60
REMARK Flexibility Score: inf
ROOT
ATOM      1  C   UNL     1     -46.646  34.404  27.173  1.00  0.00     0.115 C 
ATOM      2  H   UNL     1     -46.188  33.993  28.081  1.00  0.00     0.076 H 
ATOM      3  H   UNL     1     -45.875  34.309  26.399  1.00  0.00     0.076 H 
ENDROOT
BRANCH   1   4
ATOM      4  O   UNL     1     -47.803  33.605  26.897  1.00  0.00    -0.489 OA
BRANCH   4   5
ATOM      5  C   UNL     1     -47.625  32.615  25.968  1.00  0.00     0.122 A 
ATOM      6  C   UNL     1     -48.561  28.332  24.118  1.00  0.00     0.126 A 
ATOM      7  C   UNL     1     -47.640  28.525  23.094  1.00  0.00    -0.019 A 
ATOM      8  N   UNL     1     -48.789  29.279  25.052  1.00  0.00    -0.231 NA
ATOM      9  C   UNL     1     -46.923  29.716  23.036  1.00  0.00    -0.049 A 
ATOM     10  H   UNL     1     -47.489  27.762  22.339  1.00  0.00     0.066 H 
ATOM     11  C   UNL     1     -48.101  30.436  25.000  1.00  0.00     0.076 A 
ATOM     12  C   UNL     1     -47.146  30.701  24.000  1.00  0.00     0.001 A 
ATOM     13  H   UNL     1     -46.204  29.868  22.235  1.00  0.00     0.063 H 
ATOM     14  C   UNL     1     -48.333  31.411  25.963  1.00  0.00     0.007 A 
ATOM     15  C   UNL     1     -46.456  31.924  23.979  1.00  0.00    -0.049 A 
ATOM     16  H   UNL     1     -49.094  31.209  26.710  1.00  0.00     0.069 H 
ATOM     17  C   UNL     1     -46.704  32.882  24.960  1.00  0.00    -0.019 A 
ATOM     18  H   UNL     1     -45.724  32.137  23.203  1.00  0.00     0.063 H 
ATOM     19  H   UNL     1     -46.167  33.826  24.948  1.00  0.00     0.066 H 
BRANCH   6  20
ATOM     20  N   UNL     1     -49.283  27.126  24.133  1.00  0.00    -0.373 N 
ATOM     21  H   UNL     1     -48.826  26.468  24.757  1.00  0.00     0.161 HD
BRANCH  20  22
ATOM     22  C   UNL     1     -50.698  27.273  24.430  1.00  0.00     0.005 C 
ATOM     23  H   UNL     1     -50.894  28.169  25.029  1.00  0.00     0.045 H 
ATOM     24  H   UNL     1     -51.030  26.408  25.012  1.00  0.00     0.045 H 
ATOM     25  H   UNL     1     -51.301  27.302  23.515  1.00  0.00     0.045 H 
ENDBRANCH  20  22
ENDBRANCH   6  20
ENDBRANCH   4   5
ENDBRANCH   1   4
BRANCH   1  26
ATOM     26  C   UNL     1     -47.008  35.844  27.425  1.00  0.00     0.010 A 
ATOM     27  C   UNL     1     -48.326  36.236  27.595  1.00  0.00     0.034 A 
ATOM     28  C   UNL     1     -46.026  36.844  27.444  1.00  0.00    -0.028 A 
ATOM     29  N   UNL     1     -48.708  37.516  27.800  1.00  0.00    -0.262 NA
ATOM     30  H   UNL     1     -49.139  35.516  27.569  1.00  0.00     0.084 H 
ATOM     31  C   UNL     1     -46.377  38.184  27.619  1.00  0.00     0.066 A 
ATOM     32  H   UNL     1     -44.993  36.536  27.320  1.00  0.00     0.065 H 
ATOM     33  C   UNL     1     -47.730  38.457  27.803  1.00  0.00     0.051 A 
ATOM     34  H   UNL     1     -48.119  39.460  27.935  1.00  0.00     0.086 H 
BRANCH  31  35
ATOM     35  N   UNL     1     -45.407  39.235  27.592  1.00  0.00    -0.299 N 
ATOM     36  C   UNL     1     -45.296  40.198  26.598  1.00  0.00     0.018 A 
ATOM     37  C   UNL     1     -44.401  39.487  28.522  1.00  0.00     0.150 A 
ATOM     38  C   UNL     1     -44.244  41.055  26.873  1.00  0.00     0.012 A 
ATOM     39  H   UNL     1     -45.994  40.223  25.775  1.00  0.00     0.083 H 
ATOM     40  C   UNL     1     -43.666  40.590  28.098  1.00  0.00     0.067 A 
ATOM     41  N   UNL     1     -44.141  38.775  29.637  1.00  0.00    -0.218 NA
ATOM     42  C   UNL     1     -42.584  40.981  28.906  1.00  0.00     0.136 A 
ATOM     43  C   UNL     1     -43.091  39.236  30.324  1.00  0.00     0.120 A 
ATOM     44  N   UNL     1     -42.308  40.284  30.023  1.00  0.00    -0.219 NA
ATOM     45  H   UNL     1     -42.845  38.699  31.233  1.00  0.00     0.106 H 
BRANCH  38  46
ATOM     46  C   UNL     1     -43.773  42.254  26.090  1.00  0.00     0.085 C 
ATOM     47  C   UNL     1     -44.082  43.616  26.697  1.00  0.00    -0.020 C 
ATOM     48  O   UNL     1     -44.400  42.267  24.785  1.00  0.00    -0.373 OA
ATOM     49  H   UNL     1     -42.691  42.154  25.941  1.00  0.00     0.066 H 
ATOM     50  C   UNL     1     -45.437  43.935  26.115  1.00  0.00    -0.027 C 
ATOM     51  H   UNL     1     -44.051  43.661  27.788  1.00  0.00     0.030 H 
ATOM     52  H   UNL     1     -43.358  44.351  26.320  1.00  0.00     0.030 H 
ATOM     53  C   UNL     1     -45.312  43.372  24.717  1.00  0.00     0.048 C 
ATOM     54  H   UNL     1     -46.221  43.405  26.667  1.00  0.00     0.029 H 
ATOM     55  H   UNL     1     -45.677  45.002  26.123  1.00  0.00     0.029 H 
ATOM     56  H   UNL     1     -44.888  44.111  24.029  1.00  0.00     0.057 H 
ATOM     57  H   UNL     1     -46.271  43.032  24.315  1.00  0.00     0.057 H 
ENDBRANCH  38  46
BRANCH  42  58
ATOM     58  N   UNL     1     -41.743  42.045  28.600  1.00  0.00    -0.383 N 
ATOM     59  H   UNL     1     -42.256  42.858  28.260  1.00  0.00     0.158 HD
ATOM     60  H   UNL     1     -40.987  41.731  28.004  1.00  0.00     0.158 HD
ENDBRANCH  42  58
ENDBRANCH  31  35
ENDBRANCH   1  26
TORSDOF 8
ENDMDL
MODEL 3
REMARK VINA RESULT:      -9.8      2.415     11.172
REMARK SMILES CNc1ccc2ccc(OCc3cncc(-n4cc([C@@H]5CCCO5)c5c(N)ncnc54)c3)cc2n1
REMARK SMILES IDX 11 1 10 4 9 5 3 6 4 7 35 8 5 9 34 11 6 12 33 14 7 15 8 17
REMARK SMILES IDX 2 20 1 22 12 26 13 27 32 28 14 29 16 31 15 33 17 35 18 36
REMARK SMILES IDX 31 37 19 38 25 40 30 41 26 42 29 43 28 44 20 46 21 47 24 48
REMARK SMILES IDX 22 50 23 53 27 58
REMARK H PARENT 11 2 11 3 4 10 5 13 33 16 7 18 8 19 2 21 1 23 1 24 1 25 13 30
REMARK H PARENT 32 32 15 34 18 39 29 45 20 49 21 51 21 52 22 54 22 55 23 56
REMARK H PARENT 23 57 27 59 27 60
REMARK Flexibility Score: inf
ROOT
ATOM      1  C   UNL     1     -46.137  36.012  27.177  1.00  0.00     0.115 C 
ATOM      2  H   UNL     1     -45.381  35.944  26.386  1.00  0.00     0.076 H 
ATOM      3  H   UNL     1     -45.630  35.665  28.084  1.00  0.00     0.076 H 
ENDROOT
BRANCH   1   4
ATOM      4  O   UNL     1     -46.527  37.388  27.257  1.00  0.00    -0.489 OA
BRANCH   4   5
ATOM      5  C   UNL     1     -45.577  38.239  27.757  1.00  0.00     0.122 A 
ATOM      6  C   UNL     1     -42.840  42.125  27.534  1.00  0.00     0.126 A 
ATOM      7  C   UNL     1     -42.261  41.840  28.765  1.00  0.00    -0.019 A 
ATOM      8  N   UNL     1     -43.791  41.331  26.999  1.00  0.00    -0.231 NA
ATOM      9  C   UNL     1     -42.656  40.701  29.459  1.00  0.00    -0.049 A 
ATOM     10  H   UNL     1     -41.516  42.504  29.189  1.00  0.00     0.066 H 
ATOM     11  C   UNL     1     -44.182  40.228  27.667  1.00  0.00     0.076 A 
ATOM     12  C   UNL     1     -43.635  39.869  28.914  1.00  0.00     0.001 A 
ATOM     13  H   UNL     1     -42.205  40.479  30.423  1.00  0.00     0.063 H 
ATOM     14  C   UNL     1     -45.160  39.408  27.116  1.00  0.00     0.007 A 
ATOM     15  C   UNL     1     -44.077  38.714  29.579  1.00  0.00    -0.049 A 
ATOM     16  H   UNL     1     -45.597  39.712  26.170  1.00  0.00     0.069 H 
ATOM     17  C   UNL     1     -45.054  37.906  29.002  1.00  0.00    -0.019 A 
ATOM     18  H   UNL     1     -43.664  38.436  30.547  1.00  0.00     0.063 H 
ATOM     19  H   UNL     1     -45.392  37.009  29.513  1.00  0.00     0.066 H 
BRANCH   6  20
ATOM     20  N   UNL     1     -42.433  43.295  26.871  1.00  0.00    -0.373 N 
ATOM     21  H   UNL     1     -41.954  43.905  27.527  1.00  0.00     0.161 HD
BRANCH  20  22
ATOM     22  C   UNL     1     -41.654  43.067  25.665  1.00  0.00     0.005 C 
ATOM     23  H   UNL     1     -40.828  43.781  25.577  1.00  0.00     0.045 H 
ATOM     24  H   UNL     1     -42.302  43.204  24.793  1.00  0.00     0.045 H 
ATOM     25  H   UNL     1     -41.265  42.044  25.625  1.00  0.00     0.045 H 
ENDBRANCH  20  22
ENDBRANCH   6  20
ENDBRANCH   4   5
ENDBRANCH   1   4
BRANCH   1  26
ATOM     26  C   UNL     1     -47.297  35.122  26.813  1.00  0.00     0.010 A 
ATOM     27  C   UNL     1     -48.593  35.442  27.185  1.00  0.00     0.034 A 
ATOM     28  C   UNL     1     -47.097  33.915  26.131  1.00  0.00    -0.028 A 
ATOM     29  N   UNL     1     -49.666  34.669  26.905  1.00  0.00    -0.262 NA
ATOM     30  H   UNL     1     -48.817  36.351  27.736  1.00  0.00     0.084 H 
ATOM     31  C   UNL     1     -48.172  33.068  25.850  1.00  0.00     0.066 A 
ATOM     32  H   UNL     1     -46.083  33.669  25.832  1.00  0.00     0.065 H 
ATOM     33  C   UNL     1     -49.431  33.503  26.251  1.00  0.00     0.051 A 
ATOM     34  H   UNL     1     -50.334  32.924  26.098  1.00  0.00     0.086 H 
BRANCH  31  35
ATOM     35  N   UNL     1     -47.996  31.806  25.201  1.00  0.00    -0.299 N 
ATOM     36  C   UNL     1     -48.612  30.619  25.577  1.00  0.00     0.018 A 
ATOM     37  C   UNL     1     -47.186  31.519  24.105  1.00  0.00     0.150 A 
ATOM     38  C   UNL     1     -48.213  29.586  24.746  1.00  0.00     0.012 A 
ATOM     39  H   UNL     1     -49.316  30.598  26.394  1.00  0.00     0.083 H 
ATOM     40  C   UNL     1     -47.291  30.162  23.814  1.00  0.00     0.067 A 
ATOM     41  N   UNL     1     -46.396  32.386  23.441  1.00  0.00    -0.218 NA
ATOM     42  C   UNL     1     -46.518  29.680  22.743  1.00  0.00     0.136 A 
ATOM     43  C   UNL     1     -45.708  31.817  22.446  1.00  0.00     0.120 A 
ATOM     44  N   UNL     1     -45.724  30.530  22.066  1.00  0.00    -0.219 NA
ATOM     45  H   UNL     1     -45.061  32.476  21.878  1.00  0.00     0.106 H 
BRANCH  38  46
ATOM     46  C   UNL     1     -48.642  28.140  24.764  1.00  0.00     0.085 C 
ATOM     47  C   UNL     1     -49.455  27.696  25.973  1.00  0.00    -0.020 C 
ATOM     48  O   UNL     1     -47.477  27.280  24.752  1.00  0.00    -0.373 OA
ATOM     49  H   UNL     1     -49.210  27.948  23.846  1.00  0.00     0.066 H 
ATOM     50  C   UNL     1     -48.387  27.253  26.942  1.00  0.00    -0.027 C 
ATOM     51  H   UNL     1     -50.135  28.447  26.382  1.00  0.00     0.030 H 
ATOM     52  H   UNL     1     -50.062  26.823  25.698  1.00  0.00     0.030 H 
ATOM     53  C   UNL     1     -47.378  26.611  26.017  1.00  0.00     0.048 C 
ATOM     54  H   UNL     1     -47.944  28.122  27.441  1.00  0.00     0.029 H 
ATOM     55  H   UNL     1     -48.752  26.568  27.713  1.00  0.00     0.029 H 
ATOM     56  H   UNL     1     -47.610  25.554  25.851  1.00  0.00     0.057 H 
ATOM     57  H   UNL     1     -46.355  26.688  26.394  1.00  0.00     0.057 H 
ENDBRANCH  38  46
BRANCH  42  58
ATOM     58  N   UNL     1     -46.497  28.347  22.350  1.00  0.00    -0.383 N 
ATOM     59  H   UNL     1     -46.645  27.710  23.133  1.00  0.00     0.158 HD
ATOM     60  H   UNL     1     -45.673  28.162  21.792  1.00  0.00     0.158 HD
ENDBRANCH  42  58
ENDBRANCH  31  35
ENDBRANCH   1  26
TORSDOF 8
ENDMDL
MODEL 4
REMARK VINA RESULT:      -9.7      2.953     11.592
REMARK SMILES CNc1ccc2ccc(OCc3cncc(-n4cc([C@@H]5CCCO5)c5c(N)ncnc54)c3)cc2n1
REMARK SMILES IDX 11 1 10 4 9 5 3 6 4 7 35 8 5 9 34 11 6 12 33 14 7 15 8 17
REMARK SMILES IDX 2 20 1 22 12 26 13 27 32 28 14 29 16 31 15 33 17 35 18 36
REMARK SMILES IDX 31 37 19 38 25 40 30 41 26 42 29 43 28 44 20 46 21 47 24 48
REMARK SMILES IDX 22 50 23 53 27 58
REMARK H PARENT 11 2 11 3 4 10 5 13 33 16 7 18 8 19 2 21 1 23 1 24 1 25 13 30
REMARK H PARENT 32 32 15 34 18 39 29 45 20 49 21 51 21 52 22 54 22 55 23 56
REMARK H PARENT 23 57 27 59 27 60
REMARK Flexibility Score: inf
ROOT
ATOM      1  C   UNL     1     -48.739  34.950  26.928  1.00  0.00     0.115 C 
ATOM      2  H   UNL     1     -49.744  34.572  27.150  1.00  0.00     0.076 H 
ATOM      3  H   UNL     1     -48.902  35.878  26.368  1.00  0.00     0.076 H 
ENDROOT
BRANCH   1   4
ATOM      4  O   UNL     1     -48.095  35.176  28.188  1.00  0.00    -0.489 OA
BRANCH   4   5
ATOM      5  C   UNL     1     -47.225  36.234  28.222  1.00  0.00     0.122 A 
ATOM      6  C   UNL     1     -45.577  40.407  26.637  1.00  0.00     0.126 A 
ATOM      7  C   UNL     1     -44.568  40.420  27.593  1.00  0.00    -0.019 A 
ATOM      8  N   UNL     1     -46.471  39.398  26.566  1.00  0.00    -0.231 NA
ATOM      9  C   UNL     1     -44.464  39.364  28.491  1.00  0.00    -0.049 A 
ATOM     10  H   UNL     1     -43.875  41.253  27.649  1.00  0.00     0.066 H 
ATOM     11  C   UNL     1     -46.379  38.373  27.435  1.00  0.00     0.076 A 
ATOM     12  C   UNL     1     -45.379  38.312  28.425  1.00  0.00     0.001 A 
ATOM     13  H   UNL     1     -43.677  39.375  29.241  1.00  0.00     0.063 H 
ATOM     14  C   UNL     1     -47.297  37.332  27.361  1.00  0.00     0.007 A 
ATOM     15  C   UNL     1     -45.324  37.227  29.316  1.00  0.00    -0.049 A 
ATOM     16  H   UNL     1     -48.082  37.405  26.616  1.00  0.00     0.069 H 
ATOM     17  C   UNL     1     -46.254  36.195  29.216  1.00  0.00    -0.019 A 
ATOM     18  H   UNL     1     -44.559  37.180  30.087  1.00  0.00     0.063 H 
ATOM     19  H   UNL     1     -46.208  35.352  29.901  1.00  0.00     0.066 H 
BRANCH   6  20
ATOM     20  N   UNL     1     -45.666  41.501  25.759  1.00  0.00    -0.373 N 
ATOM     21  H   UNL     1     -46.213  42.238  26.195  1.00  0.00     0.161 HD
BRANCH  20  22
ATOM     22  C   UNL     1     -44.388  41.985  25.265  1.00  0.00     0.005 C 
ATOM     23  H   UNL     1     -44.116  41.508  24.317  1.00  0.00     0.045 H 
ATOM     24  H   UNL     1     -43.610  41.739  25.993  1.00  0.00     0.045 H 
ATOM     25  H   UNL     1     -44.389  43.074  25.143  1.00  0.00     0.045 H 
ENDBRANCH  20  22
ENDBRANCH   6  20
ENDBRANCH   4   5
ENDBRANCH   1   4
BRANCH   1  26
ATOM     26  C   UNL     1     -48.009  33.923  26.103  1.00  0.00     0.010 A 
ATOM     27  C   UNL     1     -46.678  34.093  25.756  1.00  0.00     0.034 A 
ATOM     28  C   UNL     1     -48.666  32.786  25.616  1.00  0.00    -0.028 A 
ATOM     29  N   UNL     1     -45.982  33.215  24.999  1.00  0.00    -0.262 NA
ATOM     30  H   UNL     1     -46.113  34.963  26.080  1.00  0.00     0.084 H 
ATOM     31  C   UNL     1     -47.997  31.869  24.803  1.00  0.00     0.066 A 
ATOM     32  H   UNL     1     -49.706  32.649  25.895  1.00  0.00     0.065 H 
ATOM     33  C   UNL     1     -46.656  32.131  24.538  1.00  0.00     0.051 A 
ATOM     34  H   UNL     1     -46.041  31.497  23.910  1.00  0.00     0.086 H 
BRANCH  31  35
ATOM     35  N   UNL     1     -48.652  30.726  24.246  1.00  0.00    -0.299 N 
ATOM     36  C   UNL     1     -48.546  29.428  24.729  1.00  0.00     0.018 A 
ATOM     37  C   UNL     1     -49.493  30.684  23.136  1.00  0.00     0.150 A 
ATOM     38  C   UNL     1     -49.297  28.563  23.951  1.00  0.00     0.012 A 
ATOM     39  H   UNL     1     -47.963  29.213  25.611  1.00  0.00     0.083 H 
ATOM     40  C   UNL     1     -49.891  29.368  22.926  1.00  0.00     0.067 A 
ATOM     41  N   UNL     1     -49.848  31.726  22.359  1.00  0.00    -0.218 NA
ATOM     42  C   UNL     1     -50.731  29.126  21.825  1.00  0.00     0.136 A 
ATOM     43  C   UNL     1     -50.644  31.378  21.343  1.00  0.00     0.120 A 
ATOM     44  N   UNL     1     -51.098  30.153  21.036  1.00  0.00    -0.219 NA
ATOM     45  H   UNL     1     -50.962  32.184  20.690  1.00  0.00     0.106 H 
BRANCH  38  46
ATOM     46  C   UNL     1     -49.497  27.077  24.116  1.00  0.00     0.085 C 
ATOM     47  C   UNL     1     -50.809  26.643  24.756  1.00  0.00    -0.020 C 
ATOM     48  O   UNL     1     -48.459  26.531  24.964  1.00  0.00    -0.373 OA
ATOM     49  H   UNL     1     -49.400  26.615  23.126  1.00  0.00     0.066 H 
ATOM     50  C   UNL     1     -50.467  26.625  26.225  1.00  0.00    -0.027 C 
ATOM     51  H   UNL     1     -51.677  27.263  24.515  1.00  0.00     0.030 H 
ATOM     52  H   UNL     1     -51.043  25.618  24.439  1.00  0.00     0.030 H 
ATOM     53  C   UNL     1     -49.045  26.109  26.204  1.00  0.00     0.048 C 
ATOM     54  H   UNL     1     -50.493  27.642  26.633  1.00  0.00     0.029 H 
ATOM     55  H   UNL     1     -51.135  26.000  26.824  1.00  0.00     0.029 H 
ATOM     56  H   UNL     1     -49.021  25.015  26.226  1.00  0.00     0.057 H 
ATOM     57  H   UNL     1     -48.449  26.487  27.039  1.00  0.00     0.057 H 
ENDBRANCH  38  46
BRANCH  42  58
ATOM     58  N   UNL     1     -51.191  27.863  21.472  1.00  0.00    -0.383 N 
ATOM     59  H   UNL     1     -50.724  27.121  21.996  1.00  0.00     0.158 HD
ATOM     60  H   UNL     1     -51.175  27.756  20.466  1.00  0.00     0.158 HD
ENDBRANCH  42  58
ENDBRANCH  31  35
ENDBRANCH   1  26
TORSDOF 8
ENDMDL
MODEL 5
REMARK VINA RESULT:      -9.6      3.082     11.677
REMARK SMILES CNc1ccc2ccc(OCc3cncc(-n4cc([C@@H]5CCCO5)c5c(N)ncnc54)c3)cc2n1
REMARK SMILES IDX 11 1 10 4 9 5 3 6 4 7 35 8 5 9 34 11 6 12 33 14 7 15 8 17
REMARK SMILES IDX 2 20 1 22 12 26 13 27 32 28 14 29 16 31 15 33 17 35 18 36
REMARK SMILES IDX 31 37 19 38 25 40 30 41 26 42 29 43 28 44 20 46 21 47 24 48
REMARK SMILES IDX 22 50 23 53 27 58
REMARK H PARENT 11 2 11 3 4 10 5 13 33 16 7 18 8 19 2 21 1 23 1 24 1 25 13 30
REMARK H PARENT 32 32 15 34 18 39 29 45 20 49 21 51 21 52 22 54 22 55 23 56
REMARK H PARENT 23 57 27 59 27 60
REMARK Flexibility Score: inf
ROOT
ATOM      1  C   UNL     1     -48.552  35.448  27.187  1.00  0.00     0.115 C 
ATOM      2  H   UNL     1     -49.478  35.082  27.646  1.00  0.00     0.076 H 
ATOM      3  H   UNL     1     -48.861  36.294  26.562  1.00  0.00     0.076 H 
ENDROOT
BRANCH   1   4
ATOM      4  O   UNL     1     -47.688  35.844  28.259  1.00  0.00    -0.489 OA
BRANCH   4   5
ATOM      5  C   UNL     1     -46.927  36.958  28.020  1.00  0.00     0.122 A 
ATOM      6  C   UNL     1     -43.447  40.016  29.103  1.00  0.00     0.126 A 
ATOM      7  C   UNL     1     -43.706  40.779  27.970  1.00  0.00    -0.019 A 
ATOM      8  N   UNL     1     -44.154  38.902  29.382  1.00  0.00    -0.231 NA
ATOM      9  C   UNL     1     -44.728  40.397  27.108  1.00  0.00    -0.049 A 
ATOM     10  H   UNL     1     -43.110  41.659  27.751  1.00  0.00     0.066 H 
ATOM     11  C   UNL     1     -45.143  38.522  28.549  1.00  0.00     0.076 A 
ATOM     12  C   UNL     1     -45.471  39.248  27.388  1.00  0.00     0.001 A 
ATOM     13  H   UNL     1     -44.930  40.992  26.221  1.00  0.00     0.063 H 
ATOM     14  C   UNL     1     -45.874  37.376  28.837  1.00  0.00     0.007 A 
ATOM     15  C   UNL     1     -46.505  38.813  26.544  1.00  0.00    -0.049 A 
ATOM     16  H   UNL     1     -45.592  36.807  29.717  1.00  0.00     0.069 H 
ATOM     17  C   UNL     1     -47.226  37.663  26.859  1.00  0.00    -0.019 A 
ATOM     18  H   UNL     1     -46.756  39.366  25.641  1.00  0.00     0.063 H 
ATOM     19  H   UNL     1     -48.031  37.329  26.210  1.00  0.00     0.066 H 
BRANCH   6  20
ATOM     20  N   UNL     1     -42.392  40.420  29.940  1.00  0.00    -0.373 N 
ATOM     21  H   UNL     1     -41.806  39.619  30.153  1.00  0.00     0.161 HD
BRANCH  20  22
ATOM     22  C   UNL     1     -41.623  41.548  29.442  1.00  0.00     0.005 C 
ATOM     23  H   UNL     1     -40.735  41.218  28.892  1.00  0.00     0.045 H 
ATOM     24  H   UNL     1     -41.281  42.148  30.291  1.00  0.00     0.045 H 
ATOM     25  H   UNL     1     -42.230  42.200  28.805  1.00  0.00     0.045 H 
ENDBRANCH  20  22
ENDBRANCH   6  20
ENDBRANCH   4   5
ENDBRANCH   1   4
BRANCH   1  26
ATOM     26  C   UNL     1     -47.949  34.339  26.365  1.00  0.00     0.010 A 
ATOM     27  C   UNL     1     -46.697  34.470  25.786  1.00  0.00     0.034 A 
ATOM     28  C   UNL     1     -48.659  33.157  26.115  1.00  0.00    -0.028 A 
ATOM     29  N   UNL     1     -46.120  33.517  25.021  1.00  0.00    -0.262 NA
ATOM     30  H   UNL     1     -46.102  35.370  25.920  1.00  0.00     0.084 H 
ATOM     31  C   UNL     1     -48.116  32.158  25.302  1.00  0.00     0.066 A 
ATOM     32  H   UNL     1     -49.636  33.051  26.574  1.00  0.00     0.065 H 
ATOM     33  C   UNL     1     -46.842  32.390  24.794  1.00  0.00     0.051 A 
ATOM     34  H   UNL     1     -46.328  31.693  24.142  1.00  0.00     0.086 H 
BRANCH  31  35
ATOM     35  N   UNL     1     -48.835  30.963  24.985  1.00  0.00    -0.299 N 
ATOM     36  C   UNL     1     -48.498  29.687  25.419  1.00  0.00     0.018 A 
ATOM     37  C   UNL     1     -49.973  30.840  24.191  1.00  0.00     0.150 A 
ATOM     38  C   UNL     1     -49.395  28.757  24.919  1.00  0.00     0.012 A 
ATOM     39  H   UNL     1     -47.658  29.532  26.078  1.00  0.00     0.083 H 
ATOM     40  C   UNL     1     -50.329  29.497  24.124  1.00  0.00     0.067 A 
ATOM     41  N   UNL     1     -50.619  31.837  23.555  1.00  0.00    -0.218 NA
ATOM     42  C   UNL     1     -51.450  29.175  23.339  1.00  0.00     0.136 A 
ATOM     43  C   UNL     1     -51.666  31.414  22.840  1.00  0.00     0.120 A 
ATOM     44  N   UNL     1     -52.110  30.156  22.697  1.00  0.00    -0.219 NA
ATOM     45  H   UNL     1     -52.222  32.181  22.312  1.00  0.00     0.106 H 
BRANCH  38  46
ATOM     46  C   UNL     1     -49.435  27.267  25.147  1.00  0.00     0.085 C 
ATOM     47  C   UNL     1     -49.447  26.810  26.600  1.00  0.00    -0.020 C 
ATOM     48  O   UNL     1     -48.266  26.647  24.562  1.00  0.00    -0.373 OA
ATOM     49  H   UNL     1     -50.318  26.873  24.630  1.00  0.00     0.066 H 
ATOM     50  C   UNL     1     -47.977  26.685  26.916  1.00  0.00    -0.027 C 
ATOM     51  H   UNL     1     -49.990  27.459  27.291  1.00  0.00     0.030 H 
ATOM     52  H   UNL     1     -49.904  25.814  26.661  1.00  0.00     0.030 H 
ATOM     53  C   UNL     1     -47.427  26.149  25.613  1.00  0.00     0.048 C 
ATOM     54  H   UNL     1     -47.549  27.671  27.130  1.00  0.00     0.029 H 
ATOM     55  H   UNL     1     -47.766  26.031  27.766  1.00  0.00     0.029 H 
ATOM     56  H   UNL     1     -47.472  25.056  25.584  1.00  0.00     0.057 H 
ATOM     57  H   UNL     1     -46.393  26.458  25.436  1.00  0.00     0.057 H 
ENDBRANCH  38  46
BRANCH  42  58
ATOM     58  N   UNL     1     -51.912  27.877  23.155  1.00  0.00    -0.383 N 
ATOM     59  H   UNL     1     -52.886  27.769  23.438  1.00  0.00     0.158 HD
ATOM     60  H   UNL     1     -51.266  27.216  23.571  1.00  0.00     0.158 HD
ENDBRANCH  42  58
ENDBRANCH  31  35
ENDBRANCH   1  26
TORSDOF 8
ENDMDL
MODEL 6
REMARK VINA RESULT:      -9.6      2.421      3.723
REMARK SMILES CNc1ccc2ccc(OCc3cncc(-n4cc([C@@H]5CCCO5)c5c(N)ncnc54)c3)cc2n1
REMARK SMILES IDX 11 1 10 4 9 5 3 6 4 7 35 8 5 9 34 11 6 12 33 14 7 15 8 17
REMARK SMILES IDX 2 20 1 22 12 26 13 27 32 28 14 29 16 31 15 33 17 35 18 36
REMARK SMILES IDX 31 37 19 38 25 40 30 41 26 42 29 43 28 44 20 46 21 47 24 48
REMARK SMILES IDX 22 50 23 53 27 58
REMARK H PARENT 11 2 11 3 4 10 5 13 33 16 7 18 8 19 2 21 1 23 1 24 1 25 13 30
REMARK H PARENT 32 32 15 34 18 39 29 45 20 49 21 51 21 52 22 54 22 55 23 56
REMARK H PARENT 23 57 27 59 27 60
REMARK Flexibility Score: inf
ROOT
ATOM      1  C   UNL     1     -47.693  34.742  26.355  1.00  0.00     0.115 C 
ATOM      2  H   UNL     1     -47.116  34.749  25.423  1.00  0.00     0.076 H 
ATOM      3  H   UNL     1     -48.707  35.040  26.064  1.00  0.00     0.076 H 
ENDROOT
BRANCH   1   4
ATOM      4  O   UNL     1     -47.639  33.402  26.863  1.00  0.00    -0.489 OA
BRANCH   4   5
ATOM      5  C   UNL     1     -47.603  32.416  25.913  1.00  0.00     0.122 A 
ATOM      6  C   UNL     1     -49.160  28.365  23.963  1.00  0.00     0.126 A 
ATOM      7  C   UNL     1     -48.210  28.437  22.951  1.00  0.00    -0.019 A 
ATOM      8  N   UNL     1     -49.252  29.315  24.916  1.00  0.00    -0.231 NA
ATOM      9  C   UNL     1     -47.321  29.505  22.924  1.00  0.00    -0.049 A 
ATOM     10  H   UNL     1     -48.169  27.675  22.179  1.00  0.00     0.066 H 
ATOM     11  C   UNL     1     -48.395  30.355  24.895  1.00  0.00     0.076 A 
ATOM     12  C   UNL     1     -47.401  30.493  23.907  1.00  0.00     0.001 A 
ATOM     13  H   UNL     1     -46.579  29.563  22.131  1.00  0.00     0.063 H 
ATOM     14  C   UNL     1     -48.486  31.334  25.878  1.00  0.00     0.007 A 
ATOM     15  C   UNL     1     -46.533  31.597  23.918  1.00  0.00    -0.049 A 
ATOM     16  H   UNL     1     -49.277  31.235  26.615  1.00  0.00     0.069 H 
ATOM     17  C   UNL     1     -46.643  32.560  24.918  1.00  0.00    -0.019 A 
ATOM     18  H   UNL     1     -45.769  31.712  23.153  1.00  0.00     0.063 H 
ATOM     19  H   UNL     1     -45.968  33.412  24.932  1.00  0.00     0.066 H 
BRANCH   6  20
ATOM     20  N   UNL     1     -50.058  27.283  23.946  1.00  0.00    -0.373 N 
ATOM     21  H   UNL     1     -50.090  26.886  23.012  1.00  0.00     0.161 HD
BRANCH  20  22
ATOM     22  C   UNL     1     -49.808  26.274  24.963  1.00  0.00     0.005 C 
ATOM     23  H   UNL     1     -49.482  26.725  25.906  1.00  0.00     0.045 H 
ATOM     24  H   UNL     1     -49.007  25.614  24.618  1.00  0.00     0.045 H 
ATOM     25  H   UNL     1     -50.692  25.651  25.138  1.00  0.00     0.045 H 
ENDBRANCH  20  22
ENDBRANCH   6  20
ENDBRANCH   4   5
ENDBRANCH   1   4
BRANCH   1  26
ATOM     26  C   UNL     1     -47.076  35.728  27.312  1.00  0.00     0.010 A 
ATOM     27  C   UNL     1     -46.903  35.419  28.652  1.00  0.00     0.034 A 
ATOM     28  C   UNL     1     -46.703  37.010  26.889  1.00  0.00    -0.028 A 
ATOM     29  N   UNL     1     -46.377  36.273  29.557  1.00  0.00    -0.262 NA
ATOM     30  H   UNL     1     -47.192  34.451  29.053  1.00  0.00     0.084 H 
ATOM     31  C   UNL     1     -46.186  37.938  27.796  1.00  0.00     0.066 A 
ATOM     32  H   UNL     1     -46.830  37.249  25.838  1.00  0.00     0.065 H 
ATOM     33  C   UNL     1     -46.037  37.509  29.111  1.00  0.00     0.051 A 
ATOM     34  H   UNL     1     -45.659  38.146  29.903  1.00  0.00     0.086 H 
BRANCH  31  35
ATOM     35  N   UNL     1     -45.844  39.271  27.408  1.00  0.00    -0.299 N 
ATOM     36  C   UNL     1     -44.561  39.802  27.409  1.00  0.00     0.018 A 
ATOM     37  C   UNL     1     -46.705  40.279  26.976  1.00  0.00     0.150 A 
ATOM     38  C   UNL     1     -44.585  41.122  26.990  1.00  0.00     0.012 A 
ATOM     39  H   UNL     1     -43.713  39.194  27.682  1.00  0.00     0.083 H 
ATOM     40  C   UNL     1     -45.960  41.427  26.726  1.00  0.00     0.067 A 
ATOM     41  N   UNL     1     -48.043  40.190  26.848  1.00  0.00    -0.218 NA
ATOM     42  C   UNL     1     -46.669  42.564  26.301  1.00  0.00     0.136 A 
ATOM     43  C   UNL     1     -48.610  41.330  26.440  1.00  0.00     0.120 A 
ATOM     44  N   UNL     1     -48.006  42.497  26.166  1.00  0.00    -0.219 NA
ATOM     45  H   UNL     1     -49.687  41.308  26.318  1.00  0.00     0.106 H 
BRANCH  38  46
ATOM     46  C   UNL     1     -43.433  42.078  26.812  1.00  0.00     0.085 C 
ATOM     47  C   UNL     1     -42.040  41.494  27.005  1.00  0.00    -0.020 C 
ATOM     48  O   UNL     1     -43.532  43.153  27.777  1.00  0.00    -0.373 OA
ATOM     49  H   UNL     1     -43.514  42.517  25.811  1.00  0.00     0.066 H 
ATOM     50  C   UNL     1     -41.802  41.690  28.482  1.00  0.00    -0.027 C 
ATOM     51  H   UNL     1     -41.915  40.459  26.674  1.00  0.00     0.030 H 
ATOM     52  H   UNL     1     -41.314  42.103  26.450  1.00  0.00     0.030 H 
ATOM     53  C   UNL     1     -42.462  43.029  28.724  1.00  0.00     0.048 C 
ATOM     54  H   UNL     1     -42.314  40.908  29.055  1.00  0.00     0.029 H 
ATOM     55  H   UNL     1     -40.745  41.681  28.761  1.00  0.00     0.029 H 
ATOM     56  H   UNL     1     -41.763  43.853  28.543  1.00  0.00     0.057 H 
ATOM     57  H   UNL     1     -42.856  43.125  29.739  1.00  0.00     0.057 H 
ENDBRANCH  38  46
BRANCH  42  58
ATOM     58  N   UNL     1     -46.068  43.789  26.037  1.00  0.00    -0.383 N 
ATOM     59  H   UNL     1     -45.734  44.248  26.886  1.00  0.00     0.158 HD
ATOM     60  H   UNL     1     -46.671  44.353  25.451  1.00  0.00     0.158 HD
ENDBRANCH  42  58
ENDBRANCH  31  35
ENDBRANCH   1  26
TORSDOF 8
ENDMDL
MODEL 7
REMARK VINA RESULT:      -9.5      2.528     10.956
REMARK SMILES CNc1ccc2ccc(OCc3cncc(-n4cc([C@@H]5CCCO5)c5c(N)ncnc54)c3)cc2n1
REMARK SMILES IDX 11 1 10 4 9 5 3 6 4 7 35 8 5 9 34 11 6 12 33 14 7 15 8 17
REMARK SMILES IDX 2 20 1 22 12 26 13 27 32 28 14 29 16 31 15 33 17 35 18 36
REMARK SMILES IDX 31 37 19 38 25 40 30 41 26 42 29 43 28 44 20 46 21 47 24 48
REMARK SMILES IDX 22 50 23 53 27 58
REMARK H PARENT 11 2 11 3 4 10 5 13 33 16 7 18 8 19 2 21 1 23 1 24 1 25 13 30
REMARK H PARENT 32 32 15 34 18 39 29 45 20 49 21 51 21 52 22 54 22 55 23 56
REMARK H PARENT 23 57 27 59 27 60
REMARK Flexibility Score: inf
ROOT
ATOM      1  C   UNL     1     -46.618  36.891  26.819  1.00  0.00     0.115 C 
ATOM      2  H   UNL     1     -47.504  37.188  26.245  1.00  0.00     0.076 H 
ATOM      3  H   UNL     1     -45.766  37.243  26.227  1.00  0.00     0.076 H 
ENDROOT
BRANCH   1   4
ATOM      4  O   UNL     1     -46.712  37.547  28.090  1.00  0.00    -0.489 OA
BRANCH   4   5
ATOM      5  C   UNL     1     -45.636  38.323  28.432  1.00  0.00     0.122 A 
ATOM      6  C   UNL     1     -42.565  41.872  27.653  1.00  0.00     0.126 A 
ATOM      7  C   UNL     1     -41.892  41.608  28.841  1.00  0.00    -0.019 A 
ATOM      8  N   UNL     1     -43.640  41.150  27.274  1.00  0.00    -0.231 NA
ATOM      9  C   UNL     1     -42.325  40.566  29.654  1.00  0.00    -0.049 A 
ATOM     10  H   UNL     1     -41.045  42.215  29.140  1.00  0.00     0.066 H 
ATOM     11  C   UNL     1     -44.067  40.141  28.058  1.00  0.00     0.076 A 
ATOM     12  C   UNL     1     -43.433  39.808  29.270  1.00  0.00     0.001 A 
ATOM     13  H   UNL     1     -41.800  40.360  30.584  1.00  0.00     0.063 H 
ATOM     14  C   UNL     1     -45.173  39.395  27.666  1.00  0.00     0.007 A 
ATOM     15  C   UNL     1     -43.916  38.753  30.060  1.00  0.00    -0.049 A 
ATOM     16  H   UNL     1     -45.673  39.682  26.747  1.00  0.00     0.069 H 
ATOM     17  C   UNL     1     -45.023  38.018  29.642  1.00  0.00    -0.019 A 
ATOM     18  H   UNL     1     -43.434  38.497  31.001  1.00  0.00     0.063 H 
ATOM     19  H   UNL     1     -45.394  37.197  30.249  1.00  0.00     0.066 H 
BRANCH   6  20
ATOM     20  N   UNL     1     -42.113  42.946  26.867  1.00  0.00    -0.373 N 
ATOM     21  H   UNL     1     -41.425  42.610  26.200  1.00  0.00     0.161 HD
BRANCH  20  22
ATOM     22  C   UNL     1     -43.169  43.713  26.228  1.00  0.00     0.005 C 
ATOM     23  H   UNL     1     -42.899  43.996  25.205  1.00  0.00     0.045 H 
ATOM     24  H   UNL     1     -43.330  44.636  26.794  1.00  0.00     0.045 H 
ATOM     25  H   UNL     1     -44.118  43.165  26.221  1.00  0.00     0.045 H 
ENDBRANCH  20  22
ENDBRANCH   6  20
ENDBRANCH   4   5
ENDBRANCH   1   4
BRANCH   1  26
ATOM     26  C   UNL     1     -46.617  35.392  26.962  1.00  0.00     0.010 A 
ATOM     27  C   UNL     1     -46.060  34.775  28.072  1.00  0.00     0.034 A 
ATOM     28  C   UNL     1     -47.132  34.568  25.953  1.00  0.00    -0.028 A 
ATOM     29  N   UNL     1     -46.011  33.436  28.240  1.00  0.00    -0.262 NA
ATOM     30  H   UNL     1     -45.622  35.353  28.881  1.00  0.00     0.084 H 
ATOM     31  C   UNL     1     -47.072  33.177  26.068  1.00  0.00     0.066 A 
ATOM     32  H   UNL     1     -47.575  35.051  25.088  1.00  0.00     0.065 H 
ATOM     33  C   UNL     1     -46.511  32.671  27.236  1.00  0.00     0.051 A 
ATOM     34  H   UNL     1     -46.400  31.610  27.429  1.00  0.00     0.086 H 
BRANCH  31  35
ATOM     35  N   UNL     1     -47.541  32.308  25.034  1.00  0.00    -0.299 N 
ATOM     36  C   UNL     1     -46.737  31.501  24.239  1.00  0.00     0.018 A 
ATOM     37  C   UNL     1     -48.857  32.111  24.620  1.00  0.00     0.150 A 
ATOM     38  C   UNL     1     -47.510  30.798  23.330  1.00  0.00     0.012 A 
ATOM     39  H   UNL     1     -45.670  31.462  24.394  1.00  0.00     0.083 H 
ATOM     40  C   UNL     1     -48.863  31.200  23.568  1.00  0.00     0.067 A 
ATOM     41  N   UNL     1     -49.953  32.717  25.116  1.00  0.00    -0.218 NA
ATOM     42  C   UNL     1     -50.113  30.895  23.000  1.00  0.00     0.136 A 
ATOM     43  C   UNL     1     -51.082  32.352  24.500  1.00  0.00     0.120 A 
ATOM     44  N   UNL     1     -51.220  31.488  23.482  1.00  0.00    -0.219 NA
ATOM     45  H   UNL     1     -51.994  32.810  24.867  1.00  0.00     0.106 H 
BRANCH  38  46
ATOM     46  C   UNL     1     -47.070  29.793  22.295  1.00  0.00     0.085 C 
ATOM     47  C   UNL     1     -47.164  28.328  22.701  1.00  0.00    -0.020 C 
ATOM     48  O   UNL     1     -45.678  30.007  21.959  1.00  0.00    -0.373 OA
ATOM     49  H   UNL     1     -47.664  29.963  21.389  1.00  0.00     0.066 H 
ATOM     50  C   UNL     1     -45.814  28.074  23.327  1.00  0.00    -0.027 C 
ATOM     51  H   UNL     1     -48.004  28.073  23.351  1.00  0.00     0.030 H 
ATOM     52  H   UNL     1     -47.252  27.709  21.798  1.00  0.00     0.030 H 
ATOM     53  C   UNL     1     -44.906  28.902  22.447  1.00  0.00     0.048 C 
ATOM     54  H   UNL     1     -45.796  28.456  24.354  1.00  0.00     0.029 H 
ATOM     55  H   UNL     1     -45.535  27.017  23.351  1.00  0.00     0.029 H 
ATOM     56  H   UNL     1     -44.565  28.327  21.579  1.00  0.00     0.057 H 
ATOM     57  H   UNL     1     -44.028  29.274  22.982  1.00  0.00     0.057 H 
ENDBRANCH  38  46
BRANCH  42  58
ATOM     58  N   UNL     1     -50.277  30.024  21.929  1.00  0.00    -0.383 N 
ATOM     59  H   UNL     1     -49.508  29.358  21.850  1.00  0.00     0.158 HD
ATOM     60  H   UNL     1     -50.484  30.546  21.086  1.00  0.00     0.158 HD
ENDBRANCH  42  58
ENDBRANCH  31  35
ENDBRANCH   1  26
TORSDOF 8
ENDMDL
