MODEL 1
REMARK VINA RESULT:     -11.0      0.000      0.000
REMARK SMILES O=C(NCc1ccc2cc(CNC[C@]34C[C@](F)(C3)C4)[nH]c2c1)c1cc(=O)n2ccsc2n1
REMARK SMILES IDX 5 1 6 2 7 3 8 4 9 5 10 6 20 7 21 8 22 9 4 15 3 18 1 19 2 20
REMARK SMILES IDX 23 22 24 23 32 24 25 25 31 27 26 28 27 29 30 30 28 31 29 32
REMARK SMILES IDX 11 35 12 38 13 40 14 43 18 44 15 45 19 46 16 47 17 54
REMARK H PARENT 6 10 7 11 9 12 20 13 22 14 4 16 4 17 3 21 24 26 28 33 29 34
REMARK H PARENT 11 36 11 37 12 39 13 41 13 42 18 48 18 49 15 50 15 51 19 52
REMARK H PARENT 19 53
REMARK Flexibility Score: inf
ROOT
ATOM      1  C   UNL     1     -47.721  35.769  27.012  1.00  0.00    -0.027 A 
ATOM      2  C   UNL     1     -46.428  35.512  26.537  1.00  0.00    -0.057 A 
ATOM      3  C   UNL     1     -46.114  34.299  25.910  1.00  0.00    -0.052 A 
ATOM      4  C   UNL     1     -47.113  33.319  25.765  1.00  0.00    -0.000 A 
ATOM      5  C   UNL     1     -47.145  32.016  25.200  1.00  0.00    -0.032 A 
ATOM      6  C   UNL     1     -48.421  31.509  25.357  1.00  0.00     0.030 A 
ATOM      7  N   UNL     1     -49.164  32.480  25.986  1.00  0.00    -0.357 N 
ATOM      8  C   UNL     1     -48.390  33.586  26.251  1.00  0.00     0.046 A 
ATOM      9  C   UNL     1     -48.724  34.793  26.880  1.00  0.00    -0.033 A 
ATOM     10  H   UNL     1     -45.646  36.260  26.653  1.00  0.00     0.063 H 
ATOM     11  H   UNL     1     -45.108  34.118  25.545  1.00  0.00     0.063 H 
ATOM     12  H   UNL     1     -46.317  31.500  24.730  1.00  0.00     0.065 H 
ATOM     13  H   UNL     1     -50.141  32.396  26.232  1.00  0.00     0.166 HD
ATOM     14  H   UNL     1     -49.728  34.970  27.257  1.00  0.00     0.065 H 
ENDROOT
BRANCH   1  15
ATOM     15  C   UNL     1     -48.029  37.067  27.709  1.00  0.00     0.043 C 
ATOM     16  H   UNL     1     -48.343  36.886  28.744  1.00  0.00     0.054 H 
ATOM     17  H   UNL     1     -48.857  37.591  27.216  1.00  0.00     0.054 H 
BRANCH  15  18
ATOM     18  N   UNL     1     -46.882  37.936  27.707  1.00  0.00    -0.347 N 
ATOM     19  O   UNL     1     -46.141  37.348  29.798  1.00  0.00    -0.268 OA
ATOM     20  C   UNL     1     -46.045  38.035  28.788  1.00  0.00     0.270 C 
ATOM     21  H   UNL     1     -46.758  38.611  26.958  1.00  0.00     0.164 HD
BRANCH  20  22
ATOM     22  C   UNL     1     -44.987  39.096  28.609  1.00  0.00     0.136 A 
ATOM     23  C   UNL     1     -44.054  39.173  29.568  1.00  0.00     0.035 A 
ATOM     24  N   UNL     1     -45.046  39.907  27.490  1.00  0.00    -0.215 NA
ATOM     25  C   UNL     1     -42.996  40.193  29.443  1.00  0.00     0.259 A 
ATOM     26  H   UNL     1     -44.026  38.530  30.438  1.00  0.00     0.071 H 
ATOM     27  C   UNL     1     -44.107  40.785  27.414  1.00  0.00     0.197 A 
ATOM     28  O   UNL     1     -42.127  40.286  30.306  1.00  0.00    -0.269 OA
ATOM     29  N   UNL     1     -43.089  40.975  28.320  1.00  0.00    -0.258 N 
ATOM     30  S   UNL     1     -43.936  41.942  26.104  1.00  0.00    -0.105 S 
ATOM     31  C   UNL     1     -42.215  41.990  27.994  1.00  0.00     0.025 A 
ATOM     32  C   UNL     1     -42.510  42.614  26.847  1.00  0.00     0.011 A 
ATOM     33  H   UNL     1     -41.381  42.214  28.649  1.00  0.00     0.083 H 
ATOM     34  H   UNL     1     -41.954  43.435  26.414  1.00  0.00     0.076 H 
ENDBRANCH  20  22
ENDBRANCH  15  18
ENDBRANCH   1  15
BRANCH   6  35
ATOM     35  C   UNL     1     -49.011  30.202  24.956  1.00  0.00     0.036 C 
ATOM     36  H   UNL     1     -49.418  30.305  23.943  1.00  0.00     0.049 H 
ATOM     37  H   UNL     1     -49.862  29.939  25.592  1.00  0.00     0.049 H 
BRANCH  35  38
ATOM     38  N   UNL     1     -48.007  29.141  24.931  1.00  0.00    -0.311 NA
ATOM     39  H   UNL     1     -47.588  29.096  25.859  1.00  0.00     0.123 HD
BRANCH  38  40
ATOM     40  C   UNL     1     -48.524  27.819  24.584  1.00  0.00     0.002 C 
ATOM     41  H   UNL     1     -48.291  27.541  23.551  1.00  0.00     0.043 H 
ATOM     42  H   UNL     1     -49.618  27.877  24.633  1.00  0.00     0.043 H 
BRANCH  40  43
ATOM     43  C   UNL     1     -48.068  26.778  25.540  1.00  0.00    -0.008 C 
ATOM     44  C   UNL     1     -48.738  25.388  25.913  1.00  0.00    -0.012 C 
ATOM     45  C   UNL     1     -47.675  26.823  27.078  1.00  0.00    -0.012 C 
ATOM     46  C   UNL     1     -46.743  25.915  25.397  1.00  0.00    -0.012 C 
ATOM     47  C   UNL     1     -47.395  25.352  26.683  1.00  0.00     0.112 C 
ATOM     48  H   UNL     1     -48.865  24.666  25.099  1.00  0.00     0.031 H 
ATOM     49  H   UNL     1     -49.655  25.427  26.510  1.00  0.00     0.031 H 
ATOM     50  H   UNL     1     -48.483  26.989  27.799  1.00  0.00     0.031 H 
ATOM     51  H   UNL     1     -46.814  27.441  27.351  1.00  0.00     0.031 H 
ATOM     52  H   UNL     1     -45.793  26.448  25.509  1.00  0.00     0.031 H 
ATOM     53  H   UNL     1     -46.681  25.245  24.534  1.00  0.00     0.031 H 
ATOM     54  F   UNL     1     -46.933  24.385  27.459  1.00  0.00    -0.244 F 
ENDBRANCH  40  43
ENDBRANCH  38  40
ENDBRANCH  35  38
ENDBRANCH   6  35
TORSDOF 7
ENDMDL
MODEL 2
REMARK VINA RESULT:     -10.5      1.672      2.025
REMARK SMILES O=C(NCc1ccc2cc(CNC[C@]34C[C@](F)(C3)C4)[nH]c2c1)c1cc(=O)n2ccsc2n1
REMARK SMILES IDX 5 1 6 2 7 3 8 4 9 5 10 6 20 7 21 8 22 9 4 15 3 18 1 19 2 20
REMARK SMILES IDX 23 22 24 23 32 24 25 25 31 27 26 28 27 29 30 30 28 31 29 32
REMARK SMILES IDX 11 35 12 38 13 40 14 43 18 44 15 45 19 46 16 47 17 54
REMARK H PARENT 6 10 7 11 9 12 20 13 22 14 4 16 4 17 3 21 24 26 28 33 29 34
REMARK H PARENT 11 36 11 37 12 39 13 41 13 42 18 48 18 49 15 50 15 51 19 52
REMARK H PARENT 19 53
REMARK Flexibility Score: inf
ROOT
ATOM      1  C   UNL     1     -47.725  36.125  27.254  1.00  0.00    -0.027 A 
ATOM      2  C   UNL     1     -46.399  35.827  26.910  1.00  0.00    -0.057 A 
ATOM      3  C   UNL     1     -46.069  34.623  26.274  1.00  0.00    -0.052 A 
ATOM      4  C   UNL     1     -47.086  33.695  25.985  1.00  0.00    -0.000 A 
ATOM      5  C   UNL     1     -47.109  32.414  25.370  1.00  0.00    -0.032 A 
ATOM      6  C   UNL     1     -48.414  31.960  25.371  1.00  0.00     0.030 A 
ATOM      7  N   UNL     1     -49.181  32.941  25.954  1.00  0.00    -0.357 N 
ATOM      8  C   UNL     1     -48.396  34.002  26.341  1.00  0.00     0.046 A 
ATOM      9  C   UNL     1     -48.746  35.200  26.978  1.00  0.00    -0.033 A 
ATOM     10  H   UNL     1     -45.604  36.535  27.137  1.00  0.00     0.063 H 
ATOM     11  H   UNL     1     -45.038  34.410  26.011  1.00  0.00     0.063 H 
ATOM     12  H   UNL     1     -46.258  31.878  24.972  1.00  0.00     0.065 H 
ATOM     13  H   UNL     1     -50.181  32.893  26.090  1.00  0.00     0.166 HD
ATOM     14  H   UNL     1     -49.777  35.409  27.252  1.00  0.00     0.065 H 
ENDROOT
BRANCH   1  15
ATOM     15  C   UNL     1     -48.053  37.412  27.963  1.00  0.00     0.043 C 
ATOM     16  H   UNL     1     -48.381  37.215  28.991  1.00  0.00     0.054 H 
ATOM     17  H   UNL     1     -48.877  37.936  27.465  1.00  0.00     0.054 H 
BRANCH  15  18
ATOM     18  N   UNL     1     -46.912  38.288  27.992  1.00  0.00    -0.347 N 
ATOM     19  O   UNL     1     -47.700  39.748  26.406  1.00  0.00    -0.268 OA
ATOM     20  C   UNL     1     -46.813  39.377  27.165  1.00  0.00     0.270 C 
ATOM     21  H   UNL     1     -46.084  38.027  28.520  1.00  0.00     0.164 HD
BRANCH  20  22
ATOM     22  C   UNL     1     -45.480  40.075  27.280  1.00  0.00     0.136 A 
ATOM     23  C   UNL     1     -45.135  40.871  26.259  1.00  0.00     0.035 A 
ATOM     24  N   UNL     1     -44.710  39.851  28.408  1.00  0.00    -0.215 NA
ATOM     25  C   UNL     1     -43.842  41.577  26.319  1.00  0.00     0.259 A 
ATOM     26  H   UNL     1     -45.750  41.033  25.383  1.00  0.00     0.071 H 
ATOM     27  C   UNL     1     -43.589  40.483  28.427  1.00  0.00     0.197 A 
ATOM     28  O   UNL     1     -43.500  42.315  25.399  1.00  0.00    -0.269 OA
ATOM     29  N   UNL     1     -43.110  41.331  27.454  1.00  0.00    -0.258 N 
ATOM     30  S   UNL     1     -42.418  40.386  29.733  1.00  0.00    -0.105 S 
ATOM     31  C   UNL     1     -41.875  41.877  27.727  1.00  0.00     0.025 A 
ATOM     32  C   UNL     1     -41.356  41.487  28.898  1.00  0.00     0.011 A 
ATOM     33  H   UNL     1     -41.417  42.556  27.018  1.00  0.00     0.083 H 
ATOM     34  H   UNL     1     -40.400  41.797  29.299  1.00  0.00     0.076 H 
ENDBRANCH  20  22
ENDBRANCH  15  18
ENDBRANCH   1  15
BRANCH   6  35
ATOM     35  C   UNL     1     -49.010  30.695  24.859  1.00  0.00     0.036 C 
ATOM     36  H   UNL     1     -48.855  30.656  23.774  1.00  0.00     0.049 H 
ATOM     37  H   UNL     1     -50.095  30.681  25.002  1.00  0.00     0.049 H 
BRANCH  35  38
ATOM     38  N   UNL     1     -48.373  29.520  25.447  1.00  0.00    -0.311 NA
ATOM     39  H   UNL     1     -48.617  29.504  26.437  1.00  0.00     0.123 HD
BRANCH  38  40
ATOM     40  C   UNL     1     -48.764  28.247  24.845  1.00  0.00     0.002 C 
ATOM     41  H   UNL     1     -48.519  28.201  23.779  1.00  0.00     0.043 H 
ATOM     42  H   UNL     1     -49.857  28.187  24.900  1.00  0.00     0.043 H 
BRANCH  40  43
ATOM     43  C   UNL     1     -48.195  27.089  25.582  1.00  0.00    -0.008 C 
ATOM     44  C   UNL     1     -46.803  26.353  25.383  1.00  0.00    -0.012 C 
ATOM     45  C   UNL     1     -48.744  25.632  25.892  1.00  0.00    -0.012 C 
ATOM     46  C   UNL     1     -47.792  27.085  27.118  1.00  0.00    -0.012 C 
ATOM     47  C   UNL     1     -47.389  25.668  26.642  1.00  0.00     0.112 C 
ATOM     48  H   UNL     1     -45.899  26.957  25.519  1.00  0.00     0.031 H 
ATOM     49  H   UNL     1     -46.695  25.737  24.484  1.00  0.00     0.031 H 
ATOM     50  H   UNL     1     -48.818  24.933  25.052  1.00  0.00     0.031 H 
ATOM     51  H   UNL     1     -49.652  25.565  26.500  1.00  0.00     0.031 H 
ATOM     52  H   UNL     1     -48.610  27.156  27.842  1.00  0.00     0.031 H 
ATOM     53  H   UNL     1     -46.983  27.758  27.418  1.00  0.00     0.031 H 
ATOM     54  F   UNL     1     -46.846  24.702  27.365  1.00  0.00    -0.244 F 
ENDBRANCH  40  43
ENDBRANCH  38  40
ENDBRANCH  35  38
ENDBRANCH   6  35
TORSDOF 7
ENDMDL
MODEL 3
REMARK VINA RESULT:      -9.8      2.946      3.874
REMARK SMILES O=C(NCc1ccc2cc(CNC[C@]34C[C@](F)(C3)C4)[nH]c2c1)c1cc(=O)n2ccsc2n1
REMARK SMILES IDX 5 1 6 2 7 3 8 4 9 5 10 6 20 7 21 8 22 9 4 15 3 18 1 19 2 20
REMARK SMILES IDX 23 22 24 23 32 24 25 25 31 27 26 28 27 29 30 30 28 31 29 32
REMARK SMILES IDX 11 35 12 38 13 40 14 43 18 44 15 45 19 46 16 47 17 54
REMARK H PARENT 6 10 7 11 9 12 20 13 22 14 4 16 4 17 3 21 24 26 28 33 29 34
REMARK H PARENT 11 36 11 37 12 39 13 41 13 42 18 48 18 49 15 50 15 51 19 52
REMARK H PARENT 19 53
REMARK Flexibility Score: inf
ROOT
ATOM      1  C   UNL     1     -46.715  34.883  26.717  1.00  0.00    -0.027 A 
ATOM      2  C   UNL     1     -48.101  34.738  26.856  1.00  0.00    -0.057 A 
ATOM      3  C   UNL     1     -48.784  33.675  26.251  1.00  0.00    -0.052 A 
ATOM      4  C   UNL     1     -48.064  32.742  25.482  1.00  0.00    -0.000 A 
ATOM      5  C   UNL     1     -48.421  31.580  24.748  1.00  0.00    -0.032 A 
ATOM      6  C   UNL     1     -47.275  31.064  24.172  1.00  0.00     0.030 A 
ATOM      7  N   UNL     1     -46.233  31.875  24.555  1.00  0.00    -0.357 N 
ATOM      8  C   UNL     1     -46.687  32.906  25.346  1.00  0.00     0.046 A 
ATOM      9  C   UNL     1     -45.987  33.962  25.943  1.00  0.00    -0.033 A 
ATOM     10  H   UNL     1     -48.669  35.459  27.442  1.00  0.00     0.063 H 
ATOM     11  H   UNL     1     -49.857  33.575  26.372  1.00  0.00     0.063 H 
ATOM     12  H   UNL     1     -49.416  31.166  24.646  1.00  0.00     0.065 H 
ATOM     13  H   UNL     1     -45.267  31.744  24.290  1.00  0.00     0.166 HD
ATOM     14  H   UNL     1     -44.914  34.068  25.813  1.00  0.00     0.065 H 
ENDROOT
BRANCH   1  15
ATOM     15  C   UNL     1     -46.006  36.050  27.353  1.00  0.00     0.043 C 
ATOM     16  H   UNL     1     -45.040  36.228  26.865  1.00  0.00     0.054 H 
ATOM     17  H   UNL     1     -45.794  35.852  28.410  1.00  0.00     0.054 H 
BRANCH  15  18
ATOM     18  N   UNL     1     -46.805  37.243  27.269  1.00  0.00    -0.347 N 
ATOM     19  O   UNL     1     -45.083  38.706  27.669  1.00  0.00    -0.268 OA
ATOM     20  C   UNL     1     -46.274  38.489  27.480  1.00  0.00     0.270 C 
ATOM     21  H   UNL     1     -47.817  37.172  27.203  1.00  0.00     0.164 HD
BRANCH  20  22
ATOM     22  C   UNL     1     -47.320  39.577  27.465  1.00  0.00     0.136 A 
ATOM     23  C   UNL     1     -47.042  40.658  26.724  1.00  0.00     0.035 A 
ATOM     24  N   UNL     1     -48.475  39.395  28.204  1.00  0.00    -0.215 NA
ATOM     25  C   UNL     1     -48.029  41.753  26.674  1.00  0.00     0.259 A 
ATOM     26  H   UNL     1     -46.130  40.784  26.153  1.00  0.00     0.071 H 
ATOM     27  C   UNL     1     -49.314  40.369  28.137  1.00  0.00     0.197 A 
ATOM     28  O   UNL     1     -47.803  42.755  26.002  1.00  0.00    -0.269 OA
ATOM     29  N   UNL     1     -49.161  41.533  27.418  1.00  0.00    -0.258 N 
ATOM     30  S   UNL     1     -50.859  40.406  28.971  1.00  0.00    -0.105 S 
ATOM     31  C   UNL     1     -50.217  42.414  27.523  1.00  0.00     0.025 A 
ATOM     32  C   UNL     1     -51.210  41.979  28.308  1.00  0.00     0.011 A 
ATOM     33  H   UNL     1     -50.185  43.357  26.992  1.00  0.00     0.083 H 
ATOM     34  H   UNL     1     -52.124  42.516  28.523  1.00  0.00     0.076 H 
ENDBRANCH  20  22
ENDBRANCH  15  18
ENDBRANCH   1  15
BRANCH   6  35
ATOM     35  C   UNL     1     -47.067  29.869  23.308  1.00  0.00     0.036 C 
ATOM     36  H   UNL     1     -46.186  30.048  22.681  1.00  0.00     0.049 H 
ATOM     37  H   UNL     1     -47.902  29.732  22.614  1.00  0.00     0.049 H 
BRANCH  35  38
ATOM     38  N   UNL     1     -46.819  28.667  24.099  1.00  0.00    -0.311 NA
ATOM     39  H   UNL     1     -46.181  28.924  24.853  1.00  0.00     0.123 HD
BRANCH  38  40
ATOM     40  C   UNL     1     -48.014  28.060  24.680  1.00  0.00     0.002 C 
ATOM     41  H   UNL     1     -48.770  27.828  23.923  1.00  0.00     0.043 H 
ATOM     42  H   UNL     1     -48.472  28.812  25.334  1.00  0.00     0.043 H 
BRANCH  40  43
ATOM     43  C   UNL     1     -47.685  26.866  25.500  1.00  0.00    -0.008 C 
ATOM     44  C   UNL     1     -47.436  26.754  27.064  1.00  0.00    -0.012 C 
ATOM     45  C   UNL     1     -46.543  25.767  25.398  1.00  0.00    -0.012 C 
ATOM     46  C   UNL     1     -48.638  25.617  25.728  1.00  0.00    -0.012 C 
ATOM     47  C   UNL     1     -47.399  25.280  26.593  1.00  0.00     0.112 C 
ATOM     48  H   UNL     1     -48.263  27.048  27.719  1.00  0.00     0.031 H 
ATOM     49  H   UNL     1     -46.502  27.179  27.446  1.00  0.00     0.031 H 
ATOM     50  H   UNL     1     -45.520  26.082  25.627  1.00  0.00     0.031 H 
ATOM     51  H   UNL     1     -46.537  25.143  24.498  1.00  0.00     0.031 H 
ATOM     52  H   UNL     1     -48.831  24.978  24.859  1.00  0.00     0.031 H 
ATOM     53  H   UNL     1     -49.578  25.803  26.256  1.00  0.00     0.031 H 
ATOM     54  F   UNL     1     -47.206  24.198  27.331  1.00  0.00    -0.244 F 
ENDBRANCH  40  43
ENDBRANCH  38  40
ENDBRANCH  35  38
ENDBRANCH   6  35
TORSDOF 7
ENDMDL
MODEL 4
REMARK VINA RESULT:      -9.8      1.821      2.438
REMARK SMILES O=C(NCc1ccc2cc(CNC[C@]34C[C@](F)(C3)C4)[nH]c2c1)c1cc(=O)n2ccsc2n1
REMARK SMILES IDX 5 1 6 2 7 3 8 4 9 5 10 6 20 7 21 8 22 9 4 15 3 18 1 19 2 20
REMARK SMILES IDX 23 22 24 23 32 24 25 25 31 27 26 28 27 29 30 30 28 31 29 32
REMARK SMILES IDX 11 35 12 38 13 40 14 43 18 44 15 45 19 46 16 47 17 54
REMARK H PARENT 6 10 7 11 9 12 20 13 22 14 4 16 4 17 3 21 24 26 28 33 29 34
REMARK H PARENT 11 36 11 37 12 39 13 41 13 42 18 48 18 49 15 50 15 51 19 52
REMARK H PARENT 19 53
REMARK Flexibility Score: inf
ROOT
ATOM      1  C   UNL     1     -46.212  35.905  28.043  1.00  0.00    -0.027 A 
ATOM      2  C   UNL     1     -47.565  36.214  27.850  1.00  0.00    -0.057 A 
ATOM      3  C   UNL     1     -48.400  35.376  27.101  1.00  0.00    -0.052 A 
ATOM      4  C   UNL     1     -47.867  34.209  26.524  1.00  0.00    -0.000 A 
ATOM      5  C   UNL     1     -48.408  33.165  25.726  1.00  0.00    -0.032 A 
ATOM      6  C   UNL     1     -47.392  32.273  25.438  1.00  0.00     0.030 A 
ATOM      7  N   UNL     1     -46.257  32.742  26.056  1.00  0.00    -0.357 N 
ATOM      8  C   UNL     1     -46.519  33.920  26.717  1.00  0.00     0.046 A 
ATOM      9  C   UNL     1     -45.667  34.746  27.463  1.00  0.00    -0.033 A 
ATOM     10  H   UNL     1     -47.985  37.119  28.285  1.00  0.00     0.063 H 
ATOM     11  H   UNL     1     -49.447  35.628  26.964  1.00  0.00     0.063 H 
ATOM     12  H   UNL     1     -49.433  33.077  25.392  1.00  0.00     0.065 H 
ATOM     13  H   UNL     1     -45.352  32.295  26.028  1.00  0.00     0.166 HD
ATOM     14  H   UNL     1     -44.617  34.500  27.590  1.00  0.00     0.065 H 
ENDROOT
BRANCH   1  15
ATOM     15  C   UNL     1     -45.325  36.835  28.828  1.00  0.00     0.043 C 
ATOM     16  H   UNL     1     -44.358  36.362  29.040  1.00  0.00     0.054 H 
ATOM     17  H   UNL     1     -45.775  37.082  29.797  1.00  0.00     0.054 H 
BRANCH  15  18
ATOM     18  N   UNL     1     -45.104  38.061  28.109  1.00  0.00    -0.347 N 
ATOM     19  O   UNL     1     -43.896  39.090  29.766  1.00  0.00    -0.268 OA
ATOM     20  C   UNL     1     -44.432  39.119  28.666  1.00  0.00     0.270 C 
ATOM     21  H   UNL     1     -45.578  38.224  27.224  1.00  0.00     0.164 HD
BRANCH  20  22
ATOM     22  C   UNL     1     -44.430  40.339  27.778  1.00  0.00     0.136 A 
ATOM     23  C   UNL     1     -43.229  40.819  27.429  1.00  0.00     0.035 A 
ATOM     24  N   UNL     1     -45.644  40.876  27.389  1.00  0.00    -0.215 NA
ATOM     25  C   UNL     1     -43.168  42.011  26.563  1.00  0.00     0.259 A 
ATOM     26  H   UNL     1     -42.288  40.385  27.746  1.00  0.00     0.071 H 
ATOM     27  C   UNL     1     -45.553  41.915  26.633  1.00  0.00     0.197 A 
ATOM     28  O   UNL     1     -42.081  42.472  26.226  1.00  0.00    -0.269 OA
ATOM     29  N   UNL     1     -44.392  42.512  26.198  1.00  0.00    -0.258 N 
ATOM     30  S   UNL     1     -46.930  42.797  25.992  1.00  0.00    -0.105 S 
ATOM     31  C   UNL     1     -44.582  43.617  25.396  1.00  0.00     0.025 A 
ATOM     32  C   UNL     1     -45.869  43.915  25.178  1.00  0.00     0.011 A 
ATOM     33  H   UNL     1     -43.725  44.153  25.005  1.00  0.00     0.083 H 
ATOM     34  H   UNL     1     -46.232  44.740  24.580  1.00  0.00     0.076 H 
ENDBRANCH  20  22
ENDBRANCH  15  18
ENDBRANCH   1  15
BRANCH   6  35
ATOM     35  C   UNL     1     -47.393  31.011  24.648  1.00  0.00     0.036 C 
ATOM     36  H   UNL     1     -46.354  30.681  24.524  1.00  0.00     0.049 H 
ATOM     37  H   UNL     1     -47.773  31.177  23.635  1.00  0.00     0.049 H 
BRANCH  35  38
ATOM     38  N   UNL     1     -48.123  29.946  25.330  1.00  0.00    -0.311 NA
ATOM     39  H   UNL     1     -49.002  30.343  25.663  1.00  0.00     0.123 HD
BRANCH  38  40
ATOM     40  C   UNL     1     -48.418  28.779  24.503  1.00  0.00     0.002 C 
ATOM     41  H   UNL     1     -47.801  28.746  23.599  1.00  0.00     0.043 H 
ATOM     42  H   UNL     1     -49.451  28.885  24.151  1.00  0.00     0.043 H 
BRANCH  40  43
ATOM     43  C   UNL     1     -48.315  27.513  25.274  1.00  0.00    -0.008 C 
ATOM     44  C   UNL     1     -47.107  26.489  25.375  1.00  0.00    -0.012 C 
ATOM     45  C   UNL     1     -49.220  26.210  25.336  1.00  0.00    -0.012 C 
ATOM     46  C   UNL     1     -48.331  27.398  26.858  1.00  0.00    -0.012 C 
ATOM     47  C   UNL     1     -48.128  25.934  26.398  1.00  0.00     0.112 C 
ATOM     48  H   UNL     1     -46.162  26.876  25.773  1.00  0.00     0.031 H 
ATOM     49  H   UNL     1     -46.904  25.877  24.490  1.00  0.00     0.031 H 
ATOM     50  H   UNL     1     -49.221  25.557  24.456  1.00  0.00     0.031 H 
ATOM     51  H   UNL     1     -50.247  26.337  25.693  1.00  0.00     0.031 H 
ATOM     52  H   UNL     1     -49.274  27.639  27.360  1.00  0.00     0.031 H 
ATOM     53  H   UNL     1     -47.504  27.871  27.396  1.00  0.00     0.031 H 
ATOM     54  F   UNL     1     -48.005  24.862  27.164  1.00  0.00    -0.244 F 
ENDBRANCH  40  43
ENDBRANCH  38  40
ENDBRANCH  35  38
ENDBRANCH   6  35
TORSDOF 7
ENDMDL
MODEL 5
REMARK VINA RESULT:      -9.8      3.024      3.773
REMARK SMILES O=C(NCc1ccc2cc(CNC[C@]34C[C@](F)(C3)C4)[nH]c2c1)c1cc(=O)n2ccsc2n1
REMARK SMILES IDX 5 1 6 2 7 3 8 4 9 5 10 6 20 7 21 8 22 9 4 15 3 18 1 19 2 20
REMARK SMILES IDX 23 22 24 23 32 24 25 25 31 27 26 28 27 29 30 30 28 31 29 32
REMARK SMILES IDX 11 35 12 38 13 40 14 43 18 44 15 45 19 46 16 47 17 54
REMARK H PARENT 6 10 7 11 9 12 20 13 22 14 4 16 4 17 3 21 24 26 28 33 29 34
REMARK H PARENT 11 36 11 37 12 39 13 41 13 42 18 48 18 49 15 50 15 51 19 52
REMARK H PARENT 19 53
REMARK Flexibility Score: inf
ROOT
ATOM      1  C   UNL     1     -47.751  36.259  27.127  1.00  0.00    -0.027 A 
ATOM      2  C   UNL     1     -46.426  35.978  26.769  1.00  0.00    -0.057 A 
ATOM      3  C   UNL     1     -46.064  34.728  26.250  1.00  0.00    -0.052 A 
ATOM      4  C   UNL     1     -47.049  33.735  26.096  1.00  0.00    -0.000 A 
ATOM      5  C   UNL     1     -47.037  32.397  25.619  1.00  0.00    -0.032 A 
ATOM      6  C   UNL     1     -48.321  31.895  25.715  1.00  0.00     0.030 A 
ATOM      7  N   UNL     1     -49.110  32.901  26.220  1.00  0.00    -0.357 N 
ATOM      8  C   UNL     1     -48.360  34.027  26.466  1.00  0.00     0.046 A 
ATOM      9  C   UNL     1     -48.740  35.271  26.987  1.00  0.00    -0.033 A 
ATOM     10  H   UNL     1     -45.655  36.737  26.892  1.00  0.00     0.063 H 
ATOM     11  H   UNL     1     -45.034  34.529  25.973  1.00  0.00     0.063 H 
ATOM     12  H   UNL     1     -46.177  31.855  25.249  1.00  0.00     0.065 H 
ATOM     13  H   UNL     1     -50.103  32.828  26.397  1.00  0.00     0.166 HD
ATOM     14  H   UNL     1     -49.769  35.467  27.275  1.00  0.00     0.065 H 
ENDROOT
BRANCH   1  15
ATOM     15  C   UNL     1     -48.112  37.600  27.711  1.00  0.00     0.043 C 
ATOM     16  H   UNL     1     -48.544  37.483  28.712  1.00  0.00     0.054 H 
ATOM     17  H   UNL     1     -48.868  38.104  27.098  1.00  0.00     0.054 H 
BRANCH  15  18
ATOM     18  N   UNL     1     -46.955  38.452  27.791  1.00  0.00    -0.347 N 
ATOM     19  O   UNL     1     -47.669  39.963  26.218  1.00  0.00    -0.268 OA
ATOM     20  C   UNL     1     -46.811  39.557  26.993  1.00  0.00     0.270 C 
ATOM     21  H   UNL     1     -46.148  38.162  28.337  1.00  0.00     0.164 HD
BRANCH  20  22
ATOM     22  C   UNL     1     -45.468  40.225  27.162  1.00  0.00     0.136 A 
ATOM     23  C   UNL     1     -45.087  41.051  26.178  1.00  0.00     0.035 A 
ATOM     24  N   UNL     1     -44.728  39.947  28.298  1.00  0.00    -0.215 NA
ATOM     25  C   UNL     1     -43.783  41.731  26.291  1.00  0.00     0.259 A 
ATOM     26  H   UNL     1     -45.680  41.256  25.295  1.00  0.00     0.071 H 
ATOM     27  C   UNL     1     -43.597  40.557  28.363  1.00  0.00     0.197 A 
ATOM     28  O   UNL     1     -43.408  42.494  25.406  1.00  0.00    -0.269 OA
ATOM     29  N   UNL     1     -43.081  41.430  27.432  1.00  0.00    -0.258 N 
ATOM     30  S   UNL     1     -42.457  40.392  29.689  1.00  0.00    -0.105 S 
ATOM     31  C   UNL     1     -41.842  41.943  27.751  1.00  0.00     0.025 A 
ATOM     32  C   UNL     1     -41.357  41.501  28.918  1.00  0.00     0.011 A 
ATOM     33  H   UNL     1     -41.358  42.638  27.077  1.00  0.00     0.083 H 
ATOM     34  H   UNL     1     -40.405  41.779  29.350  1.00  0.00     0.076 H 
ENDBRANCH  20  22
ENDBRANCH  15  18
ENDBRANCH   1  15
BRANCH   6  35
ATOM     35  C   UNL     1     -48.878  30.560  25.359  1.00  0.00     0.036 C 
ATOM     36  H   UNL     1     -49.693  30.708  24.640  1.00  0.00     0.049 H 
ATOM     37  H   UNL     1     -49.336  30.077  26.229  1.00  0.00     0.049 H 
BRANCH  35  38
ATOM     38  N   UNL     1     -47.875  29.704  24.732  1.00  0.00    -0.311 NA
ATOM     39  H   UNL     1     -47.534  29.060  25.445  1.00  0.00     0.123 HD
BRANCH  38  40
ATOM     40  C   UNL     1     -48.358  28.932  23.591  1.00  0.00     0.002 C 
ATOM     41  H   UNL     1     -49.279  28.387  23.820  1.00  0.00     0.043 H 
ATOM     42  H   UNL     1     -47.605  28.162  23.380  1.00  0.00     0.043 H 
BRANCH  40  43
ATOM     43  C   UNL     1     -48.516  29.775  22.378  1.00  0.00    -0.008 C 
ATOM     44  C   UNL     1     -47.426  30.609  21.581  1.00  0.00    -0.012 C 
ATOM     45  C   UNL     1     -49.476  30.990  22.025  1.00  0.00    -0.012 C 
ATOM     46  C   UNL     1     -48.927  29.247  20.938  1.00  0.00    -0.012 C 
ATOM     47  C   UNL     1     -48.695  30.760  20.708  1.00  0.00     0.112 C 
ATOM     48  H   UNL     1     -46.589  30.048  21.152  1.00  0.00     0.031 H 
ATOM     49  H   UNL     1     -47.044  31.513  22.067  1.00  0.00     0.031 H 
ATOM     50  H   UNL     1     -49.296  31.939  22.541  1.00  0.00     0.031 H 
ATOM     51  H   UNL     1     -50.551  30.782  22.014  1.00  0.00     0.031 H 
ATOM     52  H   UNL     1     -49.950  28.874  20.823  1.00  0.00     0.031 H 
ATOM     53  H   UNL     1     -48.233  28.556  20.449  1.00  0.00     0.031 H 
ATOM     54  F   UNL     1     -48.822  31.428  19.572  1.00  0.00    -0.244 F 
ENDBRANCH  40  43
ENDBRANCH  38  40
ENDBRANCH  35  38
ENDBRANCH   6  35
TORSDOF 7
ENDMDL
MODEL 6
REMARK VINA RESULT:      -9.8      5.090     11.361
REMARK SMILES O=C(NCc1ccc2cc(CNC[C@]34C[C@](F)(C3)C4)[nH]c2c1)c1cc(=O)n2ccsc2n1
REMARK SMILES IDX 5 1 6 2 7 3 8 4 9 5 10 6 20 7 21 8 22 9 4 15 3 18 1 19 2 20
REMARK SMILES IDX 23 22 24 23 32 24 25 25 31 27 26 28 27 29 30 30 28 31 29 32
REMARK SMILES IDX 11 35 12 38 13 40 14 43 18 44 15 45 19 46 16 47 17 54
REMARK H PARENT 6 10 7 11 9 12 20 13 22 14 4 16 4 17 3 21 24 26 28 33 29 34
REMARK H PARENT 11 36 11 37 12 39 13 41 13 42 18 48 18 49 15 50 15 51 19 52
REMARK H PARENT 19 53
REMARK Flexibility Score: inf
ROOT
ATOM      1  C   UNL     1     -47.031  36.629  27.754  1.00  0.00    -0.027 A 
ATOM      2  C   UNL     1     -48.261  37.181  28.137  1.00  0.00    -0.057 A 
ATOM      3  C   UNL     1     -48.553  38.531  27.905  1.00  0.00    -0.052 A 
ATOM      4  C   UNL     1     -47.589  39.349  27.287  1.00  0.00    -0.000 A 
ATOM      5  C   UNL     1     -47.548  40.719  26.913  1.00  0.00    -0.032 A 
ATOM      6  C   UNL     1     -46.314  40.973  26.343  1.00  0.00     0.030 A 
ATOM      7  N   UNL     1     -45.618  39.788  26.348  1.00  0.00    -0.357 N 
ATOM      8  C   UNL     1     -46.368  38.788  26.922  1.00  0.00     0.046 A 
ATOM      9  C   UNL     1     -46.057  37.440  27.145  1.00  0.00    -0.033 A 
ATOM     10  H   UNL     1     -49.010  36.559  28.623  1.00  0.00     0.063 H 
ATOM     11  H   UNL     1     -49.512  38.942  28.204  1.00  0.00     0.063 H 
ATOM     12  H   UNL     1     -48.338  41.446  27.051  1.00  0.00     0.065 H 
ATOM     13  H   UNL     1     -44.681  39.662  25.989  1.00  0.00     0.166 HD
ATOM     14  H   UNL     1     -45.093  37.031  26.856  1.00  0.00     0.065 H 
ENDROOT
BRANCH   1  15
ATOM     15  C   UNL     1     -46.726  35.182  28.039  1.00  0.00     0.043 C 
ATOM     16  H   UNL     1     -47.181  34.870  28.988  1.00  0.00     0.054 H 
ATOM     17  H   UNL     1     -45.647  35.020  28.139  1.00  0.00     0.054 H 
BRANCH  15  18
ATOM     18  N   UNL     1     -47.213  34.338  26.982  1.00  0.00    -0.347 N 
ATOM     19  O   UNL     1     -46.250  32.407  27.762  1.00  0.00    -0.268 OA
ATOM     20  C   UNL     1     -46.893  33.007  26.909  1.00  0.00     0.270 C 
ATOM     21  H   UNL     1     -47.681  34.749  26.178  1.00  0.00     0.164 HD
BRANCH  20  22
ATOM     22  C   UNL     1     -47.409  32.352  25.652  1.00  0.00     0.136 A 
ATOM     23  C   UNL     1     -48.742  32.271  25.528  1.00  0.00     0.035 A 
ATOM     24  N   UNL     1     -46.495  31.883  24.725  1.00  0.00    -0.215 NA
ATOM     25  C   UNL     1     -49.302  31.640  24.318  1.00  0.00     0.259 A 
ATOM     26  H   UNL     1     -49.442  32.643  26.265  1.00  0.00     0.071 H 
ATOM     27  C   UNL     1     -47.019  31.339  23.683  1.00  0.00     0.197 A 
ATOM     28  O   UNL     1     -50.518  31.553  24.177  1.00  0.00    -0.269 OA
ATOM     29  N   UNL     1     -48.363  31.190  23.424  1.00  0.00    -0.258 N 
ATOM     30  S   UNL     1     -46.098  30.661  22.350  1.00  0.00    -0.105 S 
ATOM     31  C   UNL     1     -48.651  30.568  22.228  1.00  0.00     0.025 A 
ATOM     32  C   UNL     1     -47.568  30.218  21.524  1.00  0.00     0.011 A 
ATOM     33  H   UNL     1     -49.682  30.407  21.939  1.00  0.00     0.083 H 
ATOM     34  H   UNL     1     -47.574  29.720  20.564  1.00  0.00     0.076 H 
ENDBRANCH  20  22
ENDBRANCH  15  18
ENDBRANCH   1  15
BRANCH   6  35
ATOM     35  C   UNL     1     -45.736  42.224  25.780  1.00  0.00     0.036 C 
ATOM     36  H   UNL     1     -46.555  42.930  25.598  1.00  0.00     0.049 H 
ATOM     37  H   UNL     1     -45.278  42.044  24.802  1.00  0.00     0.049 H 
BRANCH  35  38
ATOM     38  N   UNL     1     -44.799  42.853  26.707  1.00  0.00    -0.311 NA
ATOM     39  H   UNL     1     -45.014  42.503  27.641  1.00  0.00     0.123 HD
BRANCH  38  40
ATOM     40  C   UNL     1     -43.391  42.595  26.421  1.00  0.00     0.002 C 
ATOM     41  H   UNL     1     -42.886  43.473  26.004  1.00  0.00     0.043 H 
ATOM     42  H   UNL     1     -43.355  41.833  25.634  1.00  0.00     0.043 H 
BRANCH  40  43
ATOM     43  C   UNL     1     -42.670  42.073  27.611  1.00  0.00    -0.008 C 
ATOM     44  C   UNL     1     -42.402  42.767  29.013  1.00  0.00    -0.012 C 
ATOM     45  C   UNL     1     -41.218  41.462  27.812  1.00  0.00    -0.012 C 
ATOM     46  C   UNL     1     -43.132  40.838  28.496  1.00  0.00    -0.012 C 
ATOM     47  C   UNL     1     -41.856  41.333  29.217  1.00  0.00     0.112 C 
ATOM     48  H   UNL     1     -43.281  43.054  29.599  1.00  0.00     0.031 H 
ATOM     49  H   UNL     1     -41.674  43.585  29.026  1.00  0.00     0.031 H 
ATOM     50  H   UNL     1     -40.368  42.147  27.722  1.00  0.00     0.031 H 
ATOM     51  H   UNL     1     -40.994  40.534  27.276  1.00  0.00     0.031 H 
ATOM     52  H   UNL     1     -43.090  39.850  28.024  1.00  0.00     0.031 H 
ATOM     53  H   UNL     1     -44.080  40.942  29.032  1.00  0.00     0.031 H 
ATOM     54  F   UNL     1     -41.302  40.826  30.307  1.00  0.00    -0.244 F 
ENDBRANCH  40  43
ENDBRANCH  38  40
ENDBRANCH  35  38
ENDBRANCH   6  35
TORSDOF 7
ENDMDL
MODEL 7
REMARK VINA RESULT:      -9.7      1.744      2.319
REMARK SMILES O=C(NCc1ccc2cc(CNC[C@]34C[C@](F)(C3)C4)[nH]c2c1)c1cc(=O)n2ccsc2n1
REMARK SMILES IDX 5 1 6 2 7 3 8 4 9 5 10 6 20 7 21 8 22 9 4 15 3 18 1 19 2 20
REMARK SMILES IDX 23 22 24 23 32 24 25 25 31 27 26 28 27 29 30 30 28 31 29 32
REMARK SMILES IDX 11 35 12 38 13 40 14 43 18 44 15 45 19 46 16 47 17 54
REMARK H PARENT 6 10 7 11 9 12 20 13 22 14 4 16 4 17 3 21 24 26 28 33 29 34
REMARK H PARENT 11 36 11 37 12 39 13 41 13 42 18 48 18 49 15 50 15 51 19 52
REMARK H PARENT 19 53
REMARK Flexibility Score: inf
ROOT
ATOM      1  C   UNL     1     -46.789  36.946  28.292  1.00  0.00    -0.027 A 
ATOM      2  C   UNL     1     -45.534  36.333  28.172  1.00  0.00    -0.057 A 
ATOM      3  C   UNL     1     -45.394  35.084  27.553  1.00  0.00    -0.052 A 
ATOM      4  C   UNL     1     -46.535  34.431  27.052  1.00  0.00    -0.000 A 
ATOM      5  C   UNL     1     -46.754  33.194  26.389  1.00  0.00    -0.032 A 
ATOM      6  C   UNL     1     -48.109  33.071  26.143  1.00  0.00     0.030 A 
ATOM      7  N   UNL     1     -48.709  34.211  26.624  1.00  0.00    -0.357 N 
ATOM      8  C   UNL     1     -47.775  35.049  27.188  1.00  0.00     0.046 A 
ATOM      9  C   UNL     1     -47.936  36.298  27.803  1.00  0.00    -0.033 A 
ATOM     10  H   UNL     1     -44.647  36.826  28.564  1.00  0.00     0.063 H 
ATOM     11  H   UNL     1     -44.414  34.626  27.465  1.00  0.00     0.063 H 
ATOM     12  H   UNL     1     -45.999  32.465  26.124  1.00  0.00     0.065 H 
ATOM     13  H   UNL     1     -49.700  34.408  26.582  1.00  0.00     0.166 HD
ATOM     14  H   UNL     1     -48.918  36.752  27.902  1.00  0.00     0.065 H 
ENDROOT
BRANCH   1  15
ATOM     15  C   UNL     1     -46.921  38.275  28.987  1.00  0.00     0.043 C 
ATOM     16  H   UNL     1     -46.760  38.166  30.066  1.00  0.00     0.054 H 
ATOM     17  H   UNL     1     -47.928  38.687  28.858  1.00  0.00     0.054 H 
BRANCH  15  18
ATOM     18  N   UNL     1     -45.976  39.225  28.462  1.00  0.00    -0.347 N 
ATOM     19  O   UNL     1     -47.243  39.840  26.651  1.00  0.00    -0.268 OA
ATOM     20  C   UNL     1     -46.203  39.907  27.295  1.00  0.00     0.270 C 
ATOM     21  H   UNL     1     -45.046  39.294  28.869  1.00  0.00     0.164 HD
BRANCH  20  22
ATOM     22  C   UNL     1     -45.025  40.751  26.876  1.00  0.00     0.136 A 
ATOM     23  C   UNL     1     -43.946  40.701  27.669  1.00  0.00     0.035 A 
ATOM     24  N   UNL     1     -45.130  41.509  25.723  1.00  0.00    -0.215 NA
ATOM     25  C   UNL     1     -42.765  41.507  27.307  1.00  0.00     0.259 A 
ATOM     26  H   UNL     1     -43.883  40.103  28.569  1.00  0.00     0.071 H 
ATOM     27  C   UNL     1     -44.081  42.199  25.438  1.00  0.00     0.197 A 
ATOM     28  O   UNL     1     -41.761  41.481  28.014  1.00  0.00    -0.269 OA
ATOM     29  N   UNL     1     -42.909  42.243  26.157  1.00  0.00    -0.258 N 
ATOM     30  S   UNL     1     -43.936  43.247  24.036  1.00  0.00    -0.105 S 
ATOM     31  C   UNL     1     -41.941  43.068  25.626  1.00  0.00     0.025 A 
ATOM     32  C   UNL     1     -42.313  43.683  24.497  1.00  0.00     0.011 A 
ATOM     33  H   UNL     1     -40.984  43.167  26.124  1.00  0.00     0.083 H 
ATOM     34  H   UNL     1     -41.705  44.370  23.923  1.00  0.00     0.076 H 
ENDBRANCH  20  22
ENDBRANCH  15  18
ENDBRANCH   1  15
BRANCH   6  35
ATOM     35  C   UNL     1     -48.889  31.989  25.482  1.00  0.00     0.036 C 
ATOM     36  H   UNL     1     -48.776  32.097  24.397  1.00  0.00     0.049 H 
ATOM     37  H   UNL     1     -49.960  32.095  25.680  1.00  0.00     0.049 H 
BRANCH  35  38
ATOM     38  N   UNL     1     -48.400  30.664  25.855  1.00  0.00    -0.311 NA
ATOM     39  H   UNL     1     -49.074  30.262  26.505  1.00  0.00     0.123 HD
BRANCH  38  40
ATOM     40  C   UNL     1     -48.217  29.743  24.737  1.00  0.00     0.002 C 
ATOM     41  H   UNL     1     -47.249  29.879  24.242  1.00  0.00     0.043 H 
ATOM     42  H   UNL     1     -48.971  29.997  23.983  1.00  0.00     0.043 H 
BRANCH  40  43
ATOM     43  C   UNL     1     -48.422  28.329  25.145  1.00  0.00    -0.008 C 
ATOM     44  C   UNL     1     -48.655  27.721  26.592  1.00  0.00    -0.012 C 
ATOM     45  C   UNL     1     -47.589  27.001  24.892  1.00  0.00    -0.012 C 
ATOM     46  C   UNL     1     -49.666  27.428  24.744  1.00  0.00    -0.012 C 
ATOM     47  C   UNL     1     -48.835  26.498  25.661  1.00  0.00     0.112 C 
ATOM     48  H   UNL     1     -49.539  28.067  27.138  1.00  0.00     0.031 H 
ATOM     49  H   UNL     1     -47.793  27.712  27.268  1.00  0.00     0.031 H 
ATOM     50  H   UNL     1     -46.626  26.906  25.406  1.00  0.00     0.031 H 
ATOM     51  H   UNL     1     -47.477  26.678  23.852  1.00  0.00     0.031 H 
ATOM     52  H   UNL     1     -49.751  27.146  23.690  1.00  0.00     0.031 H 
ATOM     53  H   UNL     1     -50.645  27.747  25.114  1.00  0.00     0.031 H 
ATOM     54  F   UNL     1     -49.117  25.252  26.006  1.00  0.00    -0.244 F 
ENDBRANCH  40  43
ENDBRANCH  38  40
ENDBRANCH  35  38
ENDBRANCH   6  35
TORSDOF 7
ENDMDL
