MODEL 1
REMARK VINA RESULT:     -10.7      0.000      0.000
REMARK SMILES Cc1ccn(-c2cn([C@@H]3O[C@H](COc4ccc5ccc(N6CC(O)C6)nc5c4)[C@@H](O)[C@@H]3F)c3ncnc(N)c23)n1
REMARK SMILES IDX 12 1 11 4 9 5 10 6 31 7 29 9 32 10 8 14 6 15 7 16 39 17
REMARK SMILES IDX 33 19 37 20 34 21 36 22 35 23 5 25 2 26 3 27 40 28 4 29 1 32
REMARK SMILES IDX 38 36 30 39 13 41 14 42 15 43 28 44 16 45 27 47 17 49 26 51
REMARK SMILES IDX 18 52 20 53 19 54 21 57 22 58 25 59 23 60 24 66
REMARK H PARENT 12 2 12 3 9 8 31 11 11 12 29 13 7 18 35 24 3 30 4 31 1 33 1 34
REMARK H PARENT 1 35 38 37 38 38 30 40 15 46 28 48 16 50 18 55 19 56 22 61
REMARK H PARENT 22 62 25 63 25 64 23 65 24 67
REMARK Flexibility Score: inf
ROOT
ATOM      1  C   UNL     1     -47.099  36.510  27.168  1.00  0.00     0.117 C 
ATOM      2  H   UNL     1     -46.516  36.636  26.250  1.00  0.00     0.073 H 
ATOM      3  H   UNL     1     -47.614  37.461  27.339  1.00  0.00     0.073 H 
ENDROOT
BRANCH   1   4
ATOM      4  C   UNL     1     -46.173  36.114  28.331  1.00  0.00     0.123 C 
ATOM      5  C   UNL     1     -44.930  37.923  29.171  1.00  0.00     0.170 C 
ATOM      6  O   UNL     1     -44.917  36.825  28.222  1.00  0.00    -0.345 OA
ATOM      7  C   UNL     1     -46.304  37.944  29.832  1.00  0.00     0.173 C 
ATOM      8  H   UNL     1     -44.148  37.690  29.903  1.00  0.00     0.088 H 
ATOM      9  C   UNL     1     -46.732  36.501  29.699  1.00  0.00     0.119 C 
ATOM     10  F   UNL     1     -47.184  38.710  29.127  1.00  0.00    -0.239 F 
ATOM     11  H   UNL     1     -46.271  38.315  30.860  1.00  0.00     0.074 H 
ATOM     12  H   UNL     1     -45.932  35.047  28.286  1.00  0.00     0.067 H 
ATOM     13  H   UNL     1     -47.817  36.374  29.761  1.00  0.00     0.066 H 
BRANCH   5  14
ATOM     14  N   UNL     1     -44.558  39.169  28.522  1.00  0.00    -0.301 N 
ATOM     15  C   UNL     1     -44.502  40.954  27.188  1.00  0.00     0.096 A 
ATOM     16  C   UNL     1     -45.127  39.738  27.418  1.00  0.00     0.035 A 
ATOM     17  C   UNL     1     -43.419  41.066  28.118  1.00  0.00     0.087 A 
ATOM     18  H   UNL     1     -45.964  39.274  26.908  1.00  0.00     0.084 H 
ATOM     19  C   UNL     1     -43.527  39.961  28.961  1.00  0.00     0.149 A 
ATOM     20  C   UNL     1     -42.322  41.910  28.372  1.00  0.00     0.138 A 
ATOM     21  N   UNL     1     -42.755  39.674  30.024  1.00  0.00    -0.218 NA
ATOM     22  N   UNL     1     -41.536  41.667  29.441  1.00  0.00    -0.219 NA
ATOM     23  C   UNL     1     -41.798  40.593  30.204  1.00  0.00     0.120 A 
ATOM     24  H   UNL     1     -41.146  40.448  31.060  1.00  0.00     0.106 H 
BRANCH  15  25
ATOM     25  N   UNL     1     -44.939  41.869  26.184  1.00  0.00    -0.238 N 
ATOM     26  C   UNL     1     -44.827  43.131  24.452  1.00  0.00     0.060 A 
ATOM     27  C   UNL     1     -46.147  43.242  24.924  1.00  0.00    -0.021 A 
ATOM     28  N   UNL     1     -44.107  42.283  25.190  1.00  0.00    -0.173 NA
ATOM     29  C   UNL     1     -46.198  42.401  26.009  1.00  0.00     0.031 A 
ATOM     30  H   UNL     1     -46.960  43.820  24.510  1.00  0.00     0.066 H 
ATOM     31  H   UNL     1     -47.029  42.106  26.629  1.00  0.00     0.084 H 
BRANCH  26  32
ATOM     32  C   UNL     1     -44.214  43.800  23.279  1.00  0.00    -0.020 C 
ATOM     33  H   UNL     1     -44.132  44.877  23.452  1.00  0.00     0.030 H 
ATOM     34  H   UNL     1     -43.210  43.410  23.084  1.00  0.00     0.030 H 
ATOM     35  H   UNL     1     -44.820  43.637  22.382  1.00  0.00     0.030 H 
ENDBRANCH  26  32
ENDBRANCH  15  25
BRANCH  20  36
ATOM     36  N   UNL     1     -41.906  42.955  27.557  1.00  0.00    -0.383 N 
ATOM     37  H   UNL     1     -41.071  42.666  27.056  1.00  0.00     0.158 HD
ATOM     38  H   UNL     1     -42.643  43.312  26.960  1.00  0.00     0.158 HD
ENDBRANCH  20  36
ENDBRANCH   5  14
BRANCH   9  39
ATOM     39  O   UNL     1     -46.146  35.713  30.744  1.00  0.00    -0.387 OA
ATOM     40  H   UNL     1     -46.844  35.189  31.180  1.00  0.00     0.211 HD
ENDBRANCH   9  39
ENDBRANCH   1   4
BRANCH   1  41
ATOM     41  O   UNL     1     -48.029  35.459  26.883  1.00  0.00    -0.491 OA
BRANCH  41  42
ATOM     42  C   UNL     1     -47.620  34.391  26.134  1.00  0.00     0.121 A 
ATOM     43  C   UNL     1     -46.501  34.338  25.311  1.00  0.00    -0.019 A 
ATOM     44  C   UNL     1     -48.449  33.266  26.235  1.00  0.00     0.007 A 
ATOM     45  C   UNL     1     -46.218  33.169  24.601  1.00  0.00    -0.049 A 
ATOM     46  H   UNL     1     -45.828  35.178  25.189  1.00  0.00     0.066 H 
ATOM     47  C   UNL     1     -48.192  32.091  25.541  1.00  0.00     0.076 A 
ATOM     48  H   UNL     1     -49.327  33.308  26.877  1.00  0.00     0.069 H 
ATOM     49  C   UNL     1     -47.056  32.048  24.713  1.00  0.00     0.001 A 
ATOM     50  H   UNL     1     -45.340  33.137  23.959  1.00  0.00     0.063 H 
ATOM     51  N   UNL     1     -49.023  31.042  25.678  1.00  0.00    -0.231 NA
ATOM     52  C   UNL     1     -46.803  30.864  24.016  1.00  0.00    -0.049 A 
ATOM     53  C   UNL     1     -48.765  29.897  25.007  1.00  0.00     0.129 A 
ATOM     54  C   UNL     1     -47.666  29.783  24.164  1.00  0.00    -0.019 A 
ATOM     55  H   UNL     1     -45.943  30.775  23.358  1.00  0.00     0.063 H 
ATOM     56  H   UNL     1     -47.481  28.866  23.615  1.00  0.00     0.066 H 
BRANCH  53  57
ATOM     57  N   UNL     1     -49.656  28.819  25.156  1.00  0.00    -0.351 N 
ATOM     58  C   UNL     1     -50.225  28.024  24.105  1.00  0.00     0.047 C 
ATOM     59  C   UNL     1     -49.395  27.668  25.974  1.00  0.00     0.047 C 
ATOM     60  C   UNL     1     -50.496  26.947  25.173  1.00  0.00     0.089 C 
ATOM     61  H   UNL     1     -51.112  28.476  23.656  1.00  0.00     0.052 H 
ATOM     62  H   UNL     1     -49.499  27.744  23.333  1.00  0.00     0.052 H 
ATOM     63  H   UNL     1     -49.610  27.835  27.032  1.00  0.00     0.052 H 
ATOM     64  H   UNL     1     -48.384  27.263  25.844  1.00  0.00     0.052 H 
ATOM     65  H   UNL     1     -51.490  27.040  25.631  1.00  0.00     0.064 H 
BRANCH  60  66
ATOM     66  O   UNL     1     -50.249  25.576  24.790  1.00  0.00    -0.389 OA
ATOM     67  H   UNL     1     -49.485  25.623  24.188  1.00  0.00     0.211 HD
ENDBRANCH  60  66
ENDBRANCH  53  57
ENDBRANCH  41  42
ENDBRANCH   1  41
TORSDOF 10
ENDMDL
MODEL 2
REMARK VINA RESULT:      -9.9      3.944      9.419
REMARK SMILES Cc1ccn(-c2cn([C@@H]3O[C@H](COc4ccc5ccc(N6CC(O)C6)nc5c4)[C@@H](O)[C@@H]3F)c3ncnc(N)c23)n1
REMARK SMILES IDX 12 1 11 4 9 5 10 6 31 7 29 9 32 10 8 14 6 15 7 16 39 17
REMARK SMILES IDX 33 19 37 20 34 21 36 22 35 23 5 25 2 26 3 27 40 28 4 29 1 32
REMARK SMILES IDX 38 36 30 39 13 41 14 42 15 43 28 44 16 45 27 47 17 49 26 51
REMARK SMILES IDX 18 52 20 53 19 54 21 57 22 58 25 59 23 60 24 66
REMARK H PARENT 12 2 12 3 9 8 31 11 11 12 29 13 7 18 35 24 3 30 4 31 1 33 1 34
REMARK H PARENT 1 35 38 37 38 38 30 40 15 46 28 48 16 50 18 55 19 56 22 61
REMARK H PARENT 22 62 25 63 25 64 23 65 24 67
REMARK Flexibility Score: inf
ROOT
ATOM      1  C   UNL     1     -45.129  36.192  28.379  1.00  0.00     0.117 C 
ATOM      2  H   UNL     1     -44.973  36.528  27.349  1.00  0.00     0.073 H 
ATOM      3  H   UNL     1     -44.167  35.797  28.724  1.00  0.00     0.073 H 
ENDROOT
BRANCH   1   4
ATOM      4  C   UNL     1     -46.256  35.147  28.430  1.00  0.00     0.123 C 
ATOM      5  C   UNL     1     -48.361  36.041  27.889  1.00  0.00     0.170 C 
ATOM      6  O   UNL     1     -47.454  35.744  28.983  1.00  0.00    -0.345 OA
ATOM      7  C   UNL     1     -47.646  35.693  26.589  1.00  0.00     0.173 C 
ATOM      8  H   UNL     1     -49.231  35.391  28.043  1.00  0.00     0.088 H 
ATOM      9  C   UNL     1     -46.665  34.639  27.049  1.00  0.00     0.119 C 
ATOM     10  F   UNL     1     -46.932  36.753  26.115  1.00  0.00    -0.239 F 
ATOM     11  H   UNL     1     -48.333  35.362  25.805  1.00  0.00     0.074 H 
ATOM     12  H   UNL     1     -45.986  34.321  29.095  1.00  0.00     0.067 H 
ATOM     13  H   UNL     1     -45.813  34.529  26.372  1.00  0.00     0.066 H 
BRANCH   5  14
ATOM     14  N   UNL     1     -48.830  37.414  27.967  1.00  0.00    -0.301 N 
ATOM     15  C   UNL     1     -48.985  39.634  27.830  1.00  0.00     0.096 A 
ATOM     16  C   UNL     1     -48.129  38.553  27.688  1.00  0.00     0.035 A 
ATOM     17  C   UNL     1     -50.225  39.137  28.345  1.00  0.00     0.087 A 
ATOM     18  H   UNL     1     -47.096  38.517  27.356  1.00  0.00     0.084 H 
ATOM     19  C   UNL     1     -50.101  37.750  28.361  1.00  0.00     0.149 A 
ATOM     20  C   UNL     1     -51.442  39.637  28.844  1.00  0.00     0.138 A 
ATOM     21  N   UNL     1     -51.040  36.856  28.718  1.00  0.00    -0.218 NA
ATOM     22  N   UNL     1     -52.417  38.773  29.193  1.00  0.00    -0.219 NA
ATOM     23  C   UNL     1     -52.175  37.455  29.099  1.00  0.00     0.120 A 
ATOM     24  H   UNL     1     -52.994  36.800  29.378  1.00  0.00     0.106 H 
BRANCH  15  25
ATOM     25  N   UNL     1     -48.608  40.967  27.490  1.00  0.00    -0.238 N 
ATOM     26  C   UNL     1     -48.554  43.111  27.588  1.00  0.00     0.060 A 
ATOM     27  C   UNL     1     -47.674  42.751  26.551  1.00  0.00    -0.021 A 
ATOM     28  N   UNL     1     -49.094  42.039  28.174  1.00  0.00    -0.173 NA
ATOM     29  C   UNL     1     -47.704  41.377  26.534  1.00  0.00     0.031 A 
ATOM     30  H   UNL     1     -47.071  43.396  25.930  1.00  0.00     0.066 H 
ATOM     31  H   UNL     1     -47.125  40.671  25.961  1.00  0.00     0.084 H 
BRANCH  26  32
ATOM     32  C   UNL     1     -48.891  44.471  28.072  1.00  0.00    -0.020 C 
ATOM     33  H   UNL     1     -49.928  44.508  28.420  1.00  0.00     0.030 H 
ATOM     34  H   UNL     1     -48.244  44.764  28.905  1.00  0.00     0.030 H 
ATOM     35  H   UNL     1     -48.766  45.207  27.273  1.00  0.00     0.030 H 
ENDBRANCH  26  32
ENDBRANCH  15  25
BRANCH  20  36
ATOM     36  N   UNL     1     -51.718  40.975  29.099  1.00  0.00    -0.383 N 
ATOM     37  H   UNL     1     -50.843  41.465  29.254  1.00  0.00     0.158 HD
ATOM     38  H   UNL     1     -52.311  41.400  28.395  1.00  0.00     0.158 HD
ENDBRANCH  20  36
ENDBRANCH   5  14
BRANCH   9  39
ATOM     39  O   UNL     1     -47.315  33.363  27.134  1.00  0.00    -0.387 OA
ATOM     40  H   UNL     1     -47.894  33.351  27.920  1.00  0.00     0.211 HD
ENDBRANCH   9  39
ENDBRANCH   1   4
BRANCH   1  41
ATOM     41  O   UNL     1     -45.498  37.369  29.107  1.00  0.00    -0.491 OA
BRANCH  41  42
ATOM     42  C   UNL     1     -44.639  38.432  29.138  1.00  0.00     0.121 A 
ATOM     43  C   UNL     1     -43.721  38.723  30.141  1.00  0.00    -0.019 A 
ATOM     44  C   UNL     1     -44.738  39.285  28.032  1.00  0.00     0.007 A 
ATOM     45  C   UNL     1     -42.913  39.856  30.031  1.00  0.00    -0.049 A 
ATOM     46  H   UNL     1     -43.605  38.103  31.022  1.00  0.00     0.066 H 
ATOM     47  C   UNL     1     -43.947  40.418  27.897  1.00  0.00     0.076 A 
ATOM     48  H   UNL     1     -45.459  39.059  27.249  1.00  0.00     0.069 H 
ATOM     49  C   UNL     1     -43.020  40.703  28.916  1.00  0.00     0.001 A 
ATOM     50  H   UNL     1     -42.197  40.076  30.821  1.00  0.00     0.063 H 
ATOM     51  N   UNL     1     -44.086  41.200  26.812  1.00  0.00    -0.231 NA
ATOM     52  C   UNL     1     -42.228  41.845  28.775  1.00  0.00    -0.049 A 
ATOM     53  C   UNL     1     -43.308  42.298  26.679  1.00  0.00     0.129 A 
ATOM     54  C   UNL     1     -42.376  42.648  27.650  1.00  0.00    -0.019 A 
ATOM     55  H   UNL     1     -41.500  42.117  29.534  1.00  0.00     0.063 H 
ATOM     56  H   UNL     1     -41.772  43.543  27.542  1.00  0.00     0.066 H 
BRANCH  53  57
ATOM     57  N   UNL     1     -43.481  43.108  25.542  1.00  0.00    -0.351 N 
ATOM     58  C   UNL     1     -42.462  43.843  24.849  1.00  0.00     0.047 C 
ATOM     59  C   UNL     1     -44.081  42.656  24.318  1.00  0.00     0.047 C 
ATOM     60  C   UNL     1     -43.414  43.868  23.637  1.00  0.00     0.089 C 
ATOM     61  H   UNL     1     -42.249  44.815  25.300  1.00  0.00     0.052 H 
ATOM     62  H   UNL     1     -41.538  43.271  24.705  1.00  0.00     0.052 H 
ATOM     63  H   UNL     1     -45.173  42.669  24.343  1.00  0.00     0.052 H 
ATOM     64  H   UNL     1     -43.713  41.678  23.989  1.00  0.00     0.052 H 
ATOM     65  H   UNL     1     -44.058  44.756  23.618  1.00  0.00     0.064 H 
BRANCH  60  66
ATOM     66  O   UNL     1     -42.817  43.654  22.338  1.00  0.00    -0.389 OA
ATOM     67  H   UNL     1     -41.864  43.575  22.516  1.00  0.00     0.211 HD
ENDBRANCH  60  66
ENDBRANCH  53  57
ENDBRANCH  41  42
ENDBRANCH   1  41
TORSDOF 10
ENDMDL
MODEL 3
REMARK VINA RESULT:      -9.5      2.142      2.984
REMARK SMILES Cc1ccn(-c2cn([C@@H]3O[C@H](COc4ccc5ccc(N6CC(O)C6)nc5c4)[C@@H](O)[C@@H]3F)c3ncnc(N)c23)n1
REMARK SMILES IDX 12 1 11 4 9 5 10 6 31 7 29 9 32 10 8 14 6 15 7 16 39 17
REMARK SMILES IDX 33 19 37 20 34 21 36 22 35 23 5 25 2 26 3 27 40 28 4 29 1 32
REMARK SMILES IDX 38 36 30 39 13 41 14 42 15 43 28 44 16 45 27 47 17 49 26 51
REMARK SMILES IDX 18 52 20 53 19 54 21 57 22 58 25 59 23 60 24 66
REMARK H PARENT 12 2 12 3 9 8 31 11 11 12 29 13 7 18 35 24 3 30 4 31 1 33 1 34
REMARK H PARENT 1 35 38 37 38 38 30 40 15 46 28 48 16 50 18 55 19 56 22 61
REMARK H PARENT 22 62 25 63 25 64 23 65 24 67
REMARK Flexibility Score: inf
ROOT
ATOM      1  C   UNL     1     -46.818  35.437  26.210  1.00  0.00     0.117 C 
ATOM      2  H   UNL     1     -46.111  35.243  25.396  1.00  0.00     0.073 H 
ATOM      3  H   UNL     1     -47.350  36.357  25.944  1.00  0.00     0.073 H 
ENDROOT
BRANCH   1   4
ATOM      4  C   UNL     1     -46.068  35.547  27.548  1.00  0.00     0.123 C 
ATOM      5  C   UNL     1     -46.340  37.638  28.584  1.00  0.00     0.170 C 
ATOM      6  O   UNL     1     -45.499  36.871  27.684  1.00  0.00    -0.345 OA
ATOM      7  C   UNL     1     -47.539  36.770  28.947  1.00  0.00     0.173 C 
ATOM      8  H   UNL     1     -45.722  37.839  29.466  1.00  0.00     0.088 H 
ATOM      9  C   UNL     1     -46.979  35.378  28.762  1.00  0.00     0.119 C 
ATOM     10  F   UNL     1     -48.560  36.934  28.058  1.00  0.00    -0.239 F 
ATOM     11  H   UNL     1     -47.920  36.976  29.951  1.00  0.00     0.074 H 
ATOM     12  H   UNL     1     -45.229  34.844  27.579  1.00  0.00     0.067 H 
ATOM     13  H   UNL     1     -47.757  34.627  28.602  1.00  0.00     0.066 H 
BRANCH   5  14
ATOM     14  N   UNL     1     -46.685  38.922  27.997  1.00  0.00    -0.301 N 
ATOM     15  C   UNL     1     -47.779  40.750  27.340  1.00  0.00     0.096 A 
ATOM     16  C   UNL     1     -47.922  39.497  27.914  1.00  0.00     0.035 A 
ATOM     17  C   UNL     1     -46.411  40.888  26.940  1.00  0.00     0.087 A 
ATOM     18  H   UNL     1     -48.803  39.006  28.313  1.00  0.00     0.084 H 
ATOM     19  C   UNL     1     -45.759  39.753  27.417  1.00  0.00     0.149 A 
ATOM     20  C   UNL     1     -45.605  41.780  26.208  1.00  0.00     0.138 A 
ATOM     21  N   UNL     1     -44.448  39.472  27.326  1.00  0.00    -0.218 NA
ATOM     22  N   UNL     1     -44.280  41.544  26.111  1.00  0.00    -0.219 NA
ATOM     23  C   UNL     1     -43.779  40.434  26.676  1.00  0.00     0.120 A 
ATOM     24  H   UNL     1     -42.707  40.294  26.582  1.00  0.00     0.106 H 
BRANCH  15  25
ATOM     25  N   UNL     1     -48.860  41.673  27.221  1.00  0.00    -0.238 N 
ATOM     26  C   UNL     1     -49.873  43.565  27.188  1.00  0.00     0.060 A 
ATOM     27  C   UNL     1     -50.859  42.597  26.928  1.00  0.00    -0.021 A 
ATOM     28  N   UNL     1     -48.665  43.015  27.335  1.00  0.00    -0.173 NA
ATOM     29  C   UNL     1     -50.178  41.403  26.922  1.00  0.00     0.031 A 
ATOM     30  H   UNL     1     -51.910  42.748  26.731  1.00  0.00     0.066 H 
ATOM     31  H   UNL     1     -50.513  40.408  26.683  1.00  0.00     0.084 H 
BRANCH  26  32
ATOM     32  C   UNL     1     -50.035  45.037  27.281  1.00  0.00    -0.020 C 
ATOM     33  H   UNL     1     -50.166  45.343  28.323  1.00  0.00     0.030 H 
ATOM     34  H   UNL     1     -49.157  45.555  26.883  1.00  0.00     0.030 H 
ATOM     35  H   UNL     1     -50.909  45.364  26.710  1.00  0.00     0.030 H 
ENDBRANCH  26  32
ENDBRANCH  15  25
BRANCH  20  36
ATOM     36  N   UNL     1     -46.066  42.872  25.483  1.00  0.00    -0.383 N 
ATOM     37  H   UNL     1     -45.276  43.318  25.027  1.00  0.00     0.158 HD
ATOM     38  H   UNL     1     -46.828  42.640  24.856  1.00  0.00     0.158 HD
ENDBRANCH  20  36
ENDBRANCH   5  14
BRANCH   9  39
ATOM     39  O   UNL     1     -46.235  34.987  29.924  1.00  0.00    -0.387 OA
ATOM     40  H   UNL     1     -46.714  34.273  30.385  1.00  0.00     0.211 HD
ENDBRANCH   9  39
ENDBRANCH   1   4
BRANCH   1  41
ATOM     41  O   UNL     1     -47.702  34.310  26.218  1.00  0.00    -0.491 OA
BRANCH  41  42
ATOM     42  C   UNL     1     -47.385  33.208  25.474  1.00  0.00     0.121 A 
ATOM     43  C   UNL     1     -46.406  33.129  24.489  1.00  0.00    -0.019 A 
ATOM     44  C   UNL     1     -48.156  32.075  25.764  1.00  0.00     0.007 A 
ATOM     45  C   UNL     1     -46.205  31.926  23.808  1.00  0.00    -0.049 A 
ATOM     46  H   UNL     1     -45.784  33.974  24.217  1.00  0.00     0.066 H 
ATOM     47  C   UNL     1     -47.977  30.867  25.103  1.00  0.00     0.076 A 
ATOM     48  H   UNL     1     -48.924  32.138  26.532  1.00  0.00     0.069 H 
ATOM     49  C   UNL     1     -46.983  30.798  24.111  1.00  0.00     0.001 A 
ATOM     50  H   UNL     1     -45.436  31.875  23.039  1.00  0.00     0.063 H 
ATOM     51  N   UNL     1     -48.747  29.813  25.426  1.00  0.00    -0.231 NA
ATOM     52  C   UNL     1     -46.808  29.580  23.448  1.00  0.00    -0.049 A 
ATOM     53  C   UNL     1     -48.564  28.636  24.786  1.00  0.00     0.129 A 
ATOM     54  C   UNL     1     -47.607  28.493  23.788  1.00  0.00    -0.019 A 
ATOM     55  H   UNL     1     -46.059  29.470  22.669  1.00  0.00     0.063 H 
ATOM     56  H   UNL     1     -47.484  27.550  23.268  1.00  0.00     0.066 H 
BRANCH  53  57
ATOM     57  N   UNL     1     -49.391  27.551  25.132  1.00  0.00    -0.351 N 
ATOM     58  C   UNL     1     -49.498  26.930  26.422  1.00  0.00     0.047 C 
ATOM     59  C   UNL     1     -50.812  27.528  24.929  1.00  0.00     0.047 C 
ATOM     60  C   UNL     1     -50.860  26.379  25.956  1.00  0.00     0.089 C 
ATOM     61  H   UNL     1     -48.724  26.181  26.604  1.00  0.00     0.052 H 
ATOM     62  H   UNL     1     -49.543  27.651  27.246  1.00  0.00     0.052 H 
ATOM     63  H   UNL     1     -51.097  27.263  23.908  1.00  0.00     0.052 H 
ATOM     64  H   UNL     1     -51.311  28.452  25.242  1.00  0.00     0.052 H 
ATOM     65  H   UNL     1     -50.783  25.387  25.492  1.00  0.00     0.064 H 
BRANCH  60  66
ATOM     66  O   UNL     1     -51.933  26.397  26.924  1.00  0.00    -0.389 OA
ATOM     67  H   UNL     1     -52.260  25.481  26.945  1.00  0.00     0.211 HD
ENDBRANCH  60  66
ENDBRANCH  53  57
ENDBRANCH  41  42
ENDBRANCH   1  41
TORSDOF 10
ENDMDL
MODEL 4
REMARK VINA RESULT:      -9.1      2.301      3.032
REMARK SMILES Cc1ccn(-c2cn([C@@H]3O[C@H](COc4ccc5ccc(N6CC(O)C6)nc5c4)[C@@H](O)[C@@H]3F)c3ncnc(N)c23)n1
REMARK SMILES IDX 12 1 11 4 9 5 10 6 31 7 29 9 32 10 8 14 6 15 7 16 39 17
REMARK SMILES IDX 33 19 37 20 34 21 36 22 35 23 5 25 2 26 3 27 40 28 4 29 1 32
REMARK SMILES IDX 38 36 30 39 13 41 14 42 15 43 28 44 16 45 27 47 17 49 26 51
REMARK SMILES IDX 18 52 20 53 19 54 21 57 22 58 25 59 23 60 24 66
REMARK H PARENT 12 2 12 3 9 8 31 11 11 12 29 13 7 18 35 24 3 30 4 31 1 33 1 34
REMARK H PARENT 1 35 38 37 38 38 30 40 15 46 28 48 16 50 18 55 19 56 22 61
REMARK H PARENT 22 62 25 63 25 64 23 65 24 67
REMARK Flexibility Score: inf
ROOT
ATOM      1  C   UNL     1     -45.430  37.081  27.524  1.00  0.00     0.117 C 
ATOM      2  H   UNL     1     -44.393  37.334  27.770  1.00  0.00     0.073 H 
ATOM      3  H   UNL     1     -45.547  37.270  26.451  1.00  0.00     0.073 H 
ENDROOT
BRANCH   1   4
ATOM      4  C   UNL     1     -46.396  37.913  28.385  1.00  0.00     0.123 C 
ATOM      5  C   UNL     1     -46.466  40.177  27.759  1.00  0.00     0.170 C 
ATOM      6  O   UNL     1     -45.825  39.219  28.640  1.00  0.00    -0.345 OA
ATOM      7  C   UNL     1     -47.415  39.403  26.849  1.00  0.00     0.173 C 
ATOM      8  H   UNL     1     -47.022  40.856  28.415  1.00  0.00     0.088 H 
ATOM      9  C   UNL     1     -47.729  38.189  27.692  1.00  0.00     0.119 C 
ATOM     10  F   UNL     1     -46.783  38.978  25.719  1.00  0.00    -0.239 F 
ATOM     11  H   UNL     1     -48.289  39.990  26.555  1.00  0.00     0.074 H 
ATOM     12  H   UNL     1     -46.544  37.442  29.362  1.00  0.00     0.067 H 
ATOM     13  H   UNL     1     -48.077  37.340  27.098  1.00  0.00     0.066 H 
BRANCH   5  14
ATOM     14  N   UNL     1     -45.475  40.972  27.054  1.00  0.00    -0.301 N 
ATOM     15  C   UNL     1     -44.451  42.325  25.608  1.00  0.00     0.096 A 
ATOM     16  C   UNL     1     -45.630  41.648  25.876  1.00  0.00     0.035 A 
ATOM     17  C   UNL     1     -43.495  41.938  26.602  1.00  0.00     0.087 A 
ATOM     18  H   UNL     1     -46.574  41.648  25.342  1.00  0.00     0.084 H 
ATOM     19  C   UNL     1     -44.191  41.141  27.508  1.00  0.00     0.149 A 
ATOM     20  C   UNL     1     -42.124  42.099  26.873  1.00  0.00     0.138 A 
ATOM     21  N   UNL     1     -43.714  40.594  28.639  1.00  0.00    -0.218 NA
ATOM     22  N   UNL     1     -41.611  41.582  28.009  1.00  0.00    -0.219 NA
ATOM     23  C   UNL     1     -42.420  40.884  28.823  1.00  0.00     0.120 A 
ATOM     24  H   UNL     1     -41.964  40.500  29.730  1.00  0.00     0.106 H 
BRANCH  15  25
ATOM     25  N   UNL     1     -44.314  43.233  24.516  1.00  0.00    -0.238 N 
ATOM     26  C   UNL     1     -43.385  44.235  22.861  1.00  0.00     0.060 A 
ATOM     27  C   UNL     1     -44.673  44.787  22.971  1.00  0.00    -0.021 A 
ATOM     28  N   UNL     1     -43.176  43.279  23.770  1.00  0.00    -0.173 NA
ATOM     29  C   UNL     1     -45.254  44.105  24.013  1.00  0.00     0.031 A 
ATOM     30  H   UNL     1     -45.132  45.545  22.353  1.00  0.00     0.066 H 
ATOM     31  H   UNL     1     -46.260  44.137  24.396  1.00  0.00     0.084 H 
BRANCH  26  32
ATOM     32  C   UNL     1     -42.323  44.574  21.883  1.00  0.00    -0.020 C 
ATOM     33  H   UNL     1     -41.702  43.697  21.672  1.00  0.00     0.030 H 
ATOM     34  H   UNL     1     -42.754  44.919  20.938  1.00  0.00     0.030 H 
ATOM     35  H   UNL     1     -41.680  45.369  22.271  1.00  0.00     0.030 H 
ENDBRANCH  26  32
ENDBRANCH  15  25
BRANCH  20  36
ATOM     36  N   UNL     1     -41.198  42.687  26.020  1.00  0.00    -0.383 N 
ATOM     37  H   UNL     1     -41.057  43.651  26.304  1.00  0.00     0.158 HD
ATOM     38  H   UNL     1     -40.342  42.152  25.933  1.00  0.00     0.158 HD
ENDBRANCH  20  36
ENDBRANCH   5  14
BRANCH   9  39
ATOM     39  O   UNL     1     -48.756  38.501  28.643  1.00  0.00    -0.387 OA
ATOM     40  H   UNL     1     -49.620  38.221  28.284  1.00  0.00     0.211 HD
ENDBRANCH   9  39
ENDBRANCH   1   4
BRANCH   1  41
ATOM     41  O   UNL     1     -45.559  35.687  27.824  1.00  0.00    -0.491 OA
BRANCH  41  42
ATOM     42  C   UNL     1     -46.536  34.959  27.206  1.00  0.00     0.121 A 
ATOM     43  C   UNL     1     -47.908  35.091  27.392  1.00  0.00    -0.019 A 
ATOM     44  C   UNL     1     -46.058  33.992  26.313  1.00  0.00     0.007 A 
ATOM     45  C   UNL     1     -48.785  34.265  26.687  1.00  0.00    -0.049 A 
ATOM     46  H   UNL     1     -48.336  35.817  28.074  1.00  0.00     0.066 H 
ATOM     47  C   UNL     1     -46.907  33.157  25.599  1.00  0.00     0.076 A 
ATOM     48  H   UNL     1     -44.984  33.886  26.171  1.00  0.00     0.069 H 
ATOM     49  C   UNL     1     -48.292  33.301  25.793  1.00  0.00     0.001 A 
ATOM     50  H   UNL     1     -49.858  34.376  26.839  1.00  0.00     0.063 H 
ATOM     51  N   UNL     1     -46.389  32.247  24.755  1.00  0.00    -0.231 NA
ATOM     52  C   UNL     1     -49.141  32.457  25.073  1.00  0.00    -0.049 A 
ATOM     53  C   UNL     1     -47.218  31.441  24.056  1.00  0.00     0.129 A 
ATOM     54  C   UNL     1     -48.599  31.519  24.201  1.00  0.00    -0.019 A 
ATOM     55  H   UNL     1     -50.220  32.519  25.187  1.00  0.00     0.063 H 
ATOM     56  H   UNL     1     -49.253  30.853  23.650  1.00  0.00     0.066 H 
BRANCH  53  57
ATOM     57  N   UNL     1     -46.653  30.488  23.189  1.00  0.00    -0.351 N 
ATOM     58  C   UNL     1     -45.358  30.550  22.572  1.00  0.00     0.047 C 
ATOM     59  C   UNL     1     -46.505  29.096  23.511  1.00  0.00     0.047 C 
ATOM     60  C   UNL     1     -45.465  29.025  22.376  1.00  0.00     0.089 C 
ATOM     61  H   UNL     1     -45.346  31.143  21.655  1.00  0.00     0.052 H 
ATOM     62  H   UNL     1     -44.568  30.879  23.257  1.00  0.00     0.052 H 
ATOM     63  H   UNL     1     -47.418  28.519  23.354  1.00  0.00     0.052 H 
ATOM     64  H   UNL     1     -46.107  28.923  24.518  1.00  0.00     0.052 H 
ATOM     65  H   UNL     1     -45.904  28.749  21.409  1.00  0.00     0.064 H 
BRANCH  60  66
ATOM     66  O   UNL     1     -44.267  28.254  22.620  1.00  0.00    -0.389 OA
ATOM     67  H   UNL     1     -44.497  27.673  23.366  1.00  0.00     0.211 HD
ENDBRANCH  60  66
ENDBRANCH  53  57
ENDBRANCH  41  42
ENDBRANCH   1  41
TORSDOF 10
ENDMDL
MODEL 5
REMARK VINA RESULT:      -8.9      4.701      8.783
REMARK SMILES Cc1ccn(-c2cn([C@@H]3O[C@H](COc4ccc5ccc(N6CC(O)C6)nc5c4)[C@@H](O)[C@@H]3F)c3ncnc(N)c23)n1
REMARK SMILES IDX 12 1 11 4 9 5 10 6 31 7 29 9 32 10 8 14 6 15 7 16 39 17
REMARK SMILES IDX 33 19 37 20 34 21 36 22 35 23 5 25 2 26 3 27 40 28 4 29 1 32
REMARK SMILES IDX 38 36 30 39 13 41 14 42 15 43 28 44 16 45 27 47 17 49 26 51
REMARK SMILES IDX 18 52 20 53 19 54 21 57 22 58 25 59 23 60 24 66
REMARK H PARENT 12 2 12 3 9 8 31 11 11 12 29 13 7 18 35 24 3 30 4 31 1 33 1 34
REMARK H PARENT 1 35 38 37 38 38 30 40 15 46 28 48 16 50 18 55 19 56 22 61
REMARK H PARENT 22 62 25 63 25 64 23 65 24 67
REMARK Flexibility Score: inf
ROOT
ATOM      1  C   UNL     1     -43.338  43.598  26.691  1.00  0.00     0.117 C 
ATOM      2  H   UNL     1     -44.265  43.225  27.139  1.00  0.00     0.073 H 
ATOM      3  H   UNL     1     -43.159  44.586  27.129  1.00  0.00     0.073 H 
ENDROOT
BRANCH   1   4
ATOM      4  C   UNL     1     -43.470  43.638  25.159  1.00  0.00     0.123 C 
ATOM      5  C   UNL     1     -45.642  44.175  24.439  1.00  0.00     0.170 C 
ATOM      6  O   UNL     1     -44.745  43.080  24.761  1.00  0.00    -0.345 OA
ATOM      7  C   UNL     1     -44.908  45.477  24.743  1.00  0.00     0.173 C 
ATOM      8  H   UNL     1     -45.845  44.083  23.365  1.00  0.00     0.088 H 
ATOM      9  C   UNL     1     -43.463  45.058  24.595  1.00  0.00     0.119 C 
ATOM     10  F   UNL     1     -45.102  45.866  26.035  1.00  0.00    -0.239 F 
ATOM     11  H   UNL     1     -45.212  46.295  24.086  1.00  0.00     0.074 H 
ATOM     12  H   UNL     1     -42.700  43.019  24.689  1.00  0.00     0.067 H 
ATOM     13  H   UNL     1     -42.774  45.718  25.128  1.00  0.00     0.066 H 
BRANCH   5  14
ATOM     14  N   UNL     1     -46.909  44.025  25.133  1.00  0.00    -0.301 N 
ATOM     15  C   UNL     1     -48.487  43.501  26.618  1.00  0.00     0.096 A 
ATOM     16  C   UNL     1     -47.158  43.313  26.272  1.00  0.00     0.035 A 
ATOM     17  C   UNL     1     -49.104  44.255  25.569  1.00  0.00     0.087 A 
ATOM     18  H   UNL     1     -46.371  42.772  26.787  1.00  0.00     0.084 H 
ATOM     19  C   UNL     1     -48.074  44.605  24.697  1.00  0.00     0.149 A 
ATOM     20  C   UNL     1     -50.388  44.679  25.181  1.00  0.00     0.138 A 
ATOM     21  N   UNL     1     -48.170  45.363  23.591  1.00  0.00    -0.218 NA
ATOM     22  N   UNL     1     -50.524  45.459  24.089  1.00  0.00    -0.219 NA
ATOM     23  C   UNL     1     -49.429  45.767  23.376  1.00  0.00     0.120 A 
ATOM     24  H   UNL     1     -49.587  46.408  22.514  1.00  0.00     0.106 H 
BRANCH  15  25
ATOM     25  N   UNL     1     -49.048  42.999  27.830  1.00  0.00    -0.238 N 
ATOM     26  C   UNL     1     -49.578  42.942  29.909  1.00  0.00     0.060 A 
ATOM     27  C   UNL     1     -50.094  41.761  29.349  1.00  0.00    -0.021 A 
ATOM     28  N   UNL     1     -48.974  43.703  28.992  1.00  0.00    -0.173 NA
ATOM     29  C   UNL     1     -49.770  41.840  28.016  1.00  0.00     0.031 A 
ATOM     30  H   UNL     1     -50.659  40.980  29.836  1.00  0.00     0.066 H 
ATOM     31  H   UNL     1     -50.036  41.199  27.191  1.00  0.00     0.084 H 
BRANCH  26  32
ATOM     32  C   UNL     1     -49.659  43.401  31.317  1.00  0.00    -0.020 C 
ATOM     33  H   UNL     1     -50.233  44.331  31.385  1.00  0.00     0.030 H 
ATOM     34  H   UNL     1     -50.151  42.653  31.947  1.00  0.00     0.030 H 
ATOM     35  H   UNL     1     -48.659  43.579  31.723  1.00  0.00     0.030 H 
ENDBRANCH  26  32
ENDBRANCH  15  25
BRANCH  20  36
ATOM     36  N   UNL     1     -51.579  44.293  25.784  1.00  0.00    -0.383 N 
ATOM     37  H   UNL     1     -51.821  44.975  26.497  1.00  0.00     0.158 HD
ATOM     38  H   UNL     1     -52.321  44.111  25.119  1.00  0.00     0.158 HD
ENDBRANCH  20  36
ENDBRANCH   5  14
BRANCH   9  39
ATOM     39  O   UNL     1     -43.086  45.067  23.211  1.00  0.00    -0.387 OA
ATOM     40  H   UNL     1     -43.719  44.525  22.703  1.00  0.00     0.211 HD
ENDBRANCH   9  39
ENDBRANCH   1   4
BRANCH   1  41
ATOM     41  O   UNL     1     -42.327  42.664  27.086  1.00  0.00    -0.491 OA
BRANCH  41  42
ATOM     42  C   UNL     1     -42.650  41.656  27.950  1.00  0.00     0.121 A 
ATOM     43  C   UNL     1     -41.988  41.336  29.131  1.00  0.00    -0.019 A 
ATOM     44  C   UNL     1     -43.758  40.894  27.560  1.00  0.00     0.007 A 
ATOM     45  C   UNL     1     -42.439  40.267  29.909  1.00  0.00    -0.049 A 
ATOM     46  H   UNL     1     -41.122  41.885  29.480  1.00  0.00     0.066 H 
ATOM     47  C   UNL     1     -44.227  39.826  28.313  1.00  0.00     0.076 A 
ATOM     48  H   UNL     1     -44.273  41.142  26.634  1.00  0.00     0.069 H 
ATOM     49  C   UNL     1     -43.552  39.513  29.507  1.00  0.00     0.001 A 
ATOM     50  H   UNL     1     -41.914  40.025  30.832  1.00  0.00     0.063 H 
ATOM     51  N   UNL     1     -45.297  39.131  27.888  1.00  0.00    -0.231 NA
ATOM     52  C   UNL     1     -44.027  38.437  30.260  1.00  0.00    -0.049 A 
ATOM     53  C   UNL     1     -45.755  38.097  28.628  1.00  0.00     0.129 A 
ATOM     54  C   UNL     1     -45.135  37.723  29.815  1.00  0.00    -0.019 A 
ATOM     55  H   UNL     1     -43.542  38.146  31.187  1.00  0.00     0.063 H 
ATOM     56  H   UNL     1     -45.500  36.879  30.389  1.00  0.00     0.066 H 
BRANCH  53  57
ATOM     57  N   UNL     1     -46.868  37.377  28.156  1.00  0.00    -0.351 N 
ATOM     58  C   UNL     1     -46.972  36.682  26.904  1.00  0.00     0.047 C 
ATOM     59  C   UNL     1     -47.497  36.306  28.877  1.00  0.00     0.047 C 
ATOM     60  C   UNL     1     -48.124  35.877  27.536  1.00  0.00     0.089 C 
ATOM     61  H   UNL     1     -47.253  37.333  26.073  1.00  0.00     0.052 H 
ATOM     62  H   UNL     1     -46.077  36.101  26.655  1.00  0.00     0.052 H 
ATOM     63  H   UNL     1     -48.198  36.655  29.638  1.00  0.00     0.052 H 
ATOM     64  H   UNL     1     -46.783  35.593  29.306  1.00  0.00     0.052 H 
ATOM     65  H   UNL     1     -49.109  36.329  27.360  1.00  0.00     0.064 H 
BRANCH  60  66
ATOM     66  O   UNL     1     -48.164  34.462  27.244  1.00  0.00    -0.389 OA
ATOM     67  H   UNL     1     -47.380  34.304  26.690  1.00  0.00     0.211 HD
ENDBRANCH  60  66
ENDBRANCH  53  57
ENDBRANCH  41  42
ENDBRANCH   1  41
TORSDOF 10
ENDMDL
MODEL 6
REMARK VINA RESULT:      -8.7      3.286      6.283
REMARK SMILES Cc1ccn(-c2cn([C@@H]3O[C@H](COc4ccc5ccc(N6CC(O)C6)nc5c4)[C@@H](O)[C@@H]3F)c3ncnc(N)c23)n1
REMARK SMILES IDX 12 1 11 4 9 5 10 6 31 7 29 9 32 10 8 14 6 15 7 16 39 17
REMARK SMILES IDX 33 19 37 20 34 21 36 22 35 23 5 25 2 26 3 27 40 28 4 29 1 32
REMARK SMILES IDX 38 36 30 39 13 41 14 42 15 43 28 44 16 45 27 47 17 49 26 51
REMARK SMILES IDX 18 52 20 53 19 54 21 57 22 58 25 59 23 60 24 66
REMARK H PARENT 12 2 12 3 9 8 31 11 11 12 29 13 7 18 35 24 3 30 4 31 1 33 1 34
REMARK H PARENT 1 35 38 37 38 38 30 40 15 46 28 48 16 50 18 55 19 56 22 61
REMARK H PARENT 22 62 25 63 25 64 23 65 24 67
REMARK Flexibility Score: inf
ROOT
ATOM      1  C   UNL     1     -44.043  40.646  28.135  1.00  0.00     0.117 C 
ATOM      2  H   UNL     1     -45.040  41.054  27.941  1.00  0.00     0.073 H 
ATOM      3  H   UNL     1     -43.701  41.098  29.073  1.00  0.00     0.073 H 
ENDROOT
BRANCH   1   4
ATOM      4  C   UNL     1     -43.108  40.949  26.951  1.00  0.00     0.123 C 
ATOM      5  C   UNL     1     -43.843  42.756  25.641  1.00  0.00     0.170 C 
ATOM      6  O   UNL     1     -43.891  41.313  25.789  1.00  0.00    -0.345 OA
ATOM      7  C   UNL     1     -43.066  43.316  26.828  1.00  0.00     0.173 C 
ATOM      8  H   UNL     1     -43.306  42.939  24.703  1.00  0.00     0.088 H 
ATOM      9  C   UNL     1     -42.190  42.143  27.204  1.00  0.00     0.119 C 
ATOM     10  F   UNL     1     -43.890  43.579  27.882  1.00  0.00    -0.239 F 
ATOM     11  H   UNL     1     -42.520  44.230  26.581  1.00  0.00     0.074 H 
ATOM     12  H   UNL     1     -42.536  40.058  26.674  1.00  0.00     0.067 H 
ATOM     13  H   UNL     1     -41.838  42.192  28.238  1.00  0.00     0.066 H 
BRANCH   5  14
ATOM     14  N   UNL     1     -45.180  43.303  25.488  1.00  0.00    -0.301 N 
ATOM     15  C   UNL     1     -47.368  43.689  25.667  1.00  0.00     0.096 A 
ATOM     16  C   UNL     1     -46.346  42.817  26.009  1.00  0.00     0.035 A 
ATOM     17  C   UNL     1     -46.818  44.678  24.790  1.00  0.00     0.087 A 
ATOM     18  H   UNL     1     -46.363  41.926  26.627  1.00  0.00     0.084 H 
ATOM     19  C   UNL     1     -45.447  44.431  24.752  1.00  0.00     0.149 A 
ATOM     20  C   UNL     1     -47.259  45.738  23.978  1.00  0.00     0.138 A 
ATOM     21  N   UNL     1     -44.512  45.142  24.098  1.00  0.00    -0.218 NA
ATOM     22  N   UNL     1     -46.351  46.489  23.321  1.00  0.00    -0.219 NA
ATOM     23  C   UNL     1     -45.051  46.168  23.426  1.00  0.00     0.120 A 
ATOM     24  H   UNL     1     -44.358  46.809  22.891  1.00  0.00     0.106 H 
BRANCH  15  25
ATOM     25  N   UNL     1     -48.700  43.547  26.159  1.00  0.00    -0.238 N 
ATOM     26  C   UNL     1     -50.568  42.592  26.612  1.00  0.00     0.060 A 
ATOM     27  C   UNL     1     -50.685  43.910  27.086  1.00  0.00    -0.021 A 
ATOM     28  N   UNL     1     -49.364  42.362  26.080  1.00  0.00    -0.173 NA
ATOM     29  C   UNL     1     -49.468  44.485  26.814  1.00  0.00     0.031 A 
ATOM     30  H   UNL     1     -51.523  44.367  27.593  1.00  0.00     0.066 H 
ATOM     31  H   UNL     1     -49.078  45.455  27.075  1.00  0.00     0.084 H 
BRANCH  26  32
ATOM     32  C   UNL     1     -51.575  41.504  26.667  1.00  0.00    -0.020 C 
ATOM     33  H   UNL     1     -52.480  41.792  26.123  1.00  0.00     0.030 H 
ATOM     34  H   UNL     1     -51.186  40.585  26.217  1.00  0.00     0.030 H 
ATOM     35  H   UNL     1     -51.846  41.283  27.703  1.00  0.00     0.030 H 
ENDBRANCH  26  32
ENDBRANCH  15  25
BRANCH  20  36
ATOM     36  N   UNL     1     -48.587  46.047  23.709  1.00  0.00    -0.383 N 
ATOM     37  H   UNL     1     -48.715  47.050  23.805  1.00  0.00     0.158 HD
ATOM     38  H   UNL     1     -48.913  45.672  22.826  1.00  0.00     0.158 HD
ENDBRANCH  20  36
ENDBRANCH   5  14
BRANCH   9  39
ATOM     39  O   UNL     1     -41.033  42.100  26.357  1.00  0.00    -0.387 OA
ATOM     40  H   UNL     1     -40.625  42.986  26.328  1.00  0.00     0.211 HD
ENDBRANCH   9  39
ENDBRANCH   1   4
BRANCH   1  41
ATOM     41  O   UNL     1     -44.235  39.234  28.278  1.00  0.00    -0.491 OA
BRANCH  41  42
ATOM     42  C   UNL     1     -45.491  38.714  28.142  1.00  0.00     0.121 A 
ATOM     43  C   UNL     1     -46.684  39.329  28.505  1.00  0.00    -0.019 A 
ATOM     44  C   UNL     1     -45.526  37.430  27.584  1.00  0.00     0.007 A 
ATOM     45  C   UNL     1     -47.895  38.662  28.306  1.00  0.00    -0.049 A 
ATOM     46  H   UNL     1     -46.718  40.318  28.946  1.00  0.00     0.066 H 
ATOM     47  C   UNL     1     -46.715  36.744  27.375  1.00  0.00     0.076 A 
ATOM     48  H   UNL     1     -44.592  36.947  27.303  1.00  0.00     0.069 H 
ATOM     49  C   UNL     1     -47.916  37.376  27.744  1.00  0.00     0.001 A 
ATOM     50  H   UNL     1     -48.824  39.152  28.594  1.00  0.00     0.063 H 
ATOM     51  N   UNL     1     -46.686  35.513  26.835  1.00  0.00    -0.231 NA
ATOM     52  C   UNL     1     -49.109  36.681  27.534  1.00  0.00    -0.049 A 
ATOM     53  C   UNL     1     -47.847  34.851  26.626  1.00  0.00     0.129 A 
ATOM     54  C   UNL     1     -49.072  35.408  26.973  1.00  0.00    -0.019 A 
ATOM     55  H   UNL     1     -50.066  37.117  27.805  1.00  0.00     0.063 H 
ATOM     56  H   UNL     1     -49.995  34.859  26.820  1.00  0.00     0.066 H 
BRANCH  53  57
ATOM     57  N   UNL     1     -47.790  33.559  26.072  1.00  0.00    -0.351 N 
ATOM     58  C   UNL     1     -46.947  32.478  26.498  1.00  0.00     0.047 C 
ATOM     59  C   UNL     1     -48.930  32.698  25.924  1.00  0.00     0.047 C 
ATOM     60  C   UNL     1     -47.932  31.532  25.784  1.00  0.00     0.089 C 
ATOM     61  H   UNL     1     -45.942  32.522  26.071  1.00  0.00     0.052 H 
ATOM     62  H   UNL     1     -46.901  32.369  27.587  1.00  0.00     0.052 H 
ATOM     63  H   UNL     1     -49.525  32.922  25.035  1.00  0.00     0.052 H 
ATOM     64  H   UNL     1     -49.566  32.661  26.816  1.00  0.00     0.052 H 
ATOM     65  H   UNL     1     -47.651  31.331  24.742  1.00  0.00     0.064 H 
BRANCH  60  66
ATOM     66  O   UNL     1     -48.254  30.297  26.462  1.00  0.00    -0.389 OA
ATOM     67  H   UNL     1     -47.747  30.333  27.292  1.00  0.00     0.211 HD
ENDBRANCH  60  66
ENDBRANCH  53  57
ENDBRANCH  41  42
ENDBRANCH   1  41
TORSDOF 10
ENDMDL
MODEL 7
REMARK VINA RESULT:      -8.5      1.470      1.994
REMARK SMILES Cc1ccn(-c2cn([C@@H]3O[C@H](COc4ccc5ccc(N6CC(O)C6)nc5c4)[C@@H](O)[C@@H]3F)c3ncnc(N)c23)n1
REMARK SMILES IDX 12 1 11 4 9 5 10 6 31 7 29 9 32 10 8 14 6 15 7 16 39 17
REMARK SMILES IDX 33 19 37 20 34 21 36 22 35 23 5 25 2 26 3 27 40 28 4 29 1 32
REMARK SMILES IDX 38 36 30 39 13 41 14 42 15 43 28 44 16 45 27 47 17 49 26 51
REMARK SMILES IDX 18 52 20 53 19 54 21 57 22 58 25 59 23 60 24 66
REMARK H PARENT 12 2 12 3 9 8 31 11 11 12 29 13 7 18 35 24 3 30 4 31 1 33 1 34
REMARK H PARENT 1 35 38 37 38 38 30 40 15 46 28 48 16 50 18 55 19 56 22 61
REMARK H PARENT 22 62 25 63 25 64 23 65 24 67
REMARK Flexibility Score: inf
ROOT
ATOM      1  C   UNL     1     -45.493  35.956  27.186  1.00  0.00     0.117 C 
ATOM      2  H   UNL     1     -44.519  36.244  26.778  1.00  0.00     0.073 H 
ATOM      3  H   UNL     1     -46.243  36.525  26.625  1.00  0.00     0.073 H 
ENDROOT
BRANCH   1   4
ATOM      4  C   UNL     1     -45.538  36.237  28.698  1.00  0.00     0.123 C 
ATOM      5  C   UNL     1     -45.372  38.525  29.210  1.00  0.00     0.170 C 
ATOM      6  O   UNL     1     -44.613  37.302  29.026  1.00  0.00    -0.345 OA
ATOM      7  C   UNL     1     -46.830  38.216  28.888  1.00  0.00     0.173 C 
ATOM      8  H   UNL     1     -45.253  38.789  30.268  1.00  0.00     0.088 H 
ATOM      9  C   UNL     1     -46.901  36.734  29.174  1.00  0.00     0.119 C 
ATOM     10  F   UNL     1     -47.096  38.401  27.564  1.00  0.00    -0.239 F 
ATOM     11  H   UNL     1     -47.528  38.824  29.468  1.00  0.00     0.074 H 
ATOM     12  H   UNL     1     -45.213  35.358  29.263  1.00  0.00     0.067 H 
ATOM     13  H   UNL     1     -47.731  36.242  28.659  1.00  0.00     0.066 H 
BRANCH   5  14
ATOM     14  N   UNL     1     -44.801  39.608  28.429  1.00  0.00    -0.301 N 
ATOM     15  C   UNL     1     -44.471  41.215  26.919  1.00  0.00     0.096 A 
ATOM     16  C   UNL     1     -45.303  40.170  27.288  1.00  0.00     0.035 A 
ATOM     17  C   UNL     1     -43.344  41.203  27.802  1.00  0.00     0.087 A 
ATOM     18  H   UNL     1     -46.237  39.831  26.852  1.00  0.00     0.084 H 
ATOM     19  C   UNL     1     -43.619  40.224  28.755  1.00  0.00     0.149 A 
ATOM     20  C   UNL     1     -42.097  41.840  27.938  1.00  0.00     0.138 A 
ATOM     21  N   UNL     1     -42.867  39.895  29.819  1.00  0.00    -0.218 NA
ATOM     22  N   UNL     1     -41.321  41.552  29.003  1.00  0.00    -0.219 NA
ATOM     23  C   UNL     1     -41.745  40.625  29.878  1.00  0.00     0.120 A 
ATOM     24  H   UNL     1     -41.093  40.438  30.725  1.00  0.00     0.106 H 
BRANCH  15  25
ATOM     25  N   UNL     1     -44.774  42.099  25.840  1.00  0.00    -0.238 N 
ATOM     26  C   UNL     1     -45.790  43.647  24.755  1.00  0.00     0.060 A 
ATOM     27  C   UNL     1     -44.767  43.190  23.906  1.00  0.00    -0.021 A 
ATOM     28  N   UNL     1     -45.778  43.012  25.931  1.00  0.00    -0.173 NA
ATOM     29  C   UNL     1     -44.115  42.227  24.637  1.00  0.00     0.031 A 
ATOM     30  H   UNL     1     -44.511  43.541  22.917  1.00  0.00     0.066 H 
ATOM     31  H   UNL     1     -43.219  41.669  24.419  1.00  0.00     0.084 H 
BRANCH  26  32
ATOM     32  C   UNL     1     -46.792  44.709  24.495  1.00  0.00    -0.020 C 
ATOM     33  H   UNL     1     -46.995  44.790  23.422  1.00  0.00     0.030 H 
ATOM     34  H   UNL     1     -47.737  44.492  25.003  1.00  0.00     0.030 H 
ATOM     35  H   UNL     1     -46.430  45.676  24.854  1.00  0.00     0.030 H 
ENDBRANCH  26  32
ENDBRANCH  15  25
BRANCH  20  36
ATOM     36  N   UNL     1     -41.529  42.704  27.009  1.00  0.00    -0.383 N 
ATOM     37  H   UNL     1     -40.613  42.988  27.344  1.00  0.00     0.158 HD
ATOM     38  H   UNL     1     -41.526  42.329  26.067  1.00  0.00     0.158 HD
ENDBRANCH  20  36
ENDBRANCH   5  14
BRANCH   9  39
ATOM     39  O   UNL     1     -47.075  36.511  30.580  1.00  0.00    -0.387 OA
ATOM     40  H   UNL     1     -47.970  36.153  30.739  1.00  0.00     0.211 HD
ENDBRANCH   9  39
ENDBRANCH   1   4
BRANCH   1  41
ATOM     41  O   UNL     1     -45.608  34.552  26.931  1.00  0.00    -0.491 OA
BRANCH  41  42
ATOM     42  C   UNL     1     -46.800  34.048  26.491  1.00  0.00     0.121 A 
ATOM     43  C   UNL     1     -48.067  34.508  26.832  1.00  0.00    -0.019 A 
ATOM     44  C   UNL     1     -46.680  32.958  25.621  1.00  0.00     0.007 A 
ATOM     45  C   UNL     1     -49.197  33.882  26.302  1.00  0.00    -0.049 A 
ATOM     46  H   UNL     1     -48.222  35.343  27.505  1.00  0.00     0.066 H 
ATOM     47  C   UNL     1     -47.785  32.316  25.079  1.00  0.00     0.076 A 
ATOM     48  H   UNL     1     -45.688  32.596  25.357  1.00  0.00     0.069 H 
ATOM     49  C   UNL     1     -49.062  32.791  25.428  1.00  0.00     0.001 A 
ATOM     50  H   UNL     1     -50.185  34.249  26.575  1.00  0.00     0.063 H 
ATOM     51  N   UNL     1     -47.608  31.274  24.248  1.00  0.00    -0.231 NA
ATOM     52  C   UNL     1     -50.171  32.140  24.882  1.00  0.00    -0.049 A 
ATOM     53  C   UNL     1     -48.686  30.656  23.716  1.00  0.00     0.129 A 
ATOM     54  C   UNL     1     -49.980  31.064  24.022  1.00  0.00    -0.019 A 
ATOM     55  H   UNL     1     -51.181  32.460  25.121  1.00  0.00     0.063 H 
ATOM     56  H   UNL     1     -50.838  30.548  23.604  1.00  0.00     0.066 H 
BRANCH  53  57
ATOM     57  N   UNL     1     -48.476  29.560  22.859  1.00  0.00    -0.351 N 
ATOM     58  C   UNL     1     -48.527  28.170  23.216  1.00  0.00     0.047 C 
ATOM     59  C   UNL     1     -49.202  29.342  21.640  1.00  0.00     0.047 C 
ATOM     60  C   UNL     1     -48.736  27.875  21.717  1.00  0.00     0.089 C 
ATOM     61  H   UNL     1     -47.592  27.801  23.643  1.00  0.00     0.052 H 
ATOM     62  H   UNL     1     -49.375  27.921  23.863  1.00  0.00     0.052 H 
ATOM     63  H   UNL     1     -48.813  29.919  20.799  1.00  0.00     0.052 H 
ATOM     64  H   UNL     1     -50.283  29.493  21.745  1.00  0.00     0.052 H 
ATOM     65  H   UNL     1     -47.794  27.696  21.182  1.00  0.00     0.064 H 
BRANCH  60  66
ATOM     66  O   UNL     1     -49.702  26.853  21.386  1.00  0.00    -0.389 OA
ATOM     67  H   UNL     1     -49.714  26.265  22.161  1.00  0.00     0.211 HD
ENDBRANCH  60  66
ENDBRANCH  53  57
ENDBRANCH  41  42
ENDBRANCH   1  41
TORSDOF 10
ENDMDL
