MODEL 1
REMARK VINA RESULT:      -9.7      0.000      0.000
REMARK SMILES CCNc1ccc2ccc(OC[C@H]3O[C@@H](n4cc(-c5ccn(C)n5)c5c(N)ncnc54)[C@@H](F)[C@@H]3O)cc2n1
REMARK SMILES IDX 12 1 11 4 10 5 4 6 5 7 38 8 6 9 37 11 7 12 36 14 8 15 9 17
REMARK SMILES IDX 3 20 2 22 1 25 13 29 14 30 34 31 15 33 32 34 33 37 35 39
REMARK SMILES IDX 16 41 17 42 31 43 18 44 25 46 30 47 26 48 29 49 28 50 19 52
REMARK SMILES IDX 20 53 24 54 21 55 22 57 23 59 27 63
REMARK H PARENT 12 2 12 3 5 10 6 13 36 16 8 18 9 19 3 21 2 23 2 24 1 26 1 27
REMARK H PARENT 1 28 13 32 34 35 15 36 32 38 35 40 17 45 29 51 20 56 21 58
REMARK H PARENT 23 60 23 61 23 62 27 64 27 65
REMARK Flexibility Score: inf
ROOT
ATOM      1  C   UNL     1     -46.637  35.739  26.599  1.00  0.00     0.117 C 
ATOM      2  H   UNL     1     -45.802  35.302  26.036  1.00  0.00     0.073 H 
ATOM      3  H   UNL     1     -46.923  36.669  26.097  1.00  0.00     0.073 H 
ENDROOT
BRANCH   1   4
ATOM      4  O   UNL     1     -47.800  34.889  26.599  1.00  0.00    -0.491 OA
BRANCH   4   5
ATOM      5  C   UNL     1     -47.583  33.743  25.886  1.00  0.00     0.121 A 
ATOM      6  C   UNL     1     -48.836  29.295  24.799  1.00  0.00     0.126 A 
ATOM      7  C   UNL     1     -47.756  29.155  23.935  1.00  0.00    -0.019 A 
ATOM      8  N   UNL     1     -49.055  30.442  25.471  1.00  0.00    -0.231 NA
ATOM      9  C   UNL     1     -46.888  30.227  23.744  1.00  0.00    -0.049 A 
ATOM     10  H   UNL     1     -47.580  28.215  23.423  1.00  0.00     0.066 H 
ATOM     11  C   UNL     1     -48.220  31.481  25.294  1.00  0.00     0.076 A 
ATOM     12  C   UNL     1     -47.108  31.422  24.433  1.00  0.00     0.001 A 
ATOM     13  H   UNL     1     -46.043  30.117  23.069  1.00  0.00     0.063 H 
ATOM     14  C   UNL     1     -48.449  32.654  25.993  1.00  0.00     0.007 A 
ATOM     15  C   UNL     1     -46.259  32.535  24.288  1.00  0.00    -0.049 A 
ATOM     16  H   UNL     1     -49.322  32.716  26.636  1.00  0.00     0.069 H 
ATOM     17  C   UNL     1     -46.502  33.700  25.015  1.00  0.00    -0.019 A 
ATOM     18  H   UNL     1     -45.407  32.498  23.615  1.00  0.00     0.063 H 
ATOM     19  H   UNL     1     -45.848  34.561  24.910  1.00  0.00     0.066 H 
BRANCH   6  20
ATOM     20  N   UNL     1     -49.673  28.180  24.997  1.00  0.00    -0.370 N 
ATOM     21  H   UNL     1     -50.486  28.479  25.527  1.00  0.00     0.162 HD
BRANCH  20  22
ATOM     22  C   UNL     1     -49.006  27.041  25.627  1.00  0.00     0.013 C 
ATOM     23  H   UNL     1     -48.653  27.309  26.629  1.00  0.00     0.049 H 
ATOM     24  H   UNL     1     -48.148  26.709  25.033  1.00  0.00     0.049 H 
BRANCH  22  25
ATOM     25  C   UNL     1     -49.989  25.885  25.736  1.00  0.00    -0.048 C 
ATOM     26  H   UNL     1     -49.565  25.081  26.345  1.00  0.00     0.025 H 
ATOM     27  H   UNL     1     -50.927  26.209  26.198  1.00  0.00     0.025 H 
ATOM     28  H   UNL     1     -50.226  25.478  24.747  1.00  0.00     0.025 H 
ENDBRANCH  22  25
ENDBRANCH  20  22
ENDBRANCH   6  20
ENDBRANCH   4   5
ENDBRANCH   1   4
BRANCH   1  29
ATOM     29  C   UNL     1     -46.208  36.034  28.038  1.00  0.00     0.123 C 
ATOM     30  O   UNL     1     -44.916  36.677  28.071  1.00  0.00    -0.345 OA
ATOM     31  C   UNL     1     -47.161  36.997  28.729  1.00  0.00     0.119 C 
ATOM     32  H   UNL     1     -46.117  35.090  28.591  1.00  0.00     0.067 H 
ATOM     33  C   UNL     1     -44.921  37.650  29.146  1.00  0.00     0.169 C 
ATOM     34  C   UNL     1     -46.283  37.558  29.824  1.00  0.00     0.173 C 
ATOM     35  H   UNL     1     -47.490  37.798  28.058  1.00  0.00     0.066 H 
ATOM     36  H   UNL     1     -44.111  37.382  29.834  1.00  0.00     0.088 H 
ATOM     37  F   UNL     1     -46.782  38.747  30.237  1.00  0.00    -0.239 F 
ATOM     38  H   UNL     1     -46.254  36.884  30.688  1.00  0.00     0.074 H 
BRANCH  31  39
ATOM     39  O   UNL     1     -48.315  36.338  29.234  1.00  0.00    -0.387 OA
ATOM     40  H   UNL     1     -48.289  35.420  28.900  1.00  0.00     0.211 HD
ENDBRANCH  31  39
BRANCH  33  41
ATOM     41  N   UNL     1     -44.608  38.962  28.595  1.00  0.00    -0.302 N 
ATOM     42  C   UNL     1     -45.236  39.597  27.554  1.00  0.00     0.019 A 
ATOM     43  C   UNL     1     -43.572  39.743  29.045  1.00  0.00     0.148 A 
ATOM     44  C   UNL     1     -44.584  40.795  27.320  1.00  0.00     0.033 A 
ATOM     45  H   UNL     1     -46.064  39.135  27.033  1.00  0.00     0.083 H 
ATOM     46  C   UNL     1     -43.542  40.913  28.294  1.00  0.00     0.071 A 
ATOM     47  N   UNL     1     -42.742  39.406  30.047  1.00  0.00    -0.218 NA
ATOM     48  C   UNL     1     -42.552  41.847  28.651  1.00  0.00     0.137 A 
ATOM     49  C   UNL     1     -41.831  40.364  30.275  1.00  0.00     0.120 A 
ATOM     50  N   UNL     1     -41.687  41.540  29.640  1.00  0.00    -0.219 NA
ATOM     51  H   UNL     1     -41.120  40.167  31.070  1.00  0.00     0.106 H 
BRANCH  44  52
ATOM     52  C   UNL     1     -44.894  41.743  26.242  1.00  0.00     0.095 A 
ATOM     53  C   UNL     1     -44.183  41.826  25.023  1.00  0.00    -0.016 A 
ATOM     54  N   UNL     1     -45.859  42.671  26.314  1.00  0.00    -0.173 NA
ATOM     55  C   UNL     1     -44.774  42.857  24.331  1.00  0.00     0.025 A 
ATOM     56  H   UNL     1     -43.342  41.233  24.694  1.00  0.00     0.066 H 
ATOM     57  N   UNL     1     -45.764  43.326  25.141  1.00  0.00    -0.275 N 
ATOM     58  H   UNL     1     -44.563  43.290  23.365  1.00  0.00     0.084 H 
BRANCH  57  59
ATOM     59  C   UNL     1     -46.663  44.419  24.863  1.00  0.00     0.030 C 
ATOM     60  H   UNL     1     -47.659  44.146  25.223  1.00  0.00     0.048 H 
ATOM     61  H   UNL     1     -46.296  45.307  25.384  1.00  0.00     0.048 H 
ATOM     62  H   UNL     1     -46.691  44.604  23.787  1.00  0.00     0.048 H 
ENDBRANCH  57  59
ENDBRANCH  44  52
BRANCH  48  63
ATOM     63  N   UNL     1     -42.397  43.086  28.048  1.00  0.00    -0.383 N 
ATOM     64  H   UNL     1     -41.953  43.751  28.665  1.00  0.00     0.158 HD
ATOM     65  H   UNL     1     -42.028  43.013  27.095  1.00  0.00     0.158 HD
ENDBRANCH  48  63
ENDBRANCH  33  41
ENDBRANCH   1  29
TORSDOF 11
ENDMDL
MODEL 2
REMARK VINA RESULT:      -9.4      1.743      2.415
REMARK SMILES CCNc1ccc2ccc(OC[C@H]3O[C@@H](n4cc(-c5ccn(C)n5)c5c(N)ncnc54)[C@@H](F)[C@@H]3O)cc2n1
REMARK SMILES IDX 12 1 11 4 10 5 4 6 5 7 38 8 6 9 37 11 7 12 36 14 8 15 9 17
REMARK SMILES IDX 3 20 2 22 1 25 13 29 14 30 34 31 15 33 32 34 33 37 35 39
REMARK SMILES IDX 16 41 17 42 31 43 18 44 25 46 30 47 26 48 29 49 28 50 19 52
REMARK SMILES IDX 20 53 24 54 21 55 22 57 23 59 27 63
REMARK H PARENT 12 2 12 3 5 10 6 13 36 16 8 18 9 19 3 21 2 23 2 24 1 26 1 27
REMARK H PARENT 1 28 13 32 34 35 15 36 32 38 35 40 17 45 29 51 20 56 21 58
REMARK H PARENT 23 60 23 61 23 62 27 64 27 65
REMARK Flexibility Score: inf
ROOT
ATOM      1  C   UNL     1     -46.539  36.031  26.496  1.00  0.00     0.117 C 
ATOM      2  H   UNL     1     -46.040  36.712  25.794  1.00  0.00     0.073 H 
ATOM      3  H   UNL     1     -47.581  35.929  26.173  1.00  0.00     0.073 H 
ENDROOT
BRANCH   1   4
ATOM      4  O   UNL     1     -45.964  34.711  26.479  1.00  0.00    -0.491 OA
BRANCH   4   5
ATOM      5  C   UNL     1     -46.812  33.802  25.909  1.00  0.00     0.121 A 
ATOM      6  C   UNL     1     -47.765  30.699  22.445  1.00  0.00     0.126 A 
ATOM      7  C   UNL     1     -49.023  30.430  22.973  1.00  0.00    -0.019 A 
ATOM      8  N   UNL     1     -46.928  31.574  23.035  1.00  0.00    -0.231 NA
ATOM      9  C   UNL     1     -49.424  31.064  24.146  1.00  0.00    -0.049 A 
ATOM     10  H   UNL     1     -49.695  29.743  22.469  1.00  0.00     0.066 H 
ATOM     11  C   UNL     1     -47.309  32.193  24.167  1.00  0.00     0.076 A 
ATOM     12  C   UNL     1     -48.562  31.970  24.768  1.00  0.00     0.001 A 
ATOM     13  H   UNL     1     -50.408  30.854  24.558  1.00  0.00     0.063 H 
ATOM     14  C   UNL     1     -46.444  33.095  24.764  1.00  0.00     0.007 A 
ATOM     15  C   UNL     1     -48.916  32.648  25.949  1.00  0.00    -0.049 A 
ATOM     16  H   UNL     1     -45.464  33.248  24.322  1.00  0.00     0.069 H 
ATOM     17  C   UNL     1     -48.035  33.564  26.522  1.00  0.00    -0.019 A 
ATOM     18  H   UNL     1     -49.878  32.471  26.423  1.00  0.00     0.063 H 
ATOM     19  H   UNL     1     -48.305  34.093  27.432  1.00  0.00     0.066 H 
BRANCH   6  20
ATOM     20  N   UNL     1     -47.406  30.069  21.238  1.00  0.00    -0.370 N 
ATOM     21  H   UNL     1     -46.617  29.456  21.418  1.00  0.00     0.162 HD
BRANCH  20  22
ATOM     22  C   UNL     1     -47.132  30.997  20.143  1.00  0.00     0.013 C 
ATOM     23  H   UNL     1     -46.490  30.524  19.390  1.00  0.00     0.049 H 
ATOM     24  H   UNL     1     -46.632  31.901  20.507  1.00  0.00     0.049 H 
BRANCH  22  25
ATOM     25  C   UNL     1     -48.445  31.406  19.493  1.00  0.00    -0.048 C 
ATOM     26  H   UNL     1     -48.914  32.216  20.061  1.00  0.00     0.025 H 
ATOM     27  H   UNL     1     -48.285  31.753  18.468  1.00  0.00     0.025 H 
ATOM     28  H   UNL     1     -49.143  30.563  19.457  1.00  0.00     0.025 H 
ENDBRANCH  22  25
ENDBRANCH  20  22
ENDBRANCH   6  20
ENDBRANCH   4   5
ENDBRANCH   1   4
BRANCH   1  29
ATOM     29  C   UNL     1     -46.488  36.603  27.915  1.00  0.00     0.123 C 
ATOM     30  O   UNL     1     -45.206  37.209  28.182  1.00  0.00    -0.345 OA
ATOM     31  C   UNL     1     -47.513  37.708  28.118  1.00  0.00     0.119 C 
ATOM     32  H   UNL     1     -46.622  35.790  28.640  1.00  0.00     0.067 H 
ATOM     33  C   UNL     1     -45.422  38.381  29.009  1.00  0.00     0.169 C 
ATOM     34  C   UNL     1     -46.919  38.460  29.288  1.00  0.00     0.173 C 
ATOM     35  H   UNL     1     -47.587  38.363  27.243  1.00  0.00     0.066 H 
ATOM     36  H   UNL     1     -44.849  38.240  29.933  1.00  0.00     0.088 H 
ATOM     37  F   UNL     1     -47.416  39.719  29.313  1.00  0.00    -0.239 F 
ATOM     38  H   UNL     1     -47.174  37.975  30.237  1.00  0.00     0.074 H 
BRANCH  31  39
ATOM     39  O   UNL     1     -48.808  37.191  28.399  1.00  0.00    -0.387 OA
ATOM     40  H   UNL     1     -49.189  36.900  27.549  1.00  0.00     0.211 HD
ENDBRANCH  31  39
BRANCH  33  41
ATOM     41  N   UNL     1     -44.873  39.546  28.329  1.00  0.00    -0.302 N 
ATOM     42  C   UNL     1     -45.368  40.165  27.209  1.00  0.00     0.019 A 
ATOM     43  C   UNL     1     -43.715  40.172  28.719  1.00  0.00     0.148 A 
ATOM     44  C   UNL     1     -44.507  41.192  26.865  1.00  0.00     0.033 A 
ATOM     45  H   UNL     1     -46.264  39.805  26.720  1.00  0.00     0.083 H 
ATOM     46  C   UNL     1     -43.467  41.228  27.847  1.00  0.00     0.071 A 
ATOM     47  N   UNL     1     -42.966  39.804  29.773  1.00  0.00    -0.218 NA
ATOM     48  C   UNL     1     -42.326  42.001  28.127  1.00  0.00     0.137 A 
ATOM     49  C   UNL     1     -41.897  40.601  29.919  1.00  0.00     0.120 A 
ATOM     50  N   UNL     1     -41.537  41.655  29.165  1.00  0.00    -0.219 NA
ATOM     51  H   UNL     1     -41.238  40.368  30.750  1.00  0.00     0.106 H 
BRANCH  44  52
ATOM     52  C   UNL     1     -44.633  42.055  25.684  1.00  0.00     0.095 A 
ATOM     53  C   UNL     1     -43.824  41.951  24.529  1.00  0.00    -0.016 A 
ATOM     54  N   UNL     1     -45.501  43.073  25.586  1.00  0.00    -0.173 NA
ATOM     55  C   UNL     1     -44.250  42.961  23.699  1.00  0.00     0.025 A 
ATOM     56  H   UNL     1     -43.024  41.252  24.330  1.00  0.00     0.066 H 
ATOM     57  N   UNL     1     -45.248  43.598  24.373  1.00  0.00    -0.275 N 
ATOM     58  H   UNL     1     -43.920  43.276  22.720  1.00  0.00     0.084 H 
BRANCH  57  59
ATOM     59  C   UNL     1     -46.005  44.739  23.920  1.00  0.00     0.030 C 
ATOM     60  H   UNL     1     -46.964  44.746  24.446  1.00  0.00     0.048 H 
ATOM     61  H   UNL     1     -45.436  45.643  24.149  1.00  0.00     0.048 H 
ATOM     62  H   UNL     1     -46.170  44.664  22.843  1.00  0.00     0.048 H 
ENDBRANCH  57  59
ENDBRANCH  44  52
BRANCH  48  63
ATOM     63  N   UNL     1     -41.944  43.117  27.398  1.00  0.00    -0.383 N 
ATOM     64  H   UNL     1     -41.316  43.710  27.922  1.00  0.00     0.158 HD
ATOM     65  H   UNL     1     -41.675  42.883  26.438  1.00  0.00     0.158 HD
ENDBRANCH  48  63
ENDBRANCH  33  41
ENDBRANCH   1  29
TORSDOF 11
ENDMDL
MODEL 3
REMARK VINA RESULT:      -8.6      1.901      2.436
REMARK SMILES CCNc1ccc2ccc(OC[C@H]3O[C@@H](n4cc(-c5ccn(C)n5)c5c(N)ncnc54)[C@@H](F)[C@@H]3O)cc2n1
REMARK SMILES IDX 12 1 11 4 10 5 4 6 5 7 38 8 6 9 37 11 7 12 36 14 8 15 9 17
REMARK SMILES IDX 3 20 2 22 1 25 13 29 14 30 34 31 15 33 32 34 33 37 35 39
REMARK SMILES IDX 16 41 17 42 31 43 18 44 25 46 30 47 26 48 29 49 28 50 19 52
REMARK SMILES IDX 20 53 24 54 21 55 22 57 23 59 27 63
REMARK H PARENT 12 2 12 3 5 10 6 13 36 16 8 18 9 19 3 21 2 23 2 24 1 26 1 27
REMARK H PARENT 1 28 13 32 34 35 15 36 32 38 35 40 17 45 29 51 20 56 21 58
REMARK H PARENT 23 60 23 61 23 62 27 64 27 65
REMARK Flexibility Score: inf
ROOT
ATOM      1  C   UNL     1     -47.640  36.753  28.433  1.00  0.00     0.117 C 
ATOM      2  H   UNL     1     -48.179  37.642  28.785  1.00  0.00     0.073 H 
ATOM      3  H   UNL     1     -48.207  35.873  28.756  1.00  0.00     0.073 H 
ENDROOT
BRANCH   1   4
ATOM      4  O   UNL     1     -47.561  36.696  26.996  1.00  0.00    -0.491 OA
BRANCH   4   5
ATOM      5  C   UNL     1     -47.796  35.432  26.531  1.00  0.00     0.121 A 
ATOM      6  C   UNL     1     -46.339  31.627  24.094  1.00  0.00     0.126 A 
ATOM      7  C   UNL     1     -47.546  30.972  24.311  1.00  0.00    -0.019 A 
ATOM      8  N   UNL     1     -46.110  32.861  24.586  1.00  0.00    -0.231 NA
ATOM      9  C   UNL     1     -48.536  31.592  25.068  1.00  0.00    -0.049 A 
ATOM     10  H   UNL     1     -47.722  29.990  23.884  1.00  0.00     0.066 H 
ATOM     11  C   UNL     1     -47.063  33.468  25.315  1.00  0.00     0.076 A 
ATOM     12  C   UNL     1     -48.308  32.869  25.586  1.00  0.00     0.001 A 
ATOM     13  H   UNL     1     -49.479  31.080  25.237  1.00  0.00     0.063 H 
ATOM     14  C   UNL     1     -46.821  34.738  25.813  1.00  0.00     0.007 A 
ATOM     15  C   UNL     1     -49.275  33.550  26.350  1.00  0.00    -0.049 A 
ATOM     16  H   UNL     1     -45.852  35.192  25.633  1.00  0.00     0.069 H 
ATOM     17  C   UNL     1     -49.014  34.834  26.825  1.00  0.00    -0.019 A 
ATOM     18  H   UNL     1     -50.232  33.087  26.570  1.00  0.00     0.063 H 
ATOM     19  H   UNL     1     -49.758  35.365  27.412  1.00  0.00     0.066 H 
BRANCH   6  20
ATOM     20  N   UNL     1     -45.374  30.988  23.293  1.00  0.00    -0.370 N 
ATOM     21  H   UNL     1     -44.947  31.682  22.688  1.00  0.00     0.162 HD
BRANCH  20  22
ATOM     22  C   UNL     1     -45.891  29.852  22.531  1.00  0.00     0.013 C 
ATOM     23  H   UNL     1     -46.178  30.166  21.521  1.00  0.00     0.049 H 
ATOM     24  H   UNL     1     -46.766  29.414  23.022  1.00  0.00     0.049 H 
BRANCH  22  25
ATOM     25  C   UNL     1     -44.813  28.783  22.435  1.00  0.00    -0.048 C 
ATOM     26  H   UNL     1     -44.628  28.339  23.418  1.00  0.00     0.025 H 
ATOM     27  H   UNL     1     -45.111  27.985  21.748  1.00  0.00     0.025 H 
ATOM     28  H   UNL     1     -43.872  29.207  22.067  1.00  0.00     0.025 H 
ENDBRANCH  22  25
ENDBRANCH  20  22
ENDBRANCH   6  20
ENDBRANCH   4   5
ENDBRANCH   1   4
BRANCH   1  29
ATOM     29  C   UNL     1     -46.233  36.716  29.034  1.00  0.00     0.123 C 
ATOM     30  O   UNL     1     -45.261  37.246  28.110  1.00  0.00    -0.345 OA
ATOM     31  C   UNL     1     -46.126  37.579  30.281  1.00  0.00     0.119 C 
ATOM     32  H   UNL     1     -45.953  35.674  29.240  1.00  0.00     0.067 H 
ATOM     33  C   UNL     1     -44.263  37.976  28.869  1.00  0.00     0.169 C 
ATOM     34  C   UNL     1     -44.638  37.841  30.340  1.00  0.00     0.173 C 
ATOM     35  H   UNL     1     -46.673  38.523  30.173  1.00  0.00     0.066 H 
ATOM     36  H   UNL     1     -43.291  37.516  28.658  1.00  0.00     0.088 H 
ATOM     37  F   UNL     1     -44.404  38.951  31.079  1.00  0.00    -0.239 F 
ATOM     38  H   UNL     1     -44.110  37.003  30.811  1.00  0.00     0.074 H 
BRANCH  31  39
ATOM     39  O   UNL     1     -46.612  36.912  31.438  1.00  0.00    -0.387 OA
ATOM     40  H   UNL     1     -46.762  35.980  31.189  1.00  0.00     0.211 HD
ENDBRANCH  31  39
BRANCH  33  41
ATOM     41  N   UNL     1     -44.211  39.347  28.382  1.00  0.00    -0.302 N 
ATOM     42  C   UNL     1     -45.006  39.919  27.422  1.00  0.00     0.019 A 
ATOM     43  C   UNL     1     -43.290  40.268  28.816  1.00  0.00     0.148 A 
ATOM     44  C   UNL     1     -44.580  41.221  27.224  1.00  0.00     0.033 A 
ATOM     45  H   UNL     1     -45.782  39.351  26.925  1.00  0.00     0.083 H 
ATOM     46  C   UNL     1     -43.506  41.464  28.139  1.00  0.00     0.071 A 
ATOM     47  N   UNL     1     -42.347  40.026  29.744  1.00  0.00    -0.218 NA
ATOM     48  C   UNL     1     -42.662  42.532  28.493  1.00  0.00     0.137 A 
ATOM     49  C   UNL     1     -41.594  41.112  29.974  1.00  0.00     0.120 A 
ATOM     50  N   UNL     1     -41.691  42.326  29.406  1.00  0.00    -0.219 NA
ATOM     51  H   UNL     1     -40.806  40.998  30.712  1.00  0.00     0.106 H 
BRANCH  44  52
ATOM     52  C   UNL     1     -45.117  42.156  26.228  1.00  0.00     0.095 A 
ATOM     53  C   UNL     1     -44.512  42.427  24.980  1.00  0.00    -0.016 A 
ATOM     54  N   UNL     1     -46.221  42.896  26.411  1.00  0.00    -0.173 NA
ATOM     55  C   UNL     1     -45.315  43.374  24.388  1.00  0.00     0.025 A 
ATOM     56  H   UNL     1     -43.604  42.009  24.568  1.00  0.00     0.066 H 
ATOM     57  N   UNL     1     -46.316  43.619  25.280  1.00  0.00    -0.275 N 
ATOM     58  H   UNL     1     -45.244  43.890  23.442  1.00  0.00     0.084 H 
BRANCH  57  59
ATOM     59  C   UNL     1     -47.404  44.551  25.121  1.00  0.00     0.030 C 
ATOM     60  H   UNL     1     -48.129  44.119  24.426  1.00  0.00     0.048 H 
ATOM     61  H   UNL     1     -47.863  44.715  26.101  1.00  0.00     0.048 H 
ATOM     62  H   UNL     1     -47.023  45.496  24.726  1.00  0.00     0.048 H 
ENDBRANCH  57  59
ENDBRANCH  44  52
BRANCH  48  63
ATOM     63  N   UNL     1     -42.757  43.809  27.959  1.00  0.00    -0.383 N 
ATOM     64  H   UNL     1     -42.022  44.412  28.298  1.00  0.00     0.158 HD
ATOM     65  H   UNL     1     -42.924  43.798  26.948  1.00  0.00     0.158 HD
ENDBRANCH  48  63
ENDBRANCH  33  41
ENDBRANCH   1  29
TORSDOF 11
ENDMDL
MODEL 4
REMARK VINA RESULT:      -8.6      2.799      4.047
REMARK SMILES CCNc1ccc2ccc(OC[C@H]3O[C@@H](n4cc(-c5ccn(C)n5)c5c(N)ncnc54)[C@@H](F)[C@@H]3O)cc2n1
REMARK SMILES IDX 12 1 11 4 10 5 4 6 5 7 38 8 6 9 37 11 7 12 36 14 8 15 9 17
REMARK SMILES IDX 3 20 2 22 1 25 13 29 14 30 34 31 15 33 32 34 33 37 35 39
REMARK SMILES IDX 16 41 17 42 31 43 18 44 25 46 30 47 26 48 29 49 28 50 19 52
REMARK SMILES IDX 20 53 24 54 21 55 22 57 23 59 27 63
REMARK H PARENT 12 2 12 3 5 10 6 13 36 16 8 18 9 19 3 21 2 23 2 24 1 26 1 27
REMARK H PARENT 1 28 13 32 34 35 15 36 32 38 35 40 17 45 29 51 20 56 21 58
REMARK H PARENT 23 60 23 61 23 62 27 64 27 65
REMARK Flexibility Score: inf
ROOT
ATOM      1  C   UNL     1     -46.959  34.681  27.349  1.00  0.00     0.117 C 
ATOM      2  H   UNL     1     -47.482  35.331  26.634  1.00  0.00     0.073 H 
ATOM      3  H   UNL     1     -47.704  34.308  28.061  1.00  0.00     0.073 H 
ENDROOT
BRANCH   1   4
ATOM      4  O   UNL     1     -46.375  33.529  26.713  1.00  0.00    -0.491 OA
BRANCH   4   5
ATOM      5  C   UNL     1     -47.272  32.896  25.898  1.00  0.00     0.121 A 
ATOM      6  C   UNL     1     -48.253  30.717  21.796  1.00  0.00     0.126 A 
ATOM      7  C   UNL     1     -49.588  30.558  22.149  1.00  0.00    -0.019 A 
ATOM      8  N   UNL     1     -47.373  31.314  22.623  1.00  0.00    -0.231 NA
ATOM      9  C   UNL     1     -50.026  31.009  23.391  1.00  0.00    -0.049 A 
ATOM     10  H   UNL     1     -50.288  30.099  21.459  1.00  0.00     0.066 H 
ATOM     11  C   UNL     1     -47.789  31.756  23.823  1.00  0.00     0.076 A 
ATOM     12  C   UNL     1     -49.122  31.627  24.258  1.00  0.00     0.001 A 
ATOM     13  H   UNL     1     -51.070  30.886  23.667  1.00  0.00     0.063 H 
ATOM     14  C   UNL     1     -46.879  32.374  24.665  1.00  0.00     0.007 A 
ATOM     15  C   UNL     1     -49.509  32.112  25.521  1.00  0.00    -0.049 A 
ATOM     16  H   UNL     1     -45.844  32.449  24.348  1.00  0.00     0.069 H 
ATOM     17  C   UNL     1     -48.578  32.745  26.343  1.00  0.00    -0.019 A 
ATOM     18  H   UNL     1     -50.534  32.005  25.865  1.00  0.00     0.063 H 
ATOM     19  H   UNL     1     -48.873  33.125  27.318  1.00  0.00     0.066 H 
BRANCH   6  20
ATOM     20  N   UNL     1     -47.851  30.283  20.519  1.00  0.00    -0.370 N 
ATOM     21  H   UNL     1     -46.965  29.793  20.609  1.00  0.00     0.162 HD
BRANCH  20  22
ATOM     22  C   UNL     1     -47.777  31.351  19.523  1.00  0.00     0.013 C 
ATOM     23  H   UNL     1     -48.465  32.165  19.782  1.00  0.00     0.049 H 
ATOM     24  H   UNL     1     -48.038  30.980  18.527  1.00  0.00     0.049 H 
BRANCH  22  25
ATOM     25  C   UNL     1     -46.357  31.892  19.476  1.00  0.00    -0.048 C 
ATOM     26  H   UNL     1     -45.991  31.912  18.444  1.00  0.00     0.025 H 
ATOM     27  H   UNL     1     -46.311  32.910  19.876  1.00  0.00     0.025 H 
ATOM     28  H   UNL     1     -45.679  31.268  20.069  1.00  0.00     0.025 H 
ENDBRANCH  22  25
ENDBRANCH  20  22
ENDBRANCH   6  20
ENDBRANCH   4   5
ENDBRANCH   1   4
BRANCH   1  29
ATOM     29  C   UNL     1     -45.880  35.472  28.090  1.00  0.00     0.123 C 
ATOM     30  O   UNL     1     -45.453  36.614  27.319  1.00  0.00    -0.345 OA
ATOM     31  C   UNL     1     -46.392  36.036  29.407  1.00  0.00     0.119 C 
ATOM     32  H   UNL     1     -45.000  34.833  28.241  1.00  0.00     0.067 H 
ATOM     33  C   UNL     1     -45.185  37.706  28.235  1.00  0.00     0.169 C 
ATOM     34  C   UNL     1     -45.427  37.175  29.643  1.00  0.00     0.173 C 
ATOM     35  H   UNL     1     -47.415  36.417  29.317  1.00  0.00     0.066 H 
ATOM     36  H   UNL     1     -44.140  38.004  28.092  1.00  0.00     0.088 H 
ATOM     37  F   UNL     1     -45.988  38.072  30.488  1.00  0.00    -0.239 F 
ATOM     38  H   UNL     1     -44.497  36.814  30.099  1.00  0.00     0.074 H 
BRANCH  31  39
ATOM     39  O   UNL     1     -46.367  35.069  30.449  1.00  0.00    -0.387 OA
ATOM     40  H   UNL     1     -46.551  34.203  30.039  1.00  0.00     0.211 HD
ENDBRANCH  31  39
BRANCH  33  41
ATOM     41  N   UNL     1     -46.016  38.844  27.867  1.00  0.00    -0.302 N 
ATOM     42  C   UNL     1     -47.351  39.018  28.133  1.00  0.00     0.019 A 
ATOM     43  C   UNL     1     -45.555  39.913  27.140  1.00  0.00     0.148 A 
ATOM     44  C   UNL     1     -47.757  40.208  27.554  1.00  0.00     0.033 A 
ATOM     45  H   UNL     1     -47.918  38.270  28.672  1.00  0.00     0.083 H 
ATOM     46  C   UNL     1     -46.606  40.805  26.949  1.00  0.00     0.071 A 
ATOM     47  N   UNL     1     -44.292  40.048  26.700  1.00  0.00    -0.218 NA
ATOM     48  C   UNL     1     -46.292  41.982  26.246  1.00  0.00     0.137 A 
ATOM     49  C   UNL     1     -44.127  41.196  26.024  1.00  0.00     0.120 A 
ATOM     50  N   UNL     1     -45.041  42.149  25.771  1.00  0.00    -0.219 NA
ATOM     51  H   UNL     1     -43.132  41.380  25.633  1.00  0.00     0.106 H 
BRANCH  44  52
ATOM     52  C   UNL     1     -49.129  40.730  27.541  1.00  0.00     0.095 A 
ATOM     53  C   UNL     1     -50.100  40.448  28.530  1.00  0.00    -0.016 A 
ATOM     54  N   UNL     1     -49.631  41.497  26.563  1.00  0.00    -0.173 NA
ATOM     55  C   UNL     1     -51.237  41.098  28.113  1.00  0.00     0.025 A 
ATOM     56  H   UNL     1     -49.998  39.839  29.417  1.00  0.00     0.066 H 
ATOM     57  N   UNL     1     -50.907  41.706  26.939  1.00  0.00    -0.275 N 
ATOM     58  H   UNL     1     -52.229  41.159  28.537  1.00  0.00     0.084 H 
BRANCH  57  59
ATOM     59  C   UNL     1     -51.772  42.504  26.106  1.00  0.00     0.030 C 
ATOM     60  H   UNL     1     -51.155  43.211  25.545  1.00  0.00     0.048 H 
ATOM     61  H   UNL     1     -52.305  41.835  25.425  1.00  0.00     0.048 H 
ATOM     62  H   UNL     1     -52.486  43.045  26.732  1.00  0.00     0.048 H 
ENDBRANCH  57  59
ENDBRANCH  44  52
BRANCH  48  63
ATOM     63  N   UNL     1     -47.195  43.005  25.999  1.00  0.00    -0.383 N 
ATOM     64  H   UNL     1     -47.088  43.766  26.654  1.00  0.00     0.158 HD
ATOM     65  H   UNL     1     -47.248  43.248  25.005  1.00  0.00     0.158 HD
ENDBRANCH  48  63
ENDBRANCH  33  41
ENDBRANCH   1  29
TORSDOF 11
ENDMDL
MODEL 5
REMARK VINA RESULT:      -8.5      2.707      3.661
REMARK SMILES CCNc1ccc2ccc(OC[C@H]3O[C@@H](n4cc(-c5ccn(C)n5)c5c(N)ncnc54)[C@@H](F)[C@@H]3O)cc2n1
REMARK SMILES IDX 12 1 11 4 10 5 4 6 5 7 38 8 6 9 37 11 7 12 36 14 8 15 9 17
REMARK SMILES IDX 3 20 2 22 1 25 13 29 14 30 34 31 15 33 32 34 33 37 35 39
REMARK SMILES IDX 16 41 17 42 31 43 18 44 25 46 30 47 26 48 29 49 28 50 19 52
REMARK SMILES IDX 20 53 24 54 21 55 22 57 23 59 27 63
REMARK H PARENT 12 2 12 3 5 10 6 13 36 16 8 18 9 19 3 21 2 23 2 24 1 26 1 27
REMARK H PARENT 1 28 13 32 34 35 15 36 32 38 35 40 17 45 29 51 20 56 21 58
REMARK H PARENT 23 60 23 61 23 62 27 64 27 65
REMARK Flexibility Score: inf
ROOT
ATOM      1  C   UNL     1     -47.292  34.740  26.862  1.00  0.00     0.117 C 
ATOM      2  H   UNL     1     -47.171  34.860  25.777  1.00  0.00     0.073 H 
ATOM      3  H   UNL     1     -48.261  35.171  27.135  1.00  0.00     0.073 H 
ENDROOT
BRANCH   1   4
ATOM      4  O   UNL     1     -47.324  33.356  27.258  1.00  0.00    -0.491 OA
BRANCH   4   5
ATOM      5  C   UNL     1     -47.327  32.524  26.173  1.00  0.00     0.121 A 
ATOM      6  C   UNL     1     -49.053  28.702  23.947  1.00  0.00     0.126 A 
ATOM      7  C   UNL     1     -48.178  28.875  22.880  1.00  0.00    -0.019 A 
ATOM      8  N   UNL     1     -49.059  29.550  24.994  1.00  0.00    -0.231 NA
ATOM      9  C   UNL     1     -47.299  29.955  22.882  1.00  0.00    -0.049 A 
ATOM     10  H   UNL     1     -48.168  28.167  22.058  1.00  0.00     0.066 H 
ATOM     11  C   UNL     1     -48.212  30.593  25.005  1.00  0.00     0.076 A 
ATOM     12  C   UNL     1     -47.301  30.841  23.961  1.00  0.00     0.001 A 
ATOM     13  H   UNL     1     -46.615  30.089  22.048  1.00  0.00     0.063 H 
ATOM     14  C   UNL     1     -48.222  31.456  26.088  1.00  0.00     0.007 A 
ATOM     15  C   UNL     1     -46.429  31.945  24.023  1.00  0.00    -0.049 A 
ATOM     16  H   UNL     1     -48.943  31.288  26.882  1.00  0.00     0.069 H 
ATOM     17  C   UNL     1     -46.447  32.790  25.132  1.00  0.00    -0.019 A 
ATOM     18  H   UNL     1     -45.732  32.146  23.214  1.00  0.00     0.063 H 
ATOM     19  H   UNL     1     -45.774  33.640  25.187  1.00  0.00     0.066 H 
BRANCH   6  20
ATOM     20  N   UNL     1     -49.901  27.579  23.931  1.00  0.00    -0.370 N 
ATOM     21  H   UNL     1     -50.711  27.797  23.358  1.00  0.00     0.162 HD
BRANCH  20  22
ATOM     22  C   UNL     1     -50.289  27.108  25.259  1.00  0.00     0.013 C 
ATOM     23  H   UNL     1     -51.317  26.728  25.247  1.00  0.00     0.049 H 
ATOM     24  H   UNL     1     -50.226  27.914  25.997  1.00  0.00     0.049 H 
BRANCH  22  25
ATOM     25  C   UNL     1     -49.348  25.992  25.688  1.00  0.00    -0.048 C 
ATOM     26  H   UNL     1     -49.187  26.025  26.770  1.00  0.00     0.025 H 
ATOM     27  H   UNL     1     -49.760  25.011  25.431  1.00  0.00     0.025 H 
ATOM     28  H   UNL     1     -48.376  26.088  25.193  1.00  0.00     0.025 H 
ENDBRANCH  22  25
ENDBRANCH  20  22
ENDBRANCH   6  20
ENDBRANCH   4   5
ENDBRANCH   1   4
BRANCH   1  29
ATOM     29  C   UNL     1     -46.170  35.469  27.603  1.00  0.00     0.123 C 
ATOM     30  O   UNL     1     -45.860  36.726  26.965  1.00  0.00    -0.345 OA
ATOM     31  C   UNL     1     -46.566  35.821  29.029  1.00  0.00     0.119 C 
ATOM     32  H   UNL     1     -45.259  34.857  27.577  1.00  0.00     0.067 H 
ATOM     33  C   UNL     1     -45.537  37.692  27.998  1.00  0.00     0.169 C 
ATOM     34  C   UNL     1     -45.620  36.961  29.333  1.00  0.00     0.173 C 
ATOM     35  H   UNL     1     -47.605  36.164  29.091  1.00  0.00     0.066 H 
ATOM     36  H   UNL     1     -44.522  38.055  27.801  1.00  0.00     0.088 H 
ATOM     37  F   UNL     1     -46.122  37.704  30.346  1.00  0.00    -0.239 F 
ATOM     38  H   UNL     1     -44.638  36.583  29.643  1.00  0.00     0.074 H 
BRANCH  31  39
ATOM     39  O   UNL     1     -46.405  34.722  29.915  1.00  0.00    -0.387 OA
ATOM     40  H   UNL     1     -46.267  35.093  30.808  1.00  0.00     0.211 HD
ENDBRANCH  31  39
BRANCH  33  41
ATOM     41  N   UNL     1     -46.438  38.830  27.877  1.00  0.00    -0.302 N 
ATOM     42  C   UNL     1     -47.683  38.968  28.435  1.00  0.00     0.019 A 
ATOM     43  C   UNL     1     -46.154  39.940  27.120  1.00  0.00     0.148 A 
ATOM     44  C   UNL     1     -48.215  40.175  28.017  1.00  0.00     0.033 A 
ATOM     45  H   UNL     1     -48.113  38.185  29.046  1.00  0.00     0.083 H 
ATOM     46  C   UNL     1     -47.228  40.821  27.206  1.00  0.00     0.071 A 
ATOM     47  N   UNL     1     -45.019  40.119  26.423  1.00  0.00    -0.218 NA
ATOM     48  C   UNL     1     -47.085  42.035  26.511  1.00  0.00     0.137 A 
ATOM     49  C   UNL     1     -45.014  41.300  25.786  1.00  0.00     0.120 A 
ATOM     50  N   UNL     1     -45.968  42.246  25.784  1.00  0.00    -0.219 NA
ATOM     51  H   UNL     1     -44.129  41.520  25.197  1.00  0.00     0.106 H 
BRANCH  44  52
ATOM     52  C   UNL     1     -49.561  40.672  28.329  1.00  0.00     0.095 A 
ATOM     53  C   UNL     1     -50.657  40.620  27.437  1.00  0.00    -0.016 A 
ATOM     54  N   UNL     1     -49.891  41.275  29.480  1.00  0.00    -0.173 NA
ATOM     55  C   UNL     1     -51.697  41.218  28.110  1.00  0.00     0.025 A 
ATOM     56  H   UNL     1     -50.688  40.222  26.433  1.00  0.00     0.066 H 
ATOM     57  N   UNL     1     -51.190  41.590  29.318  1.00  0.00    -0.275 N 
ATOM     58  H   UNL     1     -52.719  41.417  27.824  1.00  0.00     0.084 H 
BRANCH  57  59
ATOM     59  C   UNL     1     -51.894  42.269  30.378  1.00  0.00     0.030 C 
ATOM     60  H   UNL     1     -51.790  41.681  31.293  1.00  0.00     0.048 H 
ATOM     61  H   UNL     1     -51.450  43.260  30.506  1.00  0.00     0.048 H 
ATOM     62  H   UNL     1     -52.949  42.366  30.113  1.00  0.00     0.048 H 
ENDBRANCH  57  59
ENDBRANCH  44  52
BRANCH  48  63
ATOM     63  N   UNL     1     -48.028  43.051  26.517  1.00  0.00    -0.383 N 
ATOM     64  H   UNL     1     -48.970  42.688  26.507  1.00  0.00     0.158 HD
ATOM     65  H   UNL     1     -47.814  43.778  27.206  1.00  0.00     0.158 HD
ENDBRANCH  48  63
ENDBRANCH  33  41
ENDBRANCH   1  29
TORSDOF 11
ENDMDL
MODEL 6
REMARK VINA RESULT:      -8.4      2.812      4.801
REMARK SMILES CCNc1ccc2ccc(OC[C@H]3O[C@@H](n4cc(-c5ccn(C)n5)c5c(N)ncnc54)[C@@H](F)[C@@H]3O)cc2n1
REMARK SMILES IDX 12 1 11 4 10 5 4 6 5 7 38 8 6 9 37 11 7 12 36 14 8 15 9 17
REMARK SMILES IDX 3 20 2 22 1 25 13 29 14 30 34 31 15 33 32 34 33 37 35 39
REMARK SMILES IDX 16 41 17 42 31 43 18 44 25 46 30 47 26 48 29 49 28 50 19 52
REMARK SMILES IDX 20 53 24 54 21 55 22 57 23 59 27 63
REMARK H PARENT 12 2 12 3 5 10 6 13 36 16 8 18 9 19 3 21 2 23 2 24 1 26 1 27
REMARK H PARENT 1 28 13 32 34 35 15 36 32 38 35 40 17 45 29 51 20 56 21 58
REMARK H PARENT 23 60 23 61 23 62 27 64 27 65
REMARK Flexibility Score: inf
ROOT
ATOM      1  C   UNL     1     -46.252  38.642  28.312  1.00  0.00     0.117 C 
ATOM      2  H   UNL     1     -47.035  38.677  27.543  1.00  0.00     0.073 H 
ATOM      3  H   UNL     1     -46.540  39.337  29.108  1.00  0.00     0.073 H 
ENDROOT
BRANCH   1   4
ATOM      4  O   UNL     1     -46.136  37.340  28.916  1.00  0.00    -0.491 OA
BRANCH   4   5
ATOM      5  C   UNL     1     -46.751  36.381  28.161  1.00  0.00     0.121 A 
ATOM      6  C   UNL     1     -46.452  32.651  25.238  1.00  0.00     0.126 A 
ATOM      7  C   UNL     1     -47.835  32.582  25.114  1.00  0.00    -0.019 A 
ATOM      8  N   UNL     1     -45.861  33.583  26.012  1.00  0.00    -0.231 NA
ATOM      9  C   UNL     1     -48.632  33.483  25.816  1.00  0.00    -0.049 A 
ATOM     10  H   UNL     1     -48.292  31.843  24.466  1.00  0.00     0.066 H 
ATOM     11  C   UNL     1     -46.624  34.459  26.690  1.00  0.00     0.076 A 
ATOM     12  C   UNL     1     -48.030  34.451  26.623  1.00  0.00     0.001 A 
ATOM     13  H   UNL     1     -49.713  33.429  25.717  1.00  0.00     0.063 H 
ATOM     14  C   UNL     1     -46.008  35.416  27.478  1.00  0.00     0.007 A 
ATOM     15  C   UNL     1     -48.783  35.394  27.348  1.00  0.00    -0.049 A 
ATOM     16  H   UNL     1     -44.925  35.409  27.558  1.00  0.00     0.069 H 
ATOM     17  C   UNL     1     -48.139  36.358  28.121  1.00  0.00    -0.019 A 
ATOM     18  H   UNL     1     -49.869  35.384  27.307  1.00  0.00     0.063 H 
ATOM     19  H   UNL     1     -48.715  37.091  28.679  1.00  0.00     0.066 H 
BRANCH   6  20
ATOM     20  N   UNL     1     -45.675  31.750  24.487  1.00  0.00    -0.370 N 
ATOM     21  H   UNL     1     -44.971  32.278  23.979  1.00  0.00     0.162 HD
BRANCH  20  22
ATOM     22  C   UNL     1     -46.454  30.892  23.595  1.00  0.00     0.013 C 
ATOM     23  H   UNL     1     -47.506  31.200  23.589  1.00  0.00     0.049 H 
ATOM     24  H   UNL     1     -46.399  29.845  23.908  1.00  0.00     0.049 H 
BRANCH  22  25
ATOM     25  C   UNL     1     -45.895  30.999  22.185  1.00  0.00    -0.048 C 
ATOM     26  H   UNL     1     -46.632  30.649  21.455  1.00  0.00     0.025 H 
ATOM     27  H   UNL     1     -45.636  32.035  21.942  1.00  0.00     0.025 H 
ATOM     28  H   UNL     1     -44.989  30.393  22.075  1.00  0.00     0.025 H 
ENDBRANCH  22  25
ENDBRANCH  20  22
ENDBRANCH   6  20
ENDBRANCH   4   5
ENDBRANCH   1   4
BRANCH   1  29
ATOM     29  C   UNL     1     -44.906  39.062  27.716  1.00  0.00     0.123 C 
ATOM     30  O   UNL     1     -45.077  39.626  26.399  1.00  0.00    -0.345 OA
ATOM     31  C   UNL     1     -44.234  40.148  28.542  1.00  0.00     0.119 C 
ATOM     32  H   UNL     1     -44.263  38.179  27.612  1.00  0.00     0.067 H 
ATOM     33  C   UNL     1     -44.122  40.707  26.240  1.00  0.00     0.169 C 
ATOM     34  C   UNL     1     -43.303  40.769  27.524  1.00  0.00     0.173 C 
ATOM     35  H   UNL     1     -44.954  40.892  28.902  1.00  0.00     0.066 H 
ATOM     36  H   UNL     1     -43.495  40.464  25.375  1.00  0.00     0.088 H 
ATOM     37  F   UNL     1     -42.978  42.022  27.918  1.00  0.00    -0.239 F 
ATOM     38  H   UNL     1     -42.377  40.189  27.435  1.00  0.00     0.074 H 
BRANCH  31  39
ATOM     39  O   UNL     1     -43.544  39.617  29.665  1.00  0.00    -0.387 OA
ATOM     40  H   UNL     1     -44.119  39.750  30.443  1.00  0.00     0.211 HD
ENDBRANCH  31  39
BRANCH  33  41
ATOM     41  N   UNL     1     -44.845  41.931  25.925  1.00  0.00    -0.302 N 
ATOM     42  C   UNL     1     -46.149  42.229  26.232  1.00  0.00     0.019 A 
ATOM     43  C   UNL     1     -44.298  42.970  25.215  1.00  0.00     0.148 A 
ATOM     44  C   UNL     1     -46.448  43.468  25.696  1.00  0.00     0.033 A 
ATOM     45  H   UNL     1     -46.774  41.525  26.766  1.00  0.00     0.083 H 
ATOM     46  C   UNL     1     -45.259  43.967  25.076  1.00  0.00     0.071 A 
ATOM     47  N   UNL     1     -43.039  42.993  24.744  1.00  0.00    -0.218 NA
ATOM     48  C   UNL     1     -44.847  45.127  24.395  1.00  0.00     0.137 A 
ATOM     49  C   UNL     1     -42.777  44.138  24.095  1.00  0.00     0.120 A 
ATOM     50  N   UNL     1     -43.597  45.183  23.891  1.00  0.00    -0.219 NA
ATOM     51  H   UNL     1     -41.778  44.233  23.681  1.00  0.00     0.106 H 
BRANCH  44  52
ATOM     52  C   UNL     1     -47.762  44.124  25.734  1.00  0.00     0.095 A 
ATOM     53  C   UNL     1     -48.588  44.189  26.879  1.00  0.00    -0.016 A 
ATOM     54  N   UNL     1     -48.348  44.694  24.671  1.00  0.00    -0.173 NA
ATOM     55  C   UNL     1     -49.723  44.849  26.467  1.00  0.00     0.025 A 
ATOM     56  H   UNL     1     -48.399  43.795  27.868  1.00  0.00     0.066 H 
ATOM     57  N   UNL     1     -49.531  45.126  25.147  1.00  0.00    -0.275 N 
ATOM     58  H   UNL     1     -50.630  45.117  26.989  1.00  0.00     0.084 H 
BRANCH  57  59
ATOM     59  C   UNL     1     -50.449  45.800  24.264  1.00  0.00     0.030 C 
ATOM     60  H   UNL     1     -51.128  45.055  23.839  1.00  0.00     0.048 H 
ATOM     61  H   UNL     1     -51.007  46.539  24.845  1.00  0.00     0.048 H 
ATOM     62  H   UNL     1     -49.892  46.297  23.466  1.00  0.00     0.048 H 
ENDBRANCH  57  59
ENDBRANCH  44  52
BRANCH  48  63
ATOM     63  N   UNL     1     -45.650  46.241  24.200  1.00  0.00    -0.383 N 
ATOM     64  H   UNL     1     -46.603  46.071  24.489  1.00  0.00     0.158 HD
ATOM     65  H   UNL     1     -45.208  47.103  24.531  1.00  0.00     0.158 HD
ENDBRANCH  48  63
ENDBRANCH  33  41
ENDBRANCH   1  29
TORSDOF 11
ENDMDL
MODEL 7
REMARK VINA RESULT:      -7.9      5.116      9.071
REMARK SMILES CCNc1ccc2ccc(OC[C@H]3O[C@@H](n4cc(-c5ccn(C)n5)c5c(N)ncnc54)[C@@H](F)[C@@H]3O)cc2n1
REMARK SMILES IDX 12 1 11 4 10 5 4 6 5 7 38 8 6 9 37 11 7 12 36 14 8 15 9 17
REMARK SMILES IDX 3 20 2 22 1 25 13 29 14 30 34 31 15 33 32 34 33 37 35 39
REMARK SMILES IDX 16 41 17 42 31 43 18 44 25 46 30 47 26 48 29 49 28 50 19 52
REMARK SMILES IDX 20 53 24 54 21 55 22 57 23 59 27 63
REMARK H PARENT 12 2 12 3 5 10 6 13 36 16 8 18 9 19 3 21 2 23 2 24 1 26 1 27
REMARK H PARENT 1 28 13 32 34 35 15 36 32 38 35 40 17 45 29 51 20 56 21 58
REMARK H PARENT 23 60 23 61 23 62 27 64 27 65
REMARK Flexibility Score: inf
ROOT
ATOM      1  C   UNL     1     -43.228  43.013  25.489  1.00  0.00     0.117 C 
ATOM      2  H   UNL     1     -42.480  42.705  24.746  1.00  0.00     0.073 H 
ATOM      3  H   UNL     1     -43.939  42.188  25.604  1.00  0.00     0.073 H 
ENDROOT
BRANCH   1   4
ATOM      4  O   UNL     1     -42.646  43.248  26.784  1.00  0.00    -0.491 OA
BRANCH   4   5
ATOM      5  C   UNL     1     -42.832  42.181  27.619  1.00  0.00     0.121 A 
ATOM      6  C   UNL     1     -45.221  38.241  28.762  1.00  0.00     0.126 A 
ATOM      7  C   UNL     1     -44.455  38.056  29.906  1.00  0.00    -0.019 A 
ATOM      8  N   UNL     1     -45.006  39.280  27.932  1.00  0.00    -0.231 NA
ATOM      9  C   UNL     1     -43.429  38.952  30.197  1.00  0.00    -0.049 A 
ATOM     10  H   UNL     1     -44.661  37.229  30.577  1.00  0.00     0.066 H 
ATOM     11  C   UNL     1     -44.019  40.152  28.207  1.00  0.00     0.076 A 
ATOM     12  C   UNL     1     -43.195  40.030  29.341  1.00  0.00     0.001 A 
ATOM     13  H   UNL     1     -42.831  38.807  31.092  1.00  0.00     0.063 H 
ATOM     14  C   UNL     1     -43.808  41.220  27.351  1.00  0.00     0.007 A 
ATOM     15  C   UNL     1     -42.179  40.973  29.588  1.00  0.00    -0.049 A 
ATOM     16  H   UNL     1     -44.420  41.302  26.458  1.00  0.00     0.069 H 
ATOM     17  C   UNL     1     -41.997  42.049  28.720  1.00  0.00    -0.019 A 
ATOM     18  H   UNL     1     -41.533  40.877  30.457  1.00  0.00     0.063 H 
ATOM     19  H   UNL     1     -41.217  42.782  28.909  1.00  0.00     0.066 H 
BRANCH   6  20
ATOM     20  N   UNL     1     -46.274  37.339  28.518  1.00  0.00    -0.370 N 
ATOM     21  H   UNL     1     -46.535  36.904  29.398  1.00  0.00     0.162 HD
BRANCH  20  22
ATOM     22  C   UNL     1     -45.977  36.343  27.490  1.00  0.00     0.013 C 
ATOM     23  H   UNL     1     -44.980  36.512  27.067  1.00  0.00     0.049 H 
ATOM     24  H   UNL     1     -46.711  36.383  26.678  1.00  0.00     0.049 H 
BRANCH  22  25
ATOM     25  C   UNL     1     -46.028  34.955  28.111  1.00  0.00    -0.048 C 
ATOM     26  H   UNL     1     -45.352  34.276  27.581  1.00  0.00     0.025 H 
ATOM     27  H   UNL     1     -45.729  34.984  29.163  1.00  0.00     0.025 H 
ATOM     28  H   UNL     1     -47.040  34.540  28.061  1.00  0.00     0.025 H 
ENDBRANCH  22  25
ENDBRANCH  20  22
ENDBRANCH   6  20
ENDBRANCH   4   5
ENDBRANCH   1   4
BRANCH   1  29
ATOM     29  C   UNL     1     -43.961  44.269  25.011  1.00  0.00     0.123 C 
ATOM     30  O   UNL     1     -45.183  43.925  24.326  1.00  0.00    -0.345 OA
ATOM     31  C   UNL     1     -44.379  45.158  26.171  1.00  0.00     0.119 C 
ATOM     32  H   UNL     1     -43.327  44.809  24.296  1.00  0.00     0.067 H 
ATOM     33  C   UNL     1     -46.183  44.925  24.651  1.00  0.00     0.169 C 
ATOM     34  C   UNL     1     -45.508  45.952  25.553  1.00  0.00     0.173 C 
ATOM     35  H   UNL     1     -44.747  44.574  27.022  1.00  0.00     0.066 H 
ATOM     36  H   UNL     1     -46.514  45.375  23.708  1.00  0.00     0.088 H 
ATOM     37  F   UNL     1     -46.303  46.442  26.532  1.00  0.00    -0.239 F 
ATOM     38  H   UNL     1     -45.121  46.799  24.974  1.00  0.00     0.074 H 
BRANCH  31  39
ATOM     39  O   UNL     1     -43.313  45.982  26.625  1.00  0.00    -0.387 OA
ATOM     40  H   UNL     1     -42.507  45.431  26.626  1.00  0.00     0.211 HD
ENDBRANCH  31  39
BRANCH  33  41
ATOM     41  N   UNL     1     -47.335  44.263  25.246  1.00  0.00    -0.302 N 
ATOM     42  C   UNL     1     -47.326  43.221  26.139  1.00  0.00     0.019 A 
ATOM     43  C   UNL     1     -48.634  44.589  24.943  1.00  0.00     0.148 A 
ATOM     44  C   UNL     1     -48.636  42.861  26.399  1.00  0.00     0.033 A 
ATOM     45  H   UNL     1     -46.397  42.789  26.486  1.00  0.00     0.083 H 
ATOM     46  C   UNL     1     -49.480  43.756  25.667  1.00  0.00     0.071 A 
ATOM     47  N   UNL     1     -48.997  45.558  24.085  1.00  0.00    -0.218 NA
ATOM     48  C   UNL     1     -50.858  43.982  25.497  1.00  0.00     0.137 A 
ATOM     49  C   UNL     1     -50.332  45.658  23.991  1.00  0.00     0.120 A 
ATOM     50  N   UNL     1     -51.265  44.932  24.631  1.00  0.00    -0.219 NA
ATOM     51  H   UNL     1     -50.707  46.418  23.314  1.00  0.00     0.106 H 
BRANCH  44  52
ATOM     52  C   UNL     1     -49.065  41.741  27.246  1.00  0.00     0.095 A 
ATOM     53  C   UNL     1     -48.378  40.510  27.349  1.00  0.00    -0.016 A 
ATOM     54  N   UNL     1     -50.186  41.742  27.983  1.00  0.00    -0.173 NA
ATOM     55  C   UNL     1     -49.133  39.747  28.208  1.00  0.00     0.025 A 
ATOM     56  H   UNL     1     -47.466  40.206  26.854  1.00  0.00     0.066 H 
ATOM     57  N   UNL     1     -50.197  40.524  28.555  1.00  0.00    -0.275 N 
ATOM     58  H   UNL     1     -49.011  38.737  28.572  1.00  0.00     0.084 H 
BRANCH  57  59
ATOM     59  C   UNL     1     -51.283  40.160  29.431  1.00  0.00     0.030 C 
ATOM     60  H   UNL     1     -51.113  39.140  29.785  1.00  0.00     0.048 H 
ATOM     61  H   UNL     1     -51.297  40.860  30.271  1.00  0.00     0.048 H 
ATOM     62  H   UNL     1     -52.227  40.215  28.885  1.00  0.00     0.048 H 
ENDBRANCH  57  59
ENDBRANCH  44  52
BRANCH  48  63
ATOM     63  N   UNL     1     -51.850  43.283  26.169  1.00  0.00    -0.383 N 
ATOM     64  H   UNL     1     -51.477  42.487  26.666  1.00  0.00     0.158 HD
ATOM     65  H   UNL     1     -52.483  43.902  26.684  1.00  0.00     0.158 HD
ENDBRANCH  48  63
ENDBRANCH  33  41
ENDBRANCH   1  29
TORSDOF 11
ENDMDL
